REMARK SMILES CC(C)N(CC(=O)NCCCNC(=O)c1ccc(-c2c3nc(c(-c4c(F)cc(S(=O)(=O)[O-])cc4F)c4ccc([nH]4)c(-c4c(F)cc(S(=O)(=O)[O-])cc4F)c4nc(c(-c5c(F)cc(S(=O)(=O)[O-])cc5F)c5ccc2[nH]5)C=C4)C=C3)cc1)C(=O)NC1C(C)(C)C1(C)C
REMARK SMILES IDX 10 1 9 2 8 3 6 4 7 5 5 7 4 8 2 9 1 10 3 11 81 12 82 13 83 14
REMARK SMILES IDX 84 16 85 17 88 18 86 19 87 20 89 21 90 22 11 23 12 24 13 25
REMARK SMILES IDX 14 27 15 28 16 29 80 30 17 31 79 32 18 33 19 34 20 35 73 36
REMARK SMILES IDX 21 37 78 38 72 39 74 40 22 41 77 42 71 43 70 44 23 46 57 47
REMARK SMILES IDX 36 48 56 49 37 50 40 51 55 52 75 53 38 54 39 55 54 57 76 58
REMARK SMILES IDX 41 59 24 60 25 61 34 62 26 63 27 64 33 65 35 66 28 67 29 68
REMARK SMILES IDX 30 69 31 70 32 71 58 72 59 73 68 74 60 75 61 76 67 77 69 78
REMARK SMILES IDX 62 79 63 80 64 81 65 82 66 83 42 84 43 85 52 86 44 87 45 88
REMARK SMILES IDX 51 89 53 90 46 91 47 92 48 93 49 94 50 95
REMARK H PARENT 8 6 83 15 12 26 74 45 40 56
REMARK Flexibility Score: inf
ROOT
ATOM      1  C   UNL     1      -0.305   4.127  -2.730  1.00  0.00     0.042 C 
ENDROOT
BRANCH   1   2
ATOM      2  C   UNL     1      -0.143   4.504  -1.262  1.00  0.00     0.117 C 
BRANCH   2   3
ATOM      3  N   UNL     1      -1.377   4.540  -0.506  1.00  0.00    -0.354 N 
ATOM      4  C   UNL     1      -1.803   3.702   0.480  1.00  0.00     0.239 C 
ATOM      5  O   UNL     1      -2.561   4.184   1.333  1.00  0.00    -0.273 OA
ATOM      6  H   UNL     1      -1.994   5.272  -0.737  1.00  0.00     0.163 HD
BRANCH   4   7
ATOM      7  C   UNL     1      -1.244   2.291   0.688  1.00  0.00     0.221 C 
BRANCH   7   8
ATOM      8  N   UNL     1      -0.890   1.458  -0.462  1.00  0.00    -0.313 N 
BRANCH   8   9
ATOM      9  C   UNL     1       0.533   1.007  -0.500  1.00  0.00     0.081 C 
ATOM     10  C   UNL     1       0.714  -0.376   0.134  1.00  0.00     0.031 C 
ATOM     11  C   UNL     1       1.216   1.061  -1.872  1.00  0.00     0.031 C 
ENDBRANCH   8   9
BRANCH   8  12
ATOM     12  C   UNL     1      -1.809   0.776  -1.225  1.00  0.00     0.318 C 
ATOM     13  O   UNL     1      -1.468  -0.109  -2.017  1.00  0.00    -0.249 OA
ATOM     14  N   UNL     1      -3.147   0.974  -1.173  1.00  0.00    -0.334 N 
ATOM     15  H   UNL     1      -3.619   0.342  -1.763  1.00  0.00     0.165 HD
BRANCH  14  16
ATOM     16  C   UNL     1      -4.070   1.838  -0.507  1.00  0.00     0.096 C 
ATOM     17  C   UNL     1      -4.719   3.051  -1.162  1.00  0.00    -0.007 C 
ATOM     18  C   UNL     1      -5.558   1.799  -0.907  1.00  0.00    -0.007 C 
ATOM     19  C   UNL     1      -5.050   4.280  -0.341  1.00  0.00     0.014 C 
ATOM     20  C   UNL     1      -4.331   3.407  -2.577  1.00  0.00     0.014 C 
ATOM     21  C   UNL     1      -6.066   1.046  -2.118  1.00  0.00     0.014 C 
ATOM     22  C   UNL     1      -6.578   1.811   0.216  1.00  0.00     0.014 C 
ENDBRANCH  14  16
ENDBRANCH   8  12
ENDBRANCH   7   8
ENDBRANCH   4   7
ENDBRANCH   2   3
ENDBRANCH   1   2
BRANCH   1  23
ATOM     23  C   UNL     1      -1.050   5.130  -3.603  1.00  0.00     0.118 C 
BRANCH  23  24
ATOM     24  N   UNL     1      -0.424   6.440  -3.663  1.00  0.00    -0.352 N 
ATOM     25  C   UNL     1       0.284   7.073  -4.651  1.00  0.00     0.251 C 
ATOM     26  H   UNL     1      -0.529   6.972  -2.842  1.00  0.00     0.163 HD
ATOM     27  O   UNL     1       0.808   8.160  -4.388  1.00  0.00    -0.269 OA
BRANCH  25  28
ATOM     28  C   UNL     1       0.470   6.483  -5.996  1.00  0.00     0.039 A 
ATOM     29  C   UNL     1       1.723   6.617  -6.606  1.00  0.00     0.014 A 
ATOM     30  C   UNL     1      -0.565   5.854  -6.691  1.00  0.00     0.014 A 
ATOM     31  C   UNL     1       1.960   6.052  -7.863  1.00  0.00     0.010 A 
ATOM     32  C   UNL     1      -0.309   5.227  -7.913  1.00  0.00     0.010 A 
ATOM     33  C   UNL     1       0.960   5.309  -8.508  1.00  0.00    -0.014 A 
BRANCH  33  34
ATOM     34  C   UNL     1       1.230   4.586  -9.780  1.00  0.00     0.031 A 
ATOM     35  C   UNL     1       0.493   4.952 -11.041  1.00  0.00     0.074 A 
ATOM     36  C   UNL     1       2.096   3.552  -9.784  1.00  0.00     0.049 A 
ATOM     37  N   UNL     1       0.509   4.360 -12.208  1.00  0.00    -0.248 NA
ATOM     38  C   UNL     1      -0.389   6.128 -10.977  1.00  0.00     0.031 C 
ATOM     39  C   UNL     1       2.862   3.085  -8.626  1.00  0.00     0.029 A 
ATOM     40  N   UNL     1       2.468   2.694 -10.791  1.00  0.00    -0.354 N 
ATOM     41  C   UNL     1      -0.361   5.083 -13.015  1.00  0.00     0.074 A 
ATOM     42  C   UNL     1      -0.924   6.132 -12.191  1.00  0.00     0.031 C 
ATOM     43  C   UNL     1       3.619   2.038  -8.989  1.00  0.00     0.029 A 
ATOM     44  C   UNL     1       3.357   1.723 -10.389  1.00  0.00     0.049 A 
ATOM     45  H   UNL     1       2.131   2.767 -11.713  1.00  0.00     0.167 HD
ATOM     46  C   UNL     1      -0.650   4.903 -14.327  1.00  0.00     0.037 A 
ATOM     47  C   UNL     1       3.882   0.680 -11.063  1.00  0.00     0.037 A 
ATOM     48  C   UNL     1      -0.078   3.865 -15.147  1.00  0.00     0.049 A 
ATOM     49  C   UNL     1       3.496   0.465 -12.502  1.00  0.00     0.074 A 
ATOM     50  C   UNL     1      -0.284   3.623 -16.495  1.00  0.00     0.029 A 
ATOM     51  N   UNL     1       0.808   2.896 -14.700  1.00  0.00    -0.354 N 
ATOM     52  N   UNL     1       2.702   1.184 -13.259  1.00  0.00    -0.248 NA
ATOM     53  C   UNL     1       4.072  -0.707 -13.178  1.00  0.00     0.031 C 
ATOM     54  C   UNL     1       0.441   2.481 -16.851  1.00  0.00     0.029 A 
ATOM     55  C   UNL     1       1.138   2.040 -15.738  1.00  0.00     0.049 A 
ATOM     56  H   UNL     1       1.151   2.826 -13.780  1.00  0.00     0.167 HD
ATOM     57  C   UNL     1       2.704   0.566 -14.505  1.00  0.00     0.074 A 
ATOM     58  C   UNL     1       3.588  -0.575 -14.405  1.00  0.00     0.031 C 
ATOM     59  C   UNL     1       2.030   0.912 -15.629  1.00  0.00     0.037 A 
BRANCH  46  60
ATOM     60  C   UNL     1      -1.624   5.854 -14.969  1.00  0.00     0.058 A 
ATOM     61  C   UNL     1      -1.280   7.189 -15.231  1.00  0.00     0.135 A 
ATOM     62  C   UNL     1      -2.892   5.412 -15.381  1.00  0.00     0.135 A 
ATOM     63  F   UNL     1      -0.086   7.668 -14.847  1.00  0.00    -0.206 F 
ATOM     64  C   UNL     1      -2.166   8.059 -15.858  1.00  0.00     0.059 A 
ATOM     65  C   UNL     1      -3.784   6.258 -16.035  1.00  0.00     0.059 A 
ATOM     66  F   UNL     1      -3.273   4.145 -15.157  1.00  0.00    -0.206 F 
ATOM     67  C   UNL     1      -3.416   7.584 -16.258  1.00  0.00     0.060 A 
BRANCH  67  68
ATOM     68  S   UNL     1      -4.546   8.724 -17.084  1.00  0.00     0.124 S 
ATOM     69  O   UNL     1      -4.941   9.593 -15.979  1.00  0.00    -0.237 OA
ATOM     70  O   UNL     1      -3.687   9.337 -18.094  1.00  0.00    -0.237 OA
ATOM     71  O   UNL     1      -5.594   7.852 -17.602  1.00  0.00    -0.744 OA
ENDBRANCH  67  68
ENDBRANCH  46  60
BRANCH  47  72
ATOM     72  C   UNL     1       4.825  -0.252 -10.387  1.00  0.00     0.058 A 
ATOM     73  C   UNL     1       6.176  -0.306 -10.762  1.00  0.00     0.135 A 
ATOM     74  C   UNL     1       4.396  -1.117  -9.368  1.00  0.00     0.135 A 
ATOM     75  F   UNL     1       6.633   0.495 -11.737  1.00  0.00    -0.206 F 
ATOM     76  C   UNL     1       7.062  -1.201 -10.171  1.00  0.00     0.059 A 
ATOM     77  C   UNL     1       5.270  -2.000  -8.742  1.00  0.00     0.059 A 
ATOM     78  F   UNL     1       3.117  -1.095  -8.961  1.00  0.00    -0.206 F 
ATOM     79  C   UNL     1       6.598  -2.046  -9.162  1.00  0.00     0.060 A 
BRANCH  79  80
ATOM     80  S   UNL     1       7.762  -3.187  -8.385  1.00  0.00     0.124 S 
ATOM     81  O   UNL     1       7.940  -4.184  -9.435  1.00  0.00    -0.237 OA
ATOM     82  O   UNL     1       8.910  -2.324  -8.123  1.00  0.00    -0.237 OA
ATOM     83  O   UNL     1       7.045  -3.641  -7.198  1.00  0.00    -0.744 OA
ENDBRANCH  79  80
ENDBRANCH  47  72
BRANCH  59  84
ATOM     84  C   UNL     1       2.241   0.066 -16.855  1.00  0.00     0.058 A 
ATOM     85  C   UNL     1       1.688  -1.219 -16.966  1.00  0.00     0.135 A 
ATOM     86  C   UNL     1       2.951   0.573 -17.956  1.00  0.00     0.135 A 
ATOM     87  F   UNL     1       1.010  -1.754 -15.938  1.00  0.00    -0.206 F 
ATOM     88  C   UNL     1       1.842  -1.978 -18.122  1.00  0.00     0.059 A 
ATOM     89  C   UNL     1       3.093  -0.158 -19.132  1.00  0.00     0.059 A 
ATOM     90  F   UNL     1       3.494   1.799 -17.905  1.00  0.00    -0.206 F 
ATOM     91  C   UNL     1       2.541  -1.436 -19.203  1.00  0.00     0.060 A 
BRANCH  91  92
ATOM     92  S   UNL     1       2.683  -2.411 -20.715  1.00  0.00     0.124 S 
ATOM     93  O   UNL     1       3.642  -3.436 -20.317  1.00  0.00    -0.237 OA
ATOM     94  O   UNL     1       1.313  -2.870 -20.921  1.00  0.00    -0.237 OA
ATOM     95  O   UNL     1       3.168  -1.446 -21.698  1.00  0.00    -0.744 OA
ENDBRANCH  91  92
ENDBRANCH  59  84
ENDBRANCH  33  34
ENDBRANCH  25  28
ENDBRANCH  23  24
ENDBRANCH   1  23
TORSDOF 17
