REMARK SMILES CCC[C@]1(C(=O)NCCCNC(=O)c2ccc(-c3c4nc(c(-c5c(F)cc(S(=O)(=O)[O-])cc5F)c5ccc([nH]5)c(-c5c(F)cc(S(=O)(=O)[O-])cc5F)c5nc(c(-c6c(F)cc(S(=O)(=O)[O-])cc6F)c6ccc3[nH]6)C=C5)C=C4)cc2)CCN(C(=O)c2cccnc2C)C1
REMARK SMILES IDX 9 1 8 2 7 3 5 4 6 5 4 7 80 8 92 9 81 10 82 11 3 12 2 13 1 14
REMARK SMILES IDX 83 15 84 16 85 17 86 18 90 19 87 20 89 21 91 22 88 23 10 24
REMARK SMILES IDX 11 25 12 26 13 28 14 29 15 30 79 31 16 32 78 33 17 34 18 35
REMARK SMILES IDX 19 36 72 37 20 38 77 39 71 40 73 41 21 42 76 43 70 44 69 45
REMARK SMILES IDX 22 47 56 48 35 49 55 50 36 51 39 52 54 53 74 54 37 55 38 56
REMARK SMILES IDX 53 58 75 59 40 60 23 61 24 62 33 63 25 64 26 65 32 66 34 67
REMARK SMILES IDX 27 68 28 69 29 70 30 71 31 72 57 73 58 74 67 75 59 76 60 77
REMARK SMILES IDX 66 78 68 79 61 80 62 81 63 82 64 83 65 84 41 85 42 86 51 87
REMARK SMILES IDX 43 88 44 89 50 90 52 91 45 92 46 93 47 94 48 95 49 96
REMARK H PARENT 7 6 11 27 73 46 39 57
REMARK Flexibility Score: inf
ROOT
ATOM      1  C   UNL     1      -1.042   4.430  -1.976  1.00  0.00     0.042 C 
ENDROOT
BRANCH   1   2
ATOM      2  C   UNL     1      -1.387   4.298  -0.499  1.00  0.00     0.117 C 
BRANCH   2   3
ATOM      3  N   UNL     1      -1.583   2.926  -0.077  1.00  0.00    -0.355 N 
ATOM      4  C   UNL     1      -0.911   2.130   0.792  1.00  0.00     0.228 C 
ATOM      5  O   UNL     1      -1.517   1.102   1.114  1.00  0.00    -0.274 OA
ATOM      6  H   UNL     1      -2.354   2.487  -0.503  1.00  0.00     0.163 HD
BRANCH   4   7
ATOM      7  C   UNL     1       0.464   2.481   1.400  1.00  0.00     0.068 C 
ATOM      8  C   UNL     1       1.551   2.949   0.397  1.00  0.00     0.040 C 
ATOM      9  C   UNL     1       0.270   3.715   2.323  1.00  0.00     0.136 C 
ATOM     10  C   UNL     1       2.255   4.117   1.078  1.00  0.00     0.121 C 
ATOM     11  N   UNL     1       1.202   4.732   1.852  1.00  0.00    -0.337 N 
BRANCH   7  12
ATOM     12  C   UNL     1       1.022   1.285   2.242  1.00  0.00     0.018 C 
BRANCH  12  13
ATOM     13  C   UNL     1       1.001  -0.142   1.653  1.00  0.00    -0.002 C 
ATOM     14  C   UNL     1       1.399  -0.308   0.197  1.00  0.00     0.004 C 
ENDBRANCH  12  13
ENDBRANCH   7  12
BRANCH  11  15
ATOM     15  C   UNL     1       1.039   6.058   2.209  1.00  0.00     0.255 C 
ATOM     16  O   UNL     1       0.119   6.435   2.934  1.00  0.00    -0.269 OA
BRANCH  15  17
ATOM     17  C   UNL     1       2.013   7.075   1.765  1.00  0.00     0.061 A 
ATOM     18  C   UNL     1       2.732   7.742   2.765  1.00  0.00     0.017 A 
ATOM     19  C   UNL     1       2.153   7.512   0.447  1.00  0.00     0.050 A 
ATOM     20  C   UNL     1       3.606   8.768   2.422  1.00  0.00     0.021 A 
ATOM     21  N   UNL     1       3.038   8.487   0.101  1.00  0.00    -0.261 NA
ATOM     22  C   UNL     1       1.346   6.981  -0.695  1.00  0.00     0.067 C 
ATOM     23  C   UNL     1       3.735   9.093   1.085  1.00  0.00     0.111 A 
ENDBRANCH  15  17
ENDBRANCH  11  15
ENDBRANCH   4   7
ENDBRANCH   2   3
ENDBRANCH   1   2
BRANCH   1  24
ATOM     24  C   UNL     1      -2.089   3.851  -2.916  1.00  0.00     0.118 C 
BRANCH  24  25
ATOM     25  N   UNL     1      -3.371   4.530  -2.808  1.00  0.00    -0.352 N 
ATOM     26  C   UNL     1      -4.035   5.317  -3.716  1.00  0.00     0.251 C 
ATOM     27  H   UNL     1      -3.835   4.405  -1.948  1.00  0.00     0.163 HD
ATOM     28  O   UNL     1      -5.011   5.967  -3.349  1.00  0.00    -0.269 OA
BRANCH  26  29
ATOM     29  C   UNL     1      -3.574   5.401  -5.119  1.00  0.00     0.039 A 
ATOM     30  C   UNL     1      -3.582   6.642  -5.760  1.00  0.00     0.014 A 
ATOM     31  C   UNL     1      -3.159   4.261  -5.812  1.00  0.00     0.014 A 
ATOM     32  C   UNL     1      -3.113   6.749  -7.072  1.00  0.00     0.010 A 
ATOM     33  C   UNL     1      -2.611   4.383  -7.085  1.00  0.00     0.010 A 
ATOM     34  C   UNL     1      -2.590   5.626  -7.733  1.00  0.00    -0.014 A 
BRANCH  34  35
ATOM     35  C   UNL     1      -2.022   5.729  -9.103  1.00  0.00     0.031 A 
ATOM     36  C   UNL     1      -2.646   4.960 -10.238  1.00  0.00     0.074 A 
ATOM     37  C   UNL     1      -0.904   6.453  -9.308  1.00  0.00     0.049 A 
ATOM     38  N   UNL     1      -2.248   4.854 -11.479  1.00  0.00    -0.248 NA
ATOM     39  C   UNL     1      -3.860   4.186  -9.931  1.00  0.00     0.031 C 
ATOM     40  C   UNL     1      -0.175   7.196  -8.277  1.00  0.00     0.029 A 
ATOM     41  N   UNL     1      -0.174   6.672 -10.450  1.00  0.00    -0.354 N 
ATOM     42  C   UNL     1      -3.145   3.987 -12.093  1.00  0.00     0.074 A 
ATOM     43  C   UNL     1      -4.080   3.558 -11.076  1.00  0.00     0.031 C 
ATOM     44  C   UNL     1       0.885   7.801  -8.835  1.00  0.00     0.029 A 
ATOM     45  C   UNL     1       0.937   7.459 -10.253  1.00  0.00     0.049 A 
ATOM     46  H   UNL     1      -0.423   6.301 -11.327  1.00  0.00     0.167 HD
ATOM     47  C   UNL     1      -3.197   3.601 -13.390  1.00  0.00     0.037 A 
ATOM     48  C   UNL     1       1.895   7.852 -11.115  1.00  0.00     0.037 A 
ATOM     49  C   UNL     1      -2.285   4.063 -14.404  1.00  0.00     0.049 A 
ATOM     50  C   UNL     1       1.803   7.427 -12.555  1.00  0.00     0.074 A 
ATOM     51  C   UNL     1      -2.300   3.792 -15.761  1.00  0.00     0.029 A 
ATOM     52  N   UNL     1      -1.196   4.890 -14.173  1.00  0.00    -0.354 N 
ATOM     53  N   UNL     1       0.905   6.665 -13.133  1.00  0.00    -0.248 NA
ATOM     54  C   UNL     1       2.849   7.919 -13.463  1.00  0.00     0.031 C 
ATOM     55  C   UNL     1      -1.193   4.418 -16.343  1.00  0.00     0.029 A 
ATOM     56  C   UNL     1      -0.518   5.122 -15.358  1.00  0.00     0.049 A 
ATOM     57  H   UNL     1      -0.942   5.258 -13.296  1.00  0.00     0.167 HD
ATOM     58  C   UNL     1       1.262   6.608 -14.476  1.00  0.00     0.074 A 
ATOM     59  C   UNL     1       2.450   7.423 -14.627  1.00  0.00     0.031 C 
ATOM     60  C   UNL     1       0.660   5.942 -15.493  1.00  0.00     0.037 A 
BRANCH  47  61
ATOM     61  C   UNL     1      -4.280   2.637 -13.793  1.00  0.00     0.058 A 
ATOM     62  C   UNL     1      -5.630   3.019 -13.843  1.00  0.00     0.135 A 
ATOM     63  C   UNL     1      -3.958   1.326 -14.181  1.00  0.00     0.135 A 
ATOM     64  F   UNL     1      -5.997   4.255 -13.469  1.00  0.00    -0.206 F 
ATOM     65  C   UNL     1      -6.624   2.130 -14.237  1.00  0.00     0.059 A 
ATOM     66  C   UNL     1      -4.933   0.428 -14.606  1.00  0.00     0.059 A 
ATOM     67  F   UNL     1      -2.683   0.906 -14.151  1.00  0.00    -0.206 F 
ATOM     68  C   UNL     1      -6.266   0.837 -14.619  1.00  0.00     0.060 A 
BRANCH  68  69
ATOM     69  S   UNL     1      -7.567  -0.299 -15.144  1.00  0.00     0.124 S 
ATOM     70  O   UNL     1      -8.217  -0.604 -13.873  1.00  0.00    -0.237 OA
ATOM     71  O   UNL     1      -8.342   0.521 -16.070  1.00  0.00    -0.237 OA
ATOM     72  O   UNL     1      -6.831  -1.402 -15.753  1.00  0.00    -0.744 OA
ENDBRANCH  68  69
ENDBRANCH  47  61
BRANCH  48  73
ATOM     73  C   UNL     1       3.017   8.707 -10.640  1.00  0.00     0.058 A 
ATOM     74  C   UNL     1       3.117  10.050 -11.030  1.00  0.00     0.135 A 
ATOM     75  C   UNL     1       4.003   8.201  -9.780  1.00  0.00     0.135 A 
ATOM     76  F   UNL     1       2.201  10.580 -11.855  1.00  0.00    -0.206 F 
ATOM     77  C   UNL     1       4.166  10.858 -10.601  1.00  0.00     0.059 A 
ATOM     78  C   UNL     1       5.047   8.995  -9.316  1.00  0.00     0.059 A 
ATOM     79  F   UNL     1       3.943   6.926  -9.362  1.00  0.00    -0.206 F 
ATOM     80  C   UNL     1       5.127  10.320  -9.742  1.00  0.00     0.060 A 
BRANCH  80  81
ATOM     81  S   UNL     1       6.463  11.386  -9.159  1.00  0.00     0.124 S 
ATOM     82  O   UNL     1       7.290  11.500 -10.354  1.00  0.00    -0.237 OA
ATOM     83  O   UNL     1       5.742  12.593  -8.764  1.00  0.00    -0.237 OA
ATOM     84  O   UNL     1       7.044  10.624  -8.058  1.00  0.00    -0.744 OA
ENDBRANCH  80  81
ENDBRANCH  48  73
BRANCH  60  85
ATOM     85  C   UNL     1       1.253   6.091 -16.866  1.00  0.00     0.058 A 
ATOM     86  C   UNL     1       2.462   5.472 -17.219  1.00  0.00     0.135 A 
ATOM     87  C   UNL     1       0.573   6.817 -17.858  1.00  0.00     0.135 A 
ATOM     88  F   UNL     1       3.154   4.772 -16.307  1.00  0.00    -0.206 F 
ATOM     89  C   UNL     1       2.987   5.585 -18.502  1.00  0.00     0.059 A 
ATOM     90  C   UNL     1       1.065   6.920 -19.154  1.00  0.00     0.059 A 
ATOM     91  F   UNL     1      -0.593   7.419 -17.575  1.00  0.00    -0.206 F 
ATOM     92  C   UNL     1       2.280   6.310 -19.464  1.00  0.00     0.060 A 
BRANCH  92  93
ATOM     93  S   UNL     1       2.955   6.419 -21.135  1.00  0.00     0.124 S 
ATOM     94  O   UNL     1       4.055   7.359 -20.946  1.00  0.00    -0.237 OA
ATOM     95  O   UNL     1       3.340   5.038 -21.407  1.00  0.00    -0.237 OA
ATOM     96  O   UNL     1       1.832   6.918 -21.923  1.00  0.00    -0.744 OA
ENDBRANCH  92  93
ENDBRANCH  60  85
ENDBRANCH  34  35
ENDBRANCH  26  29
ENDBRANCH  24  25
ENDBRANCH   1  24
TORSDOF 17
