REMARK SMILES CC1=C[C@@H]([C@@H]2N=N[C@H](S)N2/N=C/c2ccc(C(=O)NCCCNC(=O)c3ccc(-c4c5nc(c(-c6c(F)cc(S(=O)(=O)[O-])cc6F)c6ccc([nH]6)c(-c6c(F)cc(S(=O)(=O)[O-])cc6F)c6nc(c(-c7c(F)cc(S(=O)(=O)[O-])cc7F)c7ccc4[nH]7)C=C6)C=C5)cc3)cc2)N=N1
REMARK SMILES IDX 21 1 20 2 19 3 17 4 18 5 16 7 13 8 14 9 93 10 15 11 92 12
REMARK SMILES IDX 12 13 11 14 10 15 5 16 6 17 7 18 8 19 4 20 1 21 2 22 3 23
REMARK SMILES IDX 95 24 94 25 9 26 22 28 23 29 24 30 25 32 26 33 27 34 91 35
REMARK SMILES IDX 28 36 90 37 29 38 30 39 31 40 84 41 32 42 89 43 83 44 85 45
REMARK SMILES IDX 33 46 88 47 82 48 81 49 34 51 68 52 47 53 67 54 48 55 51 56
REMARK SMILES IDX 66 57 86 58 49 59 50 60 65 62 87 63 52 64 35 65 36 66 45 67
REMARK SMILES IDX 37 68 38 69 44 70 46 71 39 72 40 73 41 74 42 75 43 76 69 77
REMARK SMILES IDX 70 78 79 79 71 80 72 81 78 82 80 83 73 84 74 85 75 86 76 87
REMARK SMILES IDX 77 88 53 89 54 90 63 91 55 92 56 93 62 94 64 95 57 96 58 97
REMARK SMILES IDX 59 98 60 99 61 100
REMARK H PARENT 19 6 9 27 23 31 85 50 51 61
REMARK Flexibility Score: inf
ROOT
ATOM      1  C   UNL     1      -7.558   1.122  -8.686  1.00  0.00     0.042 C 
ENDROOT
BRANCH   1   2
ATOM      2  C   UNL     1      -7.503  -0.335  -8.200  1.00  0.00     0.118 C 
BRANCH   2   3
ATOM      3  N   UNL     1      -7.224  -1.270  -9.280  1.00  0.00    -0.352 N 
ATOM      4  C   UNL     1      -6.051  -1.831  -9.724  1.00  0.00     0.251 C 
ATOM      5  O   UNL     1      -6.116  -2.713 -10.578  1.00  0.00    -0.269 OA
ATOM      6  H   UNL     1      -8.021  -1.552  -9.783  1.00  0.00     0.163 HD
BRANCH   4   7
ATOM      7  C   UNL     1      -4.715  -1.456  -9.182  1.00  0.00     0.039 A 
ATOM      8  C   UNL     1      -2.190  -0.903  -8.122  1.00  0.00    -0.005 A 
ATOM      9  C   UNL     1      -2.407  -2.115  -8.777  1.00  0.00     0.010 A 
ATOM     10  C   UNL     1      -3.194   0.052  -8.037  1.00  0.00     0.010 A 
ATOM     11  C   UNL     1      -3.675  -2.394  -9.294  1.00  0.00     0.014 A 
ATOM     12  C   UNL     1      -4.434  -0.217  -8.602  1.00  0.00     0.014 A 
BRANCH   8  13
ATOM     13  C   UNL     1      -0.876  -0.607  -7.543  1.00  0.00     0.141 C 
ATOM     14  N   UNL     1      -0.755   0.214  -6.548  1.00  0.00    -0.180 NA
BRANCH  14  15
ATOM     15  N   UNL     1       0.486   0.469  -6.078  1.00  0.00    -0.233 NA
ATOM     16  C   UNL     1       0.712   0.728  -4.651  1.00  0.00     0.274 C 
ATOM     17  N   UNL     1       2.061   0.186  -4.316  1.00  0.00    -0.161 NA
ATOM     18  N   UNL     1       2.663  -0.173  -5.355  1.00  0.00    -0.153 NA
ATOM     19  C   UNL     1       1.762  -0.091  -6.520  1.00  0.00     0.298 C 
BRANCH  16  20
ATOM     20  C   UNL     1       0.645   2.248  -4.275  1.00  0.00     0.201 C 
ATOM     21  C   UNL     1       3.734   3.892  -5.371  1.00  0.00     0.068 C 
ATOM     22  C   UNL     1       2.514   3.411  -4.677  1.00  0.00     0.058 C 
ATOM     23  C   UNL     1       1.354   3.116  -5.259  1.00  0.00     0.031 C 
ATOM     24  N   UNL     1       2.533   3.073  -3.347  1.00  0.00    -0.160 NA
ATOM     25  N   UNL     1       1.451   2.490  -3.036  1.00  0.00    -0.177 NA
ENDBRANCH  16  20
BRANCH  19  26
ATOM     26  S   UNL     1       2.387   0.871  -7.941  1.00  0.00    -0.128 SA
ATOM     27  H   UNL     1       2.543   2.171  -7.574  1.00  0.00     0.106 HD
ENDBRANCH  19  26
ENDBRANCH  14  15
ENDBRANCH   8  13
ENDBRANCH   4   7
ENDBRANCH   2   3
ENDBRANCH   1   2
BRANCH   1  28
ATOM     28  C   UNL     1      -8.924   1.512  -9.209  1.00  0.00     0.118 C 
BRANCH  28  29
ATOM     29  N   UNL     1      -9.927   1.588  -8.140  1.00  0.00    -0.352 N 
ATOM     30  C   UNL     1     -11.302   1.754  -8.236  1.00  0.00     0.251 C 
ATOM     31  H   UNL     1      -9.575   1.509  -7.224  1.00  0.00     0.163 HD
ATOM     32  O   UNL     1     -11.946   2.151  -7.282  1.00  0.00    -0.269 OA
BRANCH  30  33
ATOM     33  C   UNL     1     -11.957   1.438  -9.518  1.00  0.00     0.039 A 
ATOM     34  C   UNL     1     -13.050   2.159 -10.011  1.00  0.00     0.014 A 
ATOM     35  C   UNL     1     -11.404   0.405 -10.256  1.00  0.00     0.014 A 
ATOM     36  C   UNL     1     -13.527   1.853 -11.285  1.00  0.00     0.010 A 
ATOM     37  C   UNL     1     -11.667   0.324 -11.586  1.00  0.00     0.010 A 
ATOM     38  C   UNL     1     -12.816   0.933 -12.064  1.00  0.00    -0.014 A 
BRANCH  38  39
ATOM     39  C   UNL     1     -13.181   0.575 -13.423  1.00  0.00     0.031 A 
ATOM     40  C   UNL     1     -13.128   1.697 -14.388  1.00  0.00     0.074 A 
ATOM     41  C   UNL     1     -13.233  -0.724 -13.798  1.00  0.00     0.049 A 
ATOM     42  N   UNL     1     -14.122   2.270 -14.977  1.00  0.00    -0.248 NA
ATOM     43  C   UNL     1     -11.842   2.388 -14.586  1.00  0.00     0.031 C 
ATOM     44  C   UNL     1     -12.967  -1.921 -12.984  1.00  0.00     0.029 A 
ATOM     45  N   UNL     1     -13.391  -1.250 -15.039  1.00  0.00    -0.354 N 
ATOM     46  C   UNL     1     -13.557   3.216 -15.824  1.00  0.00     0.074 A 
ATOM     47  C   UNL     1     -12.214   3.418 -15.350  1.00  0.00     0.031 C 
ATOM     48  C   UNL     1     -12.744  -2.980 -13.790  1.00  0.00     0.029 A 
ATOM     49  C   UNL     1     -13.005  -2.584 -15.159  1.00  0.00     0.049 A 
ATOM     50  H   UNL     1     -13.751  -0.731 -15.794  1.00  0.00     0.167 HD
ATOM     51  C   UNL     1     -14.144   3.539 -17.011  1.00  0.00     0.037 A 
ATOM     52  C   UNL     1     -12.867  -3.279 -16.317  1.00  0.00     0.037 A 
ATOM     53  C   UNL     1     -15.485   3.004 -17.081  1.00  0.00     0.049 A 
ATOM     54  C   UNL     1     -13.665  -2.544 -17.342  1.00  0.00     0.074 A 
ATOM     55  C   UNL     1     -16.617   3.134 -16.299  1.00  0.00     0.029 A 
ATOM     56  N   UNL     1     -15.676   1.866 -17.833  1.00  0.00    -0.354 N 
ATOM     57  N   UNL     1     -14.968  -2.431 -17.291  1.00  0.00    -0.248 NA
ATOM     58  C   UNL     1     -12.988  -1.518 -18.122  1.00  0.00     0.031 C 
ATOM     59  C   UNL     1     -17.185   1.827 -16.255  1.00  0.00     0.029 A 
ATOM     60  C   UNL     1     -16.428   0.995 -17.083  1.00  0.00     0.049 A 
ATOM     61  H   UNL     1     -15.336   1.706 -18.743  1.00  0.00     0.167 HD
ATOM     62  C   UNL     1     -15.229  -1.114 -17.650  1.00  0.00     0.074 A 
ATOM     63  C   UNL     1     -13.979  -0.626 -18.232  1.00  0.00     0.031 C 
ATOM     64  C   UNL     1     -16.321  -0.448 -17.163  1.00  0.00     0.037 A 
BRANCH  51  65
ATOM     65  C   UNL     1     -13.406   4.001 -18.247  1.00  0.00     0.058 A 
ATOM     66  C   UNL     1     -14.152   4.470 -19.349  1.00  0.00     0.135 A 
ATOM     67  C   UNL     1     -12.038   3.759 -18.501  1.00  0.00     0.135 A 
ATOM     68  F   UNL     1     -15.462   4.737 -19.224  1.00  0.00    -0.206 F 
ATOM     69  C   UNL     1     -13.601   4.603 -20.623  1.00  0.00     0.059 A 
ATOM     70  C   UNL     1     -11.455   3.943 -19.748  1.00  0.00     0.059 A 
ATOM     71  F   UNL     1     -11.215   3.236 -17.585  1.00  0.00    -0.206 F 
ATOM     72  C   UNL     1     -12.253   4.319 -20.814  1.00  0.00     0.060 A 
BRANCH  72  73
ATOM     73  S   UNL     1     -11.564   4.375 -22.476  1.00  0.00     0.124 S 
ATOM     74  O   UNL     1     -12.218   3.231 -23.098  1.00  0.00    -0.237 OA
ATOM     75  O   UNL     1     -11.995   5.691 -22.937  1.00  0.00    -0.237 OA
ATOM     76  O   UNL     1     -10.128   4.237 -22.248  1.00  0.00    -0.744 OA
ENDBRANCH  72  73
ENDBRANCH  51  65
BRANCH  52  77
ATOM     77  C   UNL     1     -11.842  -4.311 -16.648  1.00  0.00     0.058 A 
ATOM     78  C   UNL     1     -11.909  -5.055 -17.841  1.00  0.00     0.135 A 
ATOM     79  C   UNL     1     -10.627  -4.411 -15.935  1.00  0.00     0.135 A 
ATOM     80  F   UNL     1     -13.018  -5.016 -18.597  1.00  0.00    -0.206 F 
ATOM     81  C   UNL     1     -10.824  -5.798 -18.326  1.00  0.00     0.059 A 
ATOM     82  C   UNL     1      -9.539  -5.156 -16.390  1.00  0.00     0.059 A 
ATOM     83  F   UNL     1     -10.419  -3.710 -14.812  1.00  0.00    -0.206 F 
ATOM     84  C   UNL     1      -9.632  -5.822 -17.604  1.00  0.00     0.060 A 
BRANCH  84  85
ATOM     85  S   UNL     1      -8.162  -6.601 -18.317  1.00  0.00     0.124 S 
ATOM     86  O   UNL     1      -8.500  -8.018 -18.238  1.00  0.00    -0.237 OA
ATOM     87  O   UNL     1      -8.129  -6.027 -19.658  1.00  0.00    -0.237 OA
ATOM     88  O   UNL     1      -7.083  -6.166 -17.433  1.00  0.00    -0.744 OA
ENDBRANCH  84  85
ENDBRANCH  52  77
BRANCH  64  89
ATOM     89  C   UNL     1     -17.387  -1.238 -16.440  1.00  0.00     0.058 A 
ATOM     90  C   UNL     1     -17.182  -1.933 -15.234  1.00  0.00     0.135 A 
ATOM     91  C   UNL     1     -18.711  -1.135 -16.891  1.00  0.00     0.135 A 
ATOM     92  F   UNL     1     -15.972  -1.988 -14.665  1.00  0.00    -0.206 F 
ATOM     93  C   UNL     1     -18.231  -2.534 -14.535  1.00  0.00     0.059 A 
ATOM     94  C   UNL     1     -19.779  -1.696 -16.194  1.00  0.00     0.059 A 
ATOM     95  F   UNL     1     -18.989  -0.427 -17.999  1.00  0.00    -0.206 F 
ATOM     96  C   UNL     1     -19.529  -2.408 -15.023  1.00  0.00     0.060 A 
BRANCH  96  97
ATOM     97  S   UNL     1     -20.895  -3.120 -14.081  1.00  0.00     0.124 S 
ATOM     98  O   UNL     1     -20.711  -4.550 -14.309  1.00  0.00    -0.237 OA
ATOM     99  O   UNL     1     -20.623  -2.655 -12.723  1.00  0.00    -0.237 OA
ATOM    100  O   UNL     1     -22.080  -2.536 -14.704  1.00  0.00    -0.744 OA
ENDBRANCH  96  97
ENDBRANCH  64  89
ENDBRANCH  38  39
ENDBRANCH  30  33
ENDBRANCH  28  29
ENDBRANCH   1  28
TORSDOF 17
