REMARK SMILES CCC1C[NH+]([C@H]2COC[C@@]2(C)C(=O)NCCCNC(=O)c2ccc(-c3c4nc(c(-c5c(F)cc(S(=O)(=O)[O-])cc5F)c5ccc([nH]5)c(-c5c(F)cc(S(=O)(=O)[O-])cc5F)c5nc(c(-c6c(F)cc(S(=O)(=O)[O-])cc6F)c6ccc3[nH]6)C=C5)C=C4)cc2)C1
REMARK SMILES IDX 16 1 15 2 14 3 12 4 13 5 10 7 6 8 7 9 8 10 9 11 11 12 5 13
REMARK SMILES IDX 3 14 4 15 87 16 2 18 1 19 17 20 18 21 19 22 20 24 21 25
REMARK SMILES IDX 22 26 86 27 23 28 85 29 24 30 25 31 26 32 79 33 27 34 84 35
REMARK SMILES IDX 78 36 80 37 28 38 83 39 77 40 76 41 29 43 63 44 42 45 62 46
REMARK SMILES IDX 43 47 46 48 61 49 81 50 44 51 45 52 60 54 82 55 47 56 30 57
REMARK SMILES IDX 31 58 40 59 32 60 33 61 39 62 41 63 34 64 35 65 36 66 37 67
REMARK SMILES IDX 38 68 64 69 65 70 74 71 66 72 67 73 73 74 75 75 68 76 69 77
REMARK SMILES IDX 70 78 71 79 72 80 48 81 49 82 58 83 50 84 51 85 57 86 59 87
REMARK SMILES IDX 52 88 53 89 54 90 55 91 56 92
REMARK H PARENT 14 6 5 17 18 23 80 42 46 53
REMARK Flexibility Score: inf
ROOT
ATOM      1  C   UNL     1      -1.526   4.538   4.376  1.00  0.00     0.042 C 
ENDROOT
BRANCH   1   2
ATOM      2  C   UNL     1      -0.248   3.837   4.799  1.00  0.00     0.117 C 
BRANCH   2   3
ATOM      3  N   UNL     1      -0.261   3.315   6.153  1.00  0.00    -0.355 N 
ATOM      4  C   UNL     1       0.605   2.447   6.747  1.00  0.00     0.234 C 
ATOM      5  O   UNL     1       0.591   2.442   7.985  1.00  0.00    -0.274 OA
ATOM      6  H   UNL     1      -1.000   3.632   6.722  1.00  0.00     0.163 HD
BRANCH   4   7
ATOM      7  C   UNL     1       1.401   1.383   5.980  1.00  0.00     0.123 C 
ATOM      8  C   UNL     1       2.156   1.724   4.686  1.00  0.00     0.228 C 
ATOM      9  C   UNL     1       3.258   0.656   4.666  1.00  0.00     0.226 C 
ATOM     10  O   UNL     1       3.578   0.342   6.025  1.00  0.00    -0.374 OA
ATOM     11  C   UNL     1       2.562   0.915   6.869  1.00  0.00     0.183 C 
ATOM     12  C   UNL     1       0.423   0.210   5.741  1.00  0.00     0.031 C 
BRANCH   8  13
ATOM     13  N   UNL     1       2.563   3.128   4.604  1.00  0.00    -0.329 N 
ATOM     14  C   UNL     1       3.923   4.541   3.915  1.00  0.00     0.099 C 
ATOM     15  C   UNL     1       2.983   3.510   3.240  1.00  0.00     0.271 C 
ATOM     16  C   UNL     1       3.886   3.539   5.114  1.00  0.00     0.271 C 
ATOM     17  H   UNL     1       1.745   3.512   5.077  1.00  0.00     0.348 HD
BRANCH  14  18
ATOM     18  C   UNL     1       5.250   4.805   3.226  1.00  0.00     0.012 C 
ATOM     19  C   UNL     1       5.016   5.411   1.849  1.00  0.00     0.004 C 
ENDBRANCH  14  18
ENDBRANCH   8  13
ENDBRANCH   4   7
ENDBRANCH   2   3
ENDBRANCH   1   2
BRANCH   1  20
ATOM     20  C   UNL     1      -1.885   5.749   5.227  1.00  0.00     0.118 C 
BRANCH  20  21
ATOM     21  N   UNL     1      -0.946   6.860   5.118  1.00  0.00    -0.352 N 
ATOM     22  C   UNL     1      -0.984   8.043   4.412  1.00  0.00     0.251 C 
ATOM     23  H   UNL     1      -0.127   6.741   5.652  1.00  0.00     0.163 HD
ATOM     24  O   UNL     1       0.001   8.774   4.425  1.00  0.00    -0.269 OA
BRANCH  22  25
ATOM     25  C   UNL     1      -2.164   8.419   3.598  1.00  0.00     0.039 A 
ATOM     26  C   UNL     1      -1.964   9.057   2.368  1.00  0.00     0.014 A 
ATOM     27  C   UNL     1      -3.464   8.160   4.023  1.00  0.00     0.014 A 
ATOM     28  C   UNL     1      -3.053   9.323   1.530  1.00  0.00     0.010 A 
ATOM     29  C   UNL     1      -4.527   8.298   3.139  1.00  0.00     0.010 A 
ATOM     30  C   UNL     1      -4.340   8.883   1.879  1.00  0.00    -0.014 A 
BRANCH  30  31
ATOM     31  C   UNL     1      -5.506   9.024   0.964  1.00  0.00     0.031 A 
ATOM     32  C   UNL     1      -6.749   9.741   1.431  1.00  0.00     0.074 A 
ATOM     33  C   UNL     1      -5.495   8.419  -0.242  1.00  0.00     0.049 A 
ATOM     34  N   UNL     1      -7.924   9.818   0.861  1.00  0.00    -0.248 NA
ATOM     35  C   UNL     1      -6.674  10.418   2.737  1.00  0.00     0.031 C 
ATOM     36  C   UNL     1      -4.383   7.639  -0.793  1.00  0.00     0.029 A 
ATOM     37  N   UNL     1      -6.457   8.350  -1.219  1.00  0.00    -0.354 N 
ATOM     38  C   UNL     1      -8.734  10.511   1.755  1.00  0.00     0.074 A 
ATOM     39  C   UNL     1      -7.933  10.783   2.928  1.00  0.00     0.031 C 
ATOM     40  C   UNL     1      -4.713   7.201  -2.018  1.00  0.00     0.029 A 
ATOM     41  C   UNL     1      -6.075   7.623  -2.323  1.00  0.00     0.049 A 
ATOM     42  H   UNL     1      -7.339   8.780  -1.137  1.00  0.00     0.167 HD
ATOM     43  C   UNL     1     -10.019  10.912   1.604  1.00  0.00     0.037 A 
ATOM     44  C   UNL     1      -6.748   7.323  -3.451  1.00  0.00     0.037 A 
ATOM     45  C   UNL     1     -10.791  10.701   0.408  1.00  0.00     0.049 A 
ATOM     46  C   UNL     1      -8.157   7.821  -3.619  1.00  0.00     0.074 A 
ATOM     47  C   UNL     1     -12.074  11.136   0.123  1.00  0.00     0.029 A 
ATOM     48  N   UNL     1     -10.345  10.011  -0.710  1.00  0.00    -0.354 N 
ATOM     49  N   UNL     1      -8.891   8.513  -2.780  1.00  0.00    -0.248 NA
ATOM     50  C   UNL     1      -8.829   7.502  -4.886  1.00  0.00     0.031 C 
ATOM     51  C   UNL     1     -12.412  10.687  -1.158  1.00  0.00     0.029 A 
ATOM     52  C   UNL     1     -11.328  10.004  -1.684  1.00  0.00     0.049 A 
ATOM     53  H   UNL     1      -9.460   9.589  -0.797  1.00  0.00     0.167 HD
ATOM     54  C   UNL     1     -10.101   8.733  -3.427  1.00  0.00     0.074 A 
ATOM     55  C   UNL     1      -9.998   8.110  -4.731  1.00  0.00     0.031 C 
ATOM     56  C   UNL     1     -11.200   9.390  -2.982  1.00  0.00     0.037 A 
BRANCH  43  57
ATOM     57  C   UNL     1     -10.661  11.638   2.754  1.00  0.00     0.058 A 
ATOM     58  C   UNL     1     -10.275  12.941   3.109  1.00  0.00     0.135 A 
ATOM     59  C   UNL     1     -11.688  11.035   3.498  1.00  0.00     0.135 A 
ATOM     60  F   UNL     1      -9.288  13.559   2.441  1.00  0.00    -0.206 F 
ATOM     61  C   UNL     1     -10.854  13.604   4.185  1.00  0.00     0.059 A 
ATOM     62  C   UNL     1     -12.303  11.692   4.561  1.00  0.00     0.059 A 
ATOM     63  F   UNL     1     -12.099   9.792   3.201  1.00  0.00    -0.206 F 
ATOM     64  C   UNL     1     -11.866  12.970   4.908  1.00  0.00     0.060 A 
BRANCH  64  65
ATOM     65  S   UNL     1     -12.606  13.842   6.304  1.00  0.00     0.124 S 
ATOM     66  O   UNL     1     -11.560  13.710   7.314  1.00  0.00    -0.237 OA
ATOM     67  O   UNL     1     -12.802  15.185   5.768  1.00  0.00    -0.237 OA
ATOM     68  O   UNL     1     -13.829  13.090   6.564  1.00  0.00    -0.744 OA
ENDBRANCH  64  65
ENDBRANCH  43  57
BRANCH  44  69
ATOM     69  C   UNL     1      -6.086   6.536  -4.525  1.00  0.00     0.058 A 
ATOM     70  C   UNL     1      -5.689   7.152  -5.721  1.00  0.00     0.135 A 
ATOM     71  C   UNL     1      -5.820   5.167  -4.375  1.00  0.00     0.135 A 
ATOM     72  F   UNL     1      -5.927   8.459  -5.913  1.00  0.00    -0.206 F 
ATOM     73  C   UNL     1      -5.065   6.438  -6.738  1.00  0.00     0.059 A 
ATOM     74  C   UNL     1      -5.177   4.435  -5.369  1.00  0.00     0.059 A 
ATOM     75  F   UNL     1      -6.162   4.535  -3.242  1.00  0.00    -0.206 F 
ATOM     76  C   UNL     1      -4.812   5.078  -6.552  1.00  0.00     0.060 A 
BRANCH  76  77
ATOM     77  S   UNL     1      -3.953   4.169  -7.856  1.00  0.00     0.124 S 
ATOM     78  O   UNL     1      -5.011   4.008  -8.846  1.00  0.00    -0.237 OA
ATOM     79  O   UNL     1      -2.876   5.087  -8.213  1.00  0.00    -0.237 OA
ATOM     80  O   UNL     1      -3.524   2.946  -7.183  1.00  0.00    -0.744 OA
ENDBRANCH  76  77
ENDBRANCH  44  69
BRANCH  56  81
ATOM     81  C   UNL     1     -12.366   9.501  -3.921  1.00  0.00     0.058 A 
ATOM     82  C   UNL     1     -13.207   8.409  -4.182  1.00  0.00     0.135 A 
ATOM     83  C   UNL     1     -12.677  10.731  -4.523  1.00  0.00     0.135 A 
ATOM     84  F   UNL     1     -12.947   7.210  -3.636  1.00  0.00    -0.206 F 
ATOM     85  C   UNL     1     -14.308   8.527  -5.023  1.00  0.00     0.059 A 
ATOM     86  C   UNL     1     -13.787  10.877  -5.349  1.00  0.00     0.059 A 
ATOM     87  F   UNL     1     -11.908  11.808  -4.297  1.00  0.00    -0.206 F 
ATOM     88  C   UNL     1     -14.591   9.767  -5.601  1.00  0.00     0.060 A 
BRANCH  88  89
ATOM     89  S   UNL     1     -16.046   9.918  -6.659  1.00  0.00     0.124 S 
ATOM     90  O   UNL     1     -15.585   9.276  -7.885  1.00  0.00    -0.237 OA
ATOM     91  O   UNL     1     -17.060   9.189  -5.904  1.00  0.00    -0.237 OA
ATOM     92  O   UNL     1     -16.254  11.361  -6.744  1.00  0.00    -0.744 OA
ENDBRANCH  88  89
ENDBRANCH  56  81
ENDBRANCH  30  31
ENDBRANCH  22  25
ENDBRANCH  20  21
ENDBRANCH   1  20
TORSDOF 15
