REMARK SMILES CC[C@H](C)[C@@H](Nc1ccc(Cl)c(Br)c1)C(=O)NCCCNC(=O)c1ccc(-c2c3nc(c(-c4c(F)cc(S(=O)(=O)[O-])cc4F)c4ccc([nH]4)c(-c4c(F)cc(S(=O)(=O)[O-])cc4F)c4nc(c(-c5c(F)cc(S(=O)(=O)[O-])cc5F)c5ccc2[nH]5)C=C4)C=C3)cc1
REMARK SMILES IDX 19 1 18 2 17 3 15 4 16 5 5 7 3 8 4 9 2 10 1 11 6 12 7 14
REMARK SMILES IDX 8 15 14 16 9 17 12 18 10 19 13 20 11 21 20 22 21 23 22 24
REMARK SMILES IDX 23 26 24 27 25 28 89 29 26 30 88 31 27 32 28 33 29 34 82 35
REMARK SMILES IDX 30 36 87 37 81 38 83 39 31 40 86 41 80 42 79 43 32 45 66 46
REMARK SMILES IDX 45 47 65 48 46 49 49 50 64 51 84 52 47 53 48 54 63 56 85 57
REMARK SMILES IDX 50 58 33 59 34 60 43 61 35 62 36 63 42 64 44 65 37 66 38 67
REMARK SMILES IDX 39 68 40 69 41 70 67 71 68 72 77 73 69 74 70 75 76 76 78 77
REMARK SMILES IDX 71 78 72 79 73 80 74 81 75 82 51 83 52 84 61 85 53 86 54 87
REMARK SMILES IDX 60 88 62 89 55 90 56 91 57 92 58 93 59 94
REMARK H PARENT 17 6 6 13 21 25 83 44 49 55
REMARK Flexibility Score: inf
ROOT
ATOM      1  C   UNL     1       4.415   3.786  -0.428  1.00  0.00     0.042 C 
ENDROOT
BRANCH   1   2
ATOM      2  C   UNL     1       3.480   4.333   0.631  1.00  0.00     0.117 C 
BRANCH   2   3
ATOM      3  N   UNL     1       2.346   5.035   0.054  1.00  0.00    -0.354 N 
ATOM      4  C   UNL     1       1.010   4.847   0.256  1.00  0.00     0.242 C 
ATOM      5  O   UNL     1       0.237   5.669  -0.252  1.00  0.00    -0.273 OA
ATOM      6  H   UNL     1       2.577   5.754  -0.578  1.00  0.00     0.163 HD
BRANCH   4   7
ATOM      7  C   UNL     1       0.463   3.641   1.066  1.00  0.00     0.171 C 
BRANCH   7   8
ATOM      8  C   UNL     1       0.755   2.303   0.308  1.00  0.00     0.018 C 
ATOM      9  C   UNL     1       0.081   1.104   0.995  1.00  0.00     0.010 C 
BRANCH   8  10
ATOM     10  C   UNL     1       0.308   2.356  -1.177  1.00  0.00     0.002 C 
ATOM     11  C   UNL     1       1.038   1.340  -2.052  1.00  0.00     0.004 C 
ENDBRANCH   8  10
ENDBRANCH   7   8
BRANCH   7  12
ATOM     12  N   UNL     1       0.974   3.591   2.463  1.00  0.00    -0.373 N 
ATOM     13  H   UNL     1       0.911   2.726   2.930  1.00  0.00     0.161 HD
BRANCH  12  14
ATOM     14  C   UNL     1       1.530   4.645   3.167  1.00  0.00     0.036 A 
ATOM     15  C   UNL     1       1.139   5.976   3.002  1.00  0.00     0.027 A 
ATOM     16  C   UNL     1       2.674   4.392   3.941  1.00  0.00     0.043 A 
ATOM     17  C   UNL     1       1.911   7.026   3.512  1.00  0.00     0.024 A 
ATOM     18  C   UNL     1       3.460   5.436   4.447  1.00  0.00     0.038 A 
ATOM     19  C   UNL     1       3.086   6.760   4.216  1.00  0.00     0.055 A 
ATOM     20  Br  UNL     1       5.057   4.962   5.360  1.00  0.00    -0.049 Br
ATOM     21  Cl  UNL     1       4.033   8.106   4.735  1.00  0.00    -0.083 Cl
ENDBRANCH  12  14
ENDBRANCH   7  12
ENDBRANCH   4   7
ENDBRANCH   2   3
ENDBRANCH   1   2
BRANCH   1  22
ATOM     22  C   UNL     1       5.092   4.881  -1.235  1.00  0.00     0.118 C 
BRANCH  22  23
ATOM     23  N   UNL     1       6.069   5.635  -0.455  1.00  0.00    -0.352 N 
ATOM     24  C   UNL     1       7.440   5.657  -0.564  1.00  0.00     0.251 C 
ATOM     25  H   UNL     1       5.692   6.209   0.250  1.00  0.00     0.163 HD
ATOM     26  O   UNL     1       8.121   6.217   0.289  1.00  0.00    -0.269 OA
BRANCH  24  27
ATOM     27  C   UNL     1       8.081   4.966  -1.700  1.00  0.00     0.039 A 
ATOM     28  C   UNL     1       7.587   5.145  -2.993  1.00  0.00     0.014 A 
ATOM     29  C   UNL     1       9.139   4.086  -1.463  1.00  0.00     0.014 A 
ATOM     30  C   UNL     1       8.007   4.299  -4.008  1.00  0.00     0.010 A 
ATOM     31  C   UNL     1       9.634   3.309  -2.513  1.00  0.00     0.010 A 
ATOM     32  C   UNL     1       9.037   3.372  -3.782  1.00  0.00    -0.014 A 
BRANCH  32  33
ATOM     33  C   UNL     1       9.474   2.481  -4.886  1.00  0.00     0.031 A 
ATOM     34  C   UNL     1       9.314   0.987  -4.775  1.00  0.00     0.074 A 
ATOM     35  C   UNL     1       9.959   3.029  -6.017  1.00  0.00     0.049 A 
ATOM     36  N   UNL     1       9.713   0.053  -5.599  1.00  0.00    -0.248 NA
ATOM     37  C   UNL     1       8.614   0.471  -3.585  1.00  0.00     0.031 C 
ATOM     38  C   UNL     1      10.116   4.467  -6.260  1.00  0.00     0.029 A 
ATOM     39  N   UNL     1      10.384   2.451  -7.184  1.00  0.00    -0.354 N 
ATOM     40  C   UNL     1       9.335  -1.155  -5.025  1.00  0.00     0.074 A 
ATOM     41  C   UNL     1       8.686  -0.841  -3.771  1.00  0.00     0.031 C 
ATOM     42  C   UNL     1      10.547   4.659  -7.515  1.00  0.00     0.029 A 
ATOM     43  C   UNL     1      10.776   3.361  -8.137  1.00  0.00     0.049 A 
ATOM     44  H   UNL     1      10.406   1.477  -7.327  1.00  0.00     0.167 HD
ATOM     45  C   UNL     1       9.511  -2.409  -5.506  1.00  0.00     0.037 A 
ATOM     46  C   UNL     1      11.290   3.172  -9.366  1.00  0.00     0.037 A 
ATOM     47  C   UNL     1      10.142  -2.710  -6.766  1.00  0.00     0.049 A 
ATOM     48  C   UNL     1      11.518   1.770  -9.850  1.00  0.00     0.074 A 
ATOM     49  C   UNL     1      10.422  -3.949  -7.318  1.00  0.00     0.029 A 
ATOM     50  N   UNL     1      10.565  -1.760  -7.684  1.00  0.00    -0.354 N 
ATOM     51  N   UNL     1      11.243   0.638  -9.248  1.00  0.00    -0.248 NA
ATOM     52  C   UNL     1      12.142   1.620 -11.170  1.00  0.00     0.031 C 
ATOM     53  C   UNL     1      11.027  -3.748  -8.563  1.00  0.00     0.029 A 
ATOM     54  C   UNL     1      11.093  -2.385  -8.802  1.00  0.00     0.049 A 
ATOM     55  H   UNL     1      10.501  -0.786  -7.559  1.00  0.00     0.167 HD
ATOM     56  C   UNL     1      11.646  -0.361 -10.125  1.00  0.00     0.074 A 
ATOM     57  C   UNL     1      12.168   0.301 -11.303  1.00  0.00     0.031 C 
ATOM     58  C   UNL     1      11.594  -1.706  -9.967  1.00  0.00     0.037 A 
BRANCH  45  59
ATOM     59  C   UNL     1       9.022  -3.562  -4.675  1.00  0.00     0.058 A 
ATOM     60  C   UNL     1       7.660  -3.893  -4.612  1.00  0.00     0.135 A 
ATOM     61  C   UNL     1       9.932  -4.399  -4.008  1.00  0.00     0.135 A 
ATOM     62  F   UNL     1       6.747  -3.113  -5.213  1.00  0.00    -0.206 F 
ATOM     63  C   UNL     1       7.216  -5.016  -3.921  1.00  0.00     0.059 A 
ATOM     64  C   UNL     1       9.512  -5.538  -3.325  1.00  0.00     0.059 A 
ATOM     65  F   UNL     1      11.245  -4.124  -4.032  1.00  0.00    -0.206 F 
ATOM     66  C   UNL     1       8.151  -5.837  -3.286  1.00  0.00     0.060 A 
BRANCH  66  67
ATOM     67  S   UNL     1       7.560  -7.314  -2.432  1.00  0.00     0.124 S 
ATOM     68  O   UNL     1       6.899  -6.733  -1.267  1.00  0.00    -0.237 OA
ATOM     69  O   UNL     1       6.677  -7.917  -3.425  1.00  0.00    -0.237 OA
ATOM     70  O   UNL     1       8.784  -8.058  -2.151  1.00  0.00    -0.744 OA
ENDBRANCH  66  67
ENDBRANCH  45  59
BRANCH  46  71
ATOM     71  C   UNL     1      11.645   4.340 -10.213  1.00  0.00     0.058 A 
ATOM     72  C   UNL     1      10.911   4.639 -11.369  1.00  0.00     0.135 A 
ATOM     73  C   UNL     1      12.722   5.177  -9.883  1.00  0.00     0.135 A 
ATOM     74  F   UNL     1       9.875   3.864 -11.726  1.00  0.00    -0.206 F 
ATOM     75  C   UNL     1      11.243   5.718 -12.181  1.00  0.00     0.059 A 
ATOM     76  C   UNL     1      13.056   6.277 -10.664  1.00  0.00     0.059 A 
ATOM     77  F   UNL     1      13.443   4.941  -8.776  1.00  0.00    -0.206 F 
ATOM     78  C   UNL     1      12.320   6.530 -11.821  1.00  0.00     0.060 A 
BRANCH  78  79
ATOM     79  S   UNL     1      12.728   7.947 -12.862  1.00  0.00     0.124 S 
ATOM     80  O   UNL     1      13.420   7.303 -13.972  1.00  0.00    -0.237 OA
ATOM     81  O   UNL     1      11.411   8.500 -13.163  1.00  0.00    -0.237 OA
ATOM     82  O   UNL     1      13.559   8.772 -11.990  1.00  0.00    -0.744 OA
ENDBRANCH  78  79
ENDBRANCH  46  71
BRANCH  58  83
ATOM     83  C   UNL     1      12.072  -2.541 -11.117  1.00  0.00     0.058 A 
ATOM     84  C   UNL     1      13.439  -2.696 -11.394  1.00  0.00     0.135 A 
ATOM     85  C   UNL     1      11.151  -3.203 -11.943  1.00  0.00     0.135 A 
ATOM     86  F   UNL     1      14.357  -2.076 -10.635  1.00  0.00    -0.206 F 
ATOM     87  C   UNL     1      13.876  -3.456 -12.473  1.00  0.00     0.059 A 
ATOM     88  C   UNL     1      11.566  -3.985 -13.015  1.00  0.00     0.059 A 
ATOM     89  F   UNL     1       9.833  -3.090 -11.712  1.00  0.00    -0.206 F 
ATOM     90  C   UNL     1      12.931  -4.092 -13.281  1.00  0.00     0.060 A 
BRANCH  90  91
ATOM     91  S   UNL     1      13.508  -5.079 -14.678  1.00  0.00     0.124 S 
ATOM     92  O   UNL     1      13.855  -4.042 -15.645  1.00  0.00    -0.237 OA
ATOM     93  O   UNL     1      14.633  -5.811 -14.103  1.00  0.00    -0.237 OA
ATOM     94  O   UNL     1      12.347  -5.894 -15.019  1.00  0.00    -0.744 OA
ENDBRANCH  90  91
ENDBRANCH  58  83
ENDBRANCH  32  33
ENDBRANCH  24  27
ENDBRANCH  22  23
ENDBRANCH   1  22
TORSDOF 17
