REMARK SMILES O=C(NCCCNC(=O)[C@H]1CN(C(=O)c2cccs2)CC[NH2+]1)c1ccc(-c2c3nc(c(-c4c(F)cc(S(=O)(=O)[O-])cc4F)c4ccc([nH]4)c(-c4c(F)cc(S(=O)(=O)[O-])cc4F)c4nc(c(-c5c(F)cc(S(=O)(=O)[O-])cc5F)c5ccc2[nH]5)C=C4)C=C3)cc1
REMARK SMILES IDX 4 1 3 2 1 3 2 4 23 6 24 7 88 8 25 9 87 10 26 11 27 12 28 13
REMARK SMILES IDX 81 14 29 15 86 16 80 17 82 18 30 19 85 20 79 21 78 22 31 24
REMARK SMILES IDX 65 25 44 26 64 27 45 28 48 29 63 30 83 31 46 32 47 33 62 35
REMARK SMILES IDX 84 36 49 37 32 38 33 39 42 40 34 41 35 42 41 43 43 44 36 45
REMARK SMILES IDX 37 46 38 47 39 48 40 49 66 50 67 51 76 52 68 53 69 54 75 55
REMARK SMILES IDX 77 56 70 57 71 58 72 59 73 60 74 61 50 62 51 63 60 64 52 65
REMARK SMILES IDX 53 66 59 67 61 68 54 69 55 70 56 71 57 72 58 73 5 74 6 75
REMARK SMILES IDX 7 76 8 77 9 79 10 80 11 81 22 82 12 83 21 84 20 87 13 88
REMARK SMILES IDX 14 89 15 90 16 91 19 92 17 93 18 94
REMARK H PARENT 3 5 82 23 48 34 7 78 22 85 22 86
REMARK Flexibility Score: inf
ROOT
ATOM      1  C   UNL     1       8.720  -4.072   1.782  1.00  0.00     0.118 C 
ENDROOT
BRANCH   1   2
ATOM      2  N   UNL     1       9.585  -5.156   2.233  1.00  0.00    -0.352 N 
ATOM      3  O   UNL     1      11.354  -6.418   2.702  1.00  0.00    -0.269 OA
ATOM      4  C   UNL     1      10.933  -5.285   2.463  1.00  0.00     0.251 C 
ATOM      5  H   UNL     1       9.088  -5.987   2.415  1.00  0.00     0.163 HD
BRANCH   4   6
ATOM      6  C   UNL     1      11.900  -4.157   2.399  1.00  0.00     0.039 A 
ATOM      7  C   UNL     1      11.547  -2.841   2.667  1.00  0.00     0.014 A 
ATOM      8  C   UNL     1      13.252  -4.443   2.133  1.00  0.00     0.014 A 
ATOM      9  C   UNL     1      12.472  -1.813   2.503  1.00  0.00     0.010 A 
ATOM     10  C   UNL     1      14.212  -3.420   2.083  1.00  0.00     0.010 A 
ATOM     11  C   UNL     1      13.824  -2.086   2.240  1.00  0.00    -0.014 A 
BRANCH  11  12
ATOM     12  C   UNL     1      14.779  -0.944   2.248  1.00  0.00     0.031 A 
ATOM     13  C   UNL     1      15.532  -0.527   1.016  1.00  0.00     0.074 A 
ATOM     14  C   UNL     1      14.877  -0.209   3.377  1.00  0.00     0.049 A 
ATOM     15  N   UNL     1      16.224   0.566   0.811  1.00  0.00    -0.248 NA
ATOM     16  C   UNL     1      15.523  -1.451  -0.127  1.00  0.00     0.031 C 
ATOM     17  C   UNL     1      14.234  -0.544   4.652  1.00  0.00     0.029 A 
ATOM     18  N   UNL     1      15.489   0.993   3.624  1.00  0.00    -0.354 N 
ATOM     19  C   UNL     1      16.744   0.458  -0.473  1.00  0.00     0.074 A 
ATOM     20  C   UNL     1      16.307  -0.821  -0.993  1.00  0.00     0.031 C 
ATOM     21  C   UNL     1      14.395   0.473   5.508  1.00  0.00     0.029 A 
ATOM     22  C   UNL     1      15.201   1.506   4.868  1.00  0.00     0.049 A 
ATOM     23  H   UNL     1      16.078   1.443   2.976  1.00  0.00     0.167 HD
ATOM     24  C   UNL     1      17.507   1.346  -1.156  1.00  0.00     0.037 A 
ATOM     25  C   UNL     1      15.530   2.685   5.431  1.00  0.00     0.037 A 
ATOM     26  C   UNL     1      17.926   2.624  -0.635  1.00  0.00     0.049 A 
ATOM     27  C   UNL     1      16.338   3.669   4.637  1.00  0.00     0.074 A 
ATOM     28  C   UNL     1      18.668   3.610  -1.265  1.00  0.00     0.029 A 
ATOM     29  N   UNL     1      17.645   3.094   0.640  1.00  0.00    -0.354 N 
ATOM     30  N   UNL     1      16.770   3.572   3.403  1.00  0.00    -0.248 NA
ATOM     31  C   UNL     1      16.707   4.920   5.312  1.00  0.00     0.031 C 
ATOM     32  C   UNL     1      18.867   4.658  -0.359  1.00  0.00     0.029 A 
ATOM     33  C   UNL     1      18.212   4.346   0.821  1.00  0.00     0.049 A 
ATOM     34  H   UNL     1      17.119   2.610   1.316  1.00  0.00     0.167 HD
ATOM     35  C   UNL     1      17.455   4.754   3.148  1.00  0.00     0.074 A 
ATOM     36  C   UNL     1      17.358   5.559   4.349  1.00  0.00     0.031 C 
ATOM     37  C   UNL     1      18.109   5.135   2.023  1.00  0.00     0.037 A 
BRANCH  24  38
ATOM     38  C   UNL     1      17.958   0.964  -2.539  1.00  0.00     0.058 A 
ATOM     39  C   UNL     1      17.071   0.946  -3.627  1.00  0.00     0.135 A 
ATOM     40  C   UNL     1      19.305   0.654  -2.789  1.00  0.00     0.135 A 
ATOM     41  F   UNL     1      15.770   1.220  -3.444  1.00  0.00    -0.206 F 
ATOM     42  C   UNL     1      17.498   0.610  -4.909  1.00  0.00     0.059 A 
ATOM     43  C   UNL     1      19.759   0.337  -4.066  1.00  0.00     0.059 A 
ATOM     44  F   UNL     1      20.196   0.658  -1.785  1.00  0.00    -0.206 F 
ATOM     45  C   UNL     1      18.845   0.303  -5.118  1.00  0.00     0.060 A 
BRANCH  45  46
ATOM     46  S   UNL     1      19.382  -0.134  -6.785  1.00  0.00     0.124 S 
ATOM     47  O   UNL     1      18.852  -1.488  -6.914  1.00  0.00    -0.237 OA
ATOM     48  O   UNL     1      18.731   0.882  -7.603  1.00  0.00    -0.237 OA
ATOM     49  O   UNL     1      20.838  -0.035  -6.709  1.00  0.00    -0.744 OA
ENDBRANCH  45  46
ENDBRANCH  24  38
BRANCH  25  50
ATOM     50  C   UNL     1      15.066   3.002   6.807  1.00  0.00     0.058 A 
ATOM     51  C   UNL     1      14.091   3.984   7.037  1.00  0.00     0.135 A 
ATOM     52  C   UNL     1      15.566   2.304   7.918  1.00  0.00     0.135 A 
ATOM     53  F   UNL     1      13.584   4.680   6.007  1.00  0.00    -0.206 F 
ATOM     54  C   UNL     1      13.635   4.271   8.319  1.00  0.00     0.059 A 
ATOM     55  C   UNL     1      15.105   2.554   9.205  1.00  0.00     0.059 A 
ATOM     56  F   UNL     1      16.485   1.341   7.748  1.00  0.00    -0.206 F 
ATOM     57  C   UNL     1      14.146   3.547   9.398  1.00  0.00     0.060 A 
BRANCH  57  58
ATOM     58  S   UNL     1      13.507   3.880  11.053  1.00  0.00     0.124 S 
ATOM     59  O   UNL     1      14.197   5.120  11.389  1.00  0.00    -0.237 OA
ATOM     60  O   UNL     1      12.072   3.991  10.814  1.00  0.00    -0.237 OA
ATOM     61  O   UNL     1      13.918   2.701  11.811  1.00  0.00    -0.744 OA
ENDBRANCH  57  58
ENDBRANCH  25  50
BRANCH  37  62
ATOM     62  C   UNL     1      18.751   6.493   2.037  1.00  0.00     0.058 A 
ATOM     63  C   UNL     1      19.920   6.747   2.771  1.00  0.00     0.135 A 
ATOM     64  C   UNL     1      18.198   7.548   1.294  1.00  0.00     0.135 A 
ATOM     65  F   UNL     1      20.483   5.774   3.503  1.00  0.00    -0.206 F 
ATOM     66  C   UNL     1      20.501   8.011   2.795  1.00  0.00     0.059 A 
ATOM     67  C   UNL     1      18.776   8.813   1.284  1.00  0.00     0.059 A 
ATOM     68  F   UNL     1      17.086   7.354   0.568  1.00  0.00    -0.206 F 
ATOM     69  C   UNL     1      19.918   9.039   2.052  1.00  0.00     0.060 A 
BRANCH  69  70
ATOM     70  S   UNL     1      20.682  10.675   2.082  1.00  0.00     0.124 S 
ATOM     71  O   UNL     1      20.238  11.181   3.376  1.00  0.00    -0.237 OA
ATOM     72  O   UNL     1      22.104  10.361   1.978  1.00  0.00    -0.237 OA
ATOM     73  O   UNL     1      20.107  11.338   0.916  1.00  0.00    -0.744 OA
ENDBRANCH  69  70
ENDBRANCH  37  62
ENDBRANCH  11  12
ENDBRANCH   4   6
ENDBRANCH   1   2
BRANCH   1  74
ATOM     74  C   UNL     1       8.463  -4.089   0.278  1.00  0.00     0.042 C 
BRANCH  74  75
ATOM     75  C   UNL     1       7.656  -5.314  -0.156  1.00  0.00     0.118 C 
BRANCH  75  76
ATOM     76  N   UNL     1       6.358  -4.926  -0.661  1.00  0.00    -0.351 N 
ATOM     77  C   UNL     1       5.794  -4.886  -1.889  1.00  0.00     0.280 C 
ATOM     78  H   UNL     1       5.748  -4.622   0.049  1.00  0.00     0.163 HD
ATOM     79  O   UNL     1       4.665  -4.368  -1.909  1.00  0.00    -0.268 OA
BRANCH  77  80
ATOM     80  C   UNL     1       6.387  -5.466  -3.206  1.00  0.00     0.292 C 
ATOM     81  C   UNL     1       7.886  -5.807  -3.356  1.00  0.00     0.195 C 
ATOM     82  N   UNL     1       5.493  -6.564  -3.684  1.00  0.00    -0.333 N 
ATOM     83  N   UNL     1       8.261  -7.198  -3.013  1.00  0.00    -0.326 N 
ATOM     84  C   UNL     1       5.841  -7.814  -3.003  1.00  0.00     0.283 C 
ATOM     85  H   UNL     1       5.610  -6.682  -4.691  1.00  0.00     0.347 HD
ATOM     86  H   UNL     1       4.523  -6.325  -3.478  1.00  0.00     0.347 HD
ATOM     87  C   UNL     1       7.279  -8.242  -3.305  1.00  0.00     0.181 C 
BRANCH  83  88
ATOM     88  C   UNL     1       9.566  -7.626  -2.715  1.00  0.00     0.264 C 
ATOM     89  O   UNL     1       9.825  -8.825  -2.597  1.00  0.00    -0.268 OA
BRANCH  88  90
ATOM     90  C   UNL     1      10.578  -6.618  -2.486  1.00  0.00     0.092 A 
ATOM     91  C   UNL     1      11.040  -6.150  -1.273  1.00  0.00     0.025 A 
ATOM     92  S   UNL     1      11.455  -5.961  -3.797  1.00  0.00    -0.139 S 
ATOM     93  C   UNL     1      12.064  -5.174  -1.430  1.00  0.00     0.012 A 
ATOM     94  C   UNL     1      12.404  -4.992  -2.752  1.00  0.00     0.065 A 
ENDBRANCH  88  90
ENDBRANCH  83  88
ENDBRANCH  77  80
ENDBRANCH  75  76
ENDBRANCH  74  75
ENDBRANCH   1  74
TORSDOF 15
