REMARK SMILES Cc1ccc(SCC[N@H+]2CC[C@@H](C(=O)NCCCNC(=O)c3ccc(-c4c5nc(c(-c6c(F)cc(S(=O)(=O)[O-])cc6F)c6ccc([nH]6)c(-c6c(F)cc(S(=O)(=O)[O-])cc6F)c6nc(c(-c7c(F)cc(S(=O)(=O)[O-])cc7F)c7ccc4[nH]7)C=C6)C=C5)cc3)[C@@H]2C)cc1
REMARK SMILES IDX 16 1 15 2 13 3 14 4 12 6 9 7 10 8 88 9 11 11 89 12 8 13 7 14
REMARK SMILES IDX 6 15 5 16 1 17 2 18 3 19 91 20 4 21 90 22 17 23 18 24 19 25
REMARK SMILES IDX 20 26 21 28 22 29 23 30 87 31 24 32 86 33 25 34 26 35 27 36
REMARK SMILES IDX 80 37 28 38 85 39 79 40 81 41 29 42 84 43 78 44 77 45 30 47
REMARK SMILES IDX 64 48 43 49 63 50 44 51 47 52 62 53 82 54 45 55 46 56 61 58
REMARK SMILES IDX 83 59 48 60 31 61 32 62 41 63 33 64 34 65 40 66 42 67 35 68
REMARK SMILES IDX 36 69 37 70 38 71 39 72 65 73 66 74 75 75 67 76 68 77 74 78
REMARK SMILES IDX 76 79 69 80 70 81 71 82 72 83 73 84 49 85 50 86 59 87 51 88
REMARK SMILES IDX 52 89 58 90 60 91 53 92 54 93 55 94 56 95 57 96
REMARK H PARENT 15 5 9 10 19 27 81 46 47 57
REMARK Flexibility Score: inf
ROOT
ATOM      1  C   UNL     1      -4.159   4.664   3.564  1.00  0.00     0.117 C 
ENDROOT
BRANCH   1   2
ATOM      2  N   UNL     1      -3.130   4.406   4.560  1.00  0.00    -0.356 N 
ATOM      3  C   UNL     1      -1.833   4.008   4.456  1.00  0.00     0.229 C 
ATOM      4  O   UNL     1      -1.172   3.974   5.501  1.00  0.00    -0.275 OA
ATOM      5  H   UNL     1      -3.430   4.547   5.487  1.00  0.00     0.163 HD
BRANCH   3   6
ATOM      6  C   UNL     1      -1.173   3.564   3.153  1.00  0.00     0.142 C 
ATOM      7  N   UNL     1      -2.025   2.417   1.189  1.00  0.00    -0.331 N 
ATOM      8  C   UNL     1      -1.690   3.786   0.789  1.00  0.00     0.263 C 
ATOM      9  C   UNL     1      -1.751   2.254   2.627  1.00  0.00     0.193 C 
ATOM     10  H   UNL     1      -1.429   1.779   0.662  1.00  0.00     0.348 HD
ATOM     11  C   UNL     1      -1.184   4.550   2.004  1.00  0.00     0.081 C 
ATOM     12  C   UNL     1      -0.746   1.109   2.791  1.00  0.00     0.076 C 
BRANCH   7  13
ATOM     13  C   UNL     1      -3.396   2.020   0.826  1.00  0.00     0.273 C 
BRANCH  13  14
ATOM     14  C   UNL     1      -3.636   1.642  -0.644  1.00  0.00     0.136 C 
BRANCH  14  15
ATOM     15  S   UNL     1      -3.243  -0.099  -1.069  1.00  0.00    -0.120 SA
BRANCH  15  16
ATOM     16  C   UNL     1      -1.476  -0.151  -0.864  1.00  0.00     0.007 A 
ATOM     17  C   UNL     1       2.768  -0.309  -0.122  1.00  0.00     0.044 C 
ATOM     18  C   UNL     1       1.296  -0.268  -0.398  1.00  0.00    -0.051 A 
ATOM     19  C   UNL     1       0.473  -1.342  -0.043  1.00  0.00     0.004 A 
ATOM     20  C   UNL     1       0.732   0.833  -1.047  1.00  0.00     0.004 A 
ATOM     21  C   UNL     1      -0.904  -1.281  -0.271  1.00  0.00     0.015 A 
ATOM     22  C   UNL     1      -0.641   0.883  -1.289  1.00  0.00     0.015 A 
ENDBRANCH  15  16
ENDBRANCH  14  15
ENDBRANCH  13  14
ENDBRANCH   7  13
ENDBRANCH   3   6
ENDBRANCH   1   2
BRANCH   1  23
ATOM     23  C   UNL     1      -5.138   3.514   3.376  1.00  0.00     0.042 C 
BRANCH  23  24
ATOM     24  C   UNL     1      -6.395   3.599   4.227  1.00  0.00     0.118 C 
BRANCH  24  25
ATOM     25  N   UNL     1      -7.591   3.504   3.381  1.00  0.00    -0.352 N 
ATOM     26  C   UNL     1      -8.865   3.093   3.720  1.00  0.00     0.251 C 
ATOM     27  H   UNL     1      -7.468   3.771   2.441  1.00  0.00     0.163 HD
ATOM     28  O   UNL     1      -9.760   2.973   2.903  1.00  0.00    -0.269 OA
BRANCH  26  29
ATOM     29  C   UNL     1      -9.104   2.873   5.154  1.00  0.00     0.039 A 
ATOM     30  C   UNL     1      -9.669   3.935   5.866  1.00  0.00     0.014 A 
ATOM     31  C   UNL     1      -8.399   1.852   5.784  1.00  0.00     0.014 A 
ATOM     32  C   UNL     1      -9.351   4.089   7.209  1.00  0.00     0.010 A 
ATOM     33  C   UNL     1      -8.014   2.059   7.094  1.00  0.00     0.010 A 
ATOM     34  C   UNL     1      -8.439   3.208   7.787  1.00  0.00    -0.014 A 
BRANCH  34  35
ATOM     35  C   UNL     1      -7.779   3.461   9.065  1.00  0.00     0.031 A 
ATOM     36  C   UNL     1      -8.044   2.565  10.216  1.00  0.00     0.074 A 
ATOM     37  C   UNL     1      -6.876   4.458   9.195  1.00  0.00     0.049 A 
ATOM     38  N   UNL     1      -7.730   2.822  11.441  1.00  0.00    -0.248 NA
ATOM     39  C   UNL     1      -8.788   1.319  10.074  1.00  0.00     0.031 C 
ATOM     40  C   UNL     1      -5.872   4.592  10.246  1.00  0.00     0.029 A 
ATOM     41  N   UNL     1      -6.811   5.667   8.509  1.00  0.00    -0.354 N 
ATOM     42  C   UNL     1      -7.957   1.688  12.190  1.00  0.00     0.074 A 
ATOM     43  C   UNL     1      -8.712   0.830  11.312  1.00  0.00     0.031 C 
ATOM     44  C   UNL     1      -5.447   5.863  10.290  1.00  0.00     0.029 A 
ATOM     45  C   UNL     1      -6.270   6.632   9.374  1.00  0.00     0.049 A 
ATOM     46  H   UNL     1      -7.094   5.819   7.578  1.00  0.00     0.167 HD
ATOM     47  C   UNL     1      -7.358   1.575  13.413  1.00  0.00     0.037 A 
ATOM     48  C   UNL     1      -6.967   7.753   9.727  1.00  0.00     0.037 A 
ATOM     49  C   UNL     1      -6.793   2.863  13.830  1.00  0.00     0.049 A 
ATOM     50  C   UNL     1      -7.280   7.858  11.204  1.00  0.00     0.074 A 
ATOM     51  C   UNL     1      -5.508   3.383  13.834  1.00  0.00     0.029 A 
ATOM     52  N   UNL     1      -7.647   3.935  14.072  1.00  0.00    -0.354 N 
ATOM     53  N   UNL     1      -7.130   6.878  12.051  1.00  0.00    -0.248 NA
ATOM     54  C   UNL     1      -7.815   9.060  11.840  1.00  0.00     0.031 C 
ATOM     55  C   UNL     1      -5.603   4.789  14.006  1.00  0.00     0.029 A 
ATOM     56  C   UNL     1      -6.941   5.122  14.132  1.00  0.00     0.049 A 
ATOM     57  H   UNL     1      -8.622   3.859  14.186  1.00  0.00     0.167 HD
ATOM     58  C   UNL     1      -7.585   7.259  13.287  1.00  0.00     0.074 A 
ATOM     59  C   UNL     1      -7.964   8.649  13.113  1.00  0.00     0.031 C 
ATOM     60  C   UNL     1      -7.633   6.388  14.339  1.00  0.00     0.037 A 
BRANCH  47  61
ATOM     61  C   UNL     1      -7.032   0.251  14.105  1.00  0.00     0.058 A 
ATOM     62  C   UNL     1      -6.024   0.192  15.098  1.00  0.00     0.135 A 
ATOM     63  C   UNL     1      -7.575  -1.009  13.778  1.00  0.00     0.135 A 
ATOM     64  F   UNL     1      -5.464   1.304  15.595  1.00  0.00    -0.206 F 
ATOM     65  C   UNL     1      -5.530  -1.009  15.626  1.00  0.00     0.059 A 
ATOM     66  C   UNL     1      -7.080  -2.222  14.266  1.00  0.00     0.059 A 
ATOM     67  F   UNL     1      -8.646  -1.148  12.997  1.00  0.00    -0.206 F 
ATOM     68  C   UNL     1      -6.041  -2.217  15.177  1.00  0.00     0.060 A 
BRANCH  68  69
ATOM     69  S   UNL     1      -5.355  -3.763  15.793  1.00  0.00     0.124 S 
ATOM     70  O   UNL     1      -3.959  -3.663  15.382  1.00  0.00    -0.237 OA
ATOM     71  O   UNL     1      -5.608  -3.662  17.226  1.00  0.00    -0.237 OA
ATOM     72  O   UNL     1      -6.133  -4.784  15.094  1.00  0.00    -0.744 OA
ENDBRANCH  68  69
ENDBRANCH  47  61
BRANCH  48  73
ATOM     73  C   UNL     1      -7.796   8.300   8.622  1.00  0.00     0.058 A 
ATOM     74  C   UNL     1      -7.111   8.888   7.543  1.00  0.00     0.135 A 
ATOM     75  C   UNL     1      -9.099   7.835   8.393  1.00  0.00     0.135 A 
ATOM     76  F   UNL     1      -5.871   9.372   7.718  1.00  0.00    -0.206 F 
ATOM     77  C   UNL     1      -7.614   8.838   6.249  1.00  0.00     0.059 A 
ATOM     78  C   UNL     1      -9.627   7.781   7.102  1.00  0.00     0.059 A 
ATOM     79  F   UNL     1      -9.801   7.275   9.389  1.00  0.00    -0.206 F 
ATOM     80  C   UNL     1      -8.838   8.208   6.032  1.00  0.00     0.060 A 
BRANCH  80  81
ATOM     81  S   UNL     1      -9.251   7.756   4.331  1.00  0.00     0.124 S 
ATOM     82  O   UNL     1      -9.256   9.052   3.662  1.00  0.00    -0.237 OA
ATOM     83  O   UNL     1      -8.137   6.872   3.989  1.00  0.00    -0.237 OA
ATOM     84  O   UNL     1     -10.549   7.106   4.462  1.00  0.00    -0.744 OA
ENDBRANCH  80  81
ENDBRANCH  48  73
BRANCH  60  85
ATOM     85  C   UNL     1      -8.276   6.657  15.679  1.00  0.00     0.058 A 
ATOM     86  C   UNL     1      -9.411   7.466  15.862  1.00  0.00     0.135 A 
ATOM     87  C   UNL     1      -7.828   5.966  16.831  1.00  0.00     0.135 A 
ATOM     88  F   UNL     1      -9.993   8.092  14.828  1.00  0.00    -0.206 F 
ATOM     89  C   UNL     1     -10.025   7.625  17.107  1.00  0.00     0.059 A 
ATOM     90  C   UNL     1      -8.456   6.068  18.070  1.00  0.00     0.059 A 
ATOM     91  F   UNL     1      -6.761   5.153  16.784  1.00  0.00    -0.206 F 
ATOM     92  C   UNL     1      -9.542   6.921  18.206  1.00  0.00     0.060 A 
BRANCH  92  93
ATOM     93  S   UNL     1     -10.365   7.058  19.805  1.00  0.00     0.124 S 
ATOM     94  O   UNL     1      -9.563   8.087  20.458  1.00  0.00    -0.237 OA
ATOM     95  O   UNL     1     -11.723   7.455  19.443  1.00  0.00    -0.237 OA
ATOM     96  O   UNL     1     -10.241   5.712  20.355  1.00  0.00    -0.744 OA
ENDBRANCH  92  93
ENDBRANCH  60  85
ENDBRANCH  34  35
ENDBRANCH  26  29
ENDBRANCH  24  25
ENDBRANCH  23  24
ENDBRANCH   1  23
TORSDOF 17
