REMARK SMILES O=C(NCCCNC(=O)c1cc(/N=C/c2ccc([N+](=O)[O-])cc2)ccc1O)c1ccc(-c2c3nc(c(-c4c(F)cc(S(=O)(=O)[O-])cc4F)c4ccc([nH]4)c(-c4c(F)cc(S(=O)(=O)[O-])cc4F)c4nc(c(-c5c(F)cc(S(=O)(=O)[O-])cc5F)c5ccc2[nH]5)C=C4)C=C3)cc1
REMARK SMILES IDX 5 1 4 2 3 3 1 4 2 5 28 7 29 8 93 9 30 10 92 11 31 12 32 13
REMARK SMILES IDX 33 14 86 15 34 16 91 17 85 18 87 19 35 20 90 21 84 22 83 23
REMARK SMILES IDX 36 25 70 26 49 27 69 28 50 29 53 30 68 31 88 32 51 33 52 34
REMARK SMILES IDX 67 36 89 37 54 38 37 39 38 40 47 41 39 42 40 43 46 44 48 45
REMARK SMILES IDX 41 46 42 47 43 48 44 49 45 50 71 51 72 52 81 53 73 54 74 55
REMARK SMILES IDX 80 56 82 57 75 58 76 59 77 60 78 61 79 62 55 63 56 64 65 65
REMARK SMILES IDX 57 66 58 67 64 68 66 69 59 70 60 71 61 72 62 73 63 74 6 75
REMARK SMILES IDX 7 76 8 77 9 79 10 80 11 81 26 82 12 83 25 84 24 85 27 86
REMARK SMILES IDX 13 88 14 89 15 90 16 91 23 92 17 93 22 94 18 95 19 96 20 97
REMARK SMILES IDX 21 98
REMARK H PARENT 3 6 87 24 53 35 7 78 27 87
REMARK Flexibility Score: inf
ROOT
ATOM      1  C   UNL     1       5.058  -1.417   1.987  1.00  0.00     0.042 C 
ENDROOT
BRANCH   1   2
ATOM      2  C   UNL     1       4.644  -1.303   0.528  1.00  0.00     0.118 C 
BRANCH   2   3
ATOM      3  N   UNL     1       3.203  -1.186   0.355  1.00  0.00    -0.352 N 
ATOM      4  O   UNL     1       1.209  -0.192   0.055  1.00  0.00    -0.269 OA
ATOM      5  C   UNL     1       2.433  -0.120  -0.045  1.00  0.00     0.251 C 
ATOM      6  H   UNL     1       2.696  -2.005   0.558  1.00  0.00     0.163 HD
BRANCH   5   7
ATOM      7  C   UNL     1       3.059   1.116  -0.566  1.00  0.00     0.039 A 
ATOM      8  C   UNL     1       4.146   1.065  -1.441  1.00  0.00     0.014 A 
ATOM      9  C   UNL     1       2.526   2.354  -0.196  1.00  0.00     0.014 A 
ATOM     10  C   UNL     1       4.800   2.237  -1.810  1.00  0.00     0.010 A 
ATOM     11  C   UNL     1       3.125   3.535  -0.645  1.00  0.00     0.010 A 
ATOM     12  C   UNL     1       4.291   3.486  -1.425  1.00  0.00    -0.014 A 
BRANCH  12  13
ATOM     13  C   UNL     1       4.960   4.732  -1.882  1.00  0.00     0.031 A 
ATOM     14  C   UNL     1       5.567   5.688  -0.893  1.00  0.00     0.074 A 
ATOM     15  C   UNL     1       5.014   4.999  -3.202  1.00  0.00     0.049 A 
ATOM     16  N   UNL     1       6.141   6.844  -1.108  1.00  0.00    -0.248 NA
ATOM     17  C   UNL     1       5.516   5.300   0.525  1.00  0.00     0.031 C 
ATOM     18  C   UNL     1       4.460   4.148  -4.257  1.00  0.00     0.029 A 
ATOM     19  N   UNL     1       5.559   6.058  -3.882  1.00  0.00    -0.354 N 
ATOM     20  C   UNL     1       6.497   7.335   0.143  1.00  0.00     0.074 A 
ATOM     21  C   UNL     1       6.051   6.360   1.116  1.00  0.00     0.031 C 
ATOM     22  C   UNL     1       4.713   4.705  -5.450  1.00  0.00     0.029 A 
ATOM     23  C   UNL     1       5.389   5.981  -5.244  1.00  0.00     0.049 A 
ATOM     24  H   UNL     1       6.028   6.801  -3.438  1.00  0.00     0.167 HD
ATOM     25  C   UNL     1       7.139   8.488   0.449  1.00  0.00     0.037 A 
ATOM     26  C   UNL     1       5.711   6.851  -6.219  1.00  0.00     0.037 A 
ATOM     27  C   UNL     1       7.587   9.446  -0.530  1.00  0.00     0.049 A 
ATOM     28  C   UNL     1       6.397   8.135  -5.856  1.00  0.00     0.074 A 
ATOM     29  C   UNL     1       8.273  10.631  -0.325  1.00  0.00     0.029 A 
ATOM     30  N   UNL     1       7.388   9.334  -1.900  1.00  0.00    -0.354 N 
ATOM     31  N   UNL     1       6.745   8.573  -4.669  1.00  0.00    -0.248 NA
ATOM     32  C   UNL     1       6.735   9.044  -6.958  1.00  0.00     0.031 C 
ATOM     33  C   UNL     1       8.447  11.257  -1.564  1.00  0.00     0.029 A 
ATOM     34  C   UNL     1       7.920  10.437  -2.549  1.00  0.00     0.049 A 
ATOM     35  H   UNL     1       6.936   8.581  -2.345  1.00  0.00     0.167 HD
ATOM     36  C   UNL     1       7.365   9.798  -4.884  1.00  0.00     0.074 A 
ATOM     37  C   UNL     1       7.349  10.028  -6.315  1.00  0.00     0.031 C 
ATOM     38  C   UNL     1       7.903  10.650  -3.977  1.00  0.00     0.037 A 
BRANCH  25  39
ATOM     39  C   UNL     1       7.370   8.792   1.906  1.00  0.00     0.058 A 
ATOM     40  C   UNL     1       8.290   8.068   2.680  1.00  0.00     0.135 A 
ATOM     41  C   UNL     1       6.668   9.835   2.534  1.00  0.00     0.135 A 
ATOM     42  F   UNL     1       8.980   7.053   2.136  1.00  0.00    -0.206 F 
ATOM     43  C   UNL     1       8.476   8.337   4.033  1.00  0.00     0.059 A 
ATOM     44  C   UNL     1       6.859  10.141   3.879  1.00  0.00     0.059 A 
ATOM     45  F   UNL     1       5.780  10.565   1.842  1.00  0.00    -0.206 F 
ATOM     46  C   UNL     1       7.750   9.371   4.625  1.00  0.00     0.060 A 
BRANCH  46  47
ATOM     47  S   UNL     1       7.976   9.688   6.388  1.00  0.00     0.124 S 
ATOM     48  O   UNL     1       7.265   8.557   6.979  1.00  0.00    -0.237 OA
ATOM     49  O   UNL     1       9.429   9.663   6.528  1.00  0.00    -0.237 OA
ATOM     50  O   UNL     1       7.353  10.992   6.584  1.00  0.00    -0.744 OA
ENDBRANCH  46  47
ENDBRANCH  25  39
BRANCH  26  51
ATOM     51  C   UNL     1       5.375   6.519  -7.628  1.00  0.00     0.058 A 
ATOM     52  C   UNL     1       6.375   6.169  -8.546  1.00  0.00     0.135 A 
ATOM     53  C   UNL     1       4.041   6.484  -8.065  1.00  0.00     0.135 A 
ATOM     54  F   UNL     1       7.664   6.193  -8.176  1.00  0.00    -0.206 F 
ATOM     55  C   UNL     1       6.065   5.792  -9.849  1.00  0.00     0.059 A 
ATOM     56  C   UNL     1       3.705   6.086  -9.354  1.00  0.00     0.059 A 
ATOM     57  F   UNL     1       3.047   6.793  -7.218  1.00  0.00    -0.206 F 
ATOM     58  C   UNL     1       4.725   5.745 -10.241  1.00  0.00     0.060 A 
BRANCH  58  59
ATOM     59  S   UNL     1       4.330   5.178 -11.909  1.00  0.00     0.124 S 
ATOM     60  O   UNL     1       4.745   6.320 -12.714  1.00  0.00    -0.237 OA
ATOM     61  O   UNL     1       5.155   3.979 -12.027  1.00  0.00    -0.237 OA
ATOM     62  O   UNL     1       2.892   4.935 -11.849  1.00  0.00    -0.744 OA
ENDBRANCH  58  59
ENDBRANCH  26  51
BRANCH  38  63
ATOM     63  C   UNL     1       8.560  11.896  -4.502  1.00  0.00     0.058 A 
ATOM     64  C   UNL     1       7.812  12.978  -4.991  1.00  0.00     0.135 A 
ATOM     65  C   UNL     1       9.957  12.031  -4.454  1.00  0.00     0.135 A 
ATOM     66  F   UNL     1       6.474  12.896  -5.067  1.00  0.00    -0.206 F 
ATOM     67  C   UNL     1       8.428  14.147  -5.427  1.00  0.00     0.059 A 
ATOM     68  C   UNL     1      10.592  13.200  -4.860  1.00  0.00     0.059 A 
ATOM     69  F   UNL     1      10.718  11.028  -3.988  1.00  0.00    -0.206 F 
ATOM     70  C   UNL     1       9.818  14.251  -5.353  1.00  0.00     0.060 A 
BRANCH  70  71
ATOM     71  S   UNL     1      10.602  15.792  -5.872  1.00  0.00     0.124 S 
ATOM     72  O   UNL     1      10.490  15.705  -7.324  1.00  0.00    -0.237 OA
ATOM     73  O   UNL     1       9.763  16.800  -5.231  1.00  0.00    -0.237 OA
ATOM     74  O   UNL     1      11.956  15.682  -5.339  1.00  0.00    -0.744 OA
ENDBRANCH  70  71
ENDBRANCH  38  63
ENDBRANCH  12  13
ENDBRANCH   5   7
ENDBRANCH   2   3
ENDBRANCH   1   2
BRANCH   1  75
ATOM     75  C   UNL     1       4.573  -2.682   2.677  1.00  0.00     0.118 C 
BRANCH  75  76
ATOM     76  N   UNL     1       5.130  -3.895   2.095  1.00  0.00    -0.352 N 
ATOM     77  C   UNL     1       5.843  -4.898   2.707  1.00  0.00     0.255 C 
ATOM     78  H   UNL     1       4.975  -4.012   1.130  1.00  0.00     0.163 HD
ATOM     79  O   UNL     1       6.292  -5.830   2.045  1.00  0.00    -0.269 OA
BRANCH  77  80
ATOM     80  C   UNL     1       6.134  -4.824   4.152  1.00  0.00     0.083 A 
ATOM     81  C   UNL     1       7.480  -4.843   4.541  1.00  0.00     0.046 A 
ATOM     82  C   UNL     1       5.125  -4.724   5.117  1.00  0.00     0.128 A 
ATOM     83  C   UNL     1       7.828  -4.697   5.885  1.00  0.00     0.064 A 
ATOM     84  C   UNL     1       5.462  -4.546   6.455  1.00  0.00     0.049 A 
ATOM     85  C   UNL     1       6.808  -4.509   6.828  1.00  0.00     0.032 A 
BRANCH  82  86
ATOM     86  O   UNL     1       3.808  -4.776   4.755  1.00  0.00    -0.507 OA
ATOM     87  H   UNL     1       3.574  -4.896   3.855  1.00  0.00     0.293 HD
ENDBRANCH  82  86
BRANCH  83  88
ATOM     88  N   UNL     1       9.191  -4.677   6.232  1.00  0.00    -0.256 NA
ATOM     89  C   UNL     1       9.563  -5.351   7.273  1.00  0.00     0.119 C 
BRANCH  89  90
ATOM     90  C   UNL     1      10.966  -5.393   7.729  1.00  0.00    -0.007 A 
ATOM     91  C   UNL     1      11.255  -6.069   8.920  1.00  0.00     0.017 A 
ATOM     92  C   UNL     1      11.988  -4.788   6.990  1.00  0.00     0.017 A 
ATOM     93  C   UNL     1      12.575  -6.152   9.371  1.00  0.00     0.086 A 
ATOM     94  C   UNL     1      13.312  -4.871   7.434  1.00  0.00     0.086 A 
ATOM     95  C   UNL     1      13.601  -5.558   8.622  1.00  0.00     0.269 A 
BRANCH  95  96
ATOM     96  N   UNL     1      14.991  -5.671   9.083  1.00  0.00     0.062 N 
ATOM     97  O   UNL     1      15.198  -6.291  10.137  1.00  0.00    -0.258 OA
ATOM     98  O   UNL     1      15.876  -5.151   8.390  1.00  0.00    -0.258 OA
ENDBRANCH  95  96
ENDBRANCH  89  90
ENDBRANCH  83  88
ENDBRANCH  77  80
ENDBRANCH  75  76
ENDBRANCH   1  75
TORSDOF 17
