REMARK SMILES Cc1ccc(NC(=O)C[N@H+]2CCC[C@@H](C(=O)NCCCNC(=O)c3ccc(-c4c5nc(c(-c6c(F)cc(S(=O)(=O)[O-])cc6F)c6ccc([nH]6)c(-c6c(F)cc(S(=O)(=O)[O-])cc6F)c6nc(c(-c7c(F)cc(S(=O)(=O)[O-])cc7F)c7ccc4[nH]7)C=C6)C=C5)cc3)C2)cc1F
REMARK SMILES IDX 19 1 18 2 17 3 15 4 16 5 14 7 10 8 11 9 90 10 12 12 13 13
REMARK SMILES IDX 9 14 7 15 6 16 8 18 5 19 1 20 2 21 3 22 92 23 4 24 91 25
REMARK SMILES IDX 93 26 20 27 21 28 22 29 23 31 24 32 25 33 89 34 26 35 88 36
REMARK SMILES IDX 27 37 28 38 29 39 82 40 30 41 87 42 81 43 83 44 31 45 86 46
REMARK SMILES IDX 80 47 79 48 32 50 66 51 45 52 65 53 46 54 49 55 64 56 84 57
REMARK SMILES IDX 47 58 48 59 63 61 85 62 50 63 33 64 34 65 43 66 35 67 36 68
REMARK SMILES IDX 42 69 44 70 37 71 38 72 39 73 40 74 41 75 67 76 68 77 77 78
REMARK SMILES IDX 69 79 70 80 76 81 78 82 71 83 72 84 73 85 74 86 75 87 51 88
REMARK SMILES IDX 52 89 61 90 53 91 54 92 60 93 62 94 55 95 56 96 57 97 58 98
REMARK SMILES IDX 59 99
REMARK H PARENT 17 6 10 11 6 17 21 30 83 49 49 60
REMARK Flexibility Score: inf
ROOT
ATOM      1  C   UNL     1       0.956   1.569  -1.679  1.00  0.00     0.042 C 
ENDROOT
BRANCH   1   2
ATOM      2  C   UNL     1      -0.217   0.594  -1.683  1.00  0.00     0.117 C 
BRANCH   2   3
ATOM      3  N   UNL     1      -0.900   0.559  -2.974  1.00  0.00    -0.356 N 
ATOM      4  C   UNL     1      -1.193  -0.519  -3.763  1.00  0.00     0.228 C 
ATOM      5  O   UNL     1      -1.804  -0.352  -4.818  1.00  0.00    -0.275 OA
ATOM      6  H   UNL     1      -1.189   1.432  -3.324  1.00  0.00     0.163 HD
BRANCH   4   7
ATOM      7  C   UNL     1      -0.763  -1.899  -3.289  1.00  0.00     0.133 C 
ATOM      8  N   UNL     1      -1.212  -3.635  -1.591  1.00  0.00    -0.326 N 
ATOM      9  C   UNL     1      -1.119  -4.688  -2.622  1.00  0.00     0.262 C 
ATOM     10  C   UNL     1      -1.719  -2.389  -2.191  1.00  0.00     0.276 C 
ATOM     11  H   UNL     1      -0.292  -3.397  -1.222  1.00  0.00     0.348 HD
ATOM     12  C   UNL     1      -0.278  -4.273  -3.836  1.00  0.00     0.062 C 
ATOM     13  C   UNL     1      -0.730  -2.934  -4.412  1.00  0.00     0.025 C 
BRANCH   8  14
ATOM     14  C   UNL     1      -1.982  -4.141  -0.421  1.00  0.00     0.363 C 
BRANCH  14  15
ATOM     15  C   UNL     1      -3.020  -3.200   0.185  1.00  0.00     0.279 C 
ATOM     16  N   UNL     1      -2.725  -2.062   0.873  1.00  0.00    -0.321 N 
ATOM     17  H   UNL     1      -3.530  -1.570   1.155  1.00  0.00     0.170 HD
ATOM     18  O   UNL     1      -4.224  -3.466   0.045  1.00  0.00    -0.268 OA
BRANCH  16  19
ATOM     19  C   UNL     1      -1.536  -1.427   1.273  1.00  0.00     0.044 A 
ATOM     20  C   UNL     1       1.947   0.843   2.456  1.00  0.00     0.047 C 
ATOM     21  C   UNL     1       0.724   0.061   2.092  1.00  0.00    -0.015 A 
ATOM     22  C   UNL     1      -0.549   0.631   2.139  1.00  0.00     0.008 A 
ATOM     23  C   UNL     1       0.845  -1.244   1.626  1.00  0.00     0.128 A 
ATOM     24  C   UNL     1      -1.667  -0.108   1.739  1.00  0.00     0.026 A 
ATOM     25  C   UNL     1      -0.265  -1.988   1.227  1.00  0.00     0.065 A 
ATOM     26  F   UNL     1       2.057  -1.813   1.550  1.00  0.00    -0.207 F 
ENDBRANCH  16  19
ENDBRANCH  14  15
ENDBRANCH   8  14
ENDBRANCH   4   7
ENDBRANCH   2   3
ENDBRANCH   1   2
BRANCH   1  27
ATOM     27  C   UNL     1       0.490   2.965  -1.263  1.00  0.00     0.118 C 
BRANCH  27  28
ATOM     28  N   UNL     1       0.526   3.124   0.199  1.00  0.00    -0.352 N 
ATOM     29  C   UNL     1       1.346   3.825   1.059  1.00  0.00     0.251 C 
ATOM     30  H   UNL     1      -0.186   2.625   0.661  1.00  0.00     0.163 HD
ATOM     31  O   UNL     1       1.166   3.802   2.275  1.00  0.00    -0.269 OA
BRANCH  29  32
ATOM     32  C   UNL     1       2.353   4.754   0.522  1.00  0.00     0.039 A 
ATOM     33  C   UNL     1       2.250   6.074   0.979  1.00  0.00     0.014 A 
ATOM     34  C   UNL     1       2.999   4.450  -0.663  1.00  0.00     0.014 A 
ATOM     35  C   UNL     1       2.452   7.105   0.077  1.00  0.00     0.010 A 
ATOM     36  C   UNL     1       3.065   5.460  -1.597  1.00  0.00     0.010 A 
ATOM     37  C   UNL     1       2.714   6.770  -1.249  1.00  0.00    -0.014 A 
BRANCH  37  38
ATOM     38  C   UNL     1       2.570   7.722  -2.339  1.00  0.00     0.031 A 
ATOM     39  C   UNL     1       3.795   8.223  -2.990  1.00  0.00     0.074 A 
ATOM     40  C   UNL     1       1.366   8.204  -2.724  1.00  0.00     0.049 A 
ATOM     41  N   UNL     1       3.952   9.442  -3.380  1.00  0.00    -0.248 NA
ATOM     42  C   UNL     1       4.977   7.390  -3.195  1.00  0.00     0.031 C 
ATOM     43  C   UNL     1       1.109   9.050  -3.886  1.00  0.00     0.029 A 
ATOM     44  N   UNL     1       0.146   8.173  -2.050  1.00  0.00    -0.354 N 
ATOM     45  C   UNL     1       5.121   9.492  -4.098  1.00  0.00     0.074 A 
ATOM     46  C   UNL     1       5.756   8.210  -3.902  1.00  0.00     0.031 C 
ATOM     47  C   UNL     1      -0.082   9.646  -3.737  1.00  0.00     0.029 A 
ATOM     48  C   UNL     1      -0.605   9.301  -2.426  1.00  0.00     0.049 A 
ATOM     49  H   UNL     1      -0.142   7.478  -1.415  1.00  0.00     0.167 HD
ATOM     50  C   UNL     1       5.388  10.552  -4.908  1.00  0.00     0.037 A 
ATOM     51  C   UNL     1      -1.039  10.223  -1.512  1.00  0.00     0.037 A 
ATOM     52  C   UNL     1       4.276  11.494  -4.930  1.00  0.00     0.049 A 
ATOM     53  C   UNL     1      -0.410  11.585  -1.650  1.00  0.00     0.074 A 
ATOM     54  C   UNL     1       3.190  11.614  -5.783  1.00  0.00     0.029 A 
ATOM     55  N   UNL     1       3.967  12.241  -3.798  1.00  0.00    -0.354 N 
ATOM     56  N   UNL     1       0.626  11.831  -2.403  1.00  0.00    -0.248 NA
ATOM     57  C   UNL     1      -0.864  12.774  -0.934  1.00  0.00     0.031 C 
ATOM     58  C   UNL     1       2.202  12.395  -5.137  1.00  0.00     0.029 A 
ATOM     59  C   UNL     1       2.695  12.778  -3.902  1.00  0.00     0.049 A 
ATOM     60  H   UNL     1       4.570  12.370  -3.030  1.00  0.00     0.167 HD
ATOM     61  C   UNL     1       1.020  13.133  -2.244  1.00  0.00     0.074 A 
ATOM     62  C   UNL     1       0.028  13.693  -1.345  1.00  0.00     0.031 C 
ATOM     63  C   UNL     1       2.144  13.623  -2.849  1.00  0.00     0.037 A 
BRANCH  50  64
ATOM     64  C   UNL     1       6.514  10.500  -5.907  1.00  0.00     0.058 A 
ATOM     65  C   UNL     1       6.352  10.981  -7.220  1.00  0.00     0.135 A 
ATOM     66  C   UNL     1       7.768   9.917  -5.628  1.00  0.00     0.135 A 
ATOM     67  F   UNL     1       5.240  11.625  -7.597  1.00  0.00    -0.206 F 
ATOM     68  C   UNL     1       7.315  10.797  -8.211  1.00  0.00     0.059 A 
ATOM     69  C   UNL     1       8.724   9.668  -6.617  1.00  0.00     0.059 A 
ATOM     70  F   UNL     1       8.099   9.564  -4.375  1.00  0.00    -0.206 F 
ATOM     71  C   UNL     1       8.485  10.109  -7.911  1.00  0.00     0.060 A 
BRANCH  71  72
ATOM     72  S   UNL     1       9.667   9.789  -9.234  1.00  0.00     0.124 S 
ATOM     73  O   UNL     1       8.812   9.284 -10.304  1.00  0.00    -0.237 OA
ATOM     74  O   UNL     1      10.241  11.112  -9.450  1.00  0.00    -0.237 OA
ATOM     75  O   UNL     1      10.569   8.800  -8.649  1.00  0.00    -0.744 OA
ENDBRANCH  71  72
ENDBRANCH  50  64
BRANCH  51  76
ATOM     76  C   UNL     1      -1.681   9.653  -0.285  1.00  0.00     0.058 A 
ATOM     77  C   UNL     1      -2.995   9.201  -0.494  1.00  0.00     0.135 A 
ATOM     78  C   UNL     1      -0.878   8.916   0.596  1.00  0.00     0.135 A 
ATOM     79  F   UNL     1      -3.848   9.941  -1.220  1.00  0.00    -0.206 F 
ATOM     80  C   UNL     1      -3.352   7.893  -0.198  1.00  0.00     0.059 A 
ATOM     81  C   UNL     1      -1.196   7.589   0.877  1.00  0.00     0.059 A 
ATOM     82  F   UNL     1       0.332   9.378   0.945  1.00  0.00    -0.206 F 
ATOM     83  C   UNL     1      -2.371   7.061   0.336  1.00  0.00     0.060 A 
BRANCH  83  84
ATOM     84  S   UNL     1      -2.304   5.353  -0.288  1.00  0.00     0.124 S 
ATOM     85  O   UNL     1      -1.970   4.557   0.888  1.00  0.00    -0.237 OA
ATOM     86  O   UNL     1      -3.639   5.122  -0.827  1.00  0.00    -0.237 OA
ATOM     87  O   UNL     1      -1.249   5.492  -1.292  1.00  0.00    -0.744 OA
ENDBRANCH  83  84
ENDBRANCH  51  76
BRANCH  63  88
ATOM     88  C   UNL     1       2.794  14.965  -2.590  1.00  0.00     0.058 A 
ATOM     89  C   UNL     1       2.714  15.665  -1.374  1.00  0.00     0.135 A 
ATOM     90  C   UNL     1       3.667  15.529  -3.556  1.00  0.00     0.135 A 
ATOM     91  F   UNL     1       2.009  15.190  -0.338  1.00  0.00    -0.206 F 
ATOM     92  C   UNL     1       3.401  16.861  -1.151  1.00  0.00     0.059 A 
ATOM     93  C   UNL     1       4.411  16.684  -3.330  1.00  0.00     0.059 A 
ATOM     94  F   UNL     1       3.844  14.962  -4.759  1.00  0.00    -0.206 F 
ATOM     95  C   UNL     1       4.253  17.360  -2.131  1.00  0.00     0.060 A 
BRANCH  95  96
ATOM     96  S   UNL     1       5.213  18.851  -1.812  1.00  0.00     0.124 S 
ATOM     97  O   UNL     1       4.305  19.889  -2.289  1.00  0.00    -0.237 OA
ATOM     98  O   UNL     1       5.412  18.804  -0.366  1.00  0.00    -0.237 OA
ATOM     99  O   UNL     1       6.419  18.648  -2.608  1.00  0.00    -0.744 OA
ENDBRANCH  95  96
ENDBRANCH  63  88
ENDBRANCH  37  38
ENDBRANCH  29  32
ENDBRANCH  27  28
ENDBRANCH   1  27
TORSDOF 16
