REMARK SMILES C[C@H](CC(=O)NCCCNC(=O)c1ccc(-c2c3nc(c(-c4c(F)cc(S(=O)(=O)[O-])cc4F)c4ccc([nH]4)c(-c4c(F)cc(S(=O)(=O)[O-])cc4F)c4nc(c(-c5c(F)cc(S(=O)(=O)[O-])cc5F)c5ccc2[nH]5)C=C4)C=C3)cc1)NC(=O)Cc1cn2ccsc2n1
REMARK SMILES IDX 7 1 6 2 4 3 5 4 3 6 2 7 1 8 79 9 80 10 81 12 82 13 83 14
REMARK SMILES IDX 84 15 90 16 85 17 89 18 86 19 88 20 87 21 8 22 9 23 10 24
REMARK SMILES IDX 11 25 12 27 13 28 14 29 78 30 15 31 77 32 16 33 17 34 18 35
REMARK SMILES IDX 71 36 19 37 76 38 70 39 72 40 20 41 75 42 69 43 68 44 21 46
REMARK SMILES IDX 55 47 34 48 54 49 35 50 38 51 53 52 73 53 36 54 37 55 52 57
REMARK SMILES IDX 74 58 39 59 22 60 23 61 32 62 24 63 25 64 31 65 33 66 26 67
REMARK SMILES IDX 27 68 28 69 29 70 30 71 56 72 57 73 66 74 58 75 59 76 65 77
REMARK SMILES IDX 67 78 60 79 61 80 62 81 63 82 64 83 40 84 41 85 50 86 42 87
REMARK SMILES IDX 43 88 49 89 51 90 44 91 45 92 46 93 47 94 48 95
REMARK H PARENT 6 5 79 11 10 26 72 45 38 56
REMARK Flexibility Score: inf
ROOT
ATOM      1  C   UNL     1      -0.004  -0.391   2.706  1.00  0.00     0.117 C 
ENDROOT
BRANCH   1   2
ATOM      2  N   UNL     1       1.452  -0.396   2.385  1.00  0.00    -0.356 N 
ATOM      3  C   UNL     1       2.001  -0.205   1.100  1.00  0.00     0.222 C 
ATOM      4  O   UNL     1       3.178  -0.452   0.836  1.00  0.00    -0.275 OA
ATOM      5  H   UNL     1       2.079  -0.545   3.129  1.00  0.00     0.163 HD
BRANCH   3   6
ATOM      6  C   UNL     1       1.027   0.004  -0.043  1.00  0.00     0.124 C 
BRANCH   6   7
ATOM      7  C   UNL     1       0.424  -1.381  -0.315  1.00  0.00     0.088 C 
ATOM      8  C   UNL     1       0.938  -2.422   0.646  1.00  0.00     0.031 C 
BRANCH   7   9
ATOM      9  N   UNL     1      -1.034  -1.394  -0.380  1.00  0.00    -0.353 N 
ATOM     10  C   UNL     1      -1.761  -1.830  -1.478  1.00  0.00     0.226 C 
ATOM     11  H   UNL     1      -1.534  -1.071   0.405  1.00  0.00     0.163 HD
ATOM     12  O   UNL     1      -2.992  -1.813  -1.465  1.00  0.00    -0.275 OA
BRANCH  10  13
ATOM     13  C   UNL     1      -0.987  -2.285  -2.728  1.00  0.00     0.157 C 
BRANCH  13  14
ATOM     14  C   UNL     1      -0.187  -1.165  -3.275  1.00  0.00     0.070 A 
ATOM     15  C   UNL     1      -0.522   0.164  -3.130  1.00  0.00     0.118 A 
ATOM     16  N   UNL     1       1.024  -1.311  -3.912  1.00  0.00    -0.223 NA
ATOM     17  N   UNL     1       0.470   0.841  -3.707  1.00  0.00    -0.297 N 
ATOM     18  C   UNL     1       1.349  -0.077  -4.157  1.00  0.00     0.193 A 
ATOM     19  C   UNL     1       0.708   2.166  -3.900  1.00  0.00     0.104 A 
ATOM     20  S   UNL     1       2.652   0.638  -4.933  1.00  0.00    -0.105 S 
ATOM     21  C   UNL     1       1.847   2.392  -4.564  1.00  0.00     0.087 A 
ENDBRANCH  13  14
ENDBRANCH  10  13
ENDBRANCH   7   9
ENDBRANCH   6   7
ENDBRANCH   3   6
ENDBRANCH   1   2
BRANCH   1  22
ATOM     22  C   UNL     1      -0.603  -1.717   3.234  1.00  0.00     0.042 C 
BRANCH  22  23
ATOM     23  C   UNL     1       0.138  -2.134   4.462  1.00  0.00     0.118 C 
BRANCH  23  24
ATOM     24  N   UNL     1      -0.036  -1.179   5.532  1.00  0.00    -0.352 N 
ATOM     25  C   UNL     1      -0.667  -1.441   6.734  1.00  0.00     0.251 C 
ATOM     26  H   UNL     1       0.323  -0.273   5.394  1.00  0.00     0.163 HD
ATOM     27  O   UNL     1      -0.818  -0.573   7.588  1.00  0.00    -0.269 OA
BRANCH  25  28
ATOM     28  C   UNL     1      -1.162  -2.821   7.008  1.00  0.00     0.039 A 
ATOM     29  C   UNL     1      -2.403  -3.021   7.590  1.00  0.00     0.014 A 
ATOM     30  C   UNL     1      -0.357  -3.938   6.771  1.00  0.00     0.014 A 
ATOM     31  C   UNL     1      -2.735  -4.295   8.058  1.00  0.00     0.010 A 
ATOM     32  C   UNL     1      -0.778  -5.225   7.076  1.00  0.00     0.010 A 
ATOM     33  C   UNL     1      -1.994  -5.422   7.705  1.00  0.00    -0.014 A 
BRANCH  33  34
ATOM     34  C   UNL     1      -2.538  -6.779   7.922  1.00  0.00     0.031 A 
ATOM     35  C   UNL     1      -1.823  -7.769   8.770  1.00  0.00     0.074 A 
ATOM     36  C   UNL     1      -3.684  -7.133   7.302  1.00  0.00     0.049 A 
ATOM     37  N   UNL     1      -2.203  -8.988   9.025  1.00  0.00    -0.248 NA
ATOM     38  C   UNL     1      -0.561  -7.379   9.416  1.00  0.00     0.031 C 
ATOM     39  C   UNL     1      -4.453  -6.227   6.451  1.00  0.00     0.029 A 
ATOM     40  N   UNL     1      -4.402  -8.305   7.270  1.00  0.00    -0.354 N 
ATOM     41  C   UNL     1      -1.248  -9.510   9.872  1.00  0.00     0.074 A 
ATOM     42  C   UNL     1      -0.239  -8.488  10.073  1.00  0.00     0.031 C 
ATOM     43  C   UNL     1      -5.533  -6.862   5.989  1.00  0.00     0.029 A 
ATOM     44  C   UNL     1      -5.531  -8.230   6.487  1.00  0.00     0.049 A 
ATOM     45  H   UNL     1      -4.135  -9.116   7.759  1.00  0.00     0.167 HD
ATOM     46  C   UNL     1      -1.253 -10.740  10.426  1.00  0.00     0.037 A 
ATOM     47  C   UNL     1      -6.483  -9.133   6.183  1.00  0.00     0.037 A 
ATOM     48  C   UNL     1      -2.233 -11.739  10.171  1.00  0.00     0.049 A 
ATOM     49  C   UNL     1      -6.404 -10.514   6.733  1.00  0.00     0.074 A 
ATOM     50  C   UNL     1      -2.255 -13.006  10.717  1.00  0.00     0.029 A 
ATOM     51  N   UNL     1      -3.326 -11.619   9.338  1.00  0.00    -0.354 N 
ATOM     52  N   UNL     1      -5.498 -10.962   7.557  1.00  0.00    -0.248 NA
ATOM     53  C   UNL     1      -7.421 -11.509   6.348  1.00  0.00     0.031 C 
ATOM     54  C   UNL     1      -3.339 -13.674  10.205  1.00  0.00     0.029 A 
ATOM     55  C   UNL     1      -4.011 -12.815   9.360  1.00  0.00     0.049 A 
ATOM     56  H   UNL     1      -3.573 -10.820   8.819  1.00  0.00     0.167 HD
ATOM     57  C   UNL     1      -5.843 -12.271   7.816  1.00  0.00     0.074 A 
ATOM     58  C   UNL     1      -7.041 -12.569   7.053  1.00  0.00     0.031 C 
ATOM     59  C   UNL     1      -5.192 -13.125   8.632  1.00  0.00     0.037 A 
BRANCH  46  60
ATOM     60  C   UNL     1      -0.136 -11.106  11.338  1.00  0.00     0.058 A 
ATOM     61  C   UNL     1       0.134 -10.398  12.498  1.00  0.00     0.135 A 
ATOM     62  C   UNL     1       0.713 -12.170  11.024  1.00  0.00     0.135 A 
ATOM     63  F   UNL     1      -0.758  -9.502  12.955  1.00  0.00    -0.206 F 
ATOM     64  C   UNL     1       1.349 -10.584  13.168  1.00  0.00     0.059 A 
ATOM     65  C   UNL     1       1.851 -12.456  11.774  1.00  0.00     0.059 A 
ATOM     66  F   UNL     1       0.412 -12.982   9.998  1.00  0.00    -0.206 F 
ATOM     67  C   UNL     1       2.170 -11.675  12.874  1.00  0.00     0.060 A 
BRANCH  67  68
ATOM     68  S   UNL     1       3.594 -12.125  13.993  1.00  0.00     0.124 S 
ATOM     69  O   UNL     1       4.444 -10.941  13.922  1.00  0.00    -0.237 OA
ATOM     70  O   UNL     1       2.946 -12.334  15.285  1.00  0.00    -0.237 OA
ATOM     71  O   UNL     1       4.164 -13.331  13.393  1.00  0.00    -0.744 OA
ENDBRANCH  67  68
ENDBRANCH  46  60
BRANCH  47  72
ATOM     72  C   UNL     1      -7.594  -8.761   5.292  1.00  0.00     0.058 A 
ATOM     73  C   UNL     1      -8.921  -8.823   5.697  1.00  0.00     0.135 A 
ATOM     74  C   UNL     1      -7.342  -8.392   3.973  1.00  0.00     0.135 A 
ATOM     75  F   UNL     1      -9.209  -9.014   6.996  1.00  0.00    -0.206 F 
ATOM     76  C   UNL     1      -9.956  -8.679   4.763  1.00  0.00     0.059 A 
ATOM     77  C   UNL     1      -8.367  -8.109   3.073  1.00  0.00     0.059 A 
ATOM     78  F   UNL     1      -6.073  -8.220   3.573  1.00  0.00    -0.206 F 
ATOM     79  C   UNL     1      -9.692  -8.219   3.470  1.00  0.00     0.060 A 
BRANCH  79  80
ATOM     80  S   UNL     1     -11.081  -7.678   2.344  1.00  0.00     0.124 S 
ATOM     81  O   UNL     1     -11.867  -8.897   2.195  1.00  0.00    -0.237 OA
ATOM     82  O   UNL     1     -11.730  -6.619   3.112  1.00  0.00    -0.237 OA
ATOM     83  O   UNL     1     -10.405  -7.221   1.130  1.00  0.00    -0.744 OA
ENDBRANCH  79  80
ENDBRANCH  47  72
BRANCH  59  84
ATOM     84  C   UNL     1      -5.739 -14.497   8.796  1.00  0.00     0.058 A 
ATOM     85  C   UNL     1      -5.834 -15.356   7.714  1.00  0.00     0.135 A 
ATOM     86  C   UNL     1      -6.166 -14.978  10.038  1.00  0.00     0.135 A 
ATOM     87  F   UNL     1      -5.258 -15.012   6.548  1.00  0.00    -0.206 F 
ATOM     88  C   UNL     1      -6.545 -16.553   7.823  1.00  0.00     0.059 A 
ATOM     89  C   UNL     1      -6.747 -16.240  10.181  1.00  0.00     0.059 A 
ATOM     90  F   UNL     1      -5.960 -14.246  11.145  1.00  0.00    -0.206 F 
ATOM     91  C   UNL     1      -6.919 -17.054   9.072  1.00  0.00     0.060 A 
BRANCH  91  92
ATOM     92  S   UNL     1      -7.538 -18.806   9.245  1.00  0.00     0.124 S 
ATOM     93  O   UNL     1      -8.744 -18.805   8.425  1.00  0.00    -0.237 OA
ATOM     94  O   UNL     1      -6.436 -19.601   8.709  1.00  0.00    -0.237 OA
ATOM     95  O   UNL     1      -7.767 -18.973  10.680  1.00  0.00    -0.744 OA
ENDBRANCH  91  92
ENDBRANCH  59  84
ENDBRANCH  33  34
ENDBRANCH  25  28
ENDBRANCH  23  24
ENDBRANCH  22  23
ENDBRANCH   1  22
TORSDOF 17
