REMARK SMILES C[C@H](C(=O)Nc1ccc(C(F)(F)F)cc1)n1nc(C(=O)NCCCNC(=O)c2ccc(-c3c4nc(c(-c5c(F)cc(S(=O)(=O)[O-])cc5F)c5ccc([nH]5)c(-c5c(F)cc(S(=O)(=O)[O-])cc5F)c5nc(c(-c6c(F)cc(S(=O)(=O)[O-])cc6F)c6ccc3[nH]6)C=C5)C=C4)cc2)c2ccccc2c1=O
REMARK SMILES IDX 22 1 21 2 19 3 20 4 18 6 16 7 17 8 100 9 99 10 101 11 94 12
REMARK SMILES IDX 98 13 95 14 97 15 96 16 2 17 1 18 3 19 4 20 5 21 6 23 7 24
REMARK SMILES IDX 15 25 8 26 14 27 9 28 10 29 11 30 12 31 13 32 23 33 24 34
REMARK SMILES IDX 25 35 26 36 27 38 28 39 29 40 93 41 30 42 92 43 31 44 32 45
REMARK SMILES IDX 33 46 86 47 34 48 91 49 85 50 87 51 35 52 90 53 84 54 83 55
REMARK SMILES IDX 36 57 70 58 49 59 69 60 50 61 53 62 68 63 88 64 51 65 52 66
REMARK SMILES IDX 67 68 89 69 54 70 37 71 38 72 47 73 39 74 40 75 46 76 48 77
REMARK SMILES IDX 41 78 42 79 43 80 44 81 45 82 71 83 72 84 81 85 73 86 74 87
REMARK SMILES IDX 80 88 82 89 75 90 76 91 77 92 78 93 79 94 55 95 56 96 65 97
REMARK SMILES IDX 57 98 58 99 64 100 66 101 59 102 60 103 61 104 62 105 63 106
REMARK H PARENT 21 5 5 22 25 37 87 56 53 67
REMARK Flexibility Score: inf
ROOT
ATOM      1  C   UNL     1      -3.169   0.241  -3.390  1.00  0.00     0.118 C 
ENDROOT
BRANCH   1   2
ATOM      2  N   UNL     1      -4.045  -0.914  -3.300  1.00  0.00    -0.351 N 
ATOM      3  C   UNL     1      -4.060  -1.881  -2.316  1.00  0.00     0.272 C 
ATOM      4  O   UNL     1      -4.744  -2.886  -2.439  1.00  0.00    -0.267 OA
ATOM      5  H   UNL     1      -4.704  -1.018  -4.024  1.00  0.00     0.163 HD
BRANCH   3   6
ATOM      6  C   UNL     1      -3.223  -1.662  -1.049  1.00  0.00     0.156 A 
ATOM      7  N   UNL     1      -1.212  -0.931  -0.132  1.00  0.00    -0.216 N 
ATOM      8  N   UNL     1      -2.003  -1.246  -1.217  1.00  0.00    -0.163 NA
ATOM      9  C   UNL     1      -1.656  -1.042   1.181  1.00  0.00     0.275 A 
ATOM     10  C   UNL     1      -3.027  -1.555   1.378  1.00  0.00     0.051 A 
ATOM     11  O   UNL     1      -1.007  -0.718   2.169  1.00  0.00    -0.267 OA
ATOM     12  C   UNL     1      -3.810  -1.900   0.281  1.00  0.00     0.020 A 
ATOM     13  C   UNL     1      -3.526  -1.718   2.679  1.00  0.00     0.014 A 
ATOM     14  C   UNL     1      -5.082  -2.451   0.488  1.00  0.00     0.011 A 
ATOM     15  C   UNL     1      -4.794  -2.260   2.881  1.00  0.00     0.001 A 
ATOM     16  C   UNL     1      -5.566  -2.638   1.786  1.00  0.00     0.001 A 
BRANCH   7  17
ATOM     17  C   UNL     1       0.206  -0.687  -0.474  1.00  0.00     0.197 C 
ATOM     18  C   UNL     1       0.942  -2.017  -0.669  1.00  0.00     0.044 C 
BRANCH  17  19
ATOM     19  C   UNL     1       1.047   0.228   0.446  1.00  0.00     0.249 C 
ATOM     20  O   UNL     1       1.696  -0.223   1.398  1.00  0.00    -0.272 OA
ATOM     21  N   UNL     1       1.225   1.556   0.163  1.00  0.00    -0.324 N 
ATOM     22  H   UNL     1       1.930   1.987   0.699  1.00  0.00     0.170 HD
BRANCH  21  23
ATOM     23  C   UNL     1       0.597   2.418  -0.742  1.00  0.00     0.041 A 
ATOM     24  C   UNL     1       1.360   3.469  -1.263  1.00  0.00     0.027 A 
ATOM     25  C   UNL     1      -0.747   2.322  -1.086  1.00  0.00     0.027 A 
ATOM     26  C   UNL     1       0.806   4.366  -2.182  1.00  0.00     0.015 A 
ATOM     27  C   UNL     1      -1.313   3.238  -1.980  1.00  0.00     0.015 A 
ATOM     28  C   UNL     1      -0.537   4.252  -2.560  1.00  0.00     0.056 A 
BRANCH  28  29
ATOM     29  C   UNL     1      -1.166   5.227  -3.527  1.00  0.00     0.416 C 
ATOM     30  F   UNL     1      -1.883   6.187  -2.874  1.00  0.00    -0.166 F 
ATOM     31  F   UNL     1      -0.274   5.896  -4.302  1.00  0.00    -0.166 F 
ATOM     32  F   UNL     1      -2.052   4.622  -4.367  1.00  0.00    -0.166 F 
ENDBRANCH  28  29
ENDBRANCH  21  23
ENDBRANCH  17  19
ENDBRANCH   7  17
ENDBRANCH   3   6
ENDBRANCH   1   2
BRANCH   1  33
ATOM     33  C   UNL     1      -1.818  -0.134  -4.005  1.00  0.00     0.042 C 
BRANCH  33  34
ATOM     34  C   UNL     1      -1.686   0.309  -5.454  1.00  0.00     0.118 C 
BRANCH  34  35
ATOM     35  N   UNL     1      -1.338   1.720  -5.564  1.00  0.00    -0.352 N 
ATOM     36  C   UNL     1      -0.475   2.309  -6.461  1.00  0.00     0.251 C 
ATOM     37  H   UNL     1      -1.772   2.325  -4.920  1.00  0.00     0.163 HD
ATOM     38  O   UNL     1      -0.092   3.461  -6.281  1.00  0.00    -0.269 OA
BRANCH  36  39
ATOM     39  C   UNL     1       0.013   1.524  -7.619  1.00  0.00     0.039 A 
ATOM     40  C   UNL     1       1.372   1.551  -7.940  1.00  0.00     0.014 A 
ATOM     41  C   UNL     1      -0.868   0.729  -8.357  1.00  0.00     0.014 A 
ATOM     42  C   UNL     1       1.863   0.705  -8.939  1.00  0.00     0.010 A 
ATOM     43  C   UNL     1      -0.370  -0.157  -9.306  1.00  0.00     0.010 A 
ATOM     44  C   UNL     1       1.003  -0.193  -9.591  1.00  0.00    -0.014 A 
BRANCH  44  45
ATOM     45  C   UNL     1       1.507  -1.219 -10.540  1.00  0.00     0.031 A 
ATOM     46  C   UNL     1       1.056  -1.204 -11.973  1.00  0.00     0.074 A 
ATOM     47  C   UNL     1       2.272  -2.229 -10.079  1.00  0.00     0.049 A 
ATOM     48  N   UNL     1       1.213  -2.115 -12.897  1.00  0.00    -0.248 NA
ATOM     49  C   UNL     1       0.300  -0.021 -12.416  1.00  0.00     0.031 C 
ATOM     50  C   UNL     1       2.740  -2.379  -8.698  1.00  0.00     0.029 A 
ATOM     51  N   UNL     1       2.771  -3.336 -10.718  1.00  0.00    -0.354 N 
ATOM     52  C   UNL     1       0.549  -1.635 -14.019  1.00  0.00     0.074 A 
ATOM     53  C   UNL     1      -0.032  -0.360 -13.653  1.00  0.00     0.031 C 
ATOM     54  C   UNL     1       3.466  -3.504  -8.598  1.00  0.00     0.029 A 
ATOM     55  C   UNL     1       3.478  -4.178  -9.891  1.00  0.00     0.049 A 
ATOM     56  H   UNL     1       2.635  -3.512 -11.677  1.00  0.00     0.167 HD
ATOM     57  C   UNL     1       0.445  -2.200 -15.246  1.00  0.00     0.037 A 
ATOM     58  C   UNL     1       4.051  -5.371 -10.142  1.00  0.00     0.037 A 
ATOM     59  C   UNL     1       1.063  -3.445 -15.618  1.00  0.00     0.049 A 
ATOM     60  C   UNL     1       3.938  -5.967 -11.516  1.00  0.00     0.074 A 
ATOM     61  C   UNL     1       1.065  -4.071 -16.852  1.00  0.00     0.029 A 
ATOM     62  N   UNL     1       1.801  -4.247 -14.761  1.00  0.00    -0.354 N 
ATOM     63  N   UNL     1       3.321  -5.489 -12.570  1.00  0.00    -0.248 NA
ATOM     64  C   UNL     1       4.586  -7.268 -11.733  1.00  0.00     0.031 C 
ATOM     65  C   UNL     1       1.792  -5.261 -16.737  1.00  0.00     0.029 A 
ATOM     66  C   UNL     1       2.258  -5.365 -15.436  1.00  0.00     0.049 A 
ATOM     67  H   UNL     1       1.974  -4.050 -13.812  1.00  0.00     0.167 HD
ATOM     68  C   UNL     1       3.511  -6.428 -13.576  1.00  0.00     0.074 A 
ATOM     69  C   UNL     1       4.313  -7.494 -13.011  1.00  0.00     0.031 C 
ATOM     70  C   UNL     1       3.057  -6.412 -14.852  1.00  0.00     0.037 A 
BRANCH  57  71
ATOM     71  C   UNL     1      -0.362  -1.468 -16.278  1.00  0.00     0.058 A 
ATOM     72  C   UNL     1       0.136  -0.322 -16.916  1.00  0.00     0.135 A 
ATOM     73  C   UNL     1      -1.633  -1.929 -16.654  1.00  0.00     0.135 A 
ATOM     74  F   UNL     1       1.340   0.169 -16.580  1.00  0.00    -0.206 F 
ATOM     75  C   UNL     1      -0.609   0.358 -17.873  1.00  0.00     0.059 A 
ATOM     76  C   UNL     1      -2.389  -1.276 -17.623  1.00  0.00     0.059 A 
ATOM     77  F   UNL     1      -2.156  -3.020 -16.071  1.00  0.00    -0.206 F 
ATOM     78  C   UNL     1      -1.874  -0.123 -18.216  1.00  0.00     0.060 A 
BRANCH  78  79
ATOM     79  S   UNL     1      -2.835   0.769 -19.457  1.00  0.00     0.124 S 
ATOM     80  O   UNL     1      -3.353   1.885 -18.672  1.00  0.00    -0.237 OA
ATOM     81  O   UNL     1      -1.826   1.111 -20.454  1.00  0.00    -0.237 OA
ATOM     82  O   UNL     1      -3.826  -0.213 -19.886  1.00  0.00    -0.744 OA
ENDBRANCH  78  79
ENDBRANCH  57  71
BRANCH  58  83
ATOM     83  C   UNL     1       4.783  -6.085  -9.066  1.00  0.00     0.058 A 
ATOM     84  C   UNL     1       6.184  -6.126  -9.062  1.00  0.00     0.135 A 
ATOM     85  C   UNL     1       4.103  -6.731  -8.023  1.00  0.00     0.135 A 
ATOM     86  F   UNL     1       6.875  -5.525 -10.043  1.00  0.00    -0.206 F 
ATOM     87  C   UNL     1       6.890  -6.797  -8.069  1.00  0.00     0.059 A 
ATOM     88  C   UNL     1       4.787  -7.394  -7.009  1.00  0.00     0.059 A 
ATOM     89  F   UNL     1       2.762  -6.704  -7.976  1.00  0.00    -0.206 F 
ATOM     90  C   UNL     1       6.181  -7.431  -7.048  1.00  0.00     0.060 A 
BRANCH  90  91
ATOM     91  S   UNL     1       7.101  -8.266  -5.736  1.00  0.00     0.124 S 
ATOM     92  O   UNL     1       7.422  -9.539  -6.369  1.00  0.00    -0.237 OA
ATOM     93  O   UNL     1       8.224  -7.360  -5.516  1.00  0.00    -0.237 OA
ATOM     94  O   UNL     1       6.134  -8.326  -4.643  1.00  0.00    -0.744 OA
ENDBRANCH  90  91
ENDBRANCH  58  83
BRANCH  70  95
ATOM     95  C   UNL     1       3.423  -7.575 -15.724  1.00  0.00     0.058 A 
ATOM     96  C   UNL     1       2.725  -8.789 -15.644  1.00  0.00     0.135 A 
ATOM     97  C   UNL     1       4.438  -7.456 -16.685  1.00  0.00     0.135 A 
ATOM     98  F   UNL     1       1.753  -8.951 -14.732  1.00  0.00    -0.206 F 
ATOM     99  C   UNL     1       3.025  -9.852 -16.488  1.00  0.00     0.059 A 
ATOM    100  C   UNL     1       4.744  -8.502 -17.549  1.00  0.00     0.059 A 
ATOM    101  F   UNL     1       5.129  -6.311 -16.800  1.00  0.00    -0.206 F 
ATOM    102  C   UNL     1       4.035  -9.698 -17.439  1.00  0.00     0.060 A 
BRANCH 102 103
ATOM    103  S   UNL     1       4.383 -11.064 -18.568  1.00  0.00     0.124 S 
ATOM    104  O   UNL     1       5.194 -11.939 -17.729  1.00  0.00    -0.237 OA
ATOM    105  O   UNL     1       3.047 -11.555 -18.892  1.00  0.00    -0.237 OA
ATOM    106  O   UNL     1       5.088 -10.418 -19.671  1.00  0.00    -0.744 OA
ENDBRANCH 102 103
ENDBRANCH  70  95
ENDBRANCH  44  45
ENDBRANCH  36  39
ENDBRANCH  34  35
ENDBRANCH  33  34
ENDBRANCH   1  33
TORSDOF 17
