REMARK SMILES C[C@@H]1C[C@H](C)C[C@H]([N@@H+]2[C@@H](C(=O)NCCCNC(=O)c3ccc(-c4c5nc(c(-c6c(F)cc(S(=O)(=O)[O-])cc6F)c6ccc([nH]6)c(-c6c(F)cc(S(=O)(=O)[O-])cc6F)c6nc(c(-c7c(F)cc(S(=O)(=O)[O-])cc7F)c7ccc4[nH]7)C=C6)C=C5)cc3)CC[C@@H]3CCCC[C@@H]32)C1
REMARK SMILES IDX 15 1 14 2 13 3 12 4 10 5 11 6 9 8 8 9 92 10 85 12 87 13
REMARK SMILES IDX 91 14 86 15 88 16 90 17 89 18 7 19 5 20 4 21 6 22 3 23 2 24
REMARK SMILES IDX 93 25 1 26 16 27 17 28 18 30 19 31 20 32 84 33 21 34 83 35
REMARK SMILES IDX 22 36 23 37 24 38 77 39 25 40 82 41 76 42 78 43 26 44 81 45
REMARK SMILES IDX 75 46 74 47 27 49 61 50 40 51 60 52 41 53 44 54 59 55 79 56
REMARK SMILES IDX 42 57 43 58 58 60 80 61 45 62 28 63 29 64 38 65 30 66 31 67
REMARK SMILES IDX 37 68 39 69 32 70 33 71 34 72 35 73 36 74 62 75 63 76 72 77
REMARK SMILES IDX 64 78 65 79 71 80 73 81 66 82 67 83 68 84 69 85 70 86 46 87
REMARK SMILES IDX 47 88 56 89 48 90 49 91 55 92 57 93 50 94 51 95 52 96 53 97
REMARK SMILES IDX 54 98
REMARK H PARENT 12 7 8 11 16 29 78 48 44 59
REMARK Flexibility Score: inf
ROOT
ATOM      1  C   UNL     1       1.826   4.513  -7.611  1.00  0.00     0.118 C 
ENDROOT
BRANCH   1   2
ATOM      2  C   UNL     1       1.310   3.600  -6.519  1.00  0.00     0.042 C 
BRANCH   2   3
ATOM      3  C   UNL     1       2.377   2.666  -5.981  1.00  0.00     0.118 C 
BRANCH   3   4
ATOM      4  N   UNL     1       3.366   3.276  -5.085  1.00  0.00    -0.351 N 
ATOM      5  C   UNL     1       3.484   3.209  -3.698  1.00  0.00     0.278 C 
ATOM      6  O   UNL     1       4.497   3.665  -3.170  1.00  0.00    -0.268 OA
ATOM      7  H   UNL     1       4.055   3.817  -5.534  1.00  0.00     0.163 HD
BRANCH   5   8
ATOM      8  C   UNL     1       2.275   2.639  -2.929  1.00  0.00     0.274 C 
ATOM      9  N   UNL     1       2.069   3.158  -1.509  1.00  0.00    -0.320 N 
ATOM     10  C   UNL     1       2.515   2.203  -0.415  1.00  0.00     0.188 C 
ATOM     11  H   UNL     1       2.654   3.976  -1.341  1.00  0.00     0.349 HD
ATOM     12  C   UNL     1       1.909   1.194  -3.304  1.00  0.00     0.076 C 
ATOM     13  C   UNL     1       1.879   0.464  -0.884  1.00  0.00     0.048 C 
ATOM     14  C   UNL     1       2.407   2.666   1.514  1.00  0.00     0.065 C 
ATOM     15  C   UNL     1       2.075   0.088  -2.326  1.00  0.00     0.016 C 
ATOM     16  C   UNL     1       0.480  -0.345   0.144  1.00  0.00     0.010 C 
ATOM     17  C   UNL     1       1.191   1.663   2.737  1.00  0.00     0.006 C 
ATOM     18  C   UNL     1       0.315   0.073   2.034  1.00  0.00     0.001 C 
BRANCH   9  19
ATOM     19  C   UNL     1       0.634   3.446  -1.432  1.00  0.00     0.185 C 
ATOM     20  C   UNL     1       2.160   0.678   1.178  1.00  0.00     0.008 C 
ATOM     21  C   UNL     1       0.561   1.929   0.645  1.00  0.00    -0.008 C 
ATOM     22  C   UNL     1      -0.036   2.253  -0.810  1.00  0.00     0.068 C 
ATOM     23  C   UNL     1       0.062   3.505   1.338  1.00  0.00     0.007 C 
ATOM     24  C   UNL     1       0.308   4.873   0.662  1.00  0.00    -0.008 C 
ATOM     25  C   UNL     1       0.297   4.806  -0.838  1.00  0.00     0.068 C 
ATOM     26  C   UNL     1       1.475   5.726   1.189  1.00  0.00     0.008 C 
ENDBRANCH   9  19
ENDBRANCH   5   8
ENDBRANCH   3   4
ENDBRANCH   2   3
ENDBRANCH   1   2
BRANCH   1  27
ATOM     27  N   UNL     1       2.406   3.764  -8.726  1.00  0.00    -0.352 N 
ATOM     28  C   UNL     1       1.949   3.576 -10.009  1.00  0.00     0.251 C 
ATOM     29  H   UNL     1       3.263   3.323  -8.524  1.00  0.00     0.163 HD
ATOM     30  O   UNL     1       2.440   2.704 -10.712  1.00  0.00    -0.269 OA
BRANCH  28  31
ATOM     31  C   UNL     1       0.861   4.433 -10.518  1.00  0.00     0.039 A 
ATOM     32  C   UNL     1      -0.150   3.878 -11.306  1.00  0.00     0.014 A 
ATOM     33  C   UNL     1       0.839   5.788 -10.192  1.00  0.00     0.014 A 
ATOM     34  C   UNL     1      -1.232   4.673 -11.688  1.00  0.00     0.010 A 
ATOM     35  C   UNL     1      -0.291   6.540 -10.465  1.00  0.00     0.010 A 
ATOM     36  C   UNL     1      -1.333   5.995 -11.226  1.00  0.00    -0.014 A 
BRANCH  36  37
ATOM     37  C   UNL     1      -2.504   6.854 -11.528  1.00  0.00     0.031 A 
ATOM     38  C   UNL     1      -2.296   8.152 -12.259  1.00  0.00     0.074 A 
ATOM     39  C   UNL     1      -3.719   6.519 -11.052  1.00  0.00     0.049 A 
ATOM     40  N   UNL     1      -3.148   9.116 -12.488  1.00  0.00    -0.248 NA
ATOM     41  C   UNL     1      -0.938   8.421 -12.764  1.00  0.00     0.031 C 
ATOM     42  C   UNL     1      -4.027   5.309 -10.286  1.00  0.00     0.029 A 
ATOM     43  N   UNL     1      -4.919   7.179 -11.123  1.00  0.00    -0.354 N 
ATOM     44  C   UNL     1      -2.427  10.110 -13.138  1.00  0.00     0.074 A 
ATOM     45  C   UNL     1      -1.055   9.662 -13.211  1.00  0.00     0.031 C 
ATOM     46  C   UNL     1      -5.334   5.304  -9.978  1.00  0.00     0.029 A 
ATOM     47  C   UNL     1      -5.945   6.531 -10.476  1.00  0.00     0.049 A 
ATOM     48  H   UNL     1      -5.035   8.036 -11.594  1.00  0.00     0.167 HD
ATOM     49  C   UNL     1      -2.875  11.278 -13.653  1.00  0.00     0.037 A 
ATOM     50  C   UNL     1      -7.229   6.895 -10.291  1.00  0.00     0.037 A 
ATOM     51  C   UNL     1      -4.250  11.697 -13.599  1.00  0.00     0.049 A 
ATOM     52  C   UNL     1      -7.703   8.203 -10.866  1.00  0.00     0.074 A 
ATOM     53  C   UNL     1      -4.823  12.833 -14.140  1.00  0.00     0.029 A 
ATOM     54  N   UNL     1      -5.266  10.996 -12.966  1.00  0.00    -0.354 N 
ATOM     55  N   UNL     1      -7.022   9.105 -11.532  1.00  0.00    -0.248 NA
ATOM     56  C   UNL     1      -9.119   8.543 -10.670  1.00  0.00     0.031 C 
ATOM     57  C   UNL     1      -6.176  12.847 -13.787  1.00  0.00     0.029 A 
ATOM     58  C   UNL     1      -6.460  11.686 -13.084  1.00  0.00     0.049 A 
ATOM     59  H   UNL     1      -5.155  10.135 -12.502  1.00  0.00     0.167 HD
ATOM     60  C   UNL     1      -7.934  10.099 -11.869  1.00  0.00     0.074 A 
ATOM     61  C   UNL     1      -9.216   9.686 -11.335  1.00  0.00     0.031 C 
ATOM     62  C   UNL     1      -7.731  11.246 -12.564  1.00  0.00     0.037 A 
BRANCH  49  63
ATOM     63  C   UNL     1      -1.873  12.180 -14.321  1.00  0.00     0.058 A 
ATOM     64  C   UNL     1      -1.252  11.830 -15.531  1.00  0.00     0.135 A 
ATOM     65  C   UNL     1      -1.552  13.428 -13.761  1.00  0.00     0.135 A 
ATOM     66  F   UNL     1      -1.505  10.641 -16.102  1.00  0.00    -0.206 F 
ATOM     67  C   UNL     1      -0.328  12.668 -16.146  1.00  0.00     0.059 A 
ATOM     68  C   UNL     1      -0.657  14.298 -14.376  1.00  0.00     0.059 A 
ATOM     69  F   UNL     1      -2.112  13.814 -12.604  1.00  0.00    -0.206 F 
ATOM     70  C   UNL     1      -0.040  13.902 -15.562  1.00  0.00     0.060 A 
BRANCH  70  71
ATOM     71  S   UNL     1       1.151  14.983 -16.381  1.00  0.00     0.124 S 
ATOM     72  O   UNL     1       2.403  14.272 -16.139  1.00  0.00    -0.237 OA
ATOM     73  O   UNL     1       0.677  14.977 -17.761  1.00  0.00    -0.237 OA
ATOM     74  O   UNL     1       1.003  16.251 -15.674  1.00  0.00    -0.744 OA
ENDBRANCH  70  71
ENDBRANCH  49  63
BRANCH  50  75
ATOM     75  C   UNL     1      -8.157   6.001  -9.547  1.00  0.00     0.058 A 
ATOM     76  C   UNL     1      -9.203   5.338 -10.207  1.00  0.00     0.135 A 
ATOM     77  C   UNL     1      -8.010   5.777  -8.169  1.00  0.00     0.135 A 
ATOM     78  F   UNL     1      -9.388   5.521 -11.523  1.00  0.00    -0.206 F 
ATOM     79  C   UNL     1     -10.081   4.501  -9.527  1.00  0.00     0.059 A 
ATOM     80  C   UNL     1      -8.858   4.922  -7.472  1.00  0.00     0.059 A 
ATOM     81  F   UNL     1      -7.013   6.370  -7.493  1.00  0.00    -0.206 F 
ATOM     82  C   UNL     1      -9.898   4.297  -8.158  1.00  0.00     0.060 A 
BRANCH  82  83
ATOM     83  S   UNL     1     -11.018   3.174  -7.294  1.00  0.00     0.124 S 
ATOM     84  O   UNL     1     -12.254   3.947  -7.277  1.00  0.00    -0.237 OA
ATOM     85  O   UNL     1     -11.007   2.003  -8.165  1.00  0.00    -0.237 OA
ATOM     86  O   UNL     1     -10.371   2.987  -5.998  1.00  0.00    -0.744 OA
ENDBRANCH  82  83
ENDBRANCH  50  75
BRANCH  62  87
ATOM     87  C   UNL     1      -8.926  12.114 -12.845  1.00  0.00     0.058 A 
ATOM     88  C   UNL     1      -9.542  12.879 -11.844  1.00  0.00     0.135 A 
ATOM     89  C   UNL     1      -9.403  12.245 -14.160  1.00  0.00     0.135 A 
ATOM     90  F   UNL     1      -9.129  12.785 -10.570  1.00  0.00    -0.206 F 
ATOM     91  C   UNL     1     -10.599  13.736 -12.134  1.00  0.00     0.059 A 
ATOM     92  C   UNL     1     -10.437  13.118 -14.478  1.00  0.00     0.059 A 
ATOM     93  F   UNL     1      -8.842  11.542 -15.157  1.00  0.00    -0.206 F 
ATOM     94  C   UNL     1     -11.034  13.855 -13.457  1.00  0.00     0.060 A 
BRANCH  94  95
ATOM     95  S   UNL     1     -12.365  15.015 -13.827  1.00  0.00     0.124 S 
ATOM     96  O   UNL     1     -13.519  14.335 -13.248  1.00  0.00    -0.237 OA
ATOM     97  O   UNL     1     -11.927  16.222 -13.134  1.00  0.00    -0.237 OA
ATOM     98  O   UNL     1     -12.351  15.097 -15.285  1.00  0.00    -0.744 OA
ENDBRANCH  94  95
ENDBRANCH  62  87
ENDBRANCH  36  37
ENDBRANCH  28  31
ENDBRANCH   1  27
TORSDOF 14
