REMARK SMILES N#Cc1ccc(C[N@H+]2CCCC[C@H]2C(=O)NCCCNC(=O)c2ccc(-c3c4nc(c(-c5c(F)cc(S(=O)(=O)[O-])cc5F)c5ccc([nH]5)c(-c5c(F)cc(S(=O)(=O)[O-])cc5F)c5nc(c(-c6c(F)cc(S(=O)(=O)[O-])cc6F)c6ccc3[nH]6)C=C5)C=C4)cc2)c(F)c1
REMARK SMILES IDX 18 1 17 2 16 3 14 4 15 5 13 7 8 8 9 9 10 11 12 12 11 13 7 14
REMARK SMILES IDX 6 15 3 16 4 17 91 18 5 19 89 20 90 21 2 22 1 23 19 24 20 25
REMARK SMILES IDX 21 26 22 28 23 29 24 30 88 31 25 32 87 33 26 34 27 35 28 36
REMARK SMILES IDX 81 37 29 38 86 39 80 40 82 41 30 42 85 43 79 44 78 45 31 47
REMARK SMILES IDX 65 48 44 49 64 50 45 51 48 52 63 53 83 54 46 55 47 56 62 58
REMARK SMILES IDX 84 59 49 60 32 61 33 62 42 63 34 64 35 65 41 66 43 67 36 68
REMARK SMILES IDX 37 69 38 70 39 71 40 72 66 73 67 74 76 75 68 76 69 77 75 78
REMARK SMILES IDX 77 79 70 80 71 81 72 82 73 83 74 84 50 85 51 86 60 87 52 88
REMARK SMILES IDX 53 89 59 90 61 91 54 92 55 93 56 94 57 95 58 96
REMARK H PARENT 16 6 8 10 20 27 82 46 48 57
REMARK Flexibility Score: inf
ROOT
ATOM      1  C   UNL     1       2.912  -4.619   2.363  1.00  0.00     0.042 C 
ENDROOT
BRANCH   1   2
ATOM      2  C   UNL     1       2.932  -3.692   1.149  1.00  0.00     0.118 C 
BRANCH   2   3
ATOM      3  N   UNL     1       2.025  -2.587   1.367  1.00  0.00    -0.351 N 
ATOM      4  C   UNL     1       2.302  -1.315   1.768  1.00  0.00     0.278 C 
ATOM      5  O   UNL     1       1.376  -0.708   2.311  1.00  0.00    -0.268 OA
ATOM      6  H   UNL     1       1.074  -2.781   1.203  1.00  0.00     0.163 HD
BRANCH   4   7
ATOM      7  C   UNL     1       3.706  -0.714   1.486  1.00  0.00     0.274 C 
ATOM      8  N   UNL     1       3.707   0.761   1.304  1.00  0.00    -0.321 N 
ATOM      9  C   UNL     1       3.310   1.504   2.501  1.00  0.00     0.263 C 
ATOM     10  H   UNL     1       4.694   0.987   1.188  1.00  0.00     0.349 HD
ATOM     11  C   UNL     1       4.130   1.099   3.736  1.00  0.00     0.062 C 
ATOM     12  C   UNL     1       4.670  -1.079   2.620  1.00  0.00     0.076 C 
ATOM     13  C   UNL     1       4.258  -0.409   3.925  1.00  0.00     0.012 C 
BRANCH   8  14
ATOM     14  C   UNL     1       3.149   1.254   0.033  1.00  0.00     0.302 C 
BRANCH  14  15
ATOM     15  C   UNL     1       1.687   0.989  -0.241  1.00  0.00     0.042 A 
ATOM     16  C   UNL     1      -1.024   0.263  -0.359  1.00  0.00     0.055 A 
ATOM     17  C   UNL     1      -0.655   1.530   0.105  1.00  0.00     0.020 A 
ATOM     18  C   UNL     1      -0.052  -0.601  -0.862  1.00  0.00     0.059 A 
ATOM     19  C   UNL     1       0.696   1.890   0.170  1.00  0.00     0.014 A 
ATOM     20  C   UNL     1       1.285  -0.216  -0.829  1.00  0.00     0.133 A 
ATOM     21  F   UNL     1       2.208  -1.077  -1.282  1.00  0.00    -0.206 F 
BRANCH  16  22
ATOM     22  C   UNL     1      -2.391  -0.166  -0.278  1.00  0.00     0.099 C 
ATOM     23  N   UNL     1      -3.492  -0.518  -0.204  1.00  0.00    -0.192 NA
ENDBRANCH  16  22
ENDBRANCH  14  15
ENDBRANCH   8  14
ENDBRANCH   4   7
ENDBRANCH   2   3
ENDBRANCH   1   2
BRANCH   1  24
ATOM     24  C   UNL     1       1.529  -5.193   2.672  1.00  0.00     0.118 C 
BRANCH  24  25
ATOM     25  N   UNL     1       1.007  -6.003   1.582  1.00  0.00    -0.352 N 
ATOM     26  C   UNL     1       0.548  -7.295   1.600  1.00  0.00     0.251 C 
ATOM     27  H   UNL     1       0.979  -5.558   0.704  1.00  0.00     0.163 HD
ATOM     28  O   UNL     1       0.342  -7.878   0.540  1.00  0.00    -0.269 OA
BRANCH  26  29
ATOM     29  C   UNL     1       0.331  -7.987   2.888  1.00  0.00     0.039 A 
ATOM     30  C   UNL     1       0.758  -9.309   3.017  1.00  0.00     0.014 A 
ATOM     31  C   UNL     1      -0.291  -7.342   3.962  1.00  0.00     0.014 A 
ATOM     32  C   UNL     1       0.617  -9.963   4.242  1.00  0.00     0.010 A 
ATOM     33  C   UNL     1      -0.356  -7.968   5.205  1.00  0.00     0.010 A 
ATOM     34  C   UNL     1       0.098  -9.286   5.360  1.00  0.00    -0.014 A 
BRANCH  34  35
ATOM     35  C   UNL     1       0.058  -9.944   6.692  1.00  0.00     0.031 A 
ATOM     36  C   UNL     1      -1.254 -10.191   7.388  1.00  0.00     0.074 A 
ATOM     37  C   UNL     1       1.217 -10.296   7.288  1.00  0.00     0.049 A 
ATOM     38  N   UNL     1      -1.474 -10.736   8.557  1.00  0.00    -0.248 NA
ATOM     39  C   UNL     1      -2.476  -9.756   6.692  1.00  0.00     0.031 C 
ATOM     40  C   UNL     1       2.555 -10.064   6.736  1.00  0.00     0.029 A 
ATOM     41  N   UNL     1       1.461 -10.919   8.486  1.00  0.00    -0.354 N 
ATOM     42  C   UNL     1      -2.853 -10.717   8.733  1.00  0.00     0.074 A 
ATOM     43  C   UNL     1      -3.416 -10.049   7.580  1.00  0.00     0.031 C 
ATOM     44  C   UNL     1       3.473 -10.566   7.576  1.00  0.00     0.029 A 
ATOM     45  C   UNL     1       2.799 -11.109   8.750  1.00  0.00     0.049 A 
ATOM     46  H   UNL     1       0.746 -11.205   9.100  1.00  0.00     0.167 HD
ATOM     47  C   UNL     1      -3.585 -11.236   9.748  1.00  0.00     0.037 A 
ATOM     48  C   UNL     1       3.415 -11.644   9.822  1.00  0.00     0.037 A 
ATOM     49  C   UNL     1      -3.018 -11.906  10.892  1.00  0.00     0.049 A 
ATOM     50  C   UNL     1       2.575 -12.175  10.954  1.00  0.00     0.074 A 
ATOM     51  C   UNL     1      -3.679 -12.494  11.957  1.00  0.00     0.029 A 
ATOM     52  N   UNL     1      -1.661 -12.075  11.124  1.00  0.00    -0.354 N 
ATOM     53  N   UNL     1       1.269 -12.208  11.069  1.00  0.00    -0.248 NA
ATOM     54  C   UNL     1       3.293 -12.750  12.100  1.00  0.00     0.031 C 
ATOM     55  C   UNL     1      -2.723 -12.964  12.861  1.00  0.00     0.029 A 
ATOM     56  C   UNL     1      -1.466 -12.734  12.328  1.00  0.00     0.049 A 
ATOM     57  H   UNL     1      -0.943 -11.771  10.524  1.00  0.00     0.167 HD
ATOM     58  C   UNL     1       1.010 -12.835  12.284  1.00  0.00     0.074 A 
ATOM     59  C   UNL     1       2.294 -13.188  12.851  1.00  0.00     0.031 C 
ATOM     60  C   UNL     1      -0.182 -13.091  12.879  1.00  0.00     0.037 A 
BRANCH  47  61
ATOM     61  C   UNL     1      -5.085 -11.120   9.672  1.00  0.00     0.058 A 
ATOM     62  C   UNL     1      -5.831 -11.855   8.736  1.00  0.00     0.135 A 
ATOM     63  C   UNL     1      -5.792 -10.336  10.599  1.00  0.00     0.135 A 
ATOM     64  F   UNL     1      -5.208 -12.608   7.815  1.00  0.00    -0.206 F 
ATOM     65  C   UNL     1      -7.221 -11.812   8.717  1.00  0.00     0.059 A 
ATOM     66  C   UNL     1      -7.183 -10.302  10.618  1.00  0.00     0.059 A 
ATOM     67  F   UNL     1      -5.130  -9.610  11.514  1.00  0.00    -0.206 F 
ATOM     68  C   UNL     1      -7.889 -11.041   9.669  1.00  0.00     0.060 A 
BRANCH  68  69
ATOM     69  S   UNL     1      -9.694 -11.040   9.660  1.00  0.00     0.124 S 
ATOM     70  O   UNL     1      -9.980 -10.331   8.417  1.00  0.00    -0.237 OA
ATOM     71  O   UNL     1     -10.003 -12.467   9.661  1.00  0.00    -0.237 OA
ATOM     72  O   UNL     1     -10.042 -10.325  10.883  1.00  0.00    -0.744 OA
ENDBRANCH  68  69
ENDBRANCH  47  61
BRANCH  48  73
ATOM     73  C   UNL     1       4.903 -11.695   9.892  1.00  0.00     0.058 A 
ATOM     74  C   UNL     1       5.591 -12.918   9.922  1.00  0.00     0.135 A 
ATOM     75  C   UNL     1       5.666 -10.519   9.970  1.00  0.00     0.135 A 
ATOM     76  F   UNL     1       4.910 -14.073   9.853  1.00  0.00    -0.206 F 
ATOM     77  C   UNL     1       6.973 -12.976  10.075  1.00  0.00     0.059 A 
ATOM     78  C   UNL     1       7.052 -10.550  10.083  1.00  0.00     0.059 A 
ATOM     79  F   UNL     1       5.064  -9.320   9.925  1.00  0.00    -0.206 F 
ATOM     80  C   UNL     1       7.694 -11.784  10.157  1.00  0.00     0.060 A 
BRANCH  80  81
ATOM     81  S   UNL     1       9.487 -11.868  10.353  1.00  0.00     0.124 S 
ATOM     82  O   UNL     1       9.610 -12.355  11.722  1.00  0.00    -0.237 OA
ATOM     83  O   UNL     1       9.865 -12.808   9.302  1.00  0.00    -0.237 OA
ATOM     84  O   UNL     1       9.913 -10.489  10.132  1.00  0.00    -0.744 OA
ENDBRANCH  80  81
ENDBRANCH  48  73
BRANCH  60  85
ATOM     85  C   UNL     1      -0.156 -13.826  14.193  1.00  0.00     0.058 A 
ATOM     86  C   UNL     1       0.346 -13.237  15.365  1.00  0.00     0.135 A 
ATOM     87  C   UNL     1      -0.670 -15.130  14.288  1.00  0.00     0.135 A 
ATOM     88  F   UNL     1       0.855 -11.995  15.333  1.00  0.00    -0.206 F 
ATOM     89  C   UNL     1       0.375 -13.928  16.572  1.00  0.00     0.059 A 
ATOM     90  C   UNL     1      -0.688 -15.825  15.493  1.00  0.00     0.059 A 
ATOM     91  F   UNL     1      -1.175 -15.739  13.203  1.00  0.00    -0.206 F 
ATOM     92  C   UNL     1      -0.147 -15.222  16.626  1.00  0.00     0.060 A 
BRANCH  92  93
ATOM     93  S   UNL     1      -0.119 -16.097  18.204  1.00  0.00     0.124 S 
ATOM     94  O   UNL     1       1.306 -16.368  18.366  1.00  0.00    -0.237 OA
ATOM     95  O   UNL     1      -0.684 -15.109  19.117  1.00  0.00    -0.237 OA
ATOM     96  O   UNL     1      -0.956 -17.268  17.959  1.00  0.00    -0.744 OA
ENDBRANCH  92  93
ENDBRANCH  60  85
ENDBRANCH  34  35
ENDBRANCH  26  29
ENDBRANCH  24  25
ENDBRANCH   1  24
TORSDOF 16
