REMARK SMILES O=C(NCCCNC(=O)c1ccc(-c2c3nc(c(-c4c(F)cc(S(=O)(=O)[O-])cc4F)c4ccc([nH]4)c(-c4c(F)cc(S(=O)(=O)[O-])cc4F)c4nc(c(-c5c(F)cc(S(=O)(=O)[O-])cc5F)c5ccc2[nH]5)C=C4)C=C3)cc1)c1ccc(/[NH+]=C2\S[C@@H](Cc3ccc(F)cc3)C(=O)N2Cc2ccccc2)cc1
REMARK SMILES IDX 5 1 4 2 3 3 1 4 2 5 76 7 77 8 103 9 78 10 102 11 79 12 80 13
REMARK SMILES IDX 81 14 82 16 94 17 83 18 92 19 93 20 95 21 96 22 97 23 101 24
REMARK SMILES IDX 98 25 100 26 99 27 84 28 85 29 86 30 91 31 87 32 90 33 88 34
REMARK SMILES IDX 89 35 6 36 7 37 8 38 9 40 10 41 11 42 75 43 12 44 74 45
REMARK SMILES IDX 13 46 14 47 15 48 68 49 16 50 73 51 67 52 69 53 17 54 72 55
REMARK SMILES IDX 66 56 65 57 18 59 52 60 31 61 51 62 32 63 35 64 50 65 70 66
REMARK SMILES IDX 33 67 34 68 49 70 71 71 36 72 19 73 20 74 29 75 21 76 22 77
REMARK SMILES IDX 28 78 30 79 23 80 24 81 25 82 26 83 27 84 53 85 54 86 63 87
REMARK SMILES IDX 55 88 56 89 62 90 64 91 57 92 58 93 59 94 60 95 61 96 37 97
REMARK SMILES IDX 38 98 47 99 39 100 40 101 46 102 48 103 41 104 42 105 43 106
REMARK SMILES IDX 44 107 45 108
REMARK H PARENT 3 6 80 15 7 39 69 58 35 69
REMARK Flexibility Score: inf
ROOT
ATOM      1  C   UNL     1       4.907   1.299   1.975  1.00  0.00     0.042 C 
ENDROOT
BRANCH   1   2
ATOM      2  C   UNL     1       4.474   0.006   1.306  1.00  0.00     0.118 C 
BRANCH   2   3
ATOM      3  N   UNL     1       3.026  -0.102   1.170  1.00  0.00    -0.352 N 
ATOM      4  O   UNL     1       1.010   0.065   0.166  1.00  0.00    -0.269 OA
ATOM      5  C   UNL     1       2.234   0.009   0.055  1.00  0.00     0.251 C 
ATOM      6  H   UNL     1       2.542  -0.281   2.008  1.00  0.00     0.163 HD
BRANCH   5   7
ATOM      7  C   UNL     1       2.847   0.066  -1.286  1.00  0.00     0.040 A 
ATOM      8  C   UNL     1       3.850  -0.835  -1.638  1.00  0.00     0.018 A 
ATOM      9  C   UNL     1       2.393   1.008  -2.217  1.00  0.00     0.018 A 
ATOM     10  C   UNL     1       4.491  -0.701  -2.861  1.00  0.00     0.052 A 
ATOM     11  C   UNL     1       3.005   1.097  -3.472  1.00  0.00     0.052 A 
ATOM     12  C   UNL     1       4.086   0.270  -3.782  1.00  0.00     0.125 A 
BRANCH  12  13
ATOM     13  N   UNL     1       4.726   0.274  -5.021  1.00  0.00    -0.235 N 
ATOM     14  C   UNL     1       5.547   1.200  -5.380  1.00  0.00     0.320 C 
ATOM     15  H   UNL     1       4.542  -0.462  -5.649  1.00  0.00     0.313 HD
ATOM     16  S   UNL     1       5.881   2.705  -4.573  1.00  0.00    -0.022 SA
ATOM     17  N   UNL     1       6.313   1.072  -6.507  1.00  0.00    -0.186 N 
ATOM     18  C   UNL     1       6.699   3.398  -6.048  1.00  0.00     0.178 C 
ATOM     19  C   UNL     1       7.047   2.176  -6.891  1.00  0.00     0.324 C 
ATOM     20  O   UNL     1       7.802   2.195  -7.857  1.00  0.00    -0.245 OA
BRANCH  17  21
ATOM     21  C   UNL     1       6.351  -0.162  -7.289  1.00  0.00     0.283 C 
BRANCH  21  22
ATOM     22  C   UNL     1       7.216  -1.261  -6.694  1.00  0.00    -0.006 A 
ATOM     23  C   UNL     1       8.489  -1.544  -7.207  1.00  0.00     0.008 A 
ATOM     24  C   UNL     1       6.740  -2.058  -5.643  1.00  0.00     0.008 A 
ATOM     25  C   UNL     1       9.254  -2.591  -6.677  1.00  0.00     0.000 A 
ATOM     26  C   UNL     1       7.517  -3.074  -5.084  1.00  0.00     0.000 A 
ATOM     27  C   UNL     1       8.774  -3.346  -5.608  1.00  0.00     0.000 A 
ENDBRANCH  21  22
ENDBRANCH  17  21
BRANCH  18  28
ATOM     28  C   UNL     1       7.884   4.282  -5.661  1.00  0.00     0.063 C 
BRANCH  28  29
ATOM     29  C   UNL     1       8.521   4.992  -6.838  1.00  0.00    -0.046 A 
ATOM     30  C   UNL     1       9.842   4.690  -7.202  1.00  0.00     0.007 A 
ATOM     31  C   UNL     1       7.805   5.939  -7.588  1.00  0.00     0.007 A 
ATOM     32  C   UNL     1      10.425   5.295  -8.316  1.00  0.00     0.039 A 
ATOM     33  C   UNL     1       8.390   6.540  -8.705  1.00  0.00     0.039 A 
ATOM     34  C   UNL     1       9.691   6.207  -9.062  1.00  0.00     0.123 A 
ATOM     35  F   UNL     1      10.244   6.772 -10.144  1.00  0.00    -0.207 F 
ENDBRANCH  28  29
ENDBRANCH  18  28
ENDBRANCH  12  13
ENDBRANCH   5   7
ENDBRANCH   2   3
ENDBRANCH   1   2
BRANCH   1  36
ATOM     36  C   UNL     1       4.415   1.452   3.405  1.00  0.00     0.118 C 
BRANCH  36  37
ATOM     37  N   UNL     1       4.885   0.386   4.279  1.00  0.00    -0.352 N 
ATOM     38  C   UNL     1       5.657   0.439   5.413  1.00  0.00     0.251 C 
ATOM     39  H   UNL     1       4.603  -0.519   4.015  1.00  0.00     0.163 HD
ATOM     40  O   UNL     1       6.089  -0.608   5.890  1.00  0.00    -0.269 OA
BRANCH  38  41
ATOM     41  C   UNL     1       5.985   1.735   6.048  1.00  0.00     0.039 A 
ATOM     42  C   UNL     1       7.250   1.906   6.616  1.00  0.00     0.014 A 
ATOM     43  C   UNL     1       5.048   2.768   6.119  1.00  0.00     0.014 A 
ATOM     44  C   UNL     1       7.587   3.126   7.209  1.00  0.00     0.010 A 
ATOM     45  C   UNL     1       5.419   4.015   6.614  1.00  0.00     0.010 A 
ATOM     46  C   UNL     1       6.683   4.201   7.188  1.00  0.00    -0.014 A 
BRANCH  46  47
ATOM     47  C   UNL     1       7.028   5.510   7.801  1.00  0.00     0.031 A 
ATOM     48  C   UNL     1       6.215   6.038   8.956  1.00  0.00     0.074 A 
ATOM     49  C   UNL     1       8.038   6.242   7.294  1.00  0.00     0.049 A 
ATOM     50  N   UNL     1       6.332   7.172   9.599  1.00  0.00    -0.248 NA
ATOM     51  C   UNL     1       5.104   5.197   9.430  1.00  0.00     0.031 C 
ATOM     52  C   UNL     1       8.862   5.867   6.142  1.00  0.00     0.029 A 
ATOM     53  N   UNL     1       8.543   7.458   7.678  1.00  0.00    -0.354 N 
ATOM     54  C   UNL     1       5.306   7.184  10.537  1.00  0.00     0.074 A 
ATOM     55  C   UNL     1       4.535   5.978  10.335  1.00  0.00     0.031 C 
ATOM     56  C   UNL     1       9.788   6.816   5.935  1.00  0.00     0.029 A 
ATOM     57  C   UNL     1       9.604   7.883   6.913  1.00  0.00     0.049 A 
ATOM     58  H   UNL     1       8.181   7.978   8.432  1.00  0.00     0.167 HD
ATOM     59  C   UNL     1       5.045   8.101  11.500  1.00  0.00     0.037 A 
ATOM     60  C   UNL     1      10.345   9.006   6.992  1.00  0.00     0.037 A 
ATOM     61  C   UNL     1       5.835   9.285  11.715  1.00  0.00     0.049 A 
ATOM     62  C   UNL     1      10.049  10.001   8.083  1.00  0.00     0.074 A 
ATOM     63  C   UNL     1       5.690  10.251  12.696  1.00  0.00     0.029 A 
ATOM     64  N   UNL     1       6.920   9.666  10.938  1.00  0.00    -0.354 N 
ATOM     65  N   UNL     1       9.112   9.966   9.001  1.00  0.00    -0.248 NA
ATOM     66  C   UNL     1      10.922  11.179   8.158  1.00  0.00     0.031 C 
ATOM     67  C   UNL     1       6.659  11.237  12.486  1.00  0.00     0.029 A 
ATOM     68  C   UNL     1       7.444  10.858  11.409  1.00  0.00     0.049 A 
ATOM     69  H   UNL     1       7.266   9.162  10.166  1.00  0.00     0.167 HD
ATOM     70  C   UNL     1       9.304  11.101   9.783  1.00  0.00     0.074 A 
ATOM     71  C   UNL     1      10.455  11.791   9.237  1.00  0.00     0.031 C 
ATOM     72  C   UNL     1       8.594  11.531  10.856  1.00  0.00     0.037 A 
BRANCH  59  73
ATOM     73  C   UNL     1       3.862   7.851  12.397  1.00  0.00     0.058 A 
ATOM     74  C   UNL     1       3.850   6.802  13.331  1.00  0.00     0.135 A 
ATOM     75  C   UNL     1       2.733   8.685  12.340  1.00  0.00     0.135 A 
ATOM     76  F   UNL     1       4.894   5.962  13.418  1.00  0.00    -0.206 F 
ATOM     77  C   UNL     1       2.751   6.566  14.150  1.00  0.00     0.059 A 
ATOM     78  C   UNL     1       1.635   8.488  13.173  1.00  0.00     0.059 A 
ATOM     79  F   UNL     1       2.688   9.703  11.467  1.00  0.00    -0.206 F 
ATOM     80  C   UNL     1       1.647   7.415  14.063  1.00  0.00     0.060 A 
BRANCH  80  81
ATOM     81  S   UNL     1       0.229   7.097  15.135  1.00  0.00     0.124 S 
ATOM     82  O   UNL     1      -0.339   5.902  14.518  1.00  0.00    -0.237 OA
ATOM     83  O   UNL     1       0.860   6.899  16.436  1.00  0.00    -0.237 OA
ATOM     84  O   UNL     1      -0.572   8.310  15.008  1.00  0.00    -0.744 OA
ENDBRANCH  80  81
ENDBRANCH  59  73
BRANCH  60  85
ATOM     85  C   UNL     1      11.461   9.230   6.035  1.00  0.00     0.058 A 
ATOM     86  C   UNL     1      12.798   9.172   6.457  1.00  0.00     0.135 A 
ATOM     87  C   UNL     1      11.216   9.496   4.679  1.00  0.00     0.135 A 
ATOM     88  F   UNL     1      13.084   8.925   7.744  1.00  0.00    -0.206 F 
ATOM     89  C   UNL     1      13.851   9.391   5.576  1.00  0.00     0.059 A 
ATOM     90  C   UNL     1      12.253   9.691   3.772  1.00  0.00     0.059 A 
ATOM     91  F   UNL     1       9.955   9.543   4.219  1.00  0.00    -0.206 F 
ATOM     92  C   UNL     1      13.568   9.647   4.233  1.00  0.00     0.060 A 
BRANCH  92  93
ATOM     93  S   UNL     1      14.945   9.883   3.088  1.00  0.00     0.124 S 
ATOM     94  O   UNL     1      15.425  11.204   3.474  1.00  0.00    -0.237 OA
ATOM     95  O   UNL     1      15.817   8.762   3.423  1.00  0.00    -0.237 OA
ATOM     96  O   UNL     1      14.307   9.800   1.777  1.00  0.00    -0.744 OA
ENDBRANCH  92  93
ENDBRANCH  60  85
BRANCH  72  97
ATOM     97  C   UNL     1       9.073  12.784  11.538  1.00  0.00     0.058 A 
ATOM     98  C   UNL     1       8.958  14.048  10.938  1.00  0.00     0.135 A 
ATOM     99  C   UNL     1       9.642  12.718  12.821  1.00  0.00     0.135 A 
ATOM    100  F   UNL     1       8.424  14.168   9.712  1.00  0.00    -0.206 F 
ATOM    101  C   UNL     1       9.432  15.196  11.565  1.00  0.00     0.059 A 
ATOM    102  C   UNL     1      10.092  13.857  13.480  1.00  0.00     0.059 A 
ATOM    103  F   UNL     1       9.761  11.537  13.448  1.00  0.00    -0.206 F 
ATOM    104  C   UNL     1      10.003  15.089  12.835  1.00  0.00     0.060 A 
BRANCH 104 105
ATOM    105  S   UNL     1      10.621  16.583  13.636  1.00  0.00     0.124 S 
ATOM    106  O   UNL     1      11.851  16.827  12.891  1.00  0.00    -0.237 OA
ATOM    107  O   UNL     1       9.539  17.535  13.403  1.00  0.00    -0.237 OA
ATOM    108  O   UNL     1      10.799  16.174  15.027  1.00  0.00    -0.744 OA
ENDBRANCH 104 105
ENDBRANCH  72  97
ENDBRANCH  46  47
ENDBRANCH  38  41
ENDBRANCH  36  37
ENDBRANCH   1  36
TORSDOF 18
