REMARK SMILES CCC(CC)COc1cc2c(cc1Cl)C=C(C(=O)NCCCNC(=O)c1ccc(-c3c4nc(c(-c5c(F)cc(S(=O)(=O)[O-])cc5F)c5ccc([nH]5)c(-c5c(F)cc(S(=O)(=O)[O-])cc5F)c5nc(c(-c6c(F)cc(S(=O)(=O)[O-])cc6F)c6ccc3[nH]6)C=C5)C=C4)cc1)[C@@H](C(F)(F)F)O2
REMARK SMILES IDX 20 1 19 2 17 3 18 4 16 6 8 7 9 8 13 9 10 10 12 11 14 12
REMARK SMILES IDX 11 13 97 14 15 15 92 16 7 17 6 18 3 19 2 20 1 21 4 22 5 23
REMARK SMILES IDX 93 24 94 25 95 26 96 27 21 28 22 29 23 30 24 31 25 33 26 34
REMARK SMILES IDX 27 35 91 36 28 37 90 38 29 39 30 40 31 41 84 42 32 43 89 44
REMARK SMILES IDX 83 45 85 46 33 47 88 48 82 49 81 50 34 52 68 53 47 54 67 55
REMARK SMILES IDX 48 56 51 57 66 58 86 59 49 60 50 61 65 63 87 64 52 65 35 66
REMARK SMILES IDX 36 67 45 68 37 69 38 70 44 71 46 72 39 73 40 74 41 75 42 76
REMARK SMILES IDX 43 77 69 78 70 79 79 80 71 81 72 82 78 83 80 84 73 85 74 86
REMARK SMILES IDX 75 87 76 88 77 89 53 90 54 91 63 92 55 93 56 94 62 95 64 96
REMARK SMILES IDX 57 97 58 98 59 99 60 100 61 101
REMARK H PARENT 19 5 23 32 85 51 51 62
REMARK Flexibility Score: inf
ROOT
ATOM      1  C   UNL     1      -2.299   9.026  -2.391  1.00  0.00     0.118 C 
ENDROOT
BRANCH   1   2
ATOM      2  N   UNL     1      -2.185   8.346  -1.112  1.00  0.00    -0.352 N 
ATOM      3  C   UNL     1      -1.611   7.209  -0.660  1.00  0.00     0.251 C 
ATOM      4  O   UNL     1      -1.692   7.018   0.557  1.00  0.00    -0.270 OA
ATOM      5  H   UNL     1      -2.642   8.838  -0.392  1.00  0.00     0.163 HD
BRANCH   3   6
ATOM      6  C   UNL     1      -0.922   6.211  -1.517  1.00  0.00     0.067 C 
ATOM      7  C   UNL     1       1.249   1.985  -3.073  1.00  0.00     0.141 A 
ATOM      8  C   UNL     1       0.228   2.780  -3.595  1.00  0.00     0.095 A 
ATOM      9  C   UNL     1       1.963   2.405  -1.940  1.00  0.00     0.083 A 
ATOM     10  C   UNL     1      -0.151   3.922  -2.902  1.00  0.00     0.131 A 
ATOM     11  C   UNL     1       1.513   3.498  -1.200  1.00  0.00     0.036 A 
ATOM     12  Cl  UNL     1       3.355   1.555  -1.375  1.00  0.00    -0.080 Cl
ATOM     13  C   UNL     1       0.426   4.234  -1.663  1.00  0.00     0.019 A 
ATOM     14  O   UNL     1      -1.113   4.722  -3.464  1.00  0.00    -0.475 OA
ATOM     15  C   UNL     1      -0.172   5.301  -0.870  1.00  0.00     0.025 C 
ATOM     16  C   UNL     1      -1.047   6.111  -3.012  1.00  0.00     0.314 C 
BRANCH   7  17
ATOM     17  O   UNL     1       1.537   0.782  -3.662  1.00  0.00    -0.492 OA
BRANCH  17  18
ATOM     18  C   UNL     1       0.514  -0.210  -3.403  1.00  0.00     0.233 C 
BRANCH  18  19
ATOM     19  C   UNL     1       0.736  -0.920  -2.043  1.00  0.00     0.026 C 
BRANCH  19  20
ATOM     20  C   UNL     1       0.000  -0.199  -0.889  1.00  0.00     0.003 C 
ATOM     21  C   UNL     1       0.579  -0.535   0.479  1.00  0.00     0.004 C 
ENDBRANCH  19  20
BRANCH  19  22
ATOM     22  C   UNL     1       0.363  -2.417  -2.114  1.00  0.00     0.003 C 
ATOM     23  C   UNL     1      -1.119  -2.717  -2.285  1.00  0.00     0.004 C 
ENDBRANCH  19  22
ENDBRANCH  18  19
ENDBRANCH  17  18
ENDBRANCH   7  17
BRANCH  16  24
ATOM     24  C   UNL     1       0.090   6.877  -3.735  1.00  0.00     0.429 C 
ATOM     25  F   UNL     1      -0.259   7.164  -5.012  1.00  0.00    -0.167 F 
ATOM     26  F   UNL     1       0.371   8.060  -3.134  1.00  0.00    -0.167 F 
ATOM     27  F   UNL     1       1.257   6.194  -3.780  1.00  0.00    -0.167 F 
ENDBRANCH  16  24
ENDBRANCH   3   6
ENDBRANCH   1   2
BRANCH   1  28
ATOM     28  C   UNL     1      -3.744   9.121  -2.850  1.00  0.00     0.042 C 
BRANCH  28  29
ATOM     29  C   UNL     1      -4.529  10.176  -2.084  1.00  0.00     0.118 C 
BRANCH  29  30
ATOM     30  N   UNL     1      -4.086  11.531  -2.402  1.00  0.00    -0.352 N 
ATOM     31  C   UNL     1      -4.725  12.528  -3.101  1.00  0.00     0.251 C 
ATOM     32  H   UNL     1      -3.192  11.767  -2.065  1.00  0.00     0.163 HD
ATOM     33  O   UNL     1      -4.096  13.522  -3.458  1.00  0.00    -0.269 OA
BRANCH  31  34
ATOM     34  C   UNL     1      -6.156  12.388  -3.438  1.00  0.00     0.039 A 
ATOM     35  C   UNL     1      -7.049  11.881  -2.495  1.00  0.00     0.014 A 
ATOM     36  C   UNL     1      -6.607  12.747  -4.711  1.00  0.00     0.014 A 
ATOM     37  C   UNL     1      -8.335  11.537  -2.885  1.00  0.00     0.010 A 
ATOM     38  C   UNL     1      -7.938  12.506  -5.066  1.00  0.00     0.010 A 
ATOM     39  C   UNL     1      -8.798  11.846  -4.174  1.00  0.00    -0.014 A 
BRANCH  39  40
ATOM     40  C   UNL     1     -10.184  11.465  -4.550  1.00  0.00     0.031 A 
ATOM     41  C   UNL     1     -10.443  10.485  -5.662  1.00  0.00     0.074 A 
ATOM     42  C   UNL     1     -11.211  11.956  -3.829  1.00  0.00     0.049 A 
ATOM     43  N   UNL     1     -11.586  10.015  -6.094  1.00  0.00    -0.248 NA
ATOM     44  C   UNL     1      -9.273   9.970  -6.390  1.00  0.00     0.031 C 
ATOM     45  C   UNL     1     -11.080  12.911  -2.725  1.00  0.00     0.029 A 
ATOM     46  N   UNL     1     -12.555  11.698  -3.886  1.00  0.00    -0.354 N 
ATOM     47  C   UNL     1     -11.277   9.181  -7.162  1.00  0.00     0.074 A 
ATOM     48  C   UNL     1      -9.841   9.222  -7.326  1.00  0.00     0.031 C 
ATOM     49  C   UNL     1     -12.281  13.100  -2.163  1.00  0.00     0.029 A 
ATOM     50  C   UNL     1     -13.278  12.342  -2.911  1.00  0.00     0.049 A 
ATOM     51  H   UNL     1     -12.964  11.107  -4.560  1.00  0.00     0.167 HD
ATOM     52  C   UNL     1     -12.116   8.444  -7.930  1.00  0.00     0.037 A 
ATOM     53  C   UNL     1     -14.599  12.338  -2.650  1.00  0.00     0.037 A 
ATOM     54  C   UNL     1     -13.542   8.382  -7.737  1.00  0.00     0.049 A 
ATOM     55  C   UNL     1     -15.509  11.521  -3.516  1.00  0.00     0.074 A 
ATOM     56  C   UNL     1     -14.473   7.634  -8.434  1.00  0.00     0.029 A 
ATOM     57  N   UNL     1     -14.243   9.097  -6.776  1.00  0.00    -0.354 N 
ATOM     58  N   UNL     1     -15.199  10.737  -4.521  1.00  0.00    -0.248 NA
ATOM     59  C   UNL     1     -16.946  11.601  -3.229  1.00  0.00     0.031 C 
ATOM     60  C   UNL     1     -15.742   7.926  -7.921  1.00  0.00     0.029 A 
ATOM     61  C   UNL     1     -15.598   8.827  -6.878  1.00  0.00     0.049 A 
ATOM     62  H   UNL     1     -13.838   9.707  -6.118  1.00  0.00     0.167 HD
ATOM     63  C   UNL     1     -16.403  10.235  -4.995  1.00  0.00     0.074 A 
ATOM     64  C   UNL     1     -17.445  10.784  -4.149  1.00  0.00     0.031 C 
ATOM     65  C   UNL     1     -16.624   9.402  -6.041  1.00  0.00     0.037 A 
BRANCH  52  66
ATOM     66  C   UNL     1     -11.511   7.668  -9.068  1.00  0.00     0.058 A 
ATOM     67  C   UNL     1     -10.738   6.516  -8.854  1.00  0.00     0.135 A 
ATOM     68  C   UNL     1     -11.715   8.081 -10.395  1.00  0.00     0.135 A 
ATOM     69  F   UNL     1     -10.498   6.085  -7.605  1.00  0.00    -0.206 F 
ATOM     70  C   UNL     1     -10.157   5.823  -9.912  1.00  0.00     0.059 A 
ATOM     71  C   UNL     1     -11.163   7.389 -11.470  1.00  0.00     0.059 A 
ATOM     72  F   UNL     1     -12.447   9.175 -10.657  1.00  0.00    -0.206 F 
ATOM     73  C   UNL     1     -10.369   6.272 -11.216  1.00  0.00     0.060 A 
BRANCH  73  74
ATOM     74  S   UNL     1      -9.581   5.382 -12.575  1.00  0.00     0.124 S 
ATOM     75  O   UNL     1      -8.189   5.794 -12.422  1.00  0.00    -0.237 OA
ATOM     76  O   UNL     1      -9.869   3.990 -12.246  1.00  0.00    -0.237 OA
ATOM     77  O   UNL     1     -10.261   5.897 -13.759  1.00  0.00    -0.744 OA
ENDBRANCH  73  74
ENDBRANCH  52  66
BRANCH  53  78
ATOM     78  C   UNL     1     -15.107  13.143  -1.511  1.00  0.00     0.058 A 
ATOM     79  C   UNL     1     -15.502  12.530  -0.315  1.00  0.00     0.135 A 
ATOM     80  C   UNL     1     -15.094  14.547  -1.558  1.00  0.00     0.135 A 
ATOM     81  F   UNL     1     -15.536  11.191  -0.227  1.00  0.00    -0.206 F 
ATOM     82  C   UNL     1     -15.840  13.279   0.807  1.00  0.00     0.059 A 
ATOM     83  C   UNL     1     -15.406  15.317  -0.443  1.00  0.00     0.059 A 
ATOM     84  F   UNL     1     -14.708  15.178  -2.677  1.00  0.00    -0.206 F 
ATOM     85  C   UNL     1     -15.771  14.672   0.738  1.00  0.00     0.060 A 
BRANCH  85  86
ATOM     86  S   UNL     1     -16.079  15.630   2.239  1.00  0.00     0.124 S 
ATOM     87  O   UNL     1     -17.525  15.504   2.376  1.00  0.00    -0.237 OA
ATOM     88  O   UNL     1     -15.279  14.913   3.228  1.00  0.00    -0.237 OA
ATOM     89  O   UNL     1     -15.589  16.961   1.894  1.00  0.00    -0.744 OA
ENDBRANCH  85  86
ENDBRANCH  53  78
BRANCH  65  90
ATOM     90  C   UNL     1     -18.051   9.045  -6.343  1.00  0.00     0.058 A 
ATOM     91  C   UNL     1     -18.911   9.957  -6.973  1.00  0.00     0.135 A 
ATOM     92  C   UNL     1     -18.546   7.763  -6.054  1.00  0.00     0.135 A 
ATOM     93  F   UNL     1     -18.487  11.197  -7.261  1.00  0.00    -0.206 F 
ATOM     94  C   UNL     1     -20.219   9.615  -7.296  1.00  0.00     0.059 A 
ATOM     95  C   UNL     1     -19.844   7.393  -6.387  1.00  0.00     0.059 A 
ATOM     96  F   UNL     1     -17.759   6.853  -5.458  1.00  0.00    -0.206 F 
ATOM     97  C   UNL     1     -20.676   8.328  -7.002  1.00  0.00     0.060 A 
BRANCH  97  98
ATOM     98  S   UNL     1     -22.364   7.885  -7.464  1.00  0.00     0.124 S 
ATOM     99  O   UNL     1     -23.142   8.615  -6.469  1.00  0.00    -0.237 OA
ATOM    100  O   UNL     1     -22.455   8.384  -8.832  1.00  0.00    -0.237 OA
ATOM    101  O   UNL     1     -22.381   6.431  -7.331  1.00  0.00    -0.744 OA
ENDBRANCH  97  98
ENDBRANCH  65  90
ENDBRANCH  39  40
ENDBRANCH  31  34
ENDBRANCH  29  30
ENDBRANCH  28  29
ENDBRANCH   1  28
TORSDOF 19
