REMARK SMILES CC[C@@H](NC(=O)N1CCO[C@H](CC(=O)NCCCNC(=O)c2ccc(-c3c4nc(c(-c5c(F)cc(S(=O)(=O)[O-])cc5F)c5ccc([nH]5)c(-c5c(F)cc(S(=O)(=O)[O-])cc5F)c5nc(c(-c6c(F)cc(S(=O)(=O)[O-])cc6F)c6ccc3[nH]6)C=C5)C=C4)cc2)C1)c1cccs1
REMARK SMILES IDX 16 1 15 2 13 3 14 4 12 6 11 7 7 8 8 9 88 10 9 11 10 12 5 13
REMARK SMILES IDX 4 14 6 16 3 17 2 18 1 19 89 20 90 21 93 22 91 23 92 24 17 25
REMARK SMILES IDX 18 26 19 27 20 28 21 30 22 31 23 32 87 33 24 34 86 35 25 36
REMARK SMILES IDX 26 37 27 38 80 39 28 40 85 41 79 42 81 43 29 44 84 45 78 46
REMARK SMILES IDX 77 47 30 49 64 50 43 51 63 52 44 53 47 54 62 55 82 56 45 57
REMARK SMILES IDX 46 58 61 60 83 61 48 62 31 63 32 64 41 65 33 66 34 67 40 68
REMARK SMILES IDX 42 69 35 70 36 71 37 72 38 73 39 74 65 75 66 76 75 77 67 78
REMARK SMILES IDX 68 79 74 80 76 81 69 82 70 83 71 84 72 85 73 86 49 87 50 88
REMARK SMILES IDX 59 89 51 90 52 91 58 92 60 93 53 94 54 95 55 96 56 97 57 98
REMARK H PARENT 15 5 4 15 19 29 81 48 47 59
REMARK Flexibility Score: inf
ROOT
ATOM      1  C   UNL     1      -4.011   3.410  -1.954  1.00  0.00     0.117 C 
ENDROOT
BRANCH   1   2
ATOM      2  N   UNL     1      -3.009   2.823  -1.073  1.00  0.00    -0.356 N 
ATOM      3  C   UNL     1      -2.784   2.983   0.262  1.00  0.00     0.222 C 
ATOM      4  O   UNL     1      -2.119   2.125   0.846  1.00  0.00    -0.275 OA
ATOM      5  H   UNL     1      -2.387   2.204  -1.520  1.00  0.00     0.163 HD
BRANCH   3   6
ATOM      6  C   UNL     1      -3.355   4.148   1.039  1.00  0.00     0.133 C 
BRANCH   6   7
ATOM      7  C   UNL     1      -2.773   5.537   0.729  1.00  0.00     0.147 C 
ATOM      8  N   UNL     1      -0.444   5.034   0.071  1.00  0.00    -0.320 N 
ATOM      9  C   UNL     1       0.053   5.772   1.217  1.00  0.00     0.150 C 
ATOM     10  C   UNL     1      -1.706   5.615  -0.369  1.00  0.00     0.154 C 
ATOM     11  C   UNL     1      -0.984   5.750   2.348  1.00  0.00     0.182 C 
ATOM     12  O   UNL     1      -2.288   6.201   1.925  1.00  0.00    -0.374 OA
BRANCH   8  13
ATOM     13  C   UNL     1       0.239   4.239  -0.790  1.00  0.00     0.318 C 
ATOM     14  N   UNL     1       1.261   3.435  -0.478  1.00  0.00    -0.330 N 
ATOM     15  H   UNL     1       1.903   3.422  -1.224  1.00  0.00     0.166 HD
ATOM     16  O   UNL     1      -0.056   4.222  -1.993  1.00  0.00    -0.249 OA
BRANCH  14  17
ATOM     17  C   UNL     1       1.753   2.560   0.600  1.00  0.00     0.124 C 
BRANCH  17  18
ATOM     18  C   UNL     1       1.068   1.179   0.684  1.00  0.00     0.027 C 
ATOM     19  C   UNL     1       1.348   0.268  -0.505  1.00  0.00     0.006 C 
ENDBRANCH  17  18
BRANCH  17  20
ATOM     20  C   UNL     1       1.880   3.209   1.944  1.00  0.00     0.027 A 
ATOM     21  C   UNL     1       1.031   3.138   3.035  1.00  0.00     0.017 A 
ATOM     22  S   UNL     1       3.298   4.112   2.324  1.00  0.00    -0.147 S 
ATOM     23  C   UNL     1       1.475   3.945   4.123  1.00  0.00     0.012 A 
ATOM     24  C   UNL     1       2.671   4.566   3.848  1.00  0.00     0.065 A 
ENDBRANCH  17  20
ENDBRANCH  14  17
ENDBRANCH   8  13
ENDBRANCH   6   7
ENDBRANCH   3   6
ENDBRANCH   1   2
BRANCH   1  25
ATOM     25  C   UNL     1      -3.494   4.210  -3.164  1.00  0.00     0.042 C 
BRANCH  25  26
ATOM     26  C   UNL     1      -2.332   3.594  -3.948  1.00  0.00     0.118 C 
BRANCH  26  27
ATOM     27  N   UNL     1      -2.788   2.945  -5.166  1.00  0.00    -0.352 N 
ATOM     28  C   UNL     1      -2.923   3.435  -6.442  1.00  0.00     0.251 C 
ATOM     29  H   UNL     1      -3.041   2.000  -5.059  1.00  0.00     0.163 HD
ATOM     30  O   UNL     1      -3.576   2.779  -7.252  1.00  0.00    -0.269 OA
BRANCH  28  31
ATOM     31  C   UNL     1      -2.329   4.730  -6.868  1.00  0.00     0.039 A 
ATOM     32  C   UNL     1      -3.083   5.548  -7.719  1.00  0.00     0.014 A 
ATOM     33  C   UNL     1      -1.018   5.101  -6.556  1.00  0.00     0.014 A 
ATOM     34  C   UNL     1      -2.542   6.738  -8.224  1.00  0.00     0.010 A 
ATOM     35  C   UNL     1      -0.495   6.317  -7.020  1.00  0.00     0.010 A 
ATOM     36  C   UNL     1      -1.247   7.147  -7.867  1.00  0.00    -0.014 A 
BRANCH  36  37
ATOM     37  C   UNL     1      -0.695   8.437  -8.374  1.00  0.00     0.031 A 
ATOM     38  C   UNL     1       0.473   8.465  -9.329  1.00  0.00     0.074 A 
ATOM     39  C   UNL     1      -1.236   9.602  -7.960  1.00  0.00     0.049 A 
ATOM     40  N   UNL     1       1.075   9.496  -9.868  1.00  0.00    -0.248 NA
ATOM     41  C   UNL     1       1.049   7.169  -9.719  1.00  0.00     0.031 C 
ATOM     42  C   UNL     1      -2.340   9.724  -7.006  1.00  0.00     0.029 A 
ATOM     43  N   UNL     1      -0.931  10.903  -8.280  1.00  0.00    -0.354 N 
ATOM     44  C   UNL     1       2.103   8.979 -10.649  1.00  0.00     0.074 A 
ATOM     45  C   UNL     1       2.066   7.541 -10.486  1.00  0.00     0.031 C 
ATOM     46  C   UNL     1      -2.627  11.024  -6.829  1.00  0.00     0.029 A 
ATOM     47  C   UNL     1      -1.712  11.831  -7.630  1.00  0.00     0.049 A 
ATOM     48  H   UNL     1      -0.220  11.148  -8.915  1.00  0.00     0.167 HD
ATOM     49  C   UNL     1       2.986   9.637 -11.441  1.00  0.00     0.037 A 
ATOM     50  C   UNL     1      -1.691  13.179  -7.664  1.00  0.00     0.037 A 
ATOM     51  C   UNL     1       3.006  11.066 -11.628  1.00  0.00     0.049 A 
ATOM     52  C   UNL     1      -0.705  13.885  -8.555  1.00  0.00     0.074 A 
ATOM     53  C   UNL     1       3.814  11.811 -12.472  1.00  0.00     0.029 A 
ATOM     54  N   UNL     1       2.193  11.968 -10.959  1.00  0.00    -0.354 N 
ATOM     55  N   UNL     1       0.204  13.370  -9.347  1.00  0.00    -0.248 NA
ATOM     56  C   UNL     1      -0.746  15.355  -8.562  1.00  0.00     0.031 C 
ATOM     57  C   UNL     1       3.521  13.165 -12.280  1.00  0.00     0.029 A 
ATOM     58  C   UNL     1       2.499  13.263 -11.350  1.00  0.00     0.049 A 
ATOM     59  H   UNL     1       1.500  11.726 -10.303  1.00  0.00     0.167 HD
ATOM     60  C   UNL     1       0.832  14.451  -9.957  1.00  0.00     0.074 A 
ATOM     61  C   UNL     1       0.186  15.647  -9.459  1.00  0.00     0.031 C 
ATOM     62  C   UNL     1       1.854  14.450 -10.849  1.00  0.00     0.037 A 
BRANCH  49  63
ATOM     63  C   UNL     1       4.012   8.822 -12.182  1.00  0.00     0.058 A 
ATOM     64  C   UNL     1       3.666   8.031 -13.288  1.00  0.00     0.135 A 
ATOM     65  C   UNL     1       5.370   8.893 -11.829  1.00  0.00     0.135 A 
ATOM     66  F   UNL     1       2.383   7.920 -13.665  1.00  0.00    -0.206 F 
ATOM     67  C   UNL     1       4.626   7.323 -14.006  1.00  0.00     0.059 A 
ATOM     68  C   UNL     1       6.351   8.213 -12.547  1.00  0.00     0.059 A 
ATOM     69  F   UNL     1       5.758   9.640 -10.782  1.00  0.00    -0.206 F 
ATOM     70  C   UNL     1       5.966   7.422 -13.629  1.00  0.00     0.060 A 
BRANCH  70  71
ATOM     71  S   UNL     1       7.206   6.518 -14.581  1.00  0.00     0.124 S 
ATOM     72  O   UNL     1       6.953   5.142 -14.153  1.00  0.00    -0.237 OA
ATOM     73  O   UNL     1       6.823   6.826 -15.960  1.00  0.00    -0.237 OA
ATOM     74  O   UNL     1       8.465   7.091 -14.141  1.00  0.00    -0.744 OA
ENDBRANCH  70  71
ENDBRANCH  49  63
BRANCH  50  75
ATOM     75  C   UNL     1      -2.641  13.956  -6.823  1.00  0.00     0.058 A 
ATOM     76  C   UNL     1      -3.702  14.672  -7.396  1.00  0.00     0.135 A 
ATOM     77  C   UNL     1      -2.505  13.995  -5.426  1.00  0.00     0.135 A 
ATOM     78  F   UNL     1      -3.867  14.673  -8.728  1.00  0.00    -0.206 F 
ATOM     79  C   UNL     1      -4.585  15.414  -6.619  1.00  0.00     0.059 A 
ATOM     80  C   UNL     1      -3.390  14.710  -4.625  1.00  0.00     0.059 A 
ATOM     81  F   UNL     1      -1.516  13.315  -4.827  1.00  0.00    -0.206 F 
ATOM     82  C   UNL     1      -4.421  15.426  -5.232  1.00  0.00     0.060 A 
BRANCH  82  83
ATOM     83  S   UNL     1      -5.598  16.355  -4.225  1.00  0.00     0.124 S 
ATOM     84  O   UNL     1      -5.161  17.727  -4.454  1.00  0.00    -0.237 OA
ATOM     85  O   UNL     1      -6.877  15.983  -4.824  1.00  0.00    -0.237 OA
ATOM     86  O   UNL     1      -5.371  15.833  -2.881  1.00  0.00    -0.744 OA
ENDBRANCH  82  83
ENDBRANCH  50  75
BRANCH  62  87
ATOM     87  C   UNL     1       2.332  15.782 -11.358  1.00  0.00     0.058 A 
ATOM     88  C   UNL     1       3.086  16.649 -10.552  1.00  0.00     0.135 A 
ATOM     89  C   UNL     1       2.074  16.177 -12.681  1.00  0.00     0.135 A 
ATOM     90  F   UNL     1       3.354  16.324  -9.277  1.00  0.00    -0.206 F 
ATOM     91  C   UNL     1       3.550  17.870 -11.032  1.00  0.00     0.059 A 
ATOM     92  C   UNL     1       2.550  17.381 -13.190  1.00  0.00     0.059 A 
ATOM     93  F   UNL     1       1.365  15.381 -13.498  1.00  0.00    -0.206 F 
ATOM     94  C   UNL     1       3.278  18.227 -12.354  1.00  0.00     0.060 A 
BRANCH  94  95
ATOM     95  S   UNL     1       3.914  19.799 -12.976  1.00  0.00     0.124 S 
ATOM     96  O   UNL     1       3.009  20.753 -12.343  1.00  0.00    -0.237 OA
ATOM     97  O   UNL     1       5.286  19.801 -12.478  1.00  0.00    -0.237 OA
ATOM     98  O   UNL     1       3.779  19.670 -14.424  1.00  0.00    -0.744 OA
ENDBRANCH  94  95
ENDBRANCH  62  87
ENDBRANCH  36  37
ENDBRANCH  28  31
ENDBRANCH  26  27
ENDBRANCH  25  26
ENDBRANCH   1  25
TORSDOF 18
