REMARK SMILES COc1ccc(/C=N/Nc2cccc(C(=O)NCCCNC(=O)c3ccc(-c4c5nc(c(-c6c(F)cc(S(=O)(=O)[O-])cc6F)c6ccc([nH]6)c(-c6c(F)cc(S(=O)(=O)[O-])cc6F)c6nc(c(-c7c(F)cc(S(=O)(=O)[O-])cc7F)c7ccc4[nH]7)C=C6)C=C5)cc3)c2)cc1O
REMARK SMILES IDX 18 1 17 2 15 3 16 4 14 6 10 7 11 8 90 9 12 10 13 11 9 12
REMARK SMILES IDX 8 14 7 15 6 16 3 17 4 18 92 19 5 20 91 21 2 22 1 23 93 24
REMARK SMILES IDX 19 26 20 27 21 28 22 29 23 31 24 32 25 33 89 34 26 35 88 36
REMARK SMILES IDX 27 37 28 38 29 39 82 40 30 41 87 42 81 43 83 44 31 45 86 46
REMARK SMILES IDX 80 47 79 48 32 50 66 51 45 52 65 53 46 54 49 55 64 56 84 57
REMARK SMILES IDX 47 58 48 59 63 61 85 62 50 63 33 64 34 65 43 66 35 67 36 68
REMARK SMILES IDX 42 69 44 70 37 71 38 72 39 73 40 74 41 75 67 76 68 77 77 78
REMARK SMILES IDX 69 79 70 80 76 81 78 82 71 83 72 84 73 85 74 86 75 87 51 88
REMARK SMILES IDX 52 89 61 90 53 91 54 92 60 93 62 94 55 95 56 96 57 97 58 98
REMARK SMILES IDX 59 99
REMARK H PARENT 17 5 9 13 93 25 21 30 83 49 49 60
REMARK Flexibility Score: inf
ROOT
ATOM      1  C   UNL     1      -4.571  -2.283  -4.722  1.00  0.00     0.118 C 
ENDROOT
BRANCH   1   2
ATOM      2  N   UNL     1      -5.258  -3.191  -5.621  1.00  0.00    -0.352 N 
ATOM      3  C   UNL     1      -5.242  -3.338  -6.985  1.00  0.00     0.251 C 
ATOM      4  O   UNL     1      -5.919  -4.254  -7.455  1.00  0.00    -0.269 OA
ATOM      5  H   UNL     1      -5.853  -3.826  -5.162  1.00  0.00     0.163 HD
BRANCH   3   6
ATOM      6  C   UNL     1      -4.413  -2.506  -7.907  1.00  0.00     0.041 A 
ATOM      7  C   UNL     1      -3.033  -0.571  -8.482  1.00  0.00     0.057 A 
ATOM      8  C   UNL     1      -2.775  -1.137  -9.734  1.00  0.00     0.028 A 
ATOM      9  C   UNL     1      -3.902  -1.241  -7.608  1.00  0.00     0.041 A 
ATOM     10  C   UNL     1      -3.330  -2.368 -10.083  1.00  0.00     0.003 A 
ATOM     11  C   UNL     1      -4.128  -3.055  -9.168  1.00  0.00     0.014 A 
BRANCH   7  12
ATOM     12  N   UNL     1      -2.319   0.582  -8.092  1.00  0.00    -0.278 N 
ATOM     13  H   UNL     1      -1.995   1.183  -8.801  1.00  0.00     0.190 HD
BRANCH  12  14
ATOM     14  N   UNL     1      -2.049   0.919  -6.798  1.00  0.00    -0.183 NA
ATOM     15  C   UNL     1      -1.482  -0.003  -6.080  1.00  0.00     0.141 C 
BRANCH  15  16
ATOM     16  C   UNL     1      -1.114   0.199  -4.666  1.00  0.00    -0.002 A 
ATOM     17  C   UNL     1      -0.460   0.508  -1.968  1.00  0.00     0.160 A 
ATOM     18  C   UNL     1      -0.550   1.630  -2.793  1.00  0.00     0.051 A 
ATOM     19  C   UNL     1      -0.739  -0.756  -2.492  1.00  0.00     0.158 A 
ATOM     20  C   UNL     1      -0.891   1.478  -4.144  1.00  0.00     0.014 A 
ATOM     21  C   UNL     1      -1.016  -0.926  -3.843  1.00  0.00     0.060 A 
BRANCH  17  22
ATOM     22  O   UNL     1      -0.240   0.696  -0.629  1.00  0.00    -0.493 OA
ATOM     23  C   UNL     1       1.021   0.179  -0.199  1.00  0.00     0.278 C 
ENDBRANCH  17  22
BRANCH  19  24
ATOM     24  O   UNL     1      -0.826  -1.855  -1.685  1.00  0.00    -0.504 OA
ATOM     25  H   UNL     1      -0.647  -1.779  -0.768  1.00  0.00     0.293 HD
ENDBRANCH  19  24
ENDBRANCH  15  16
ENDBRANCH  12  14
ENDBRANCH   7  12
ENDBRANCH   3   6
ENDBRANCH   1   2
BRANCH   1  26
ATOM     26  C   UNL     1      -5.442  -1.076  -4.379  1.00  0.00     0.042 C 
BRANCH  26  27
ATOM     27  C   UNL     1      -6.498  -1.391  -3.324  1.00  0.00     0.118 C 
BRANCH  27  28
ATOM     28  N   UNL     1      -5.896  -1.617  -2.014  1.00  0.00    -0.352 N 
ATOM     29  C   UNL     1      -6.121  -0.976  -0.824  1.00  0.00     0.251 C 
ATOM     30  H   UNL     1      -5.229  -2.340  -1.980  1.00  0.00     0.163 HD
ATOM     31  O   UNL     1      -5.338  -1.152   0.111  1.00  0.00    -0.269 OA
BRANCH  29  32
ATOM     32  C   UNL     1      -7.285  -0.080  -0.658  1.00  0.00     0.039 A 
ATOM     33  C   UNL     1      -7.128   1.107   0.065  1.00  0.00     0.014 A 
ATOM     34  C   UNL     1      -8.538  -0.422  -1.176  1.00  0.00     0.014 A 
ATOM     35  C   UNL     1      -8.213   1.971   0.226  1.00  0.00     0.010 A 
ATOM     36  C   UNL     1      -9.599   0.474  -1.076  1.00  0.00     0.010 A 
ATOM     37  C   UNL     1      -9.450   1.675  -0.367  1.00  0.00    -0.014 A 
BRANCH  37  38
ATOM     38  C   UNL     1     -10.606   2.602  -0.254  1.00  0.00     0.031 A 
ATOM     39  C   UNL     1     -11.853   2.167   0.467  1.00  0.00     0.074 A 
ATOM     40  C   UNL     1     -10.556   3.805  -0.858  1.00  0.00     0.049 A 
ATOM     41  N   UNL     1     -12.996   2.791   0.593  1.00  0.00    -0.248 NA
ATOM     42  C   UNL     1     -11.819   0.842   1.107  1.00  0.00     0.031 C 
ATOM     43  C   UNL     1      -9.416   4.323  -1.618  1.00  0.00     0.029 A 
ATOM     44  N   UNL     1     -11.491   4.806  -0.941  1.00  0.00    -0.354 N 
ATOM     45  C   UNL     1     -13.820   1.932   1.310  1.00  0.00     0.074 A 
ATOM     46  C   UNL     1     -13.064   0.721   1.546  1.00  0.00     0.031 C 
ATOM     47  C   UNL     1      -9.711   5.553  -2.069  1.00  0.00     0.029 A 
ATOM     48  C   UNL     1     -11.072   5.894  -1.669  1.00  0.00     0.049 A 
ATOM     49  H   UNL     1     -12.379   4.750  -0.518  1.00  0.00     0.167 HD
ATOM     50  C   UNL     1     -15.084   2.141   1.751  1.00  0.00     0.037 A 
ATOM     51  C   UNL     1     -11.716   7.034  -1.986  1.00  0.00     0.037 A 
ATOM     52  C   UNL     1     -15.822   3.358   1.529  1.00  0.00     0.049 A 
ATOM     53  C   UNL     1     -13.123   7.241  -1.496  1.00  0.00     0.074 A 
ATOM     54  C   UNL     1     -17.090   3.690   1.973  1.00  0.00     0.029 A 
ATOM     55  N   UNL     1     -15.357   4.443   0.799  1.00  0.00    -0.354 N 
ATOM     56  N   UNL     1     -13.871   6.438  -0.776  1.00  0.00    -0.248 NA
ATOM     57  C   UNL     1     -13.774   8.507  -1.858  1.00  0.00     0.031 C 
ATOM     58  C   UNL     1     -17.407   4.960   1.478  1.00  0.00     0.029 A 
ATOM     59  C   UNL     1     -16.319   5.439   0.766  1.00  0.00     0.049 A 
ATOM     60  H   UNL     1     -14.473   4.497   0.368  1.00  0.00     0.167 HD
ATOM     61  C   UNL     1     -15.069   7.114  -0.575  1.00  0.00     0.074 A 
ATOM     62  C   UNL     1     -14.943   8.393  -1.243  1.00  0.00     0.031 C 
ATOM     63  C   UNL     1     -16.172   6.712   0.104  1.00  0.00     0.037 A 
BRANCH  50  64
ATOM     64  C   UNL     1     -15.744   1.028   2.520  1.00  0.00     0.058 A 
ATOM     65  C   UNL     1     -15.318   0.670   3.809  1.00  0.00     0.135 A 
ATOM     66  C   UNL     1     -16.823   0.317   1.968  1.00  0.00     0.135 A 
ATOM     67  F   UNL     1     -14.283   1.306   4.381  1.00  0.00    -0.206 F 
ATOM     68  C   UNL     1     -15.910  -0.378   4.508  1.00  0.00     0.059 A 
ATOM     69  C   UNL     1     -17.449  -0.716   2.661  1.00  0.00     0.059 A 
ATOM     70  F   UNL     1     -17.275   0.618   0.741  1.00  0.00    -0.206 F 
ATOM     71  C   UNL     1     -16.972  -1.069   3.922  1.00  0.00     0.060 A 
BRANCH  71  72
ATOM     72  S   UNL     1     -17.717  -2.437   4.834  1.00  0.00     0.124 S 
ATOM     73  O   UNL     1     -16.694  -3.469   4.696  1.00  0.00    -0.237 OA
ATOM     74  O   UNL     1     -17.872  -1.875   6.172  1.00  0.00    -0.237 OA
ATOM     75  O   UNL     1     -18.962  -2.687   4.115  1.00  0.00    -0.744 OA
ENDBRANCH  71  72
ENDBRANCH  50  64
BRANCH  51  76
ATOM     76  C   UNL     1     -11.020   8.080  -2.782  1.00  0.00     0.058 A 
ATOM     77  C   UNL     1     -10.613   9.282  -2.187  1.00  0.00     0.135 A 
ATOM     78  C   UNL     1     -10.724   7.890  -4.141  1.00  0.00     0.135 A 
ATOM     79  F   UNL     1     -10.879   9.513  -0.892  1.00  0.00    -0.206 F 
ATOM     80  C   UNL     1      -9.947  10.266  -2.910  1.00  0.00     0.059 A 
ATOM     81  C   UNL     1     -10.037   8.848  -4.880  1.00  0.00     0.059 A 
ATOM     82  F   UNL     1     -11.077   6.749  -4.754  1.00  0.00    -0.206 F 
ATOM     83  C   UNL     1      -9.659  10.037  -4.257  1.00  0.00     0.060 A 
BRANCH  83  84
ATOM     84  S   UNL     1      -8.743  11.297  -5.171  1.00  0.00     0.124 S 
ATOM     85  O   UNL     1      -9.756  12.333  -5.339  1.00  0.00    -0.237 OA
ATOM     86  O   UNL     1      -7.654  11.611  -4.252  1.00  0.00    -0.237 OA
ATOM     87  O   UNL     1      -8.342  10.602  -6.391  1.00  0.00    -0.744 OA
ENDBRANCH  83  84
ENDBRANCH  51  76
BRANCH  63  88
ATOM     88  C   UNL     1     -17.320   7.678   0.193  1.00  0.00     0.058 A 
ATOM     89  C   UNL     1     -18.152   7.940  -0.906  1.00  0.00     0.135 A 
ATOM     90  C   UNL     1     -17.627   8.303   1.413  1.00  0.00     0.135 A 
ATOM     91  F   UNL     1     -17.897   7.374  -2.097  1.00  0.00    -0.206 F 
ATOM     92  C   UNL     1     -19.240   8.801  -0.804  1.00  0.00     0.059 A 
ATOM     93  C   UNL     1     -18.725   9.148   1.544  1.00  0.00     0.059 A 
ATOM     94  F   UNL     1     -16.868   8.080   2.497  1.00  0.00    -0.206 F 
ATOM     95  C   UNL     1     -19.520   9.398   0.427  1.00  0.00     0.060 A 
BRANCH  95  96
ATOM     96  S   UNL     1     -20.962  10.477   0.558  1.00  0.00     0.124 S 
ATOM     97  O   UNL     1     -20.497  11.674  -0.136  1.00  0.00    -0.237 OA
ATOM     98  O   UNL     1     -21.993   9.706  -0.130  1.00  0.00    -0.237 OA
ATOM     99  O   UNL     1     -21.150  10.619   1.998  1.00  0.00    -0.744 OA
ENDBRANCH  95  96
ENDBRANCH  63  88
ENDBRANCH  37  38
ENDBRANCH  29  32
ENDBRANCH  27  28
ENDBRANCH  26  27
ENDBRANCH   1  26
TORSDOF 18
