REMARK SMILES Cc1cc(Br)cc2c1O[C@H](C(F)(F)F)C(C(=O)NCCCNC(=O)c1ccc(-c3c4nc(c(-c5c(F)cc(S(=O)(=O)[O-])cc5F)c5ccc([nH]5)c(-c5c(F)cc(S(=O)(=O)[O-])cc5F)c5nc(c(-c6c(F)cc(S(=O)(=O)[O-])cc6F)c6ccc3[nH]6)C=C5)C=C4)cc1)=C2
REMARK SMILES IDX 21 1 20 2 19 3 18 4 16 5 17 6 15 8 1 9 2 10 3 11 8 12 4 13
REMARK SMILES IDX 7 14 9 15 5 16 6 17 91 18 10 19 11 20 12 21 13 22 14 23
REMARK SMILES IDX 22 24 23 25 24 27 25 28 26 29 90 30 27 31 89 32 28 33 29 34
REMARK SMILES IDX 30 35 83 36 31 37 88 38 82 39 84 40 32 41 87 42 81 43 80 44
REMARK SMILES IDX 33 46 67 47 46 48 66 49 47 50 50 51 65 52 85 53 48 54 49 55
REMARK SMILES IDX 64 57 86 58 51 59 34 60 35 61 44 62 36 63 37 64 43 65 45 66
REMARK SMILES IDX 38 67 39 68 40 69 41 70 42 71 68 72 69 73 78 74 70 75 71 76
REMARK SMILES IDX 77 77 79 78 72 79 73 80 74 81 75 82 76 83 52 84 53 85 62 86
REMARK SMILES IDX 54 87 55 88 61 89 63 90 56 91 57 92 58 93 59 94 60 95
REMARK H PARENT 18 7 22 26 84 45 50 56
REMARK Flexibility Score: inf
ROOT
ATOM      1  C   UNL     1      -2.982  -7.011  -4.080  1.00  0.00     0.118 C 
ENDROOT
BRANCH   1   2
ATOM      2  C   UNL     1      -2.298  -5.930  -3.256  1.00  0.00     0.042 C 
BRANCH   2   3
ATOM      3  C   UNL     1      -1.072  -5.369  -3.958  1.00  0.00     0.118 C 
BRANCH   3   4
ATOM      4  N   UNL     1      -1.427  -4.418  -5.001  1.00  0.00    -0.352 N 
ATOM      5  C   UNL     1      -1.351  -3.081  -5.192  1.00  0.00     0.251 C 
ATOM      6  O   UNL     1      -1.774  -2.678  -6.281  1.00  0.00    -0.270 OA
ATOM      7  H   UNL     1      -1.833  -4.870  -5.776  1.00  0.00     0.163 HD
BRANCH   5   8
ATOM      8  C   UNL     1      -0.801  -2.106  -4.207  1.00  0.00     0.067 C 
ATOM      9  C   UNL     1       0.975   0.358  -0.052  1.00  0.00     0.048 C 
ATOM     10  C   UNL     1       0.514   0.760  -1.425  1.00  0.00    -0.007 A 
ATOM     11  C   UNL     1       0.632   2.095  -1.833  1.00  0.00     0.023 A 
ATOM     12  C   UNL     1       0.028  -0.181  -2.343  1.00  0.00     0.130 A 
ATOM     13  C   UNL     1       0.240   2.475  -3.117  1.00  0.00     0.019 A 
ATOM     14  C   UNL     1      -0.367   0.198  -3.631  1.00  0.00     0.019 A 
ATOM     15  O   UNL     1      -0.087  -1.471  -1.908  1.00  0.00    -0.475 OA
ATOM     16  Br  UNL     1       0.394   4.285  -3.642  1.00  0.00    -0.051 Br
ATOM     17  C   UNL     1      -0.263   1.536  -4.017  1.00  0.00     0.027 A 
ATOM     18  C   UNL     1      -0.910  -0.807  -4.539  1.00  0.00     0.025 C 
ATOM     19  C   UNL     1      -0.128  -2.501  -2.926  1.00  0.00     0.314 C 
BRANCH  19  20
ATOM     20  C   UNL     1       1.296  -3.047  -3.147  1.00  0.00     0.429 C 
ATOM     21  F   UNL     1       1.716  -3.736  -2.057  1.00  0.00    -0.167 F 
ATOM     22  F   UNL     1       1.373  -3.904  -4.194  1.00  0.00    -0.167 F 
ATOM     23  F   UNL     1       2.200  -2.069  -3.381  1.00  0.00    -0.167 F 
ENDBRANCH  19  20
ENDBRANCH   5   8
ENDBRANCH   3   4
ENDBRANCH   2   3
ENDBRANCH   1   2
BRANCH   1  24
ATOM     24  N   UNL     1      -2.117  -8.174  -4.269  1.00  0.00    -0.352 N 
ATOM     25  C   UNL     1      -2.153  -9.409  -3.674  1.00  0.00     0.251 C 
ATOM     26  H   UNL     1      -1.395  -8.051  -4.928  1.00  0.00     0.163 HD
ATOM     27  O   UNL     1      -1.171 -10.146  -3.742  1.00  0.00    -0.269 OA
BRANCH  25  28
ATOM     28  C   UNL     1      -3.366  -9.845  -2.957  1.00  0.00     0.039 A 
ATOM     29  C   UNL     1      -3.244 -10.569  -1.769  1.00  0.00     0.014 A 
ATOM     30  C   UNL     1      -4.628  -9.555  -3.478  1.00  0.00     0.014 A 
ATOM     31  C   UNL     1      -4.394 -10.946  -1.074  1.00  0.00     0.010 A 
ATOM     32  C   UNL     1      -5.764  -9.833  -2.733  1.00  0.00     0.010 A 
ATOM     33  C   UNL     1      -5.660 -10.552  -1.536  1.00  0.00    -0.014 A 
BRANCH  33  34
ATOM     34  C   UNL     1      -6.899 -10.916  -0.810  1.00  0.00     0.031 A 
ATOM     35  C   UNL     1      -7.920 -11.797  -1.475  1.00  0.00     0.074 A 
ATOM     36  C   UNL     1      -7.127 -10.409   0.416  1.00  0.00     0.049 A 
ATOM     37  N   UNL     1      -9.086 -12.188  -1.034  1.00  0.00    -0.248 NA
ATOM     38  C   UNL     1      -7.600 -12.276  -2.831  1.00  0.00     0.031 C 
ATOM     39  C   UNL     1      -6.224  -9.512   1.140  1.00  0.00     0.029 A 
ATOM     40  N   UNL     1      -8.184 -10.581   1.272  1.00  0.00    -0.354 N 
ATOM     41  C   UNL     1      -9.636 -12.954  -2.054  1.00  0.00     0.074 A 
ATOM     42  C   UNL     1      -8.717 -12.900  -3.169  1.00  0.00     0.031 C 
ATOM     43  C   UNL     1      -6.743  -9.253   2.351  1.00  0.00     0.029 A 
ATOM     44  C   UNL     1      -8.030  -9.930   2.472  1.00  0.00     0.049 A 
ATOM     45  H   UNL     1      -8.977 -11.119   1.047  1.00  0.00     0.167 HD
ATOM     46  C   UNL     1     -10.783 -13.674  -2.050  1.00  0.00     0.037 A 
ATOM     47  C   UNL     1      -8.835  -9.893   3.552  1.00  0.00     0.037 A 
ATOM     48  C   UNL     1     -11.684 -13.729  -0.931  1.00  0.00     0.049 A 
ATOM     49  C   UNL     1     -10.125 -10.663   3.525  1.00  0.00     0.074 A 
ATOM     50  C   UNL     1     -12.860 -14.445  -0.806  1.00  0.00     0.029 A 
ATOM     51  N   UNL     1     -11.508 -13.034   0.258  1.00  0.00    -0.354 N 
ATOM     52  N   UNL     1     -10.612 -11.420   2.569  1.00  0.00    -0.248 NA
ATOM     53  C   UNL     1     -10.976 -10.575   4.718  1.00  0.00     0.031 C 
ATOM     54  C   UNL     1     -13.418 -14.149   0.443  1.00  0.00     0.029 A 
ATOM     55  C   UNL     1     -12.565 -13.286   1.115  1.00  0.00     0.049 A 
ATOM     56  H   UNL     1     -10.743 -12.448   0.462  1.00  0.00     0.167 HD
ATOM     57  C   UNL     1     -11.820 -11.912   3.050  1.00  0.00     0.074 A 
ATOM     58  C   UNL     1     -11.982 -11.376   4.388  1.00  0.00     0.031 C 
ATOM     59  C   UNL     1     -12.712 -12.732   2.441  1.00  0.00     0.037 A 
BRANCH  46  60
ATOM     60  C   UNL     1     -11.104 -14.457  -3.295  1.00  0.00     0.058 A 
ATOM     61  C   UNL     1     -10.322 -15.557  -3.691  1.00  0.00     0.135 A 
ATOM     62  C   UNL     1     -12.184 -14.096  -4.115  1.00  0.00     0.135 A 
ATOM     63  F   UNL     1      -9.267 -15.937  -2.953  1.00  0.00    -0.206 F 
ATOM     64  C   UNL     1     -10.564 -16.232  -4.881  1.00  0.00     0.059 A 
ATOM     65  C   UNL     1     -12.465 -14.780  -5.295  1.00  0.00     0.059 A 
ATOM     66  F   UNL     1     -12.966 -13.056  -3.787  1.00  0.00    -0.206 F 
ATOM     67  C   UNL     1     -11.634 -15.831  -5.682  1.00  0.00     0.060 A 
BRANCH  67  68
ATOM     68  S   UNL     1     -11.906 -16.691  -7.245  1.00  0.00     0.124 S 
ATOM     69  O   UNL     1     -10.780 -16.209  -8.040  1.00  0.00    -0.237 OA
ATOM     70  O   UNL     1     -11.843 -18.093  -6.844  1.00  0.00    -0.237 OA
ATOM     71  O   UNL     1     -13.220 -16.220  -7.669  1.00  0.00    -0.744 OA
ENDBRANCH  67  68
ENDBRANCH  46  60
BRANCH  47  72
ATOM     72  C   UNL     1      -8.393  -9.152   4.762  1.00  0.00     0.058 A 
ATOM     73  C   UNL     1      -7.946  -9.845   5.895  1.00  0.00     0.135 A 
ATOM     74  C   UNL     1      -8.322  -7.750   4.781  1.00  0.00     0.135 A 
ATOM     75  F   UNL     1      -8.000 -11.185   5.926  1.00  0.00    -0.206 F 
ATOM     76  C   UNL     1      -7.428  -9.178   7.000  1.00  0.00     0.059 A 
ATOM     77  C   UNL     1      -7.789  -7.060   5.866  1.00  0.00     0.059 A 
ATOM     78  F   UNL     1      -8.725  -7.042   3.714  1.00  0.00    -0.206 F 
ATOM     79  C   UNL     1      -7.339  -7.785   6.969  1.00  0.00     0.060 A 
BRANCH  79  80
ATOM     80  S   UNL     1      -6.563  -6.942   8.366  1.00  0.00     0.124 S 
ATOM     81  O   UNL     1      -7.535  -7.170   9.428  1.00  0.00    -0.237 OA
ATOM     82  O   UNL     1      -5.300  -7.663   8.489  1.00  0.00    -0.237 OA
ATOM     83  O   UNL     1      -6.446  -5.562   7.903  1.00  0.00    -0.744 OA
ENDBRANCH  79  80
ENDBRANCH  47  72
BRANCH  59  84
ATOM     84  C   UNL     1     -13.950 -13.104   3.208  1.00  0.00     0.058 A 
ATOM     85  C   UNL     1     -14.992 -12.186   3.406  1.00  0.00     0.135 A 
ATOM     86  C   UNL     1     -14.132 -14.416   3.674  1.00  0.00     0.135 A 
ATOM     87  F   UNL     1     -14.863 -10.917   2.986  1.00  0.00    -0.206 F 
ATOM     88  C   UNL     1     -16.170 -12.553   4.046  1.00  0.00     0.059 A 
ATOM     89  C   UNL     1     -15.313 -14.813   4.293  1.00  0.00     0.059 A 
ATOM     90  F   UNL     1     -13.169 -15.336   3.502  1.00  0.00    -0.206 F 
ATOM     91  C   UNL     1     -16.325 -13.871   4.479  1.00  0.00     0.060 A 
BRANCH  91  92
ATOM     92  S   UNL     1     -17.884 -14.344   5.256  1.00  0.00     0.124 S 
ATOM     93  O   UNL     1     -17.803 -13.639   6.531  1.00  0.00    -0.237 OA
ATOM     94  O   UNL     1     -18.870 -13.831   4.309  1.00  0.00    -0.237 OA
ATOM     95  O   UNL     1     -17.798 -15.799   5.337  1.00  0.00    -0.744 OA
ENDBRANCH  91  92
ENDBRANCH  59  84
ENDBRANCH  33  34
ENDBRANCH  25  28
ENDBRANCH   1  24
TORSDOF 14
