REMARK SMILES C#CC[N@H+](CC(=O)NCCCNC(=O)c1ccc(-c2c3nc(c(-c4c(F)cc(S(=O)(=O)[O-])cc4F)c4ccc([nH]4)c(-c4c(F)cc(S(=O)(=O)[O-])cc4F)c4nc(c(-c5c(F)cc(S(=O)(=O)[O-])cc5F)c5ccc2[nH]5)C=C4)C=C3)cc1)[C@H](C)c1ccccc1[N+](=O)[O-]
REMARK SMILES IDX 9 1 8 2 6 3 7 4 5 6 4 7 3 9 2 10 1 11 81 12 82 13 83 14
REMARK SMILES IDX 84 15 88 16 85 17 87 18 86 19 89 20 90 21 91 22 10 23 11 24
REMARK SMILES IDX 12 25 13 26 14 28 15 29 16 30 80 31 17 32 79 33 18 34 19 35
REMARK SMILES IDX 20 36 73 37 21 38 78 39 72 40 74 41 22 42 77 43 71 44 70 45
REMARK SMILES IDX 23 47 57 48 36 49 56 50 37 51 40 52 55 53 75 54 38 55 39 56
REMARK SMILES IDX 54 58 76 59 41 60 24 61 25 62 34 63 26 64 27 65 33 66 35 67
REMARK SMILES IDX 28 68 29 69 30 70 31 71 32 72 58 73 59 74 68 75 60 76 61 77
REMARK SMILES IDX 67 78 69 79 62 80 63 81 64 82 65 83 66 84 42 85 43 86 52 87
REMARK SMILES IDX 44 88 45 89 51 90 53 91 46 92 47 93 48 94 49 95 50 96
REMARK H PARENT 8 5 4 8 12 27 74 46 40 57
REMARK Flexibility Score: inf
ROOT
ATOM      1  C   UNL     1      -3.962   3.675  -0.685  1.00  0.00     0.118 C 
ENDROOT
BRANCH   1   2
ATOM      2  N   UNL     1      -4.322   3.405  -2.061  1.00  0.00    -0.351 N 
ATOM      3  C   UNL     1      -4.118   2.308  -2.846  1.00  0.00     0.275 C 
ATOM      4  O   UNL     1      -4.462   2.412  -4.029  1.00  0.00    -0.269 OA
ATOM      5  H   UNL     1      -4.796   4.143  -2.509  1.00  0.00     0.163 HD
BRANCH   3   6
ATOM      6  C   UNL     1      -3.649   0.955  -2.281  1.00  0.00     0.364 C 
BRANCH   6   7
ATOM      7  N   UNL     1      -2.168   0.805  -2.111  1.00  0.00    -0.311 N 
ATOM      8  H   UNL     1      -1.689   1.457  -2.731  1.00  0.00     0.349 HD
BRANCH   7   9
ATOM      9  C   UNL     1      -1.780   1.152  -0.734  1.00  0.00     0.354 C 
BRANCH   9  10
ATOM     10  C   UNL     1      -0.353   1.317  -0.448  1.00  0.00    -0.047 C 
ATOM     11  C   UNL     1       0.792   1.568  -0.172  1.00  0.00     0.010 C 
ENDBRANCH   9  10
ENDBRANCH   7   9
BRANCH   7  12
ATOM     12  C   UNL     1      -1.725  -0.563  -2.511  1.00  0.00     0.220 C 
ATOM     13  C   UNL     1      -2.213  -1.606  -1.470  1.00  0.00     0.081 C 
BRANCH  12  14
ATOM     14  C   UNL     1      -0.211  -0.632  -2.780  1.00  0.00     0.087 A 
ATOM     15  C   UNL     1       0.532  -1.766  -2.394  1.00  0.00     0.017 A 
ATOM     16  C   UNL     1       0.529   0.443  -3.330  1.00  0.00     0.278 A 
ATOM     17  C   UNL     1       1.931  -1.757  -2.388  1.00  0.00     0.001 A 
ATOM     18  C   UNL     1       1.933   0.469  -3.300  1.00  0.00     0.086 A 
ATOM     19  C   UNL     1       2.630  -0.625  -2.795  1.00  0.00     0.007 A 
BRANCH  16  20
ATOM     20  N   UNL     1      -0.134   1.594  -3.936  1.00  0.00     0.063 N 
ATOM     21  O   UNL     1       0.187   2.722  -3.529  1.00  0.00    -0.258 OA
ATOM     22  O   UNL     1      -0.908   1.362  -4.877  1.00  0.00    -0.258 OA
ENDBRANCH  16  20
ENDBRANCH  12  14
ENDBRANCH   7  12
ENDBRANCH   6   7
ENDBRANCH   3   6
ENDBRANCH   1   2
BRANCH   1  23
ATOM     23  C   UNL     1      -2.606   4.383  -0.620  1.00  0.00     0.042 C 
BRANCH  23  24
ATOM     24  C   UNL     1      -2.712   5.887  -0.742  1.00  0.00     0.118 C 
BRANCH  24  25
ATOM     25  N   UNL     1      -3.228   6.469   0.489  1.00  0.00    -0.352 N 
ATOM     26  C   UNL     1      -2.576   7.212   1.442  1.00  0.00     0.251 C 
ATOM     27  H   UNL     1      -4.183   6.305   0.664  1.00  0.00     0.163 HD
ATOM     28  O   UNL     1      -3.079   7.326   2.557  1.00  0.00    -0.269 OA
BRANCH  26  29
ATOM     29  C   UNL     1      -1.282   7.863   1.133  1.00  0.00     0.039 A 
ATOM     30  C   UNL     1      -0.334   8.009   2.149  1.00  0.00     0.014 A 
ATOM     31  C   UNL     1      -1.013   8.367  -0.142  1.00  0.00     0.014 A 
ATOM     32  C   UNL     1       0.890   8.623   1.871  1.00  0.00     0.010 A 
ATOM     33  C   UNL     1       0.248   8.862  -0.447  1.00  0.00     0.010 A 
ATOM     34  C   UNL     1       1.202   9.029   0.563  1.00  0.00    -0.014 A 
BRANCH  34  35
ATOM     35  C   UNL     1       2.499   9.675   0.239  1.00  0.00     0.031 A 
ATOM     36  C   UNL     1       2.519  11.076  -0.317  1.00  0.00     0.074 A 
ATOM     37  C   UNL     1       3.646   8.989   0.404  1.00  0.00     0.049 A 
ATOM     38  N   UNL     1       3.539  11.793  -0.713  1.00  0.00    -0.248 NA
ATOM     39  C   UNL     1       1.220  11.753  -0.475  1.00  0.00     0.031 C 
ATOM     40  C   UNL     1       3.747   7.613   0.897  1.00  0.00     0.029 A 
ATOM     41  N   UNL     1       4.949   9.353   0.174  1.00  0.00    -0.354 N 
ATOM     42  C   UNL     1       3.006  12.994  -1.167  1.00  0.00     0.074 A 
ATOM     43  C   UNL     1       1.569  12.883  -1.070  1.00  0.00     0.031 C 
ATOM     44  C   UNL     1       5.040   7.263   0.967  1.00  0.00     0.029 A 
ATOM     45  C   UNL     1       5.859   8.366   0.474  1.00  0.00     0.049 A 
ATOM     46  H   UNL     1       5.208  10.237  -0.173  1.00  0.00     0.167 HD
ATOM     47  C   UNL     1       3.655  14.102  -1.594  1.00  0.00     0.037 A 
ATOM     48  C   UNL     1       7.200   8.350   0.353  1.00  0.00     0.037 A 
ATOM     49  C   UNL     1       5.089  14.205  -1.676  1.00  0.00     0.049 A 
ATOM     50  C   UNL     1       7.897   9.579  -0.171  1.00  0.00     0.074 A 
ATOM     51  C   UNL     1       5.852  15.291  -2.065  1.00  0.00     0.029 A 
ATOM     52  N   UNL     1       5.975  13.182  -1.370  1.00  0.00    -0.354 N 
ATOM     53  N   UNL     1       7.380  10.727  -0.540  1.00  0.00    -0.248 NA
ATOM     54  C   UNL     1       9.359   9.513  -0.289  1.00  0.00     0.031 C 
ATOM     55  C   UNL     1       7.195  14.906  -2.053  1.00  0.00     0.029 A 
ATOM     56  C   UNL     1       7.276  13.604  -1.585  1.00  0.00     0.049 A 
ATOM     57  H   UNL     1       5.717  12.289  -1.047  1.00  0.00     0.167 HD
ATOM     58  C   UNL     1       8.457  11.532  -0.896  1.00  0.00     0.074 A 
ATOM     59  C   UNL     1       9.653  10.743  -0.685  1.00  0.00     0.031 C 
ATOM     60  C   UNL     1       8.458  12.809  -1.354  1.00  0.00     0.037 A 
BRANCH  47  61
ATOM     61  C   UNL     1       2.824  15.292  -1.997  1.00  0.00     0.058 A 
ATOM     62  C   UNL     1       2.075  16.021  -1.058  1.00  0.00     0.135 A 
ATOM     63  C   UNL     1       2.807  15.736  -3.329  1.00  0.00     0.135 A 
ATOM     64  F   UNL     1       2.038  15.635   0.227  1.00  0.00    -0.206 F 
ATOM     65  C   UNL     1       1.318  17.128  -1.430  1.00  0.00     0.059 A 
ATOM     66  C   UNL     1       2.085  16.861  -3.718  1.00  0.00     0.059 A 
ATOM     67  F   UNL     1       3.501  15.077  -4.271  1.00  0.00    -0.206 F 
ATOM     68  C   UNL     1       1.333  17.543  -2.762  1.00  0.00     0.060 A 
BRANCH  68  69
ATOM     69  S   UNL     1       0.360  18.992  -3.220  1.00  0.00     0.124 S 
ATOM     70  O   UNL     1      -1.002  18.488  -3.071  1.00  0.00    -0.237 OA
ATOM     71  O   UNL     1       0.783  19.975  -2.228  1.00  0.00    -0.237 OA
ATOM     72  O   UNL     1       0.779  19.267  -4.591  1.00  0.00    -0.744 OA
ENDBRANCH  68  69
ENDBRANCH  47  61
BRANCH  48  73
ATOM     73  C   UNL     1       7.976   7.141   0.746  1.00  0.00     0.058 A 
ATOM     74  C   UNL     1       8.863   7.172   1.833  1.00  0.00     0.135 A 
ATOM     75  C   UNL     1       7.859   5.935   0.037  1.00  0.00     0.135 A 
ATOM     76  F   UNL     1       9.016   8.301   2.542  1.00  0.00    -0.206 F 
ATOM     77  C   UNL     1       9.628   6.064   2.184  1.00  0.00     0.059 A 
ATOM     78  C   UNL     1       8.586   4.803   0.390  1.00  0.00     0.059 A 
ATOM     79  F   UNL     1       7.012   5.843  -1.000  1.00  0.00    -0.206 F 
ATOM     80  C   UNL     1       9.481   4.883   1.456  1.00  0.00     0.060 A 
BRANCH  80  81
ATOM     81  S   UNL     1      10.461   3.444   1.934  1.00  0.00     0.124 S 
ATOM     82  O   UNL     1      11.803   3.857   1.540  1.00  0.00    -0.237 OA
ATOM     83  O   UNL     1      10.210   3.369   3.370  1.00  0.00    -0.237 OA
ATOM     84  O   UNL     1       9.877   2.362   1.146  1.00  0.00    -0.744 OA
ENDBRANCH  80  81
ENDBRANCH  48  73
BRANCH  60  85
ATOM     85  C   UNL     1       9.793  13.457  -1.607  1.00  0.00     0.058 A 
ATOM     86  C   UNL     1      10.623  13.064  -2.668  1.00  0.00     0.135 A 
ATOM     87  C   UNL     1      10.220  14.528  -0.804  1.00  0.00     0.135 A 
ATOM     88  F   UNL     1      10.268  12.042  -3.462  1.00  0.00    -0.206 F 
ATOM     89  C   UNL     1      11.841  13.691  -2.907  1.00  0.00     0.059 A 
ATOM     90  C   UNL     1      11.415  15.195  -1.048  1.00  0.00     0.059 A 
ATOM     91  F   UNL     1       9.460  14.953   0.218  1.00  0.00    -0.206 F 
ATOM     92  C   UNL     1      12.226  14.761  -2.095  1.00  0.00     0.060 A 
BRANCH  92  93
ATOM     93  S   UNL     1      13.790  15.590  -2.444  1.00  0.00     0.124 S 
ATOM     94  O   UNL     1      14.758  14.574  -2.044  1.00  0.00    -0.237 OA
ATOM     95  O   UNL     1      13.693  15.844  -3.878  1.00  0.00    -0.237 OA
ATOM     96  O   UNL     1      13.743  16.779  -1.598  1.00  0.00    -0.744 OA
ENDBRANCH  92  93
ENDBRANCH  60  85
ENDBRANCH  34  35
ENDBRANCH  26  29
ENDBRANCH  24  25
ENDBRANCH  23  24
ENDBRANCH   1  23
TORSDOF 19
