REMARK SMILES Cc1cc(C(=O)NCCCNC(=O)c2ccc(-c3c4nc(c(-c5c(F)cc(S(=O)(=O)[O-])cc5F)c5ccc([nH]5)c(-c5c(F)cc(S(=O)(=O)[O-])cc5F)c5nc(c(-c6c(F)cc(S(=O)(=O)[O-])cc6F)c6ccc3[nH]6)C=C5)C=C4)cc2)ccc1NS(=O)(=O)c1ccc(C#N)cc1C
REMARK SMILES IDX 8 1 7 2 5 3 6 4 4 6 1 7 2 8 3 9 82 10 81 11 80 12 83 13
REMARK SMILES IDX 84 15 85 16 86 17 87 18 88 19 94 20 89 21 93 22 95 23 90 24
REMARK SMILES IDX 91 25 92 26 9 27 10 28 11 29 12 30 13 32 14 33 15 34 79 35
REMARK SMILES IDX 16 36 78 37 17 38 18 39 19 40 72 41 20 42 77 43 71 44 73 45
REMARK SMILES IDX 21 46 76 47 70 48 69 49 22 51 56 52 35 53 55 54 36 55 39 56
REMARK SMILES IDX 54 57 74 58 37 59 38 60 53 62 75 63 40 64 23 65 24 66 33 67
REMARK SMILES IDX 25 68 26 69 32 70 34 71 27 72 28 73 29 74 30 75 31 76 57 77
REMARK SMILES IDX 58 78 67 79 59 80 60 81 66 82 68 83 61 84 62 85 63 86 64 87
REMARK SMILES IDX 65 88 41 89 42 90 51 91 43 92 44 93 50 94 52 95 45 96 46 97
REMARK SMILES IDX 47 98 48 99 49 100
REMARK H PARENT 7 5 83 14 11 31 73 50 39 61
REMARK Flexibility Score: inf
ROOT
ATOM      1  C   UNL     1      -3.397  -0.763   0.757  1.00  0.00     0.118 C 
ENDROOT
BRANCH   1   2
ATOM      2  N   UNL     1      -2.787  -2.053   0.343  1.00  0.00    -0.352 N 
ATOM      3  C   UNL     1      -1.516  -2.329  -0.144  1.00  0.00     0.251 C 
ATOM      4  O   UNL     1      -1.059  -3.468  -0.168  1.00  0.00    -0.269 OA
ATOM      5  H   UNL     1      -3.377  -2.837   0.428  1.00  0.00     0.163 HD
BRANCH   3   6
ATOM      6  C   UNL     1      -0.647  -1.197  -0.530  1.00  0.00     0.040 A 
ATOM      7  C   UNL     1       2.781   0.137   0.286  1.00  0.00     0.046 C 
ATOM      8  C   UNL     1       1.314   0.124  -0.047  1.00  0.00    -0.026 A 
ATOM      9  C   UNL     1       0.652  -1.114  -0.033  1.00  0.00     0.019 A 
ATOM     10  C   UNL     1       0.597   1.271  -0.453  1.00  0.00     0.052 A 
ATOM     11  C   UNL     1      -0.556   1.102  -1.216  1.00  0.00     0.028 A 
ATOM     12  C   UNL     1      -1.163  -0.149  -1.284  1.00  0.00     0.016 A 
BRANCH  10  13
ATOM     13  N   UNL     1       0.810   2.477   0.290  1.00  0.00    -0.279 N 
ATOM     14  H   UNL     1       1.450   2.415   1.036  1.00  0.00     0.180 HD
BRANCH  13  15
ATOM     15  S   UNL     1       0.109   3.978   0.054  1.00  0.00     0.262 S 
ATOM     16  O   UNL     1       0.648   4.798   1.123  1.00  0.00    -0.201 OA
ATOM     17  O   UNL     1       0.308   4.341  -1.332  1.00  0.00    -0.201 OA
BRANCH  15  18
ATOM     18  C   UNL     1      -1.664   3.938   0.342  1.00  0.00     0.090 A 
ATOM     19  C   UNL     1      -2.292   2.817   0.876  1.00  0.00     0.024 A 
ATOM     20  C   UNL     1      -2.458   5.044  -0.038  1.00  0.00    -0.029 A 
ATOM     21  C   UNL     1      -3.694   2.764   0.922  1.00  0.00     0.021 A 
ATOM     22  C   UNL     1      -3.860   4.910  -0.107  1.00  0.00     0.024 A 
ATOM     23  C   UNL     1      -1.921   6.434  -0.224  1.00  0.00     0.046 C 
ATOM     24  C   UNL     1      -4.481   3.750   0.328  1.00  0.00     0.052 A 
BRANCH  24  25
ATOM     25  C   UNL     1      -5.922   3.614   0.205  1.00  0.00     0.099 C 
ATOM     26  N   UNL     1      -7.055   3.561   0.109  1.00  0.00    -0.192 NA
ENDBRANCH  24  25
ENDBRANCH  15  18
ENDBRANCH  13  15
ENDBRANCH  10  13
ENDBRANCH   3   6
ENDBRANCH   1   2
BRANCH   1  27
ATOM     27  C   UNL     1      -4.606  -0.177  -0.141  1.00  0.00     0.042 C 
BRANCH  27  28
ATOM     28  C   UNL     1      -5.981  -0.785   0.344  1.00  0.00     0.118 C 
BRANCH  28  29
ATOM     29  N   UNL     1      -7.670  -0.557   0.086  1.00  0.00    -0.352 N 
ATOM     30  C   UNL     1      -9.117  -1.152  -0.307  1.00  0.00     0.251 C 
ATOM     31  H   UNL     1      -7.828   0.398   0.267  1.00  0.00     0.163 HD
ATOM     32  O   UNL     1      -9.973  -0.678   0.479  1.00  0.00    -0.269 OA
BRANCH  30  33
ATOM     33  C   UNL     1      -9.872  -2.340  -1.392  1.00  0.00     0.039 A 
ATOM     34  C   UNL     1     -10.793  -3.350  -0.934  1.00  0.00     0.014 A 
ATOM     35  C   UNL     1      -9.509  -2.694  -2.693  1.00  0.00     0.014 A 
ATOM     36  C   UNL     1     -10.650  -4.774  -1.360  1.00  0.00     0.010 A 
ATOM     37  C   UNL     1      -9.241  -4.064  -3.032  1.00  0.00     0.010 A 
ATOM     38  C   UNL     1      -9.581  -5.128  -2.207  1.00  0.00    -0.014 A 
BRANCH  38  39
ATOM     39  C   UNL     1      -8.592  -6.331  -2.131  1.00  0.00     0.031 A 
ATOM     40  C   UNL     1      -8.795  -7.293  -3.205  1.00  0.00     0.074 A 
ATOM     41  C   UNL     1      -7.465  -6.577  -1.366  1.00  0.00     0.049 A 
ATOM     42  N   UNL     1      -9.270  -8.487  -3.097  1.00  0.00    -0.248 NA
ATOM     43  C   UNL     1      -8.606  -6.840  -4.582  1.00  0.00     0.031 C 
ATOM     44  C   UNL     1      -6.503  -7.704  -1.252  1.00  0.00     0.029 A 
ATOM     45  N   UNL     1      -6.930  -5.815  -0.342  1.00  0.00    -0.354 N 
ATOM     46  C   UNL     1      -9.041  -9.036  -4.344  1.00  0.00     0.074 A 
ATOM     47  C   UNL     1      -9.051  -7.908  -5.236  1.00  0.00     0.031 C 
ATOM     48  C   UNL     1      -5.965  -7.727   0.001  1.00  0.00     0.029 A 
ATOM     49  C   UNL     1      -6.537  -6.620   0.735  1.00  0.00     0.049 A 
ATOM     50  H   UNL     1      -6.837  -4.835  -0.368  1.00  0.00     0.167 HD
ATOM     51  C   UNL     1      -8.340 -10.207  -4.474  1.00  0.00     0.037 A 
ATOM     52  C   UNL     1      -7.337  -6.626   1.856  1.00  0.00     0.037 A 
ATOM     53  C   UNL     1      -7.833 -10.656  -3.157  1.00  0.00     0.049 A 
ATOM     54  C   UNL     1      -8.177  -7.900   1.881  1.00  0.00     0.074 A 
ATOM     55  C   UNL     1      -6.578 -10.821  -2.587  1.00  0.00     0.029 A 
ATOM     56  N   UNL     1      -8.711 -10.699  -2.087  1.00  0.00    -0.354 N 
ATOM     57  N   UNL     1      -8.097  -8.791   0.932  1.00  0.00    -0.248 NA
ATOM     58  C   UNL     1      -9.161  -8.288   2.892  1.00  0.00     0.031 C 
ATOM     59  C   UNL     1      -6.737 -10.942  -1.164  1.00  0.00     0.029 A 
ATOM     60  C   UNL     1      -8.086 -10.866  -0.870  1.00  0.00     0.049 A 
ATOM     61  H   UNL     1      -9.687 -10.619  -2.186  1.00  0.00     0.167 HD
ATOM     62  C   UNL     1      -8.924  -9.841   1.161  1.00  0.00     0.074 A 
ATOM     63  C   UNL     1      -9.617  -9.454   2.384  1.00  0.00     0.031 C 
ATOM     64  C   UNL     1      -8.930 -10.927   0.324  1.00  0.00     0.037 A 
BRANCH  51  65
ATOM     65  C   UNL     1      -7.886 -10.789  -5.814  1.00  0.00     0.058 A 
ATOM     66  C   UNL     1      -7.041 -11.918  -5.858  1.00  0.00     0.135 A 
ATOM     67  C   UNL     1      -8.303 -10.348  -7.096  1.00  0.00     0.135 A 
ATOM     68  F   UNL     1      -6.630 -12.524  -4.736  1.00  0.00    -0.206 F 
ATOM     69  C   UNL     1      -6.616 -12.516  -7.053  1.00  0.00     0.059 A 
ATOM     70  C   UNL     1      -7.849 -10.890  -8.301  1.00  0.00     0.059 A 
ATOM     71  F   UNL     1      -9.255  -9.428  -7.269  1.00  0.00    -0.206 F 
ATOM     72  C   UNL     1      -7.016 -11.989  -8.273  1.00  0.00     0.060 A 
BRANCH  72  73
ATOM     73  S   UNL     1      -6.523 -12.800  -9.802  1.00  0.00     0.124 S 
ATOM     74  O   UNL     1      -5.067 -12.724  -9.733  1.00  0.00    -0.237 OA
ATOM     75  O   UNL     1      -7.099 -14.131  -9.641  1.00  0.00    -0.237 OA
ATOM     76  O   UNL     1      -7.138 -11.980 -10.843  1.00  0.00    -0.744 OA
ENDBRANCH  72  73
ENDBRANCH  51  65
BRANCH  52  77
ATOM     77  C   UNL     1      -7.838  -5.214   2.220  1.00  0.00     0.058 A 
ATOM     78  C   UNL     1      -6.848  -4.248   2.415  1.00  0.00     0.135 A 
ATOM     79  C   UNL     1      -8.798  -4.743   1.367  1.00  0.00     0.135 A 
ATOM     80  F   UNL     1      -6.140  -4.236   3.552  1.00  0.00    -0.206 F 
ATOM     81  C   UNL     1      -6.510  -3.279   1.431  1.00  0.00     0.059 A 
ATOM     82  C   UNL     1      -8.341  -3.905   0.318  1.00  0.00     0.059 A 
ATOM     83  F   UNL     1      -9.942  -5.429   1.226  1.00  0.00    -0.206 F 
ATOM     84  C   UNL     1      -7.151  -3.244   0.191  1.00  0.00     0.060 A 
BRANCH  84  85
ATOM     85  S   UNL     1      -6.550  -2.580  -1.796  1.00  0.00     0.124 S 
ATOM     86  O   UNL     1      -5.168  -2.141  -1.742  1.00  0.00    -0.237 OA
ATOM     87  O   UNL     1      -6.639  -3.799  -2.573  1.00  0.00    -0.237 OA
ATOM     88  O   UNL     1      -7.414  -1.475  -2.205  1.00  0.00    -0.744 OA
ENDBRANCH  84  85
ENDBRANCH  52  77
BRANCH  64  89
ATOM     89  C   UNL     1      -9.788 -12.150   0.522  1.00  0.00     0.058 A 
ATOM     90  C   UNL     1     -10.170 -12.620   1.784  1.00  0.00     0.135 A 
ATOM     91  C   UNL     1     -10.201 -12.955  -0.571  1.00  0.00     0.135 A 
ATOM     92  F   UNL     1      -9.657 -12.096   2.907  1.00  0.00    -0.206 F 
ATOM     93  C   UNL     1     -11.050 -13.688   1.940  1.00  0.00     0.059 A 
ATOM     94  C   UNL     1     -11.037 -14.049  -0.438  1.00  0.00     0.059 A 
ATOM     95  F   UNL     1      -9.812 -12.737  -1.831  1.00  0.00    -0.206 F 
ATOM     96  C   UNL     1     -11.497 -14.380   0.818  1.00  0.00     0.060 A 
BRANCH  96  97
ATOM     97  S   UNL     1     -12.625 -15.757   1.019  1.00  0.00     0.124 S 
ATOM     98  O   UNL     1     -11.991 -16.515   2.093  1.00  0.00    -0.237 OA
ATOM     99  O   UNL     1     -13.863 -15.069   1.371  1.00  0.00    -0.237 OA
ATOM    100  O   UNL     1     -12.616 -16.405  -0.289  1.00  0.00    -0.744 OA
ENDBRANCH  96  97
ENDBRANCH  64  89
ENDBRANCH  38  39
ENDBRANCH  30  33
ENDBRANCH  28  29
ENDBRANCH  27  28
ENDBRANCH   1  27
TORSDOF 17
