REMARK SMILES CC(=O)N[C@@H](C)C(=O)N1CCC[C@H]1C(=O)NCCCNC(=O)c1ccc(-c2c3nc(c(-c4c(F)cc(S(=O)(=O)[O-])cc4F)c4ccc([nH]4)c(-c4c(F)cc(S(=O)(=O)[O-])cc4F)c4nc(c(-c5c(F)cc(S(=O)(=O)[O-])cc5F)c5ccc2[nH]5)C=C4)C=C3)cc1
REMARK SMILES IDX 18 1 17 2 16 3 14 4 15 5 13 7 9 8 10 9 11 10 12 11 7 12 8 13
REMARK SMILES IDX 5 14 6 15 4 16 1 17 2 18 3 19 19 21 20 22 21 23 22 25 23 26
REMARK SMILES IDX 24 27 88 28 25 29 87 30 26 31 27 32 28 33 81 34 29 35 86 36
REMARK SMILES IDX 80 37 82 38 30 39 85 40 79 41 78 42 31 44 65 45 44 46 64 47
REMARK SMILES IDX 45 48 48 49 63 50 83 51 46 52 47 53 62 55 84 56 49 57 32 58
REMARK SMILES IDX 33 59 42 60 34 61 35 62 41 63 43 64 36 65 37 66 38 67 39 68
REMARK SMILES IDX 40 69 66 70 67 71 76 72 68 73 69 74 75 75 77 76 70 77 71 78
REMARK SMILES IDX 72 79 73 80 74 81 50 82 51 83 60 84 52 85 53 86 59 87 61 88
REMARK SMILES IDX 54 89 55 90 56 91 57 92 58 93
REMARK H PARENT 16 6 4 20 20 24 82 43 48 54
REMARK Flexibility Score: inf
ROOT
ATOM      1  C   UNL     1       1.961  -3.785   6.462  1.00  0.00     0.042 C 
ENDROOT
BRANCH   1   2
ATOM      2  C   UNL     1       1.074  -2.768   5.773  1.00  0.00     0.117 C 
BRANCH   2   3
ATOM      3  N   UNL     1       0.021  -2.260   6.634  1.00  0.00    -0.354 N 
ATOM      4  C   UNL     1      -0.304  -0.959   6.902  1.00  0.00     0.242 C 
ATOM      5  O   UNL     1      -1.377  -0.729   7.463  1.00  0.00    -0.273 OA
ATOM      6  H   UNL     1      -0.532  -2.940   7.082  1.00  0.00     0.163 HD
BRANCH   4   7
ATOM      7  C   UNL     1       0.660   0.158   6.452  1.00  0.00     0.174 C 
ATOM      8  N   UNL     1       0.367   0.684   5.114  1.00  0.00    -0.329 N 
ATOM      9  C   UNL     1      -0.224   1.998   5.192  1.00  0.00     0.120 C 
ATOM     10  C   UNL     1       0.415   2.587   6.430  1.00  0.00     0.024 C 
ATOM     11  C   UNL     1       0.535   1.392   7.372  1.00  0.00     0.037 C 
BRANCH   8  12
ATOM     12  C   UNL     1       0.533  -0.035   3.955  1.00  0.00     0.245 C 
ATOM     13  O   UNL     1      -0.092  -1.072   3.737  1.00  0.00    -0.272 OA
BRANCH  12  14
ATOM     14  C   UNL     1       1.523   0.516   2.905  1.00  0.00     0.168 C 
ATOM     15  C   UNL     1       2.793   1.082   3.528  1.00  0.00     0.041 C 
BRANCH  14  16
ATOM     16  N   UNL     1       0.887   1.476   2.016  1.00  0.00    -0.345 N 
ATOM     17  C   UNL     1       0.827   0.004   0.038  1.00  0.00     0.114 C 
ATOM     18  C   UNL     1       0.459   1.282   0.738  1.00  0.00     0.217 C 
ATOM     19  O   UNL     1      -0.181   2.172   0.181  1.00  0.00    -0.275 OA
ATOM     20  H   UNL     1       0.748   2.379   2.384  1.00  0.00     0.164 HD
ENDBRANCH  14  16
ENDBRANCH  12  14
ENDBRANCH   8  12
ENDBRANCH   4   7
ENDBRANCH   2   3
ENDBRANCH   1   2
BRANCH   1  21
ATOM     21  C   UNL     1       1.227  -5.049   6.875  1.00  0.00     0.118 C 
BRANCH  21  22
ATOM     22  N   UNL     1       0.627  -5.753   5.749  1.00  0.00    -0.352 N 
ATOM     23  C   UNL     1       0.831  -7.030   5.293  1.00  0.00     0.251 C 
ATOM     24  H   UNL     1      -0.027  -5.228   5.234  1.00  0.00     0.163 HD
ATOM     25  O   UNL     1       0.352  -7.369   4.211  1.00  0.00    -0.269 OA
BRANCH  23  26
ATOM     26  C   UNL     1       1.633  -7.990   6.080  1.00  0.00     0.039 A 
ATOM     27  C   UNL     1       2.466  -8.888   5.409  1.00  0.00     0.014 A 
ATOM     28  C   UNL     1       1.551  -8.026   7.474  1.00  0.00     0.014 A 
ATOM     29  C   UNL     1       3.245  -9.787   6.139  1.00  0.00     0.010 A 
ATOM     30  C   UNL     1       2.414  -8.835   8.201  1.00  0.00     0.010 A 
ATOM     31  C   UNL     1       3.244  -9.752   7.543  1.00  0.00    -0.014 A 
BRANCH  31  32
ATOM     32  C   UNL     1       4.051 -10.709   8.340  1.00  0.00     0.031 A 
ATOM     33  C   UNL     1       3.362 -11.669   9.277  1.00  0.00     0.074 A 
ATOM     34  C   UNL     1       5.396 -10.689   8.255  1.00  0.00     0.049 A 
ATOM     35  N   UNL     1       3.885 -12.554  10.085  1.00  0.00    -0.248 NA
ATOM     36  C   UNL     1       1.891 -11.602   9.339  1.00  0.00     0.031 C 
ATOM     37  C   UNL     1       6.179  -9.768   7.428  1.00  0.00     0.029 A 
ATOM     38  N   UNL     1       6.343 -11.465   8.872  1.00  0.00    -0.354 N 
ATOM     39  C   UNL     1       2.813 -13.132  10.758  1.00  0.00     0.074 A 
ATOM     40  C   UNL     1       1.619 -12.448  10.320  1.00  0.00     0.031 C 
ATOM     41  C   UNL     1       7.484 -10.057   7.562  1.00  0.00     0.029 A 
ATOM     42  C   UNL     1       7.633 -11.156   8.510  1.00  0.00     0.049 A 
ATOM     43  H   UNL     1       6.121 -12.178   9.514  1.00  0.00     0.167 HD
ATOM     44  C   UNL     1       2.818 -14.163  11.635  1.00  0.00     0.037 A 
ATOM     45  C   UNL     1       8.803 -11.699   8.899  1.00  0.00     0.037 A 
ATOM     46  C   UNL     1       4.010 -14.861  12.039  1.00  0.00     0.049 A 
ATOM     47  C   UNL     1       8.784 -12.856   9.862  1.00  0.00     0.074 A 
ATOM     48  C   UNL     1       4.124 -15.954  12.881  1.00  0.00     0.029 A 
ATOM     49  N   UNL     1       5.295 -14.538  11.627  1.00  0.00    -0.354 N 
ATOM     50  N   UNL     1       7.756 -13.430  10.442  1.00  0.00    -0.248 NA
ATOM     51  C   UNL     1      10.080 -13.450  10.210  1.00  0.00     0.031 C 
ATOM     52  C   UNL     1       5.482 -16.260  13.015  1.00  0.00     0.029 A 
ATOM     53  C   UNL     1       6.209 -15.400  12.207  1.00  0.00     0.049 A 
ATOM     54  H   UNL     1       5.522 -13.803  11.011  1.00  0.00     0.167 HD
ATOM     55  C   UNL     1       8.279 -14.478  11.192  1.00  0.00     0.074 A 
ATOM     56  C   UNL     1       9.713 -14.462  10.985  1.00  0.00     0.031 C 
ATOM     57  C   UNL     1       7.632 -15.377  11.977  1.00  0.00     0.037 A 
BRANCH  44  58
ATOM     58  C   UNL     1       1.496 -14.601  12.208  1.00  0.00     0.058 A 
ATOM     59  C   UNL     1       0.512 -15.214  11.415  1.00  0.00     0.135 A 
ATOM     60  C   UNL     1       1.218 -14.429  13.574  1.00  0.00     0.135 A 
ATOM     61  F   UNL     1       0.715 -15.388  10.099  1.00  0.00    -0.206 F 
ATOM     62  C   UNL     1      -0.711 -15.610  11.947  1.00  0.00     0.059 A 
ATOM     63  C   UNL     1       0.015 -14.848  14.134  1.00  0.00     0.059 A 
ATOM     64  F   UNL     1       2.120 -13.846  14.380  1.00  0.00    -0.206 F 
ATOM     65  C   UNL     1      -0.950 -15.424  13.309  1.00  0.00     0.060 A 
BRANCH  65  66
ATOM     66  S   UNL     1      -2.538 -15.953  13.984  1.00  0.00     0.124 S 
ATOM     67  O   UNL     1      -3.439 -14.947  13.430  1.00  0.00    -0.237 OA
ATOM     68  O   UNL     1      -2.676 -17.299  13.438  1.00  0.00    -0.237 OA
ATOM     69  O   UNL     1      -2.334 -15.883  15.428  1.00  0.00    -0.744 OA
ENDBRANCH  65  66
ENDBRANCH  44  58
BRANCH  45  70
ATOM     70  C   UNL     1      10.085 -11.181   8.347  1.00  0.00     0.058 A 
ATOM     71  C   UNL     1      10.855 -11.950   7.462  1.00  0.00     0.135 A 
ATOM     72  C   UNL     1      10.561  -9.905   8.686  1.00  0.00     0.135 A 
ATOM     73  F   UNL     1      10.446 -13.178   7.109  1.00  0.00    -0.206 F 
ATOM     74  C   UNL     1      12.062 -11.484   6.950  1.00  0.00     0.059 A 
ATOM     75  C   UNL     1      11.750  -9.405   8.165  1.00  0.00     0.059 A 
ATOM     76  F   UNL     1       9.852  -9.120   9.512  1.00  0.00    -0.206 F 
ATOM     77  C   UNL     1      12.500 -10.208   7.307  1.00  0.00     0.060 A 
BRANCH  77  78
ATOM     78  S   UNL     1      14.047  -9.596   6.604  1.00  0.00     0.124 S 
ATOM     79  O   UNL     1      15.033 -10.399   7.318  1.00  0.00    -0.237 OA
ATOM     80  O   UNL     1      13.880  -9.899   5.186  1.00  0.00    -0.237 OA
ATOM     81  O   UNL     1      14.029  -8.175   6.939  1.00  0.00    -0.744 OA
ENDBRANCH  77  78
ENDBRANCH  45  70
BRANCH  57  82
ATOM     82  C   UNL     1       8.461 -16.455  12.622  1.00  0.00     0.058 A 
ATOM     83  C   UNL     1       9.357 -16.183  13.666  1.00  0.00     0.135 A 
ATOM     84  C   UNL     1       8.324 -17.790  12.206  1.00  0.00     0.135 A 
ATOM     85  F   UNL     1       9.528 -14.925  14.101  1.00  0.00    -0.206 F 
ATOM     86  C   UNL     1      10.119 -17.191  14.249  1.00  0.00     0.059 A 
ATOM     87  C   UNL     1       9.049 -18.818  12.798  1.00  0.00     0.059 A 
ATOM     88  F   UNL     1       7.468 -18.108  11.221  1.00  0.00    -0.206 F 
ATOM     89  C   UNL     1       9.959 -18.506  13.807  1.00  0.00     0.060 A 
BRANCH  89  90
ATOM     90  S   UNL     1      10.945 -19.805  14.577  1.00  0.00     0.124 S 
ATOM     91  O   UNL     1      12.265 -19.545  14.012  1.00  0.00    -0.237 OA
ATOM     92  O   UNL     1      10.794 -19.510  15.999  1.00  0.00    -0.237 OA
ATOM     93  O   UNL     1      10.301 -21.035  14.126  1.00  0.00    -0.744 OA
ENDBRANCH  89  90
ENDBRANCH  57  82
ENDBRANCH  31  32
ENDBRANCH  23  26
ENDBRANCH  21  22
ENDBRANCH   1  21
TORSDOF 16
