REMARK SMILES C/C(=C/c1cccc(OCC(=O)NCCCNC(=O)c2ccc(-c3c4nc(c(-c5c(F)cc(S(=O)(=O)[O-])cc5F)c5ccc([nH]5)c(-c5c(F)cc(S(=O)(=O)[O-])cc5F)c5nc(c(-c6c(F)cc(S(=O)(=O)[O-])cc6F)c6ccc3[nH]6)C=C5)C=C4)cc2)c1)c1nc2sccc2c(=O)[nH]1
REMARK SMILES IDX 14 1 13 2 11 3 12 4 10 6 9 7 8 8 4 9 5 10 86 11 6 12 7 13
REMARK SMILES IDX 3 14 1 15 2 16 87 17 88 18 96 19 89 20 94 21 90 23 93 24
REMARK SMILES IDX 95 25 91 26 92 27 15 28 16 29 17 30 18 31 19 33 20 34 21 35
REMARK SMILES IDX 85 36 22 37 84 38 23 39 24 40 25 41 78 42 26 43 83 44 77 45
REMARK SMILES IDX 79 46 27 47 82 48 76 49 75 50 28 52 62 53 41 54 61 55 42 56
REMARK SMILES IDX 45 57 60 58 80 59 43 60 44 61 59 63 81 64 46 65 29 66 30 67
REMARK SMILES IDX 39 68 31 69 32 70 38 71 40 72 33 73 34 74 35 75 36 76 37 77
REMARK SMILES IDX 63 78 64 79 73 80 65 81 66 82 72 83 74 84 67 85 68 86 69 87
REMARK SMILES IDX 70 88 71 89 47 90 48 91 57 92 49 93 50 94 56 95 58 96 51 97
REMARK SMILES IDX 52 98 53 99 54 100 55 101
REMARK H PARENT 13 5 96 22 17 32 79 51 45 62
REMARK Flexibility Score: inf
ROOT
ATOM      1  C   UNL     1       0.871  -4.929   6.931  1.00  0.00     0.117 C 
ENDROOT
BRANCH   1   2
ATOM      2  N   UNL     1       1.649  -4.442   5.807  1.00  0.00    -0.353 N 
ATOM      3  C   UNL     1       2.253  -3.221   5.681  1.00  0.00     0.257 C 
ATOM      4  O   UNL     1       3.135  -3.070   4.833  1.00  0.00    -0.271 OA
ATOM      5  H   UNL     1       1.753  -5.060   5.048  1.00  0.00     0.163 HD
BRANCH   3   6
ATOM      6  C   UNL     1       1.879  -2.076   6.623  1.00  0.00     0.329 C 
BRANCH   6   7
ATOM      7  O   UNL     1       0.496  -1.841   6.816  1.00  0.00    -0.484 OA
BRANCH   7   8
ATOM      8  C   UNL     1      -0.218  -1.267   5.801  1.00  0.00     0.120 A 
ATOM      9  C   UNL     1      -0.608  -0.353   3.583  1.00  0.00    -0.022 A 
ATOM     10  C   UNL     1      -1.947  -0.121   3.916  1.00  0.00     0.008 A 
ATOM     11  C   UNL     1       0.258  -0.918   4.535  1.00  0.00     0.054 A 
ATOM     12  C   UNL     1      -2.423  -0.467   5.179  1.00  0.00     0.004 A 
ATOM     13  C   UNL     1      -1.560  -1.038   6.113  1.00  0.00     0.046 A 
BRANCH   9  14
ATOM     14  C   UNL     1      -0.128   0.038   2.250  1.00  0.00     0.015 C 
ATOM     15  C   UNL     1       1.003  -0.264   0.039  1.00  0.00     0.048 C 
ATOM     16  C   UNL     1       0.449  -0.767   1.336  1.00  0.00    -0.008 C 
BRANCH  16  17
ATOM     17  C   UNL     1       0.619  -2.227   1.577  1.00  0.00     0.137 A 
ATOM     18  N   UNL     1       1.790  -2.786   1.600  1.00  0.00    -0.219 NA
ATOM     19  N   UNL     1      -0.570  -2.906   1.746  1.00  0.00    -0.306 N 
ATOM     20  C   UNL     1       1.771  -4.114   1.891  1.00  0.00     0.131 A 
ATOM     21  C   UNL     1      -0.641  -4.253   2.022  1.00  0.00     0.259 A 
ATOM     22  H   UNL     1      -1.411  -2.402   1.665  1.00  0.00     0.171 HD
ATOM     23  S   UNL     1       3.205  -5.029   2.058  1.00  0.00    -0.124 S 
ATOM     24  C   UNL     1       0.654  -4.890   2.115  1.00  0.00     0.077 A 
ATOM     25  O   UNL     1      -1.700  -4.838   2.195  1.00  0.00    -0.269 OA
ATOM     26  C   UNL     1       2.334  -6.444   2.475  1.00  0.00     0.068 A 
ATOM     27  C   UNL     1       0.973  -6.242   2.436  1.00  0.00     0.028 A 
ENDBRANCH  16  17
ENDBRANCH   9  14
ENDBRANCH   7   8
ENDBRANCH   6   7
ENDBRANCH   3   6
ENDBRANCH   1   2
BRANCH   1  28
ATOM     28  C   UNL     1      -0.627  -5.054   6.675  1.00  0.00     0.042 C 
BRANCH  28  29
ATOM     29  C   UNL     1      -1.069  -6.104   5.657  1.00  0.00     0.118 C 
BRANCH  29  30
ATOM     30  N   UNL     1      -0.508  -7.429   5.873  1.00  0.00    -0.352 N 
ATOM     31  C   UNL     1      -1.113  -8.664   5.891  1.00  0.00     0.251 C 
ATOM     32  H   UNL     1       0.463  -7.444   6.033  1.00  0.00     0.163 HD
ATOM     33  O   UNL     1      -0.434  -9.654   6.157  1.00  0.00    -0.269 OA
BRANCH  31  34
ATOM     34  C   UNL     1      -2.563  -8.817   5.633  1.00  0.00     0.039 A 
ATOM     35  C   UNL     1      -3.301  -9.658   6.474  1.00  0.00     0.014 A 
ATOM     36  C   UNL     1      -3.199  -8.171   4.569  1.00  0.00     0.014 A 
ATOM     37  C   UNL     1      -4.683  -9.786   6.302  1.00  0.00     0.010 A 
ATOM     38  C   UNL     1      -4.587  -8.260   4.429  1.00  0.00     0.010 A 
ATOM     39  C   UNL     1      -5.345  -9.053   5.304  1.00  0.00    -0.014 A 
BRANCH  39  40
ATOM     40  C   UNL     1      -6.830  -9.066   5.204  1.00  0.00     0.031 A 
ATOM     41  C   UNL     1      -7.518  -9.662   4.006  1.00  0.00     0.074 A 
ATOM     42  C   UNL     1      -7.561  -8.480   6.174  1.00  0.00     0.049 A 
ATOM     43  N   UNL     1      -8.795  -9.698   3.722  1.00  0.00    -0.248 NA
ATOM     44  C   UNL     1      -6.658 -10.284   2.989  1.00  0.00     0.031 C 
ATOM     45  C   UNL     1      -7.014  -7.829   7.367  1.00  0.00     0.029 A 
ATOM     46  N   UNL     1      -8.919  -8.320   6.304  1.00  0.00    -0.354 N 
ATOM     47  C   UNL     1      -8.895 -10.343   2.495  1.00  0.00     0.074 A 
ATOM     48  C   UNL     1      -7.543 -10.641   2.068  1.00  0.00     0.031 C 
ATOM     49  C   UNL     1      -8.024  -7.345   8.107  1.00  0.00     0.029 A 
ATOM     50  C   UNL     1      -9.287  -7.618   7.429  1.00  0.00     0.049 A 
ATOM     51  H   UNL     1      -9.568  -8.674   5.654  1.00  0.00     0.167 HD
ATOM     52  C   UNL     1     -10.009 -10.673   1.798  1.00  0.00     0.037 A 
ATOM     53  C   UNL     1     -10.501  -7.223   7.860  1.00  0.00     0.037 A 
ATOM     54  C   UNL     1     -11.354 -10.379   2.227  1.00  0.00     0.049 A 
ATOM     55  C   UNL     1     -11.723  -7.589   7.062  1.00  0.00     0.074 A 
ATOM     56  C   UNL     1     -12.547 -10.703   1.603  1.00  0.00     0.029 A 
ATOM     57  N   UNL     1     -11.686  -9.690   3.384  1.00  0.00    -0.354 N 
ATOM     58  N   UNL     1     -11.800  -8.247   5.930  1.00  0.00    -0.248 NA
ATOM     59  C   UNL     1     -13.023  -7.168   7.602  1.00  0.00     0.031 C 
ATOM     60  C   UNL     1     -13.598 -10.177   2.362  1.00  0.00     0.029 A 
ATOM     61  C   UNL     1     -13.063  -9.566   3.484  1.00  0.00     0.049 A 
ATOM     62  H   UNL     1     -11.039  -9.340   4.038  1.00  0.00     0.167 HD
ATOM     63  C   UNL     1     -13.156  -8.340   5.636  1.00  0.00     0.074 A 
ATOM     64  C   UNL     1     -13.864  -7.683   6.715  1.00  0.00     0.031 C 
ATOM     65  C   UNL     1     -13.759  -8.917   4.568  1.00  0.00     0.037 A 
BRANCH  52  66
ATOM     66  C   UNL     1      -9.826 -11.403   0.495  1.00  0.00     0.058 A 
ATOM     67  C   UNL     1      -9.407 -12.742   0.458  1.00  0.00     0.135 A 
ATOM     68  C   UNL     1     -10.120 -10.776  -0.727  1.00  0.00     0.135 A 
ATOM     69  F   UNL     1      -9.102 -13.386   1.596  1.00  0.00    -0.206 F 
ATOM     70  C   UNL     1      -9.261 -13.427  -0.744  1.00  0.00     0.059 A 
ATOM     71  C   UNL     1     -10.006 -11.450  -1.940  1.00  0.00     0.059 A 
ATOM     72  F   UNL     1     -10.528  -9.498  -0.751  1.00  0.00    -0.206 F 
ATOM     73  C   UNL     1      -9.562 -12.772  -1.939  1.00  0.00     0.060 A 
BRANCH  73  74
ATOM     74  S   UNL     1      -9.376 -13.679  -3.489  1.00  0.00     0.124 S 
ATOM     75  O   UNL     1      -7.923 -13.735  -3.620  1.00  0.00    -0.237 OA
ATOM     76  O   UNL     1     -10.033 -14.947  -3.191  1.00  0.00    -0.237 OA
ATOM     77  O   UNL     1     -10.061 -12.835  -4.462  1.00  0.00    -0.744 OA
ENDBRANCH  73  74
ENDBRANCH  52  66
BRANCH  53  78
ATOM     78  C   UNL     1     -10.623  -6.436   9.117  1.00  0.00     0.058 A 
ATOM     79  C   UNL     1     -11.186  -6.997  10.272  1.00  0.00     0.135 A 
ATOM     80  C   UNL     1     -10.173  -5.108   9.187  1.00  0.00     0.135 A 
ATOM     81  F   UNL     1     -11.636  -8.261  10.252  1.00  0.00    -0.206 F 
ATOM     82  C   UNL     1     -11.320  -6.265  11.447  1.00  0.00     0.059 A 
ATOM     83  C   UNL     1     -10.273  -4.364  10.358  1.00  0.00     0.059 A 
ATOM     84  F   UNL     1      -9.611  -4.530   8.114  1.00  0.00    -0.206 F 
ATOM     85  C   UNL     1     -10.859  -4.947  11.480  1.00  0.00     0.060 A 
BRANCH  85  86
ATOM     86  S   UNL     1     -11.000  -4.016  13.021  1.00  0.00     0.124 S 
ATOM     87  O   UNL     1     -12.426  -3.714  13.051  1.00  0.00    -0.237 OA
ATOM     88  O   UNL     1     -10.530  -4.982  14.008  1.00  0.00    -0.237 OA
ATOM     89  O   UNL     1     -10.116  -2.874  12.803  1.00  0.00    -0.744 OA
ENDBRANCH  85  86
ENDBRANCH  53  78
BRANCH  65  90
ATOM     90  C   UNL     1     -15.263  -8.898   4.526  1.00  0.00     0.058 A 
ATOM     91  C   UNL     1     -15.979  -7.723   4.249  1.00  0.00     0.135 A 
ATOM     92  C   UNL     1     -15.995 -10.081   4.718  1.00  0.00     0.135 A 
ATOM     93  F   UNL     1     -15.329  -6.563   4.065  1.00  0.00    -0.206 F 
ATOM     94  C   UNL     1     -17.369  -7.717   4.185  1.00  0.00     0.059 A 
ATOM     95  C   UNL     1     -17.383 -10.104   4.633  1.00  0.00     0.059 A 
ATOM     96  F   UNL     1     -15.358 -11.235   4.977  1.00  0.00    -0.206 F 
ATOM     97  C   UNL     1     -18.063  -8.914   4.377  1.00  0.00     0.060 A 
BRANCH  97  98
ATOM     98  S   UNL     1     -19.865  -8.900   4.257  1.00  0.00     0.124 S 
ATOM     99  O   UNL     1     -20.238  -8.262   5.515  1.00  0.00    -0.237 OA
ATOM    100  O   UNL     1     -20.093  -8.108   3.053  1.00  0.00    -0.237 OA
ATOM    101  O   UNL     1     -20.209 -10.314   4.144  1.00  0.00    -0.744 OA
ENDBRANCH  97  98
ENDBRANCH  65  90
ENDBRANCH  39  40
ENDBRANCH  31  34
ENDBRANCH  29  30
ENDBRANCH  28  29
ENDBRANCH   1  28
TORSDOF 17
