REMARK SMILES [NH3+]CCOCC(=O)Nc1cc(C(=O)NCCCNC(=O)c2ccc(-c3c4nc(c(-c5c(F)cc(S(=O)(=O)[O-])cc5F)c5ccc([nH]5)c(-c5c(F)cc(S(=O)(=O)[O-])cc5F)c5nc(c(-c6c(F)cc(S(=O)(=O)[O-])cc6F)c6ccc3[nH]6)C=C5)C=C4)cc2)ccc1Cl
REMARK SMILES IDX 12 1 13 2 14 3 11 5 9 6 10 7 89 8 88 9 90 10 87 11 8 12 6 13
REMARK SMILES IDX 7 14 5 16 4 17 3 18 2 19 1 20 15 24 16 25 17 26 18 27 19 28
REMARK SMILES IDX 20 30 21 31 22 32 86 33 23 34 85 35 24 36 25 37 26 38 79 39
REMARK SMILES IDX 27 40 84 41 78 42 80 43 28 44 83 45 77 46 76 47 29 49 63 50
REMARK SMILES IDX 42 51 62 52 43 53 46 54 61 55 81 56 44 57 45 58 60 60 82 61
REMARK SMILES IDX 47 62 30 63 31 64 40 65 32 66 33 67 39 68 41 69 34 70 35 71
REMARK SMILES IDX 36 72 37 73 38 74 64 75 65 76 74 77 66 78 67 79 73 80 75 81
REMARK SMILES IDX 68 82 69 83 70 84 71 85 72 86 48 87 49 88 58 89 50 90 51 91
REMARK SMILES IDX 57 92 59 93 52 94 53 95 54 96 55 97 56 98
REMARK H PARENT 14 4 8 15 1 21 1 22 1 23 18 29 80 48 46 59
REMARK Flexibility Score: inf
ROOT
ATOM      1  C   UNL     1       2.418   0.293   8.368  1.00  0.00     0.251 C 
ATOM      2  O   UNL     1       3.390   1.051   8.382  1.00  0.00    -0.269 OA
ATOM      3  N   UNL     1       1.719   0.164   9.538  1.00  0.00    -0.352 N 
ATOM      4  H   UNL     1       2.155   0.600  10.306  1.00  0.00     0.163 HD
ENDROOT
BRANCH   1   5
ATOM      5  C   UNL     1       2.095  -0.422   7.096  1.00  0.00     0.041 A 
ATOM      6  C   UNL     1       2.599  -0.627   4.709  1.00  0.00     0.060 A 
ATOM      7  C   UNL     1       2.765   0.021   5.938  1.00  0.00     0.041 A 
ATOM      8  C   UNL     1       1.852  -1.811   4.663  1.00  0.00     0.064 A 
ATOM      9  C   UNL     1       1.138  -2.228   5.780  1.00  0.00     0.023 A 
ATOM     10  Cl  UNL     1       2.010  -2.951   3.377  1.00  0.00    -0.082 Cl
ATOM     11  C   UNL     1       1.254  -1.532   6.985  1.00  0.00     0.015 A 
BRANCH   6  12
ATOM     12  N   UNL     1       3.259  -0.084   3.594  1.00  0.00    -0.323 N 
ATOM     13  C   UNL     1       2.697   0.267   2.391  1.00  0.00     0.250 C 
ATOM     14  O   UNL     1       3.426   0.588   1.448  1.00  0.00    -0.272 OA
ATOM     15  H   UNL     1       4.229   0.061   3.685  1.00  0.00     0.170 HD
BRANCH  13  16
ATOM     16  C   UNL     1       1.160   0.405   2.279  1.00  0.00     0.260 C 
BRANCH  16  17
ATOM     17  O   UNL     1       0.334  -0.688   1.945  1.00  0.00    -0.366 OA
BRANCH  17  18
ATOM     18  C   UNL     1       0.758  -1.462   0.823  1.00  0.00     0.222 C 
BRANCH  18  19
ATOM     19  C   UNL     1       0.241  -0.950  -0.524  1.00  0.00     0.287 C 
BRANCH  19  20
ATOM     20  N   UNL     1       0.902   0.265  -1.002  1.00  0.00    -0.356 N 
ATOM     21  H   UNL     1       0.502   0.539  -1.900  1.00  0.00     0.344 HD
ATOM     22  H   UNL     1       1.900   0.088  -1.115  1.00  0.00     0.344 HD
ATOM     23  H   UNL     1       0.764   1.016  -0.326  1.00  0.00     0.344 HD
ENDBRANCH  19  20
ENDBRANCH  18  19
ENDBRANCH  17  18
ENDBRANCH  16  17
ENDBRANCH  13  16
ENDBRANCH   6  12
ENDBRANCH   1   5
BRANCH   3  24
ATOM     24  C   UNL     1       0.468  -0.486   9.876  1.00  0.00     0.118 C 
BRANCH  24  25
ATOM     25  C   UNL     1       0.671  -1.895  10.438  1.00  0.00     0.042 C 
BRANCH  25  26
ATOM     26  C   UNL     1       1.180  -1.930  11.877  1.00  0.00     0.118 C 
BRANCH  26  27
ATOM     27  N   UNL     1       0.232  -1.329  12.802  1.00  0.00    -0.352 N 
ATOM     28  C   UNL     1      -0.467  -1.866  13.850  1.00  0.00     0.251 C 
ATOM     29  H   UNL     1       0.065  -0.371  12.648  1.00  0.00     0.163 HD
ATOM     30  O   UNL     1      -1.415  -1.229  14.305  1.00  0.00    -0.269 OA
BRANCH  28  31
ATOM     31  C   UNL     1      -0.103  -3.172  14.447  1.00  0.00     0.039 A 
ATOM     32  C   UNL     1      -1.127  -3.967  14.972  1.00  0.00     0.014 A 
ATOM     33  C   UNL     1       1.227  -3.578  14.586  1.00  0.00     0.014 A 
ATOM     34  C   UNL     1      -0.821  -5.173  15.607  1.00  0.00     0.010 A 
ATOM     35  C   UNL     1       1.527  -4.815  15.158  1.00  0.00     0.010 A 
ATOM     36  C   UNL     1       0.508  -5.617  15.689  1.00  0.00    -0.014 A 
BRANCH  36  37
ATOM     37  C   UNL     1       0.828  -6.922  16.322  1.00  0.00     0.031 A 
ATOM     38  C   UNL     1       1.635  -6.988  17.590  1.00  0.00     0.074 A 
ATOM     39  C   UNL     1       0.420  -8.056  15.723  1.00  0.00     0.049 A 
ATOM     40  N   UNL     1       1.985  -8.036  18.292  1.00  0.00    -0.248 NA
ATOM     41  C   UNL     1       2.140  -5.715  18.126  1.00  0.00     0.031 C 
ATOM     42  C   UNL     1      -0.301  -8.123  14.449  1.00  0.00     0.029 A 
ATOM     43  N   UNL     1       0.552  -9.368  16.098  1.00  0.00    -0.354 N 
ATOM     44  C   UNL     1       2.763  -7.553  19.338  1.00  0.00     0.074 A 
ATOM     45  C   UNL     1       2.874  -6.123  19.151  1.00  0.00     0.031 C 
ATOM     46  C   UNL     1      -0.571  -9.406  14.164  1.00  0.00     0.029 A 
ATOM     47  C   UNL     1      -0.026 -10.253  15.220  1.00  0.00     0.049 A 
ATOM     48  H   UNL     1       1.018  -9.650  16.919  1.00  0.00     0.167 HD
ATOM     49  C   UNL     1       3.318  -8.237  20.369  1.00  0.00     0.037 A 
ATOM     50  C   UNL     1      -0.119 -11.596  15.264  1.00  0.00     0.037 A 
ATOM     51  C   UNL     1       3.179  -9.659  20.559  1.00  0.00     0.049 A 
ATOM     52  C   UNL     1       0.439 -12.327  16.451  1.00  0.00     0.074 A 
ATOM     53  C   UNL     1       3.635 -10.438  21.608  1.00  0.00     0.029 A 
ATOM     54  N   UNL     1       2.539 -10.517  19.675  1.00  0.00    -0.354 N 
ATOM     55  N   UNL     1       1.096 -11.845  17.480  1.00  0.00    -0.248 NA
ATOM     56  C   UNL     1       0.225 -13.779  16.497  1.00  0.00     0.031 C 
ATOM     57  C   UNL     1       3.301 -11.772  21.341  1.00  0.00     0.029 A 
ATOM     58  C   UNL     1       2.600 -11.818  20.146  1.00  0.00     0.049 A 
ATOM     59  H   UNL     1       2.105 -10.240  18.836  1.00  0.00     0.167 HD
ATOM     60  C   UNL     1       1.359 -12.932  18.305  1.00  0.00     0.074 A 
ATOM     61  C   UNL     1       0.775 -14.093  17.662  1.00  0.00     0.031 C 
ATOM     62  C   UNL     1       2.021 -12.964  19.489  1.00  0.00     0.037 A 
BRANCH  49  63
ATOM     63  C   UNL     1       4.128  -7.451  21.366  1.00  0.00     0.058 A 
ATOM     64  C   UNL     1       3.529  -6.540  22.252  1.00  0.00     0.135 A 
ATOM     65  C   UNL     1       5.521  -7.609  21.438  1.00  0.00     0.135 A 
ATOM     66  F   UNL     1       2.201  -6.339  22.220  1.00  0.00    -0.206 F 
ATOM     67  C   UNL     1       4.285  -5.781  23.140  1.00  0.00     0.059 A 
ATOM     68  C   UNL     1       6.295  -6.881  22.338  1.00  0.00     0.059 A 
ATOM     69  F   UNL     1       6.147  -8.469  20.619  1.00  0.00    -0.206 F 
ATOM     70  C   UNL     1       5.670  -5.952  23.169  1.00  0.00     0.060 A 
BRANCH  70  71
ATOM     71  S   UNL     1       6.644  -4.939  24.303  1.00  0.00     0.124 S 
ATOM     72  O   UNL     1       6.649  -3.654  23.611  1.00  0.00    -0.237 OA
ATOM     73  O   UNL     1       5.857  -4.994  25.530  1.00  0.00    -0.237 OA
ATOM     74  O   UNL     1       7.929  -5.630  24.355  1.00  0.00    -0.744 OA
ENDBRANCH  70  71
ENDBRANCH  49  63
BRANCH  50  75
ATOM     75  C   UNL     1      -0.821 -12.311  14.168  1.00  0.00     0.058 A 
ATOM     76  C   UNL     1      -2.110 -12.829  14.356  1.00  0.00     0.135 A 
ATOM     77  C   UNL     1      -0.249 -12.421  12.892  1.00  0.00     0.135 A 
ATOM     78  F   UNL     1      -2.697 -12.748  15.560  1.00  0.00    -0.206 F 
ATOM     79  C   UNL     1      -2.812 -13.429  13.315  1.00  0.00     0.059 A 
ATOM     80  C   UNL     1      -0.938 -12.998  11.830  1.00  0.00     0.059 A 
ATOM     81  F   UNL     1       0.974 -11.920  12.658  1.00  0.00    -0.206 F 
ATOM     82  C   UNL     1      -2.220 -13.500  12.053  1.00  0.00     0.060 A 
BRANCH  82  83
ATOM     83  S   UNL     1      -3.177 -14.190  10.684  1.00  0.00     0.124 S 
ATOM     84  O   UNL     1      -3.119 -15.617  10.974  1.00  0.00    -0.237 OA
ATOM     85  O   UNL     1      -4.478 -13.552  10.867  1.00  0.00    -0.237 OA
ATOM     86  O   UNL     1      -2.436 -13.752   9.505  1.00  0.00    -0.744 OA
ENDBRANCH  82  83
ENDBRANCH  50  75
BRANCH  62  87
ATOM     87  C   UNL     1       2.131 -14.299  20.172  1.00  0.00     0.058 A 
ATOM     88  C   UNL     1       2.985 -15.304  19.693  1.00  0.00     0.135 A 
ATOM     89  C   UNL     1       1.388 -14.566  21.333  1.00  0.00     0.135 A 
ATOM     90  F   UNL     1       3.713 -15.100  18.584  1.00  0.00    -0.206 F 
ATOM     91  C   UNL     1       3.072 -16.543  20.320  1.00  0.00     0.059 A 
ATOM     92  C   UNL     1       1.479 -15.788  21.991  1.00  0.00     0.059 A 
ATOM     93  F   UNL     1       0.566 -13.633  21.840  1.00  0.00    -0.206 F 
ATOM     94  C   UNL     1       2.310 -16.777  21.467  1.00  0.00     0.060 A 
BRANCH  94  95
ATOM     95  S   UNL     1       2.432 -18.385  22.277  1.00  0.00     0.124 S 
ATOM     96  O   UNL     1       1.617 -19.218  21.398  1.00  0.00    -0.237 OA
ATOM     97  O   UNL     1       3.868 -18.646  22.247  1.00  0.00    -0.237 OA
ATOM     98  O   UNL     1       1.875 -18.138  23.604  1.00  0.00    -0.744 OA
ENDBRANCH  94  95
ENDBRANCH  62  87
ENDBRANCH  36  37
ENDBRANCH  28  31
ENDBRANCH  26  27
ENDBRANCH  25  26
ENDBRANCH  24  25
ENDBRANCH   3  24
TORSDOF 19
