REMARK SMILES COc1ccc(C(=O)N[C@@H](C(=O)NCCCNC(=O)c2ccc(-c3c4nc(c(-c5c(F)cc(S(=O)(=O)[O-])cc5F)c5ccc([nH]5)c(-c5c(F)cc(S(=O)(=O)[O-])cc5F)c5nc(c(-c6c(F)cc(S(=O)(=O)[O-])cc6F)c6ccc3[nH]6)C=C5)C=C4)cc2)C(C)C)cc1O
REMARK SMILES IDX 15 1 14 2 13 3 11 4 12 5 10 7 9 8 7 9 8 10 6 12 3 13 4 14
REMARK SMILES IDX 90 15 5 16 89 17 2 18 1 19 91 20 86 22 87 23 88 24 16 25
REMARK SMILES IDX 17 26 18 27 19 29 20 30 21 31 85 32 22 33 84 34 23 35 24 36
REMARK SMILES IDX 25 37 78 38 26 39 83 40 77 41 79 42 27 43 82 44 76 45 75 46
REMARK SMILES IDX 28 48 62 49 41 50 61 51 42 52 45 53 60 54 80 55 43 56 44 57
REMARK SMILES IDX 59 59 81 60 46 61 29 62 30 63 39 64 31 65 32 66 38 67 40 68
REMARK SMILES IDX 33 69 34 70 35 71 36 72 37 73 63 74 64 75 73 76 65 77 66 78
REMARK SMILES IDX 72 79 74 80 67 81 68 82 69 83 70 84 71 85 47 86 48 87 57 88
REMARK SMILES IDX 49 89 50 90 56 91 58 92 51 93 52 94 53 95 54 96 55 97
REMARK H PARENT 13 6 9 11 91 21 17 28 79 47 45 58
REMARK Flexibility Score: inf
ROOT
ATOM      1  C   UNL     1       4.699  -5.790   2.613  1.00  0.00     0.042 C 
ENDROOT
BRANCH   1   2
ATOM      2  C   UNL     1       4.481  -5.315   1.183  1.00  0.00     0.117 C 
BRANCH   2   3
ATOM      3  N   UNL     1       4.654  -6.400   0.236  1.00  0.00    -0.354 N 
ATOM      4  C   UNL     1       3.702  -7.065  -0.488  1.00  0.00     0.242 C 
ATOM      5  O   UNL     1       4.065  -8.015  -1.182  1.00  0.00    -0.273 OA
ATOM      6  H   UNL     1       5.581  -6.699   0.095  1.00  0.00     0.163 HD
BRANCH   4   7
ATOM      7  C   UNL     1       2.247  -6.531  -0.474  1.00  0.00     0.174 C 
BRANCH   7   8
ATOM      8  N   UNL     1       1.640  -6.727   0.848  1.00  0.00    -0.340 N 
ATOM      9  C   UNL     1       0.945  -5.907   1.706  1.00  0.00     0.252 C 
ATOM     10  O   UNL     1       0.513  -6.417   2.740  1.00  0.00    -0.269 OA
ATOM     11  H   UNL     1       1.754  -7.641   1.195  1.00  0.00     0.164 HD
BRANCH   9  12
ATOM     12  C   UNL     1       0.768  -4.436   1.506  1.00  0.00     0.043 A 
ATOM     13  C   UNL     1       0.734  -1.599   1.346  1.00  0.00     0.160 A 
ATOM     14  C   UNL     1       0.544  -2.252   2.568  1.00  0.00     0.051 A 
ATOM     15  C   UNL     1       0.895  -2.387   0.210  1.00  0.00     0.158 A 
ATOM     16  C   UNL     1       0.583  -3.651   2.653  1.00  0.00     0.018 A 
ATOM     17  C   UNL     1       0.830  -3.781   0.279  1.00  0.00     0.064 A 
BRANCH  13  18
ATOM     18  O   UNL     1       0.737  -0.238   1.444  1.00  0.00    -0.493 OA
ATOM     19  C   UNL     1       0.749   0.539   0.257  1.00  0.00     0.278 C 
ENDBRANCH  13  18
BRANCH  15  20
ATOM     20  O   UNL     1       1.208  -1.892  -1.025  1.00  0.00    -0.504 OA
ATOM     21  H   UNL     1       1.271  -0.966  -1.157  1.00  0.00     0.293 HD
ENDBRANCH  15  20
ENDBRANCH   9  12
ENDBRANCH   7   8
BRANCH   7  22
ATOM     22  C   UNL     1       1.385  -7.188  -1.586  1.00  0.00     0.015 C 
ATOM     23  C   UNL     1      -0.128  -7.042  -1.370  1.00  0.00     0.010 C 
ATOM     24  C   UNL     1       1.749  -6.595  -2.953  1.00  0.00     0.010 C 
ENDBRANCH   7  22
ENDBRANCH   4   7
ENDBRANCH   2   3
ENDBRANCH   1   2
BRANCH   1  25
ATOM     25  C   UNL     1       6.165  -6.063   2.925  1.00  0.00     0.118 C 
BRANCH  25  26
ATOM     26  N   UNL     1       6.976  -4.856   2.851  1.00  0.00    -0.352 N 
ATOM     27  C   UNL     1       7.924  -4.376   3.717  1.00  0.00     0.251 C 
ATOM     28  H   UNL     1       6.819  -4.298   2.055  1.00  0.00     0.163 HD
ATOM     29  O   UNL     1       8.355  -3.238   3.557  1.00  0.00    -0.269 OA
BRANCH  27  30
ATOM     30  C   UNL     1       8.408  -5.209   4.838  1.00  0.00     0.039 A 
ATOM     31  C   UNL     1       8.667  -4.588   6.062  1.00  0.00     0.014 A 
ATOM     32  C   UNL     1       8.635  -6.580   4.687  1.00  0.00     0.014 A 
ATOM     33  C   UNL     1       9.114  -5.350   7.141  1.00  0.00     0.010 A 
ATOM     34  C   UNL     1       8.996  -7.352   5.787  1.00  0.00     0.010 A 
ATOM     35  C   UNL     1       9.254  -6.744   7.022  1.00  0.00    -0.014 A 
BRANCH  35  36
ATOM     36  C   UNL     1       9.666  -7.559   8.193  1.00  0.00     0.031 A 
ATOM     37  C   UNL     1      10.962  -8.325   8.179  1.00  0.00     0.074 A 
ATOM     38  C   UNL     1       8.855  -7.615   9.269  1.00  0.00     0.049 A 
ATOM     39  N   UNL     1      11.503  -9.046   9.128  1.00  0.00    -0.248 NA
ATOM     40  C   UNL     1      11.741  -8.301   6.930  1.00  0.00     0.031 C 
ATOM     41  C   UNL     1       7.542  -6.973   9.371  1.00  0.00     0.029 A 
ATOM     42  N   UNL     1       9.017  -8.231  10.483  1.00  0.00    -0.354 N 
ATOM     43  C   UNL     1      12.679  -9.558   8.593  1.00  0.00     0.074 A 
ATOM     44  C   UNL     1      12.741  -9.122   7.216  1.00  0.00     0.031 C 
ATOM     45  C   UNL     1       7.041  -7.188  10.597  1.00  0.00     0.029 A 
ATOM     46  C   UNL     1       7.977  -8.010  11.356  1.00  0.00     0.049 A 
ATOM     47  H   UNL     1       9.803  -8.780  10.709  1.00  0.00     0.167 HD
ATOM     48  C   UNL     1      13.635 -10.300   9.204  1.00  0.00     0.037 A 
ATOM     49  C   UNL     1       7.803  -8.416  12.628  1.00  0.00     0.037 A 
ATOM     50  C   UNL     1      13.571 -10.717  10.581  1.00  0.00     0.049 A 
ATOM     51  C   UNL     1       8.887  -9.223  13.287  1.00  0.00     0.074 A 
ATOM     52  C   UNL     1      14.508 -11.427  11.311  1.00  0.00     0.029 A 
ATOM     53  N   UNL     1      12.508 -10.466  11.437  1.00  0.00    -0.354 N 
ATOM     54  N   UNL     1      10.030  -9.635  12.790  1.00  0.00    -0.248 NA
ATOM     55  C   UNL     1       8.665  -9.608  14.687  1.00  0.00     0.031 C 
ATOM     56  C   UNL     1      13.992 -11.646  12.593  1.00  0.00     0.029 A 
ATOM     57  C   UNL     1      12.757 -11.023  12.681  1.00  0.00     0.049 A 
ATOM     58  H   UNL     1      11.695  -9.965  11.196  1.00  0.00     0.167 HD
ATOM     59  C   UNL     1      10.674 -10.305  13.824  1.00  0.00     0.074 A 
ATOM     60  C   UNL     1       9.803 -10.220  14.979  1.00  0.00     0.031 C 
ATOM     61  C   UNL     1      11.876 -10.935  13.819  1.00  0.00     0.037 A 
BRANCH  48  62
ATOM     62  C   UNL     1      14.838 -10.699   8.389  1.00  0.00     0.058 A 
ATOM     63  C   UNL     1      15.788  -9.754   7.965  1.00  0.00     0.135 A 
ATOM     64  C   UNL     1      15.068 -12.045   8.063  1.00  0.00     0.135 A 
ATOM     65  F   UNL     1      15.613  -8.450   8.234  1.00  0.00    -0.206 F 
ATOM     66  C   UNL     1      16.907 -10.126   7.226  1.00  0.00     0.059 A 
ATOM     67  C   UNL     1      16.196 -12.443   7.350  1.00  0.00     0.059 A 
ATOM     68  F   UNL     1      14.194 -12.991   8.439  1.00  0.00    -0.206 F 
ATOM     69  C   UNL     1      17.104 -11.474   6.925  1.00  0.00     0.060 A 
BRANCH  69  70
ATOM     70  S   UNL     1      18.569 -11.939   5.979  1.00  0.00     0.124 S 
ATOM     71  O   UNL     1      18.235 -11.425   4.654  1.00  0.00    -0.237 OA
ATOM     72  O   UNL     1      19.632 -11.231   6.683  1.00  0.00    -0.237 OA
ATOM     73  O   UNL     1      18.603 -13.393   6.096  1.00  0.00    -0.744 OA
ENDBRANCH  69  70
ENDBRANCH  48  62
BRANCH  49  74
ATOM     74  C   UNL     1       6.572  -8.032  13.371  1.00  0.00     0.058 A 
ATOM     75  C   UNL     1       6.625  -7.129  14.443  1.00  0.00     0.135 A 
ATOM     76  C   UNL     1       5.318  -8.557  13.021  1.00  0.00     0.135 A 
ATOM     77  F   UNL     1       7.800  -6.600  14.817  1.00  0.00    -0.206 F 
ATOM     78  C   UNL     1       5.485  -6.779  15.159  1.00  0.00     0.059 A 
ATOM     79  C   UNL     1       4.159  -8.200  13.703  1.00  0.00     0.059 A 
ATOM     80  F   UNL     1       5.209  -9.409  11.990  1.00  0.00    -0.206 F 
ATOM     81  C   UNL     1       4.255  -7.320  14.780  1.00  0.00     0.060 A 
BRANCH  81  82
ATOM     82  S   UNL     1       2.776  -6.833  15.695  1.00  0.00     0.124 S 
ATOM     83  O   UNL     1       2.961  -7.545  16.953  1.00  0.00    -0.237 OA
ATOM     84  O   UNL     1       2.918  -5.381  15.755  1.00  0.00    -0.237 OA
ATOM     85  O   UNL     1       1.687  -7.314  14.851  1.00  0.00    -0.744 OA
ENDBRANCH  81  82
ENDBRANCH  49  74
BRANCH  61  86
ATOM     86  C   UNL     1      12.328 -11.552  15.116  1.00  0.00     0.058 A 
ATOM     87  C   UNL     1      11.695 -12.683  15.658  1.00  0.00     0.135 A 
ATOM     88  C   UNL     1      13.408 -11.004  15.826  1.00  0.00     0.135 A 
ATOM     89  F   UNL     1      10.656 -13.247  15.022  1.00  0.00    -0.206 F 
ATOM     90  C   UNL     1      12.083 -13.214  16.884  1.00  0.00     0.059 A 
ATOM     91  C   UNL     1      13.835 -11.540  17.036  1.00  0.00     0.059 A 
ATOM     92  F   UNL     1      14.061  -9.933  15.345  1.00  0.00    -0.206 F 
ATOM     93  C   UNL     1      13.150 -12.631  17.569  1.00  0.00     0.060 A 
BRANCH  93  94
ATOM     94  S   UNL     1      13.632 -13.317  19.167  1.00  0.00     0.124 S 
ATOM     95  O   UNL     1      12.557 -12.836  20.029  1.00  0.00    -0.237 OA
ATOM     96  O   UNL     1      13.639 -14.752  18.903  1.00  0.00    -0.237 OA
ATOM     97  O   UNL     1      14.944 -12.724  19.410  1.00  0.00    -0.744 OA
ENDBRANCH  93  94
ENDBRANCH  61  86
ENDBRANCH  35  36
ENDBRANCH  27  30
ENDBRANCH  25  26
ENDBRANCH   1  25
TORSDOF 18
