REMARK SMILES Cc1ccc(S(=O)(=O)N(c2ccccc2)[C@H](C)C(=O)NCCCNC(=O)c2ccc(-c3c4nc(c(-c5c(F)cc(S(=O)(=O)[O-])cc5F)c5ccc([nH]5)c(-c5c(F)cc(S(=O)(=O)[O-])cc5F)c5nc(c(-c6c(F)cc(S(=O)(=O)[O-])cc6F)c6ccc3[nH]6)C=C5)C=C4)cc2)cc1
REMARK SMILES IDX 22 1 21 2 20 3 18 4 19 5 16 7 17 8 9 9 6 10 7 11 8 12 5 13
REMARK SMILES IDX 1 14 2 15 3 16 94 17 4 18 93 19 10 20 11 21 15 22 12 23
REMARK SMILES IDX 14 24 13 25 23 26 24 27 25 28 26 30 27 31 28 32 92 33 29 34
REMARK SMILES IDX 91 35 30 36 31 37 32 38 85 39 33 40 90 41 84 42 86 43 34 44
REMARK SMILES IDX 89 45 83 46 82 47 35 49 69 50 48 51 68 52 49 53 52 54 67 55
REMARK SMILES IDX 87 56 50 57 51 58 66 60 88 61 53 62 36 63 37 64 46 65 38 66
REMARK SMILES IDX 39 67 45 68 47 69 40 70 41 71 42 72 43 73 44 74 70 75 71 76
REMARK SMILES IDX 80 77 72 78 73 79 79 80 81 81 74 82 75 83 76 84 77 85 78 86
REMARK SMILES IDX 54 87 55 88 64 89 56 90 57 91 63 92 65 93 58 94 59 95 60 96
REMARK SMILES IDX 61 97 62 98
REMARK H PARENT 20 6 24 29 86 48 52 59
REMARK Flexibility Score: inf
ROOT
ATOM      1  C   UNL     1      -3.575  -1.202   1.274  1.00  0.00     0.042 C 
ENDROOT
BRANCH   1   2
ATOM      2  C   UNL     1      -4.948  -0.841   0.750  1.00  0.00     0.117 C 
BRANCH   2   3
ATOM      3  N   UNL     1      -5.597   0.260   1.434  1.00  0.00    -0.354 N 
ATOM      4  C   UNL     1      -6.188   1.377   0.913  1.00  0.00     0.243 C 
ATOM      5  O   UNL     1      -6.910   2.028   1.680  1.00  0.00    -0.273 OA
ATOM      6  H   UNL     1      -5.614   0.194   2.416  1.00  0.00     0.163 HD
BRANCH   4   7
ATOM      7  C   UNL     1      -5.929   1.884  -0.511  1.00  0.00     0.185 C 
ATOM      8  C   UNL     1      -4.433   2.085  -0.777  1.00  0.00     0.043 C 
BRANCH   7   9
ATOM      9  N   UNL     1      -6.701   1.219  -1.634  1.00  0.00    -0.254 N 
BRANCH   9  10
ATOM     10  S   UNL     1      -7.240   2.321  -2.828  1.00  0.00     0.265 S 
ATOM     11  O   UNL     1      -6.060   3.019  -3.310  1.00  0.00    -0.201 OA
ATOM     12  O   UNL     1      -8.344   3.079  -2.274  1.00  0.00    -0.201 OA
BRANCH  10  13
ATOM     13  C   UNL     1      -7.881   1.439  -4.239  1.00  0.00     0.088 A 
ATOM     14  C   UNL     1      -8.626  -0.876  -7.783  1.00  0.00     0.044 C 
ATOM     15  C   UNL     1      -8.416  -0.043  -6.554  1.00  0.00    -0.051 A 
ATOM     16  C   UNL     1      -7.906   1.255  -6.655  1.00  0.00     0.005 A 
ATOM     17  C   UNL     1      -8.751  -0.549  -5.291  1.00  0.00     0.005 A 
ATOM     18  C   UNL     1      -7.620   1.984  -5.503  1.00  0.00     0.022 A 
ATOM     19  C   UNL     1      -8.521   0.206  -4.137  1.00  0.00     0.022 A 
ENDBRANCH  10  13
ENDBRANCH   9  10
BRANCH   9  20
ATOM     20  C   UNL     1      -6.338  -0.105  -2.039  1.00  0.00     0.053 A 
ATOM     21  C   UNL     1      -7.066  -1.165  -1.476  1.00  0.00     0.027 A 
ATOM     22  C   UNL     1      -5.256  -0.375  -2.880  1.00  0.00     0.027 A 
ATOM     23  C   UNL     1      -6.709  -2.488  -1.740  1.00  0.00     0.002 A 
ATOM     24  C   UNL     1      -4.896  -1.703  -3.136  1.00  0.00     0.002 A 
ATOM     25  C   UNL     1      -5.618  -2.754  -2.563  1.00  0.00     0.000 A 
ENDBRANCH   9  20
ENDBRANCH   7   9
ENDBRANCH   4   7
ENDBRANCH   2   3
ENDBRANCH   1   2
BRANCH   1  26
ATOM     26  C   UNL     1      -3.618  -2.489   2.074  1.00  0.00     0.118 C 
BRANCH  26  27
ATOM     27  N   UNL     1      -3.508  -3.714   1.286  1.00  0.00    -0.352 N 
ATOM     28  C   UNL     1      -3.557  -5.032   1.740  1.00  0.00     0.251 C 
ATOM     29  H   UNL     1      -3.384  -3.595   0.317  1.00  0.00     0.163 HD
ATOM     30  O   UNL     1      -3.287  -5.960   1.010  1.00  0.00    -0.269 OA
BRANCH  28  31
ATOM     31  C   UNL     1      -4.022  -5.254   3.134  1.00  0.00     0.039 A 
ATOM     32  C   UNL     1      -5.182  -6.009   3.336  1.00  0.00     0.014 A 
ATOM     33  C   UNL     1      -3.501  -4.470   4.154  1.00  0.00     0.014 A 
ATOM     34  C   UNL     1      -5.948  -5.786   4.481  1.00  0.00     0.010 A 
ATOM     35  C   UNL     1      -4.329  -4.139   5.203  1.00  0.00     0.010 A 
ATOM     36  C   UNL     1      -5.575  -4.767   5.351  1.00  0.00    -0.014 A 
BRANCH  36  37
ATOM     37  C   UNL     1      -6.416  -4.218   6.412  1.00  0.00     0.031 A 
ATOM     38  C   UNL     1      -5.940  -4.288   7.816  1.00  0.00     0.074 A 
ATOM     39  C   UNL     1      -7.499  -3.469   6.099  1.00  0.00     0.049 A 
ATOM     40  N   UNL     1      -6.619  -3.884   8.834  1.00  0.00    -0.248 NA
ATOM     41  C   UNL     1      -4.658  -4.886   8.199  1.00  0.00     0.031 C 
ATOM     42  C   UNL     1      -8.146  -2.461   6.939  1.00  0.00     0.029 A 
ATOM     43  N   UNL     1      -8.377  -3.630   5.022  1.00  0.00    -0.354 N 
ATOM     44  C   UNL     1      -5.774  -3.863   9.917  1.00  0.00     0.074 A 
ATOM     45  C   UNL     1      -4.614  -4.604   9.504  1.00  0.00     0.031 C 
ATOM     46  C   UNL     1      -9.402  -2.269   6.510  1.00  0.00     0.029 A 
ATOM     47  C   UNL     1      -9.661  -3.266   5.490  1.00  0.00     0.049 A 
ATOM     48  H   UNL     1      -8.147  -3.937   4.115  1.00  0.00     0.167 HD
ATOM     49  C   UNL     1      -6.111  -3.094  10.987  1.00  0.00     0.037 A 
ATOM     50  C   UNL     1     -10.676  -4.180   5.556  1.00  0.00     0.037 A 
ATOM     51  C   UNL     1      -7.540  -2.776  10.955  1.00  0.00     0.049 A 
ATOM     52  C   UNL     1     -11.192  -4.443   6.954  1.00  0.00     0.074 A 
ATOM     53  C   UNL     1      -8.272  -1.630  10.709  1.00  0.00     0.029 A 
ATOM     54  N   UNL     1      -8.450  -3.832  10.947  1.00  0.00    -0.354 N 
ATOM     55  N   UNL     1     -10.589  -4.058   8.046  1.00  0.00    -0.248 NA
ATOM     56  C   UNL     1     -12.424  -5.176   7.234  1.00  0.00     0.031 C 
ATOM     57  C   UNL     1      -9.611  -2.025  10.425  1.00  0.00     0.029 A 
ATOM     58  C   UNL     1      -9.701  -3.402  10.555  1.00  0.00     0.049 A 
ATOM     59  H   UNL     1      -8.230  -4.761  11.189  1.00  0.00     0.167 HD
ATOM     60  C   UNL     1     -11.269  -4.525   9.143  1.00  0.00     0.074 A 
ATOM     61  C   UNL     1     -12.436  -5.178   8.579  1.00  0.00     0.031 C 
ATOM     62  C   UNL     1     -10.798  -4.358  10.416  1.00  0.00     0.037 A 
BRANCH  49  63
ATOM     63  C   UNL     1      -5.119  -2.488  11.964  1.00  0.00     0.058 A 
ATOM     64  C   UNL     1      -5.574  -1.733  13.069  1.00  0.00     0.135 A 
ATOM     65  C   UNL     1      -3.714  -2.482  11.795  1.00  0.00     0.135 A 
ATOM     66  F   UNL     1      -6.884  -1.619  13.335  1.00  0.00    -0.206 F 
ATOM     67  C   UNL     1      -4.712  -1.031  13.922  1.00  0.00     0.059 A 
ATOM     68  C   UNL     1      -2.833  -1.834  12.663  1.00  0.00     0.059 A 
ATOM     69  F   UNL     1      -3.115  -3.041  10.738  1.00  0.00    -0.206 F 
ATOM     70  C   UNL     1      -3.340  -1.087  13.711  1.00  0.00     0.060 A 
BRANCH  70  71
ATOM     71  S   UNL     1      -2.224  -0.160  14.782  1.00  0.00     0.124 S 
ATOM     72  O   UNL     1      -2.474   1.213  14.358  1.00  0.00    -0.237 OA
ATOM     73  O   UNL     1      -2.700  -0.514  16.115  1.00  0.00    -0.237 OA
ATOM     74  O   UNL     1      -0.906  -0.688  14.436  1.00  0.00    -0.744 OA
ENDBRANCH  70  71
ENDBRANCH  49  63
BRANCH  50  75
ATOM     75  C   UNL     1     -10.645  -5.152   4.428  1.00  0.00     0.058 A 
ATOM     76  C   UNL     1     -10.921  -4.642   3.144  1.00  0.00     0.135 A 
ATOM     77  C   UNL     1      -9.892  -6.331   4.511  1.00  0.00     0.135 A 
ATOM     78  F   UNL     1     -11.666  -3.532   3.009  1.00  0.00    -0.206 F 
ATOM     79  C   UNL     1     -10.301  -5.151   2.010  1.00  0.00     0.059 A 
ATOM     80  C   UNL     1      -9.273  -6.870   3.380  1.00  0.00     0.059 A 
ATOM     81  F   UNL     1      -9.606  -6.868   5.707  1.00  0.00    -0.206 F 
ATOM     82  C   UNL     1      -9.413  -6.214   2.156  1.00  0.00     0.060 A 
BRANCH  82  83
ATOM     83  S   UNL     1      -8.286  -6.555   0.782  1.00  0.00     0.124 S 
ATOM     84  O   UNL     1      -9.206  -6.786  -0.325  1.00  0.00    -0.237 OA
ATOM     85  O   UNL     1      -7.525  -5.308   0.714  1.00  0.00    -0.237 OA
ATOM     86  O   UNL     1      -7.541  -7.723   1.240  1.00  0.00    -0.744 OA
ENDBRANCH  82  83
ENDBRANCH  50  75
BRANCH  62  87
ATOM     87  C   UNL     1     -11.345  -5.031  11.662  1.00  0.00     0.058 A 
ATOM     88  C   UNL     1     -12.016  -6.267  11.672  1.00  0.00     0.135 A 
ATOM     89  C   UNL     1     -11.075  -4.485  12.943  1.00  0.00     0.135 A 
ATOM     90  F   UNL     1     -12.222  -6.961  10.545  1.00  0.00    -0.206 F 
ATOM     91  C   UNL     1     -12.461  -6.874  12.851  1.00  0.00     0.059 A 
ATOM     92  C   UNL     1     -11.455  -5.104  14.133  1.00  0.00     0.059 A 
ATOM     93  F   UNL     1     -10.413  -3.326  13.084  1.00  0.00    -0.206 F 
ATOM     94  C   UNL     1     -12.178  -6.285  14.078  1.00  0.00     0.060 A 
BRANCH  94  95
ATOM     95  S   UNL     1     -12.692  -7.088  15.607  1.00  0.00     0.124 S 
ATOM     96  O   UNL     1     -13.983  -6.452  15.851  1.00  0.00    -0.237 OA
ATOM     97  O   UNL     1     -12.748  -8.499  15.234  1.00  0.00    -0.237 OA
ATOM     98  O   UNL     1     -11.626  -6.739  16.540  1.00  0.00    -0.744 OA
ENDBRANCH  94  95
ENDBRANCH  62  87
ENDBRANCH  36  37
ENDBRANCH  28  31
ENDBRANCH  26  27
ENDBRANCH   1  26
TORSDOF 17
