REMARK SMILES CCOc1ccc(NC(=O)[C@@H]2[C@@H](C(=O)NCCCNC(=O)c3ccc(-c4c5nc(c(-c6c(F)cc(S(=O)(=O)[O-])cc6F)c6ccc([nH]6)c(-c6c(F)cc(S(=O)(=O)[O-])cc6F)c6nc(c(-c7c(F)cc(S(=O)(=O)[O-])cc7F)c7ccc4[nH]7)C=C6)C=C5)cc3)[C@H]3C=C[C@@H]2C3)cc1
REMARK SMILES IDX 16 1 15 2 13 3 14 4 12 6 11 7 91 8 88 9 90 10 92 11 89 12
REMARK SMILES IDX 9 13 8 14 10 16 7 17 4 18 5 19 94 20 6 21 93 22 3 23 2 24
REMARK SMILES IDX 1 25 17 26 18 27 19 28 20 29 21 31 22 32 23 33 87 34 24 35
REMARK SMILES IDX 86 36 25 37 26 38 27 39 80 40 28 41 85 42 79 43 81 44 29 45
REMARK SMILES IDX 84 46 78 47 77 48 30 50 64 51 43 52 63 53 44 54 47 55 62 56
REMARK SMILES IDX 82 57 45 58 46 59 61 61 83 62 48 63 31 64 32 65 41 66 33 67
REMARK SMILES IDX 34 68 40 69 42 70 35 71 36 72 37 73 38 74 39 75 65 76 66 77
REMARK SMILES IDX 75 78 67 79 68 80 74 81 76 82 69 83 70 84 71 85 72 86 73 87
REMARK SMILES IDX 49 88 50 89 59 90 51 91 52 92 58 93 60 94 53 95 54 96 55 97
REMARK SMILES IDX 56 98 57 99
REMARK H PARENT 15 5 8 15 19 30 81 49 47 60
REMARK Flexibility Score: inf
ROOT
ATOM      1  C   UNL     1       5.242   6.281   6.276  1.00  0.00     0.117 C 
ENDROOT
BRANCH   1   2
ATOM      2  N   UNL     1       4.320   5.163   6.394  1.00  0.00    -0.356 N 
ATOM      3  C   UNL     1       4.557   3.821   6.440  1.00  0.00     0.224 C 
ATOM      4  O   UNL     1       3.592   3.081   6.632  1.00  0.00    -0.275 OA
ATOM      5  H   UNL     1       3.370   5.417   6.450  1.00  0.00     0.163 HD
BRANCH   3   6
ATOM      6  C   UNL     1       5.981   3.311   6.318  1.00  0.00     0.098 C 
ATOM      7  C   UNL     1       6.150   1.828   5.839  1.00  0.00     0.099 C 
ATOM      8  C   UNL     1       7.070   1.233   6.946  1.00  0.00     0.025 C 
ATOM      9  C   UNL     1       6.656   3.287   7.718  1.00  0.00     0.025 C 
ATOM     10  C   UNL     1       6.188   1.073   8.167  1.00  0.00    -0.027 C 
ATOM     11  C   UNL     1       7.891   2.437   7.420  1.00  0.00     0.017 C 
ATOM     12  C   UNL     1       5.930   2.309   8.624  1.00  0.00    -0.027 C 
BRANCH   7  13
ATOM     13  C   UNL     1       6.804   1.776   4.472  1.00  0.00     0.228 C 
ATOM     14  N   UNL     1       6.107   1.675   3.305  1.00  0.00    -0.326 N 
ATOM     15  H   UNL     1       6.697   1.721   2.519  1.00  0.00     0.169 HD
ATOM     16  O   UNL     1       8.035   1.854   4.368  1.00  0.00    -0.274 OA
BRANCH  14  17
ATOM     17  C   UNL     1       4.756   1.520   2.942  1.00  0.00     0.041 A 
ATOM     18  C   UNL     1       2.126   1.146   1.992  1.00  0.00     0.119 A 
ATOM     19  C   UNL     1       2.360   1.342   3.341  1.00  0.00     0.048 A 
ATOM     20  C   UNL     1       3.189   1.170   1.098  1.00  0.00     0.048 A 
ATOM     21  C   UNL     1       3.666   1.520   3.806  1.00  0.00     0.030 A 
ATOM     22  C   UNL     1       4.495   1.350   1.573  1.00  0.00     0.030 A 
BRANCH  18  23
ATOM     23  O   UNL     1       0.831   1.055   1.577  1.00  0.00    -0.494 OA
BRANCH  23  24
ATOM     24  C   UNL     1       0.479  -0.261   1.141  1.00  0.00     0.226 C 
ATOM     25  C   UNL     1       0.520  -0.337  -0.374  1.00  0.00     0.049 C 
ENDBRANCH  23  24
ENDBRANCH  18  23
ENDBRANCH  14  17
ENDBRANCH   7  13
ENDBRANCH   3   6
ENDBRANCH   1   2
BRANCH   1  26
ATOM     26  C   UNL     1       5.038   7.080   4.991  1.00  0.00     0.042 C 
BRANCH  26  27
ATOM     27  C   UNL     1       3.653   7.710   4.838  1.00  0.00     0.118 C 
BRANCH  27  28
ATOM     28  N   UNL     1       3.336   8.668   5.890  1.00  0.00    -0.352 N 
ATOM     29  C   UNL     1       3.055  10.013   5.822  1.00  0.00     0.251 C 
ATOM     30  H   UNL     1       3.320   8.290   6.798  1.00  0.00     0.163 HD
ATOM     31  O   UNL     1       2.957  10.660   6.859  1.00  0.00    -0.269 OA
BRANCH  29  32
ATOM     32  C   UNL     1       2.904  10.690   4.513  1.00  0.00     0.039 A 
ATOM     33  C   UNL     1       3.544  11.918   4.316  1.00  0.00     0.014 A 
ATOM     34  C   UNL     1       2.137  10.132   3.488  1.00  0.00     0.014 A 
ATOM     35  C   UNL     1       3.500  12.532   3.060  1.00  0.00     0.010 A 
ATOM     36  C   UNL     1       2.148  10.712   2.219  1.00  0.00     0.010 A 
ATOM     37  C   UNL     1       2.850  11.905   1.985  1.00  0.00    -0.014 A 
BRANCH  37  38
ATOM     38  C   UNL     1       2.958  12.434   0.598  1.00  0.00     0.031 A 
ATOM     39  C   UNL     1       1.733  12.889  -0.147  1.00  0.00     0.074 A 
ATOM     40  C   UNL     1       4.154  12.403  -0.025  1.00  0.00     0.049 A 
ATOM     41  N   UNL     1       1.619  13.253  -1.399  1.00  0.00    -0.248 NA
ATOM     42  C   UNL     1       0.467  12.921   0.604  1.00  0.00     0.031 C 
ATOM     43  C   UNL     1       5.409  11.941   0.576  1.00  0.00     0.029 A 
ATOM     44  N   UNL     1       4.511  12.738  -1.310  1.00  0.00    -0.354 N 
ATOM     45  C   UNL     1       0.272  13.534  -1.594  1.00  0.00     0.074 A 
ATOM     46  C   UNL     1      -0.398  13.277  -0.337  1.00  0.00     0.031 C 
ATOM     47  C   UNL     1       6.391  12.016  -0.337  1.00  0.00     0.029 A 
ATOM     48  C   UNL     1       5.832  12.482  -1.601  1.00  0.00     0.049 A 
ATOM     49  H   UNL     1       3.880  13.124  -1.960  1.00  0.00     0.167 HD
ATOM     50  C   UNL     1      -0.344  13.973  -2.718  1.00  0.00     0.037 A 
ATOM     51  C   UNL     1       6.512  12.576  -2.761  1.00  0.00     0.037 A 
ATOM     52  C   UNL     1       0.336  14.256  -3.957  1.00  0.00     0.049 A 
ATOM     53  C   UNL     1       5.796  13.056  -3.996  1.00  0.00     0.074 A 
ATOM     54  C   UNL     1      -0.192  14.793  -5.119  1.00  0.00     0.029 A 
ATOM     55  N   UNL     1       1.678  14.012  -4.204  1.00  0.00    -0.354 N 
ATOM     56  N   UNL     1       4.540  13.407  -4.135  1.00  0.00    -0.248 NA
ATOM     57  C   UNL     1       6.587  13.154  -5.231  1.00  0.00     0.031 C 
ATOM     58  C   UNL     1       0.815  14.814  -6.088  1.00  0.00     0.029 A 
ATOM     59  C   UNL     1       1.986  14.348  -5.513  1.00  0.00     0.049 A 
ATOM     60  H   UNL     1       2.317  13.654  -3.547  1.00  0.00     0.167 HD
ATOM     61  C   UNL     1       4.397  13.786  -5.466  1.00  0.00     0.074 A 
ATOM     62  C   UNL     1       5.698  13.644  -6.084  1.00  0.00     0.031 C 
ATOM     63  C   UNL     1       3.286  14.209  -6.118  1.00  0.00     0.037 A 
BRANCH  50  64
ATOM     64  C   UNL     1      -1.834  14.177  -2.683  1.00  0.00     0.058 A 
ATOM     65  C   UNL     1      -2.419  15.253  -2.000  1.00  0.00     0.135 A 
ATOM     66  C   UNL     1      -2.678  13.344  -3.438  1.00  0.00     0.135 A 
ATOM     67  F   UNL     1      -1.662  16.072  -1.253  1.00  0.00    -0.206 F 
ATOM     68  C   UNL     1      -3.788  15.495  -2.062  1.00  0.00     0.059 A 
ATOM     69  C   UNL     1      -4.045  13.582  -3.535  1.00  0.00     0.059 A 
ATOM     70  F   UNL     1      -2.170  12.298  -4.109  1.00  0.00    -0.206 F 
ATOM     71  C   UNL     1      -4.592  14.659  -2.841  1.00  0.00     0.060 A 
BRANCH  71  72
ATOM     72  S   UNL     1      -6.357  15.023  -2.955  1.00  0.00     0.124 S 
ATOM     73  O   UNL     1      -6.815  14.671  -1.615  1.00  0.00    -0.237 OA
ATOM     74  O   UNL     1      -6.360  16.448  -3.271  1.00  0.00    -0.237 OA
ATOM     75  O   UNL     1      -6.818  14.145  -4.026  1.00  0.00    -0.744 OA
ENDBRANCH  71  72
ENDBRANCH  50  64
BRANCH  51  76
ATOM     76  C   UNL     1       7.945  12.175  -2.826  1.00  0.00     0.058 A 
ATOM     77  C   UNL     1       8.955  13.118  -3.071  1.00  0.00     0.135 A 
ATOM     78  C   UNL     1       8.330  10.833  -2.676  1.00  0.00     0.135 A 
ATOM     79  F   UNL     1       8.639  14.412  -3.229  1.00  0.00    -0.206 F 
ATOM     80  C   UNL     1      10.289  12.742  -3.199  1.00  0.00     0.059 A 
ATOM     81  C   UNL     1       9.660  10.437  -2.767  1.00  0.00     0.059 A 
ATOM     82  F   UNL     1       7.407   9.892  -2.423  1.00  0.00    -0.206 F 
ATOM     83  C   UNL     1      10.630  11.397  -3.048  1.00  0.00     0.060 A 
BRANCH  83  84
ATOM     84  S   UNL     1      12.364  10.918  -3.207  1.00  0.00     0.124 S 
ATOM     85  O   UNL     1      12.571  11.040  -4.645  1.00  0.00    -0.237 OA
ATOM     86  O   UNL     1      13.034  11.916  -2.378  1.00  0.00    -0.237 OA
ATOM     87  O   UNL     1      12.386   9.558  -2.678  1.00  0.00    -0.744 OA
ENDBRANCH  83  84
ENDBRANCH  51  76
BRANCH  63  88
ATOM     88  C   UNL     1       3.428  14.575  -7.570  1.00  0.00     0.058 A 
ATOM     89  C   UNL     1       3.620  13.599  -8.561  1.00  0.00     0.135 A 
ATOM     90  C   UNL     1       3.310  15.913  -7.983  1.00  0.00     0.135 A 
ATOM     91  F   UNL     1       3.749  12.307  -8.221  1.00  0.00    -0.206 F 
ATOM     92  C   UNL     1       3.711  13.939  -9.907  1.00  0.00     0.059 A 
ATOM     93  C   UNL     1       3.366  16.271  -9.326  1.00  0.00     0.059 A 
ATOM     94  F   UNL     1       3.117  16.885  -7.077  1.00  0.00    -0.206 F 
ATOM     95  C   UNL     1       3.577  15.277 -10.280  1.00  0.00     0.060 A 
BRANCH  95  96
ATOM     96  S   UNL     1       3.652  15.697 -12.035  1.00  0.00     0.124 S 
ATOM     97  O   UNL     1       5.071  15.508 -12.322  1.00  0.00    -0.237 OA
ATOM     98  O   UNL     1       2.749  14.716 -12.629  1.00  0.00    -0.237 OA
ATOM     99  O   UNL     1       3.183  17.078 -12.075  1.00  0.00    -0.744 OA
ENDBRANCH  95  96
ENDBRANCH  63  88
ENDBRANCH  37  38
ENDBRANCH  29  32
ENDBRANCH  27  28
ENDBRANCH  26  27
ENDBRANCH   1  26
TORSDOF 17
