REMARK SMILES C[C@H]1CCC(F)(F)[C@@H]1C(=O)NCCCNC(=O)c1ccc(-c2c3nc(c(-c4c(F)cc(S(=O)(=O)[O-])cc4F)c4ccc([nH]4)c(-c4c(F)cc(S(=O)(=O)[O-])cc4F)c4nc(c(-c5c(F)cc(S(=O)(=O)[O-])cc5F)c5ccc2[nH]5)C=C4)C=C3)cc1
REMARK SMILES IDX 15 1 16 2 17 3 14 5 13 6 12 7 11 8 9 9 10 10 8 12 1 13 2 14
REMARK SMILES IDX 3 15 4 16 5 17 6 18 7 19 18 20 19 21 83 22 20 23 82 24 21 25
REMARK SMILES IDX 22 26 23 27 76 28 24 29 81 30 75 31 77 32 25 33 80 34 74 35
REMARK SMILES IDX 73 36 26 38 60 39 39 40 59 41 40 42 43 43 58 44 78 45 41 46
REMARK SMILES IDX 42 47 57 49 79 50 44 51 27 52 28 53 37 54 29 55 30 56 36 57
REMARK SMILES IDX 38 58 31 59 32 60 33 61 34 62 35 63 61 64 62 65 71 66 63 67
REMARK SMILES IDX 64 68 70 69 72 70 65 71 66 72 67 73 68 74 69 75 45 76 46 77
REMARK SMILES IDX 55 78 47 79 48 80 54 81 56 82 49 83 50 84 51 85 52 86 53 87
REMARK H PARENT 15 4 11 11 77 37 43 48
REMARK Flexibility Score: inf
ROOT
ATOM      1  N   UNL     1       5.529  -3.502   1.920  1.00  0.00    -0.352 N 
ATOM      2  C   UNL     1       6.203  -4.699   1.952  1.00  0.00     0.251 C 
ATOM      3  O   UNL     1       6.865  -4.997   2.943  1.00  0.00    -0.269 OA
ATOM      4  H   UNL     1       5.741  -2.884   2.657  1.00  0.00     0.163 HD
ENDROOT
BRANCH   1   5
ATOM      5  C   UNL     1       4.550  -3.005   0.961  1.00  0.00     0.118 C 
BRANCH   5   6
ATOM      6  C   UNL     1       3.205  -2.675   1.602  1.00  0.00     0.042 C 
BRANCH   6   7
ATOM      7  C   UNL     1       3.261  -1.547   2.625  1.00  0.00     0.117 C 
BRANCH   7   8
ATOM      8  N   UNL     1       3.647  -0.281   2.023  1.00  0.00    -0.356 N 
ATOM      9  C   UNL     1       2.958   0.885   1.879  1.00  0.00     0.229 C 
ATOM     10  O   UNL     1       3.527   1.814   1.305  1.00  0.00    -0.275 OA
ATOM     11  H   UNL     1       4.560  -0.264   1.657  1.00  0.00     0.163 HD
BRANCH   9  12
ATOM     12  C   UNL     1       1.524   0.987   2.353  1.00  0.00     0.151 C 
ATOM     13  C   UNL     1      -0.798   0.383   1.507  1.00  0.00     0.009 C 
ATOM     14  C   UNL     1       0.556   0.999   1.156  1.00  0.00     0.004 C 
ATOM     15  C   UNL     1       0.411   2.485   0.766  1.00  0.00     0.010 C 
ATOM     16  C   UNL     1       0.993   3.318   1.911  1.00  0.00     0.078 C 
ATOM     17  C   UNL     1       1.274   2.324   3.015  1.00  0.00     0.259 C 
ATOM     18  F   UNL     1       2.270   2.713   3.832  1.00  0.00    -0.206 F 
ATOM     19  F   UNL     1       0.164   2.221   3.800  1.00  0.00    -0.206 F 
ENDBRANCH   9  12
ENDBRANCH   7   8
ENDBRANCH   6   7
ENDBRANCH   5   6
ENDBRANCH   1   5
BRANCH   2  20
ATOM     20  C   UNL     1       6.113  -5.636   0.811  1.00  0.00     0.039 A 
ATOM     21  C   UNL     1       5.923  -6.998   1.061  1.00  0.00     0.014 A 
ATOM     22  C   UNL     1       6.219  -5.173  -0.502  1.00  0.00     0.014 A 
ATOM     23  C   UNL     1       5.762  -7.884  -0.009  1.00  0.00     0.010 A 
ATOM     24  C   UNL     1       5.978  -6.040  -1.562  1.00  0.00     0.010 A 
ATOM     25  C   UNL     1       5.748  -7.405  -1.328  1.00  0.00    -0.014 A 
BRANCH  25  26
ATOM     26  C   UNL     1       5.507  -8.301  -2.489  1.00  0.00     0.031 A 
ATOM     27  C   UNL     1       6.573  -8.468  -3.537  1.00  0.00     0.074 A 
ATOM     28  C   UNL     1       4.301  -8.881  -2.652  1.00  0.00     0.049 A 
ATOM     29  N   UNL     1       6.512  -9.083  -4.689  1.00  0.00    -0.248 NA
ATOM     30  C   UNL     1       7.870  -7.828  -3.265  1.00  0.00     0.031 C 
ATOM     31  C   UNL     1       3.177  -8.776  -1.720  1.00  0.00     0.029 A 
ATOM     32  N   UNL     1       3.814  -9.661  -3.671  1.00  0.00    -0.354 N 
ATOM     33  C   UNL     1       7.746  -8.875  -5.295  1.00  0.00     0.074 A 
ATOM     34  C   UNL     1       8.520  -8.043  -4.399  1.00  0.00     0.031 C 
ATOM     35  C   UNL     1       2.141  -9.485  -2.199  1.00  0.00     0.029 A 
ATOM     36  C   UNL     1       2.508 -10.052  -3.493  1.00  0.00     0.049 A 
ATOM     37  H   UNL     1       4.350  -9.917  -4.457  1.00  0.00     0.167 HD
ATOM     38  C   UNL     1       8.198  -9.347  -6.481  1.00  0.00     0.037 A 
ATOM     39  C   UNL     1       1.694 -10.776  -4.287  1.00  0.00     0.037 A 
ATOM     40  C   UNL     1       7.433 -10.204  -7.348  1.00  0.00     0.049 A 
ATOM     41  C   UNL     1       2.212 -11.279  -5.607  1.00  0.00     0.074 A 
ATOM     42  C   UNL     1       7.825 -10.796  -8.536  1.00  0.00     0.029 A 
ATOM     43  N   UNL     1       6.119 -10.588  -7.124  1.00  0.00    -0.354 N 
ATOM     44  N   UNL     1       3.400 -11.120  -6.140  1.00  0.00    -0.248 NA
ATOM     45  C   UNL     1       1.280 -12.058  -6.436  1.00  0.00     0.031 C 
ATOM     46  C   UNL     1       6.732 -11.498  -9.055  1.00  0.00     0.029 A 
ATOM     47  C   UNL     1       5.676 -11.389  -8.163  1.00  0.00     0.049 A 
ATOM     48  H   UNL     1       5.580 -10.330  -6.341  1.00  0.00     0.167 HD
ATOM     49  C   UNL     1       3.372 -11.815  -7.345  1.00  0.00     0.074 A 
ATOM     50  C   UNL     1       2.047 -12.387  -7.467  1.00  0.00     0.031 C 
ATOM     51  C   UNL     1       4.360 -11.971  -8.261  1.00  0.00     0.037 A 
BRANCH  38  52
ATOM     52  C   UNL     1       9.577  -8.930  -6.915  1.00  0.00     0.058 A 
ATOM     53  C   UNL     1      10.733  -9.380  -6.256  1.00  0.00     0.135 A 
ATOM     54  C   UNL     1       9.745  -8.069  -8.012  1.00  0.00     0.135 A 
ATOM     55  F   UNL     1      10.631 -10.195  -5.194  1.00  0.00    -0.206 F 
ATOM     56  C   UNL     1      12.001  -8.952  -6.636  1.00  0.00     0.059 A 
ATOM     57  C   UNL     1      11.006  -7.654  -8.430  1.00  0.00     0.059 A 
ATOM     58  F   UNL     1       8.677  -7.611  -8.684  1.00  0.00    -0.206 F 
ATOM     59  C   UNL     1      12.126  -8.082  -7.720  1.00  0.00     0.060 A 
BRANCH  59  60
ATOM     60  S   UNL     1      13.775  -7.511  -8.182  1.00  0.00     0.124 S 
ATOM     61  O   UNL     1      14.058  -6.554  -7.117  1.00  0.00    -0.237 OA
ATOM     62  O   UNL     1      14.555  -8.743  -8.149  1.00  0.00    -0.237 OA
ATOM     63  O   UNL     1      13.575  -6.933  -9.508  1.00  0.00    -0.744 OA
ENDBRANCH  59  60
ENDBRANCH  38  52
BRANCH  39  64
ATOM     64  C   UNL     1       0.316 -11.101  -3.833  1.00  0.00     0.058 A 
ATOM     65  C   UNL     1      -0.015 -12.409  -3.446  1.00  0.00     0.135 A 
ATOM     66  C   UNL     1      -0.683 -10.120  -3.743  1.00  0.00     0.135 A 
ATOM     67  F   UNL     1       0.904 -13.383  -3.522  1.00  0.00    -0.206 F 
ATOM     68  C   UNL     1      -1.288 -12.734  -2.990  1.00  0.00     0.059 A 
ATOM     69  C   UNL     1      -1.958 -10.416  -3.269  1.00  0.00     0.059 A 
ATOM     70  F   UNL     1      -0.413  -8.851  -4.088  1.00  0.00    -0.206 F 
ATOM     71  C   UNL     1      -2.252 -11.729  -2.899  1.00  0.00     0.060 A 
BRANCH  71  72
ATOM     72  S   UNL     1      -3.880 -12.151  -2.242  1.00  0.00     0.124 S 
ATOM     73  O   UNL     1      -4.446 -12.931  -3.336  1.00  0.00    -0.237 OA
ATOM     74  O   UNL     1      -3.538 -12.897  -1.035  1.00  0.00    -0.237 OA
ATOM     75  O   UNL     1      -4.497 -10.848  -2.010  1.00  0.00    -0.744 OA
ENDBRANCH  71  72
ENDBRANCH  39  64
BRANCH  51  76
ATOM     76  C   UNL     1       4.080 -12.841  -9.454  1.00  0.00     0.058 A 
ATOM     77  C   UNL     1       3.273 -12.408 -10.516  1.00  0.00     0.135 A 
ATOM     78  C   UNL     1       4.709 -14.092  -9.574  1.00  0.00     0.135 A 
ATOM     79  F   UNL     1       2.641 -11.225 -10.446  1.00  0.00    -0.206 F 
ATOM     80  C   UNL     1       3.098 -13.185 -11.657  1.00  0.00     0.059 A 
ATOM     81  C   UNL     1       4.569 -14.873 -10.716  1.00  0.00     0.059 A 
ATOM     82  F   UNL     1       5.497 -14.550  -8.588  1.00  0.00    -0.206 F 
ATOM     83  C   UNL     1       3.758 -14.412 -11.752  1.00  0.00     0.060 A 
BRANCH  83  84
ATOM     84  S   UNL     1       3.583 -15.375 -13.269  1.00  0.00     0.124 S 
ATOM     85  O   UNL     1       2.221 -15.882 -13.141  1.00  0.00    -0.237 OA
ATOM     86  O   UNL     1       3.790 -14.367 -14.304  1.00  0.00    -0.237 OA
ATOM     87  O   UNL     1       4.639 -16.377 -13.160  1.00  0.00    -0.744 OA
ENDBRANCH  83  84
ENDBRANCH  51  76
ENDBRANCH  25  26
ENDBRANCH   2  20
TORSDOF 13
