REMARK SMILES CS(=O)(=O)c1ccc(N2N=C(C(=O)NCCCNC(=O)c3ccc(-c4c5nc(c(-c6c(F)cc(S(=O)(=O)[O-])cc6F)c6ccc([nH]6)c(-c6c(F)cc(S(=O)(=O)[O-])cc6F)c6nc(c(-c7c(F)cc(S(=O)(=O)[O-])cc7F)c7ccc4[nH]7)C=C6)C=C5)cc3)C[C@H]2c2cccs2)cc1
REMARK SMILES IDX 16 1 15 2 14 3 12 4 13 5 11 7 9 8 10 9 88 10 87 11 8 12 5 13
REMARK SMILES IDX 6 14 95 15 7 16 94 17 2 18 1 19 3 20 4 21 89 22 90 23 93 24
REMARK SMILES IDX 91 25 92 26 17 27 18 28 19 29 20 31 21 32 22 33 86 34 23 35
REMARK SMILES IDX 85 36 24 37 25 38 26 39 79 40 27 41 84 42 78 43 80 44 28 45
REMARK SMILES IDX 83 46 77 47 76 48 29 50 63 51 42 52 62 53 43 54 46 55 61 56
REMARK SMILES IDX 81 57 44 58 45 59 60 61 82 62 47 63 30 64 31 65 40 66 32 67
REMARK SMILES IDX 33 68 39 69 41 70 34 71 35 72 36 73 37 74 38 75 64 76 65 77
REMARK SMILES IDX 74 78 66 79 67 80 73 81 75 82 68 83 69 84 70 85 71 86 72 87
REMARK SMILES IDX 48 88 49 89 58 90 50 91 51 92 57 93 59 94 52 95 53 96 54 97
REMARK SMILES IDX 55 98 56 99
REMARK H PARENT 14 6 18 30 80 49 46 60
REMARK Flexibility Score: inf
ROOT
ATOM      1  C   UNL     1       4.958  11.708  -0.136  1.00  0.00     0.042 C 
ENDROOT
BRANCH   1   2
ATOM      2  C   UNL     1       4.113  11.264  -1.321  1.00  0.00     0.118 C 
BRANCH   2   3
ATOM      3  N   UNL     1       4.785  10.238  -2.094  1.00  0.00    -0.351 N 
ATOM      4  C   UNL     1       4.622   8.889  -2.262  1.00  0.00     0.267 C 
ATOM      5  O   UNL     1       5.462   8.303  -2.943  1.00  0.00    -0.268 OA
ATOM      6  H   UNL     1       5.535  10.595  -2.623  1.00  0.00     0.163 HD
BRANCH   4   7
ATOM      7  C   UNL     1       3.453   8.086  -1.714  1.00  0.00     0.128 C 
ATOM      8  N   UNL     1       2.071   6.466  -1.573  1.00  0.00    -0.256 N 
ATOM      9  N   UNL     1       3.224   6.883  -2.153  1.00  0.00    -0.171 NA
ATOM     10  C   UNL     1       1.499   7.422  -0.624  1.00  0.00     0.154 C 
ATOM     11  C   UNL     1       2.541   8.548  -0.625  1.00  0.00     0.097 C 
BRANCH   8  12
ATOM     12  C   UNL     1       1.715   5.124  -1.588  1.00  0.00     0.060 A 
ATOM     13  C   UNL     1       0.941   2.422  -1.587  1.00  0.00     0.067 A 
ATOM     14  C   UNL     1       2.235   2.771  -1.195  1.00  0.00     0.022 A 
ATOM     15  C   UNL     1       0.040   3.401  -2.001  1.00  0.00     0.022 A 
ATOM     16  C   UNL     1       2.616   4.120  -1.205  1.00  0.00     0.029 A 
ATOM     17  C   UNL     1       0.435   4.738  -2.004  1.00  0.00     0.029 A 
BRANCH  13  18
ATOM     18  S   UNL     1       0.415   0.728  -1.579  1.00  0.00     0.175 S 
ATOM     19  C   UNL     1       0.961   0.069  -0.028  1.00  0.00     0.163 C 
ATOM     20  O   UNL     1       1.133   0.053  -2.641  1.00  0.00    -0.224 OA
ATOM     21  O   UNL     1      -1.038   0.726  -1.542  1.00  0.00    -0.224 OA
ENDBRANCH  13  18
ENDBRANCH   8  12
BRANCH  10  22
ATOM     22  C   UNL     1       0.078   7.885  -0.916  1.00  0.00     0.030 A 
ATOM     23  C   UNL     1      -1.091   7.325  -0.425  1.00  0.00     0.017 A 
ATOM     24  S   UNL     1      -0.284   9.177  -1.993  1.00  0.00    -0.147 S 
ATOM     25  C   UNL     1      -2.263   7.979  -0.900  1.00  0.00     0.012 A 
ATOM     26  C   UNL     1      -1.962   9.043  -1.717  1.00  0.00     0.065 A 
ENDBRANCH  10  22
ENDBRANCH   4   7
ENDBRANCH   2   3
ENDBRANCH   1   2
BRANCH   1  27
ATOM     27  C   UNL     1       6.118  12.605  -0.549  1.00  0.00     0.118 C 
BRANCH  27  28
ATOM     28  N   UNL     1       5.654  13.862  -1.126  1.00  0.00    -0.352 N 
ATOM     29  C   UNL     1       5.744  15.145  -0.648  1.00  0.00     0.251 C 
ATOM     30  H   UNL     1       5.204  13.776  -1.998  1.00  0.00     0.163 HD
ATOM     31  O   UNL     1       5.056  16.026  -1.157  1.00  0.00    -0.269 OA
BRANCH  29  32
ATOM     32  C   UNL     1       6.653  15.462   0.473  1.00  0.00     0.039 A 
ATOM     33  C   UNL     1       6.249  16.389   1.437  1.00  0.00     0.014 A 
ATOM     34  C   UNL     1       7.914  14.868   0.560  1.00  0.00     0.014 A 
ATOM     35  C   UNL     1       7.085  16.668   2.519  1.00  0.00     0.010 A 
ATOM     36  C   UNL     1       8.700  15.069   1.688  1.00  0.00     0.010 A 
ATOM     37  C   UNL     1       8.300  15.981   2.674  1.00  0.00    -0.014 A 
BRANCH  37  38
ATOM     38  C   UNL     1       9.176  16.209   3.851  1.00  0.00     0.031 A 
ATOM     39  C   UNL     1      10.574  16.734   3.659  1.00  0.00     0.074 A 
ATOM     40  C   UNL     1       8.736  15.875   5.081  1.00  0.00     0.049 A 
ATOM     41  N   UNL     1      11.515  16.919   4.548  1.00  0.00    -0.248 NA
ATOM     42  C   UNL     1      10.981  17.063   2.282  1.00  0.00     0.031 C 
ATOM     43  C   UNL     1       7.421  15.304   5.384  1.00  0.00     0.029 A 
ATOM     44  N   UNL     1       9.351  15.955   6.305  1.00  0.00    -0.354 N 
ATOM     45  C   UNL     1      12.624  17.366   3.840  1.00  0.00     0.074 A 
ATOM     46  C   UNL     1      12.260  17.370   2.441  1.00  0.00     0.031 C 
ATOM     47  C   UNL     1       7.320  15.107   6.708  1.00  0.00     0.029 A 
ATOM     48  C   UNL     1       8.575  15.496   7.344  1.00  0.00     0.049 A 
ATOM     49  H   UNL     1      10.261  16.307   6.428  1.00  0.00     0.167 HD
ATOM     50  C   UNL     1      13.829  17.762   4.316  1.00  0.00     0.037 A 
ATOM     51  C   UNL     1       8.848  15.389   8.659  1.00  0.00     0.037 A 
ATOM     52  C   UNL     1      14.170  17.786   5.714  1.00  0.00     0.049 A 
ATOM     53  C   UNL     1      10.190  15.846   9.163  1.00  0.00     0.074 A 
ATOM     54  C   UNL     1      15.338  18.234   6.306  1.00  0.00     0.029 A 
ATOM     55  N   UNL     1      13.345  17.345   6.739  1.00  0.00    -0.354 N 
ATOM     56  N   UNL     1      11.203  16.334   8.485  1.00  0.00    -0.248 NA
ATOM     57  C   UNL     1      10.426  15.747  10.609  1.00  0.00     0.031 C 
ATOM     58  C   UNL     1      15.240  18.017   7.683  1.00  0.00     0.029 A 
ATOM     59  C   UNL     1      13.988  17.488   7.957  1.00  0.00     0.049 A 
ATOM     60  H   UNL     1      12.438  16.983   6.618  1.00  0.00     0.167 HD
ATOM     61  C   UNL     1      12.183  16.628   9.427  1.00  0.00     0.074 A 
ATOM     62  C   UNL     1      11.636  16.276  10.721  1.00  0.00     0.031 C 
ATOM     63  C   UNL     1      13.424  17.142   9.238  1.00  0.00     0.037 A 
BRANCH  50  64
ATOM     64  C   UNL     1      14.866  18.209   3.321  1.00  0.00     0.058 A 
ATOM     65  C   UNL     1      14.734  19.409   2.605  1.00  0.00     0.135 A 
ATOM     66  C   UNL     1      16.034  17.455   3.122  1.00  0.00     0.135 A 
ATOM     67  F   UNL     1      13.630  20.161   2.742  1.00  0.00    -0.206 F 
ATOM     68  C   UNL     1      15.711  19.835   1.711  1.00  0.00     0.059 A 
ATOM     69  C   UNL     1      17.039  17.877   2.256  1.00  0.00     0.059 A 
ATOM     70  F   UNL     1      16.212  16.297   3.779  1.00  0.00    -0.206 F 
ATOM     71  C   UNL     1      16.863  19.064   1.547  1.00  0.00     0.060 A 
BRANCH  71  72
ATOM     72  S   UNL     1      18.132  19.646   0.403  1.00  0.00     0.124 S 
ATOM     73  O   UNL     1      17.485  19.422  -0.887  1.00  0.00    -0.237 OA
ATOM     74  O   UNL     1      18.290  21.041   0.798  1.00  0.00    -0.237 OA
ATOM     75  O   UNL     1      19.272  18.782   0.691  1.00  0.00    -0.744 OA
ENDBRANCH  71  72
ENDBRANCH  50  64
BRANCH  51  76
ATOM     76  C   UNL     1       7.826  14.841   9.591  1.00  0.00     0.058 A 
ATOM     77  C   UNL     1       7.200  15.661  10.542  1.00  0.00     0.135 A 
ATOM     78  C   UNL     1       7.453  13.489   9.549  1.00  0.00     0.135 A 
ATOM     79  F   UNL     1       7.524  16.961  10.624  1.00  0.00    -0.206 F 
ATOM     80  C   UNL     1       6.260  15.156  11.434  1.00  0.00     0.059 A 
ATOM     81  C   UNL     1       6.495  12.967  10.412  1.00  0.00     0.059 A 
ATOM     82  F   UNL     1       8.006  12.665   8.645  1.00  0.00    -0.206 F 
ATOM     83  C   UNL     1       5.913  13.806  11.361  1.00  0.00     0.060 A 
BRANCH  83  84
ATOM     84  S   UNL     1       4.665  13.168  12.499  1.00  0.00     0.124 S 
ATOM     85  O   UNL     1       5.401  13.145  13.758  1.00  0.00    -0.237 OA
ATOM     86  O   UNL     1       3.611  14.172  12.392  1.00  0.00    -0.237 OA
ATOM     87  O   UNL     1       4.335  11.862  11.936  1.00  0.00    -0.744 OA
ENDBRANCH  83  84
ENDBRANCH  51  76
BRANCH  63  88
ATOM     88  C   UNL     1      14.261  17.397  10.461  1.00  0.00     0.058 A 
ATOM     89  C   UNL     1      14.823  16.349  11.206  1.00  0.00     0.135 A 
ATOM     90  C   UNL     1      14.546  18.713  10.861  1.00  0.00     0.135 A 
ATOM     91  F   UNL     1      14.578  15.073  10.868  1.00  0.00    -0.206 F 
ATOM     92  C   UNL     1      15.615  16.596  12.322  1.00  0.00     0.059 A 
ATOM     93  C   UNL     1      15.361  18.983  11.956  1.00  0.00     0.059 A 
ATOM     94  F   UNL     1      14.043  19.753  10.177  1.00  0.00    -0.206 F 
ATOM     95  C   UNL     1      15.880  17.917  12.688  1.00  0.00     0.060 A 
BRANCH  95  96
ATOM     96  S   UNL     1      16.932  18.223  14.122  1.00  0.00     0.124 S 
ATOM     97  O   UNL     1      16.042  17.862  15.221  1.00  0.00    -0.237 OA
ATOM     98  O   UNL     1      18.050  17.314  13.888  1.00  0.00    -0.237 OA
ATOM     99  O   UNL     1      17.252  19.643  14.013  1.00  0.00    -0.744 OA
ENDBRANCH  95  96
ENDBRANCH  63  88
ENDBRANCH  37  38
ENDBRANCH  29  32
ENDBRANCH  27  28
ENDBRANCH   1  27
TORSDOF 16
