REMARK SMILES Cc1nc(-c2ccccc2)sc1C(=O)N[C@@H](CC1=c2ccccc2=NC1)C(=O)NCCCNC(=O)c1ccc(-c2c3nc(c(-c4c(F)cc(S(=O)(=O)[O-])cc4F)c4ccc([nH]4)c(-c4c(F)cc(S(=O)(=O)[O-])cc4F)c4nc(c(-c5c(F)cc(S(=O)(=O)[O-])cc5F)c5ccc2[nH]5)C=C4)C=C3)cc1
REMARK SMILES IDX 31 1 30 2 29 3 27 4 28 5 16 7 15 8 13 9 14 10 12 12 1 13
REMARK SMILES IDX 2 14 3 15 4 16 11 17 5 18 6 19 10 20 7 21 9 22 8 23 17 24
REMARK SMILES IDX 18 25 19 26 26 27 20 28 24 29 25 30 21 31 23 32 22 33 32 34
REMARK SMILES IDX 33 35 34 36 35 38 36 39 37 40 101 41 38 42 100 43 39 44
REMARK SMILES IDX 40 45 41 46 94 47 42 48 99 49 93 50 95 51 43 52 98 53 92 54
REMARK SMILES IDX 91 55 44 57 78 58 57 59 77 60 58 61 61 62 76 63 96 64 59 65
REMARK SMILES IDX 60 66 75 68 97 69 62 70 45 71 46 72 55 73 47 74 48 75 54 76
REMARK SMILES IDX 56 77 49 78 50 79 51 80 52 81 53 82 79 83 80 84 89 85 81 86
REMARK SMILES IDX 82 87 88 88 90 89 83 90 84 91 85 92 86 93 87 94 63 95 64 96
REMARK SMILES IDX 73 97 65 98 66 99 72 100 74 101 67 102 68 103 69 104 70 105
REMARK SMILES IDX 71 106
REMARK H PARENT 29 6 15 11 33 37 95 56 61 67
REMARK Flexibility Score: inf
ROOT
ATOM      1  C   UNL     1      -3.317  -6.233   2.035  1.00  0.00     0.042 C 
ENDROOT
BRANCH   1   2
ATOM      2  C   UNL     1      -3.847  -5.121   1.170  1.00  0.00     0.117 C 
BRANCH   2   3
ATOM      3  N   UNL     1      -4.146  -3.898   1.865  1.00  0.00    -0.354 N 
ATOM      4  C   UNL     1      -4.005  -2.626   1.416  1.00  0.00     0.242 C 
ATOM      5  O   UNL     1      -4.616  -1.741   2.026  1.00  0.00    -0.273 OA
ATOM      6  H   UNL     1      -4.497  -3.996   2.780  1.00  0.00     0.163 HD
BRANCH   4   7
ATOM      7  C   UNL     1      -3.158  -2.262   0.178  1.00  0.00     0.175 C 
BRANCH   7   8
ATOM      8  N   UNL     1      -1.771  -2.678   0.235  1.00  0.00    -0.339 N 
ATOM      9  C   UNL     1      -0.585  -2.007   0.092  1.00  0.00     0.263 C 
ATOM     10  O   UNL     1       0.384  -2.778   0.106  1.00  0.00    -0.268 OA
ATOM     11  H   UNL     1      -1.657  -3.639   0.411  1.00  0.00     0.164 HD
BRANCH   9  12
ATOM     12  C   UNL     1      -0.426  -0.557  -0.043  1.00  0.00     0.115 A 
ATOM     13  C   UNL     1      -2.648   0.820  -0.539  1.00  0.00     0.068 C 
ATOM     14  C   UNL     1      -1.207   0.582  -0.265  1.00  0.00     0.062 A 
ATOM     15  N   UNL     1      -0.518   1.781  -0.223  1.00  0.00    -0.241 NA
ATOM     16  C   UNL     1       0.764   1.599  -0.065  1.00  0.00     0.124 A 
ATOM     17  S   UNL     1       1.250  -0.014   0.084  1.00  0.00    -0.108 S 
BRANCH  16  18
ATOM     18  C   UNL     1       1.684   2.724  -0.007  1.00  0.00     0.010 A 
ATOM     19  C   UNL     1       1.490   3.692   0.989  1.00  0.00     0.011 A 
ATOM     20  C   UNL     1       2.613   2.958  -1.027  1.00  0.00     0.011 A 
ATOM     21  C   UNL     1       2.195   4.892   0.954  1.00  0.00     0.001 A 
ATOM     22  C   UNL     1       3.313   4.166  -1.064  1.00  0.00     0.001 A 
ATOM     23  C   UNL     1       3.096   5.133  -0.081  1.00  0.00     0.000 A 
ENDBRANCH  16  18
ENDBRANCH   9  12
ENDBRANCH   7   8
BRANCH   7  24
ATOM     24  C   UNL     1      -3.807  -2.464  -1.219  1.00  0.00     0.068 C 
BRANCH  24  25
ATOM     25  C   UNL     1      -4.019  -3.858  -1.730  1.00  0.00    -0.037 C 
ATOM     26  C   UNL     1      -3.121  -4.794  -2.044  1.00  0.00     0.001 A 
ATOM     27  C   UNL     1      -5.410  -4.413  -1.847  1.00  0.00     0.174 C 
ATOM     28  C   UNL     1      -1.696  -4.858  -2.101  1.00  0.00     0.010 A 
ATOM     29  C   UNL     1      -3.948  -6.016  -2.095  1.00  0.00     0.065 A 
ATOM     30  N   UNL     1      -5.236  -5.872  -2.021  1.00  0.00    -0.280 NA
ATOM     31  C   UNL     1      -1.101  -6.062  -2.096  1.00  0.00     0.001 A 
ATOM     32  C   UNL     1      -3.221  -7.304  -2.091  1.00  0.00     0.028 A 
ATOM     33  C   UNL     1      -1.877  -7.290  -2.052  1.00  0.00     0.002 A 
ENDBRANCH  24  25
ENDBRANCH   7  24
ENDBRANCH   4   7
ENDBRANCH   2   3
ENDBRANCH   1   2
BRANCH   1  34
ATOM     34  C   UNL     1      -4.298  -6.686   3.093  1.00  0.00     0.118 C 
BRANCH  34  35
ATOM     35  N   UNL     1      -5.578  -7.132   2.552  1.00  0.00    -0.352 N 
ATOM     36  C   UNL     1      -6.169  -8.377   2.547  1.00  0.00     0.251 C 
ATOM     37  H   UNL     1      -6.108  -6.425   2.118  1.00  0.00     0.163 HD
ATOM     38  O   UNL     1      -7.195  -8.564   1.917  1.00  0.00    -0.269 OA
BRANCH  36  39
ATOM     39  C   UNL     1      -5.526  -9.490   3.279  1.00  0.00     0.039 A 
ATOM     40  C   UNL     1      -5.485 -10.757   2.695  1.00  0.00     0.014 A 
ATOM     41  C   UNL     1      -4.922  -9.269   4.514  1.00  0.00     0.014 A 
ATOM     42  C   UNL     1      -4.753 -11.770   3.315  1.00  0.00     0.010 A 
ATOM     43  C   UNL     1      -4.065 -10.221   5.039  1.00  0.00     0.010 A 
ATOM     44  C   UNL     1      -3.988 -11.493   4.461  1.00  0.00    -0.014 A 
BRANCH  44  45
ATOM     45  C   UNL     1      -3.119 -12.523   5.081  1.00  0.00     0.031 A 
ATOM     46  C   UNL     1      -3.325 -12.914   6.522  1.00  0.00     0.074 A 
ATOM     47  C   UNL     1      -2.110 -13.056   4.364  1.00  0.00     0.049 A 
ATOM     48  N   UNL     1      -2.655 -13.772   7.247  1.00  0.00    -0.248 NA
ATOM     49  C   UNL     1      -4.393 -12.219   7.262  1.00  0.00     0.031 C 
ATOM     50  C   UNL     1      -1.755 -12.684   2.990  1.00  0.00     0.029 A 
ATOM     51  N   UNL     1      -1.198 -14.028   4.686  1.00  0.00    -0.354 N 
ATOM     52  C   UNL     1      -3.207 -13.703   8.521  1.00  0.00     0.074 A 
ATOM     53  C   UNL     1      -4.208 -12.662   8.495  1.00  0.00     0.031 C 
ATOM     54  C   UNL     1      -0.742 -13.458   2.571  1.00  0.00     0.029 A 
ATOM     55  C   UNL     1      -0.349 -14.352   3.654  1.00  0.00     0.049 A 
ATOM     56  H   UNL     1      -1.156 -14.454   5.572  1.00  0.00     0.167 HD
ATOM     57  C   UNL     1      -2.937 -14.467   9.605  1.00  0.00     0.037 A 
ATOM     58  C   UNL     1       0.628 -15.276   3.587  1.00  0.00     0.037 A 
ATOM     59  C   UNL     1      -1.970 -15.531   9.604  1.00  0.00     0.049 A 
ATOM     60  C   UNL     1       0.881 -16.145   4.788  1.00  0.00     0.074 A 
ATOM     61  C   UNL     1      -1.666 -16.421  10.618  1.00  0.00     0.029 A 
ATOM     62  N   UNL     1      -1.151 -15.852   8.530  1.00  0.00    -0.354 N 
ATOM     63  N   UNL     1       0.289 -16.123   5.960  1.00  0.00    -0.248 NA
ATOM     64  C   UNL     1       1.923 -17.169   4.656  1.00  0.00     0.031 C 
ATOM     65  C   UNL     1      -0.633 -17.252  10.172  1.00  0.00     0.029 A 
ATOM     66  C   UNL     1      -0.327 -16.913   8.863  1.00  0.00     0.049 A 
ATOM     67  H   UNL     1      -1.156 -15.392   7.659  1.00  0.00     0.167 HD
ATOM     68  C   UNL     1       0.878 -17.141   6.701  1.00  0.00     0.074 A 
ATOM     69  C   UNL     1       1.851 -17.775   5.833  1.00  0.00     0.031 C 
ATOM     70  C   UNL     1       0.641 -17.517   7.983  1.00  0.00     0.037 A 
BRANCH  57  71
ATOM     71  C   UNL     1      -3.712 -14.188  10.865  1.00  0.00     0.058 A 
ATOM     72  C   UNL     1      -5.089 -14.449  10.957  1.00  0.00     0.135 A 
ATOM     73  C   UNL     1      -3.070 -13.666  11.999  1.00  0.00     0.135 A 
ATOM     74  F   UNL     1      -5.760 -14.929   9.898  1.00  0.00    -0.206 F 
ATOM     75  C   UNL     1      -5.808 -14.171  12.115  1.00  0.00     0.059 A 
ATOM     76  C   UNL     1      -3.763 -13.410  13.179  1.00  0.00     0.059 A 
ATOM     77  F   UNL     1      -1.756 -13.393  11.967  1.00  0.00    -0.206 F 
ATOM     78  C   UNL     1      -5.136 -13.652  13.222  1.00  0.00     0.060 A 
BRANCH  78  79
ATOM     79  S   UNL     1      -6.082 -13.303  14.719  1.00  0.00     0.124 S 
ATOM     80  O   UNL     1      -6.828 -12.113  14.321  1.00  0.00    -0.237 OA
ATOM     81  O   UNL     1      -6.871 -14.521  14.878  1.00  0.00    -0.237 OA
ATOM     82  O   UNL     1      -5.053 -13.090  15.730  1.00  0.00    -0.744 OA
ENDBRANCH  78  79
ENDBRANCH  57  71
BRANCH  58  83
ATOM     83  C   UNL     1       1.400 -15.454   2.328  1.00  0.00     0.058 A 
ATOM     84  C   UNL     1       1.229 -16.597   1.533  1.00  0.00     0.135 A 
ATOM     85  C   UNL     1       2.302 -14.477   1.880  1.00  0.00     0.135 A 
ATOM     86  F   UNL     1       0.379 -17.561   1.918  1.00  0.00    -0.206 F 
ATOM     87  C   UNL     1       1.936 -16.774   0.347  1.00  0.00     0.059 A 
ATOM     88  C   UNL     1       3.001 -14.619   0.685  1.00  0.00     0.059 A 
ATOM     89  F   UNL     1       2.486 -13.354   2.592  1.00  0.00    -0.206 F 
ATOM     90  C   UNL     1       2.818 -15.777  -0.070  1.00  0.00     0.060 A 
BRANCH  90  91
ATOM     91  S   UNL     1       3.688 -15.990  -1.638  1.00  0.00     0.124 S 
ATOM     92  O   UNL     1       4.670 -17.011  -1.293  1.00  0.00    -0.237 OA
ATOM     93  O   UNL     1       2.613 -16.412  -2.530  1.00  0.00    -0.237 OA
ATOM     94  O   UNL     1       4.226 -14.659  -1.906  1.00  0.00    -0.744 OA
ENDBRANCH  90  91
ENDBRANCH  58  83
BRANCH  70  95
ATOM     95  C   UNL     1       1.444 -18.673   8.511  1.00  0.00     0.058 A 
ATOM     96  C   UNL     1       2.814 -18.550   8.788  1.00  0.00     0.135 A 
ATOM     97  C   UNL     1       0.830 -19.911   8.762  1.00  0.00     0.135 A 
ATOM     98  F   UNL     1       3.448 -17.387   8.563  1.00  0.00    -0.206 F 
ATOM     99  C   UNL     1       3.559 -19.627   9.255  1.00  0.00     0.059 A 
ATOM    100  C   UNL     1       1.549 -20.992   9.259  1.00  0.00     0.059 A 
ATOM    101  F   UNL     1      -0.481 -20.076   8.528  1.00  0.00    -0.206 F 
ATOM    102  C   UNL     1       2.918 -20.846   9.483  1.00  0.00     0.060 A 
BRANCH 102 103
ATOM    103  S   UNL     1       3.895 -22.236  10.087  1.00  0.00     0.124 S 
ATOM    104  O   UNL     1       4.622 -22.627   8.884  1.00  0.00    -0.237 OA
ATOM    105  O   UNL     1       4.696 -21.622  11.141  1.00  0.00    -0.237 OA
ATOM    106  O   UNL     1       2.886 -23.185  10.548  1.00  0.00    -0.744 OA
ENDBRANCH 102 103
ENDBRANCH  70  95
ENDBRANCH  44  45
ENDBRANCH  36  39
ENDBRANCH  34  35
ENDBRANCH   1  34
TORSDOF 18
