REMARK SMILES C[NH+]1CCC(C(=O)N2C[C@@H](C(=O)NCCCNC(=O)c3ccc(-c4c5nc(c(-c6c(F)cc(S(=O)(=O)[O-])cc6F)c6ccc([nH]6)c(-c6c(F)cc(S(=O)(=O)[O-])cc6F)c6nc(c(-c7c(F)cc(S(=O)(=O)[O-])cc7F)c7ccc4[nH]7)C=C6)C=C5)cc3)[C@H](c3ccc4c(c3)OCO4)C2)CC1
REMARK SMILES IDX 15 1 14 2 13 3 11 4 12 5 10 7 8 8 9 9 96 10 86 11 6 12 7 13
REMARK SMILES IDX 5 14 1 15 2 16 3 17 98 18 4 20 97 21 87 22 88 23 92 24 89 25
REMARK SMILES IDX 91 26 90 27 93 28 95 29 94 30 16 31 17 32 18 33 19 35 20 36
REMARK SMILES IDX 21 37 85 38 22 39 84 40 23 41 24 42 25 43 78 44 26 45 83 46
REMARK SMILES IDX 77 47 79 48 27 49 82 50 76 51 75 52 28 54 62 55 41 56 61 57
REMARK SMILES IDX 42 58 45 59 60 60 80 61 43 62 44 63 59 65 81 66 46 67 29 68
REMARK SMILES IDX 30 69 39 70 31 71 32 72 38 73 40 74 33 75 34 76 35 77 36 78
REMARK SMILES IDX 37 79 63 80 64 81 73 82 65 83 66 84 72 85 74 86 67 87 68 88
REMARK SMILES IDX 69 89 70 90 71 91 47 92 48 93 57 94 49 95 50 96 56 97 58 98
REMARK SMILES IDX 51 99 52 100 53 101 54 102 55 103
REMARK H PARENT 13 6 2 19 17 34 79 53 45 64
REMARK Flexibility Score: inf
ROOT
ATOM      1  C   UNL     1       0.343   0.726   6.933  1.00  0.00     0.042 C 
ENDROOT
BRANCH   1   2
ATOM      2  C   UNL     1       1.713   0.767   6.285  1.00  0.00     0.117 C 
BRANCH   2   3
ATOM      3  N   UNL     1       2.292  -0.544   6.044  1.00  0.00    -0.356 N 
ATOM      4  C   UNL     1       3.055  -0.965   4.996  1.00  0.00     0.225 C 
ATOM      5  O   UNL     1       3.619  -2.056   5.082  1.00  0.00    -0.275 OA
ATOM      6  H   UNL     1       2.107  -1.222   6.734  1.00  0.00     0.163 HD
BRANCH   4   7
ATOM      7  C   UNL     1       3.178  -0.094   3.770  1.00  0.00     0.107 C 
ATOM      8  N   UNL     1       3.676  -0.022   1.524  1.00  0.00    -0.341 N 
ATOM      9  C   UNL     1       3.223  -0.956   2.527  1.00  0.00     0.133 C 
ATOM     10  C   UNL     1       4.674   0.866   2.121  1.00  0.00     0.128 C 
ATOM     11  C   UNL     1       4.506   0.694   3.656  1.00  0.00     0.053 C 
BRANCH   8  12
ATOM     12  C   UNL     1       3.317   0.108   0.207  1.00  0.00     0.226 C 
ATOM     13  O   UNL     1       4.124   0.586  -0.601  1.00  0.00    -0.275 OA
BRANCH  12  14
ATOM     14  C   UNL     1       1.853  -0.046  -0.234  1.00  0.00     0.090 C 
ATOM     15  C   UNL     1      -2.448   0.015  -0.251  1.00  0.00     0.332 C 
ATOM     16  N   UNL     1      -1.036  -0.039   0.123  1.00  0.00    -0.337 N 
ATOM     17  C   UNL     1      -0.352   1.202  -0.258  1.00  0.00     0.262 C 
ATOM     18  C   UNL     1      -0.373  -1.210  -0.468  1.00  0.00     0.262 C 
ATOM     19  H   UNL     1      -0.981  -0.133   1.137  1.00  0.00     0.347 HD
ATOM     20  C   UNL     1       1.087   1.194   0.252  1.00  0.00     0.075 C 
ATOM     21  C   UNL     1       1.057  -1.313   0.074  1.00  0.00     0.075 C 
ENDBRANCH  12  14
ENDBRANCH   8  12
BRANCH  11  22
ATOM     22  C   UNL     1       4.464   1.936   4.531  1.00  0.00    -0.038 A 
ATOM     23  C   UNL     1       3.875   3.151   4.109  1.00  0.00     0.008 A 
ATOM     24  C   UNL     1       4.848   1.802   5.882  1.00  0.00     0.054 A 
ATOM     25  C   UNL     1       3.612   4.186   5.018  1.00  0.00     0.051 A 
ATOM     26  C   UNL     1       4.522   2.813   6.763  1.00  0.00     0.166 A 
ATOM     27  C   UNL     1       3.908   3.967   6.345  1.00  0.00     0.165 A 
ATOM     28  O   UNL     1       4.617   2.741   8.120  1.00  0.00    -0.454 OA
ATOM     29  O   UNL     1       3.567   4.775   7.385  1.00  0.00    -0.454 OA
ATOM     30  C   UNL     1       3.827   3.891   8.498  1.00  0.00     0.468 C 
ENDBRANCH  11  22
ENDBRANCH   4   7
ENDBRANCH   2   3
ENDBRANCH   1   2
BRANCH   1  31
ATOM     31  C   UNL     1       0.344   0.084   8.314  1.00  0.00     0.118 C 
BRANCH  31  32
ATOM     32  N   UNL     1       1.197   0.781   9.275  1.00  0.00    -0.352 N 
ATOM     33  C   UNL     1       0.858   1.518  10.387  1.00  0.00     0.251 C 
ATOM     34  H   UNL     1       2.163   0.713   9.101  1.00  0.00     0.163 HD
ATOM     35  O   UNL     1       1.712   2.188  10.963  1.00  0.00    -0.269 OA
BRANCH  33  36
ATOM     36  C   UNL     1      -0.543   1.528  10.856  1.00  0.00     0.039 A 
ATOM     37  C   UNL     1      -1.149   2.742  11.193  1.00  0.00     0.014 A 
ATOM     38  C   UNL     1      -1.270   0.340  10.917  1.00  0.00     0.014 A 
ATOM     39  C   UNL     1      -2.517   2.774  11.478  1.00  0.00     0.010 A 
ATOM     40  C   UNL     1      -2.644   0.388  11.099  1.00  0.00     0.010 A 
ATOM     41  C   UNL     1      -3.287   1.606  11.372  1.00  0.00    -0.014 A 
BRANCH  41  42
ATOM     42  C   UNL     1      -4.763   1.594  11.536  1.00  0.00     0.031 A 
ATOM     43  C   UNL     1      -5.375   0.707  12.586  1.00  0.00     0.074 A 
ATOM     44  C   UNL     1      -5.549   2.250  10.659  1.00  0.00     0.049 A 
ATOM     45  N   UNL     1      -6.616   0.325  12.727  1.00  0.00    -0.248 NA
ATOM     46  C   UNL     1      -4.451   0.136  13.581  1.00  0.00     0.031 C 
ATOM     47  C   UNL     1      -5.079   3.115   9.575  1.00  0.00     0.029 A 
ATOM     48  N   UNL     1      -6.915   2.261  10.519  1.00  0.00    -0.354 N 
ATOM     49  C   UNL     1      -6.614  -0.571  13.791  1.00  0.00     0.074 A 
ATOM     50  C   UNL     1      -5.244  -0.699  14.236  1.00  0.00     0.031 C 
ATOM     51  C   UNL     1      -6.137   3.576   8.887  1.00  0.00     0.029 A 
ATOM     52  C   UNL     1      -7.355   2.997   9.443  1.00  0.00     0.049 A 
ATOM     53  H   UNL     1      -7.523   1.787  11.132  1.00  0.00     0.167 HD
ATOM     54  C   UNL     1      -7.664  -1.216  14.352  1.00  0.00     0.037 A 
ATOM     55  C   UNL     1      -8.596   3.163   8.943  1.00  0.00     0.037 A 
ATOM     56  C   UNL     1      -9.029  -1.035  13.939  1.00  0.00     0.049 A 
ATOM     57  C   UNL     1      -9.752   2.462   9.604  1.00  0.00     0.074 A 
ATOM     58  C   UNL     1     -10.173  -1.593  14.480  1.00  0.00     0.029 A 
ATOM     59  N   UNL     1      -9.435  -0.221  12.892  1.00  0.00    -0.354 N 
ATOM     60  N   UNL     1      -9.738   1.637  10.624  1.00  0.00    -0.248 NA
ATOM     61  C   UNL     1     -11.091   2.712   9.050  1.00  0.00     0.031 C 
ATOM     62  C   UNL     1     -11.271  -1.135  13.745  1.00  0.00     0.029 A 
ATOM     63  C   UNL     1     -10.813  -0.262  12.771  1.00  0.00     0.049 A 
ATOM     64  H   UNL     1      -8.833   0.308  12.320  1.00  0.00     0.167 HD
ATOM     65  C   UNL     1     -11.066   1.297  10.855  1.00  0.00     0.074 A 
ATOM     66  C   UNL     1     -11.857   2.001   9.868  1.00  0.00     0.031 C 
ATOM     67  C   UNL     1     -11.583   0.477  11.802  1.00  0.00     0.037 A 
BRANCH  54  68
ATOM     68  C   UNL     1      -7.374  -2.171  15.476  1.00  0.00     0.058 A 
ATOM     69  C   UNL     1      -6.963  -1.719  16.740  1.00  0.00     0.135 A 
ATOM     70  C   UNL     1      -7.528  -3.555  15.293  1.00  0.00     0.135 A 
ATOM     71  F   UNL     1      -6.784  -0.408  16.964  1.00  0.00    -0.206 F 
ATOM     72  C   UNL     1      -6.681  -2.607  17.773  1.00  0.00     0.059 A 
ATOM     73  C   UNL     1      -7.279  -4.459  16.321  1.00  0.00     0.059 A 
ATOM     74  F   UNL     1      -7.918  -4.041  14.104  1.00  0.00    -0.206 F 
ATOM     75  C   UNL     1      -6.838  -3.976  17.552  1.00  0.00     0.060 A 
BRANCH  75  76
ATOM     76  S   UNL     1      -6.464  -5.116  18.900  1.00  0.00     0.124 S 
ATOM     77  O   UNL     1      -5.004  -5.107  18.889  1.00  0.00    -0.237 OA
ATOM     78  O   UNL     1      -7.091  -4.465  20.046  1.00  0.00    -0.237 OA
ATOM     79  O   UNL     1      -7.088  -6.364  18.472  1.00  0.00    -0.744 OA
ENDBRANCH  75  76
ENDBRANCH  54  68
BRANCH  55  80
ATOM     80  C   UNL     1      -8.810   4.040   7.762  1.00  0.00     0.058 A 
ATOM     81  C   UNL     1      -9.426   5.292   7.903  1.00  0.00     0.135 A 
ATOM     82  C   UNL     1      -8.388   3.660   6.478  1.00  0.00     0.135 A 
ATOM     83  F   UNL     1      -9.852   5.696   9.110  1.00  0.00    -0.206 F 
ATOM     84  C   UNL     1      -9.630   6.132   6.814  1.00  0.00     0.059 A 
ATOM     85  C   UNL     1      -8.560   4.493   5.376  1.00  0.00     0.059 A 
ATOM     86  F   UNL     1      -7.776   2.480   6.293  1.00  0.00    -0.206 F 
ATOM     87  C   UNL     1      -9.191   5.724   5.553  1.00  0.00     0.060 A 
BRANCH  87  88
ATOM     88  S   UNL     1      -9.411   6.845   4.154  1.00  0.00     0.124 S 
ATOM     89  O   UNL     1     -10.841   6.714   3.896  1.00  0.00    -0.237 OA
ATOM     90  O   UNL     1      -8.977   8.122   4.711  1.00  0.00    -0.237 OA
ATOM     91  O   UNL     1      -8.530   6.284   3.134  1.00  0.00    -0.744 OA
ENDBRANCH  87  88
ENDBRANCH  55  80
BRANCH  67  92
ATOM     92  C   UNL     1     -13.076   0.338  11.870  1.00  0.00     0.058 A 
ATOM     93  C   UNL     1     -13.782  -0.473  10.970  1.00  0.00     0.135 A 
ATOM     94  C   UNL     1     -13.790   0.937  12.921  1.00  0.00     0.135 A 
ATOM     95  F   UNL     1     -13.144  -1.060   9.946  1.00  0.00    -0.206 F 
ATOM     96  C   UNL     1     -15.149  -0.690  11.113  1.00  0.00     0.059 A 
ATOM     97  C   UNL     1     -15.152   0.718  13.094  1.00  0.00     0.059 A 
ATOM     98  F   UNL     1     -13.155   1.716  13.811  1.00  0.00    -0.206 F 
ATOM     99  C   UNL     1     -15.823  -0.098  12.184  1.00  0.00     0.060 A 
BRANCH  99 100
ATOM    100  S   UNL     1     -17.578  -0.457  12.408  1.00  0.00     0.124 S 
ATOM    101  O   UNL     1     -18.181   0.358  11.359  1.00  0.00    -0.237 OA
ATOM    102  O   UNL     1     -17.631  -1.901  12.199  1.00  0.00    -0.237 OA
ATOM    103  O   UNL     1     -17.842  -0.019  13.775  1.00  0.00    -0.744 OA
ENDBRANCH  99 100
ENDBRANCH  67  92
ENDBRANCH  41  42
ENDBRANCH  33  36
ENDBRANCH  31  32
ENDBRANCH   1  31
TORSDOF 16
