REMARK SMILES [NH3+]CC[C@@H](C(=O)NCCCNC(=O)c1ccc(-c2c3nc(c(-c4c(F)cc(S(=O)(=O)[O-])cc4F)c4ccc([nH]4)c(-c4c(F)cc(S(=O)(=O)[O-])cc4F)c4nc(c(-c5c(F)cc(S(=O)(=O)[O-])cc5F)c5ccc2[nH]5)C=C4)C=C3)cc1)c1ccc(F)cc1
REMARK SMILES IDX 9 1 8 2 7 3 5 4 6 5 4 7 3 8 2 9 1 10 80 14 81 15 86 16 82 17
REMARK SMILES IDX 85 18 83 19 84 20 10 21 11 22 12 23 13 25 14 26 15 27 79 28
REMARK SMILES IDX 16 29 78 30 17 31 18 32 19 33 72 34 20 35 77 36 71 37 73 38
REMARK SMILES IDX 21 39 76 40 70 41 69 42 22 44 56 45 35 46 55 47 36 48 39 49
REMARK SMILES IDX 54 50 74 51 37 52 38 53 53 55 75 56 40 57 23 58 24 59 33 60
REMARK SMILES IDX 25 61 26 62 32 63 34 64 27 65 28 66 29 67 30 68 31 69 57 70
REMARK SMILES IDX 58 71 67 72 59 73 60 74 66 75 68 76 61 77 62 78 63 79 64 80
REMARK SMILES IDX 65 81 41 82 42 83 51 84 43 85 44 86 50 87 52 88 45 89 46 90
REMARK SMILES IDX 47 91 48 92 49 93
REMARK H PARENT 7 6 1 11 1 12 1 13 11 24 73 43 39 54
REMARK Flexibility Score: inf
ROOT
ATOM      1  C   UNL     1      -1.627  -0.389  -0.689  1.00  0.00     0.042 C 
ENDROOT
BRANCH   1   2
ATOM      2  C   UNL     1      -1.337   0.342   0.620  1.00  0.00     0.117 C 
BRANCH   2   3
ATOM      3  N   UNL     1      -1.703  -0.489   1.748  1.00  0.00    -0.356 N 
ATOM      4  C   UNL     1      -0.954  -1.284   2.559  1.00  0.00     0.227 C 
ATOM      5  O   UNL     1      -1.595  -2.088   3.244  1.00  0.00    -0.274 OA
ATOM      6  H   UNL     1      -2.663  -0.478   1.966  1.00  0.00     0.163 HD
BRANCH   4   7
ATOM      7  C   UNL     1       0.583  -1.130   2.676  1.00  0.00     0.114 C 
BRANCH   7   8
ATOM      8  C   UNL     1       1.407  -1.994   1.688  1.00  0.00     0.079 C 
BRANCH   8   9
ATOM      9  C   UNL     1       1.593  -1.510   0.252  1.00  0.00     0.259 C 
BRANCH   9  10
ATOM     10  N   UNL     1       2.235  -0.213   0.099  1.00  0.00    -0.358 N 
ATOM     11  H   UNL     1       2.311   0.014  -0.892  1.00  0.00     0.344 HD
ATOM     12  H   UNL     1       3.167  -0.244   0.513  1.00  0.00     0.344 HD
ATOM     13  H   UNL     1       1.678   0.499   0.570  1.00  0.00     0.344 HD
ENDBRANCH   9  10
ENDBRANCH   8   9
ENDBRANCH   7   8
BRANCH   7  14
ATOM     14  C   UNL     1       1.007  -1.520   4.111  1.00  0.00    -0.035 A 
ATOM     15  C   UNL     1       0.993  -2.873   4.517  1.00  0.00     0.007 A 
ATOM     16  C   UNL     1       1.361  -0.542   5.052  1.00  0.00     0.007 A 
ATOM     17  C   UNL     1       1.329  -3.238   5.819  1.00  0.00     0.039 A 
ATOM     18  C   UNL     1       1.696  -0.912   6.359  1.00  0.00     0.039 A 
ATOM     19  C   UNL     1       1.676  -2.253   6.729  1.00  0.00     0.123 A 
ATOM     20  F   UNL     1       1.987  -2.598   7.986  1.00  0.00    -0.207 F 
ENDBRANCH   7  14
ENDBRANCH   4   7
ENDBRANCH   2   3
ENDBRANCH   1   2
BRANCH   1  21
ATOM     21  C   UNL     1      -3.102  -0.450  -1.050  1.00  0.00     0.118 C 
BRANCH  21  22
ATOM     22  N   UNL     1      -3.600   0.809  -1.579  1.00  0.00    -0.352 N 
ATOM     23  C   UNL     1      -4.091   1.095  -2.834  1.00  0.00     0.251 C 
ATOM     24  H   UNL     1      -3.585   1.566  -0.950  1.00  0.00     0.163 HD
ATOM     25  O   UNL     1      -4.285   2.260  -3.158  1.00  0.00    -0.269 OA
BRANCH  23  26
ATOM     26  C   UNL     1      -4.355  -0.002  -3.795  1.00  0.00     0.039 A 
ATOM     27  C   UNL     1      -3.970   0.153  -5.129  1.00  0.00     0.014 A 
ATOM     28  C   UNL     1      -4.976  -1.183  -3.382  1.00  0.00     0.014 A 
ATOM     29  C   UNL     1      -4.139  -0.905  -6.029  1.00  0.00     0.010 A 
ATOM     30  C   UNL     1      -5.053  -2.266  -4.251  1.00  0.00     0.010 A 
ATOM     31  C   UNL     1      -4.644  -2.138  -5.587  1.00  0.00    -0.014 A 
BRANCH  31  32
ATOM     32  C   UNL     1      -4.783  -3.308  -6.495  1.00  0.00     0.031 A 
ATOM     33  C   UNL     1      -6.144  -3.912  -6.726  1.00  0.00     0.074 A 
ATOM     34  C   UNL     1      -3.688  -3.883  -7.032  1.00  0.00     0.049 A 
ATOM     35  N   UNL     1      -6.465  -5.017  -7.346  1.00  0.00    -0.248 NA
ATOM     36  C   UNL     1      -7.293  -3.192  -6.151  1.00  0.00     0.031 C 
ATOM     37  C   UNL     1      -2.311  -3.414  -6.857  1.00  0.00     0.029 A 
ATOM     38  N   UNL     1      -3.556  -5.003  -7.817  1.00  0.00    -0.354 N 
ATOM     39  C   UNL     1      -7.844  -5.138  -7.213  1.00  0.00     0.074 A 
ATOM     40  C   UNL     1      -8.291  -4.024  -6.407  1.00  0.00     0.031 C 
ATOM     41  C   UNL     1      -1.479  -4.229  -7.525  1.00  0.00     0.029 A 
ATOM     42  C   UNL     1      -2.252  -5.308  -8.133  1.00  0.00     0.049 A 
ATOM     43  H   UNL     1      -4.324  -5.537  -8.126  1.00  0.00     0.167 HD
ATOM     44  C   UNL     1      -8.666  -6.081  -7.733  1.00  0.00     0.037 A 
ATOM     45  C   UNL     1      -1.736  -6.349  -8.816  1.00  0.00     0.037 A 
ATOM     46  C   UNL     1      -8.214  -7.169  -8.560  1.00  0.00     0.049 A 
ATOM     47  C   UNL     1      -2.667  -7.393  -9.375  1.00  0.00     0.074 A 
ATOM     48  C   UNL     1      -8.971  -8.148  -9.180  1.00  0.00     0.029 A 
ATOM     49  N   UNL     1      -6.889  -7.422  -8.883  1.00  0.00    -0.354 N 
ATOM     50  N   UNL     1      -3.973  -7.467  -9.278  1.00  0.00    -0.248 NA
ATOM     51  C   UNL     1      -2.058  -8.492 -10.139  1.00  0.00     0.031 C 
ATOM     52  C   UNL     1      -8.100  -9.021  -9.836  1.00  0.00     0.029 A 
ATOM     53  C   UNL     1      -6.805  -8.551  -9.679  1.00  0.00     0.049 A 
ATOM     54  H   UNL     1      -6.122  -6.879  -8.589  1.00  0.00     0.167 HD
ATOM     55  C   UNL     1      -4.345  -8.594 -10.004  1.00  0.00     0.074 A 
ATOM     56  C   UNL     1      -3.127  -9.173 -10.530  1.00  0.00     0.031 C 
ATOM     57  C   UNL     1      -5.585  -9.098 -10.220  1.00  0.00     0.037 A 
BRANCH  44  58
ATOM     58  C   UNL     1     -10.136  -5.978  -7.424  1.00  0.00     0.058 A 
ATOM     59  C   UNL     1     -10.931  -4.945  -7.946  1.00  0.00     0.135 A 
ATOM     60  C   UNL     1     -10.766  -6.947  -6.626  1.00  0.00     0.135 A 
ATOM     61  F   UNL     1     -10.380  -3.982  -8.703  1.00  0.00    -0.206 F 
ATOM     62  C   UNL     1     -12.290  -4.857  -7.661  1.00  0.00     0.059 A 
ATOM     63  C   UNL     1     -12.131  -6.898  -6.356  1.00  0.00     0.059 A 
ATOM     64  F   UNL     1     -10.056  -7.958  -6.101  1.00  0.00    -0.206 F 
ATOM     65  C   UNL     1     -12.881  -5.839  -6.865  1.00  0.00     0.060 A 
BRANCH  65  66
ATOM     66  S   UNL     1     -14.646  -5.712  -6.512  1.00  0.00     0.124 S 
ATOM     67  O   UNL     1     -14.677  -4.581  -5.590  1.00  0.00    -0.237 OA
ATOM     68  O   UNL     1     -15.212  -5.467  -7.835  1.00  0.00    -0.237 OA
ATOM     69  O   UNL     1     -14.970  -7.008  -5.925  1.00  0.00    -0.744 OA
ENDBRANCH  65  66
ENDBRANCH  44  58
BRANCH  45  70
ATOM     70  C   UNL     1      -0.264  -6.449  -9.022  1.00  0.00     0.058 A 
ATOM     71  C   UNL     1       0.300  -6.274 -10.294  1.00  0.00     0.135 A 
ATOM     72  C   UNL     1       0.608  -6.708  -7.953  1.00  0.00     0.135 A 
ATOM     73  F   UNL     1      -0.492  -6.031 -11.351  1.00  0.00    -0.206 F 
ATOM     74  C   UNL     1       1.672  -6.369 -10.505  1.00  0.00     0.059 A 
ATOM     75  C   UNL     1       1.987  -6.779  -8.133  1.00  0.00     0.059 A 
ATOM     76  F   UNL     1       0.123  -6.867  -6.712  1.00  0.00    -0.206 F 
ATOM     77  C   UNL     1       2.508  -6.619  -9.416  1.00  0.00     0.060 A 
BRANCH  77  78
ATOM     78  S   UNL     1       4.291  -6.695  -9.694  1.00  0.00     0.124 S 
ATOM     79  O   UNL     1       4.424  -7.960 -10.407  1.00  0.00    -0.237 OA
ATOM     80  O   UNL     1       4.529  -5.489 -10.481  1.00  0.00    -0.237 OA
ATOM     81  O   UNL     1       4.843  -6.672  -8.342  1.00  0.00    -0.744 OA
ENDBRANCH  77  78
ENDBRANCH  45  70
BRANCH  57  82
ATOM     82  C   UNL     1      -5.711 -10.299 -11.117  1.00  0.00     0.058 A 
ATOM     83  C   UNL     1      -5.331 -11.583 -10.700  1.00  0.00     0.135 A 
ATOM     84  C   UNL     1      -6.315 -10.169 -12.379  1.00  0.00     0.135 A 
ATOM     85  F   UNL     1      -4.742 -11.761  -9.507  1.00  0.00    -0.206 F 
ATOM     86  C   UNL     1      -5.541 -12.698 -11.506  1.00  0.00     0.059 A 
ATOM     87  C   UNL     1      -6.561 -11.273 -13.188  1.00  0.00     0.059 A 
ATOM     88  F   UNL     1      -6.705  -8.963 -12.821  1.00  0.00    -0.206 F 
ATOM     89  C   UNL     1      -6.166 -12.534 -12.744  1.00  0.00     0.060 A 
BRANCH  89  90
ATOM     90  S   UNL     1      -6.497 -13.998 -13.747  1.00  0.00     0.124 S 
ATOM     91  O   UNL     1      -5.157 -14.353 -14.203  1.00  0.00    -0.237 OA
ATOM     92  O   UNL     1      -7.100 -14.909 -12.779  1.00  0.00    -0.237 OA
ATOM     93  O   UNL     1      -7.402 -13.505 -14.782  1.00  0.00    -0.744 OA
ENDBRANCH  89  90
ENDBRANCH  57  82
ENDBRANCH  31  32
ENDBRANCH  23  26
ENDBRANCH  21  22
ENDBRANCH   1  21
TORSDOF 17
