REMARK SMILES CCC[C@@H]1SC[C@H](C(=O)NCCCNC(=O)c2ccc(-c3c4nc(c(-c5c(F)cc(S(=O)(=O)[O-])cc5F)c5ccc([nH]5)c(-c5c(F)cc(S(=O)(=O)[O-])cc5F)c5nc(c(-c6c(F)cc(S(=O)(=O)[O-])cc6F)c6ccc3[nH]6)C=C5)C=C4)cc2)N1C(=O)C[NH+]1CCC([NH3+])CC1
REMARK SMILES IDX 11 1 10 2 8 3 9 4 7 6 4 7 5 8 83 9 6 10 3 11 2 12 1 13 84 14
REMARK SMILES IDX 85 15 86 16 87 17 88 18 93 19 89 21 92 22 90 23 91 24 12 28
REMARK SMILES IDX 13 29 14 30 15 31 16 33 17 34 18 35 82 36 19 37 81 38 20 39
REMARK SMILES IDX 21 40 22 41 75 42 23 43 80 44 74 45 76 46 24 47 79 48 73 49
REMARK SMILES IDX 72 50 25 52 59 53 38 54 58 55 39 56 42 57 57 58 77 59 40 60
REMARK SMILES IDX 41 61 56 63 78 64 43 65 26 66 27 67 36 68 28 69 29 70 35 71
REMARK SMILES IDX 37 72 30 73 31 74 32 75 33 76 34 77 60 78 61 79 70 80 62 81
REMARK SMILES IDX 63 82 69 83 71 84 64 85 65 86 66 87 67 88 68 89 44 90 45 91
REMARK SMILES IDX 54 92 46 93 47 94 53 95 55 96 48 97 49 98 50 99 51 100
REMARK SMILES IDX 52 101
REMARK H PARENT 10 5 87 20 91 25 91 26 91 27 14 32 76 51 42 62
REMARK Flexibility Score: inf
ROOT
ATOM      1  C   UNL     1      -2.918   2.374  -1.117  1.00  0.00     0.117 C 
ENDROOT
BRANCH   1   2
ATOM      2  N   UNL     1      -3.209   1.019  -0.669  1.00  0.00    -0.354 N 
ATOM      3  C   UNL     1      -2.460  -0.129  -0.699  1.00  0.00     0.243 C 
ATOM      4  O   UNL     1      -2.993  -1.167  -0.298  1.00  0.00    -0.273 OA
ATOM      5  H   UNL     1      -4.104   0.908  -0.274  1.00  0.00     0.163 HD
BRANCH   3   6
ATOM      6  C   UNL     1      -1.002  -0.085  -1.212  1.00  0.00     0.185 C 
ATOM      7  C   UNL     1       0.749  -0.699  -2.799  1.00  0.00     0.144 C 
ATOM      8  S   UNL     1       1.360  -1.306  -1.171  1.00  0.00    -0.134 SA
ATOM      9  N   UNL     1      -0.680  -0.443  -2.609  1.00  0.00    -0.313 N 
ATOM     10  C   UNL     1      -0.192  -1.011  -0.305  1.00  0.00     0.107 C 
BRANCH   7  11
ATOM     11  C   UNL     1       1.142  -1.683  -3.913  1.00  0.00     0.036 C 
BRANCH  11  12
ATOM     12  C   UNL     1       2.516  -1.370  -4.537  1.00  0.00    -0.000 C 
ATOM     13  C   UNL     1       3.705  -1.582  -3.614  1.00  0.00     0.004 C 
ENDBRANCH  11  12
ENDBRANCH   7  11
BRANCH   9  14
ATOM     14  C   UNL     1      -1.573  -0.039  -3.583  1.00  0.00     0.279 C 
ATOM     15  O   UNL     1      -2.790  -0.129  -3.369  1.00  0.00    -0.268 OA
BRANCH  14  16
ATOM     16  C   UNL     1      -1.151   0.489  -4.962  1.00  0.00     0.363 C 
BRANCH  16  17
ATOM     17  N   UNL     1       0.137   1.208  -5.025  1.00  0.00    -0.327 N 
ATOM     18  C   UNL     1       0.461   1.546  -6.428  1.00  0.00     0.268 C 
ATOM     19  C   UNL     1       0.231   2.401  -4.171  1.00  0.00     0.268 C 
ATOM     20  H   UNL     1       0.828   0.561  -4.644  1.00  0.00     0.348 HD
ATOM     21  C   UNL     1      -0.313   2.746  -6.990  1.00  0.00     0.126 C 
ATOM     22  C   UNL     1      -0.518   3.633  -4.665  1.00  0.00     0.126 C 
ATOM     23  C   UNL     1      -0.113   3.970  -6.096  1.00  0.00     0.192 C 
BRANCH  23  24
ATOM     24  N   UNL     1      -0.882   5.122  -6.562  1.00  0.00    -0.355 N 
ATOM     25  H   UNL     1      -1.877   4.900  -6.534  1.00  0.00     0.344 HD
ATOM     26  H   UNL     1      -0.611   5.349  -7.519  1.00  0.00     0.344 HD
ATOM     27  H   UNL     1      -0.696   5.922  -5.957  1.00  0.00     0.344 HD
ENDBRANCH  23  24
ENDBRANCH  16  17
ENDBRANCH  14  16
ENDBRANCH   9  14
ENDBRANCH   3   6
ENDBRANCH   1   2
BRANCH   1  28
ATOM     28  C   UNL     1      -3.586   2.752  -2.438  1.00  0.00     0.042 C 
BRANCH  28  29
ATOM     29  C   UNL     1      -5.095   2.550  -2.470  1.00  0.00     0.118 C 
BRANCH  29  30
ATOM     30  N   UNL     1      -5.794   3.614  -1.762  1.00  0.00    -0.352 N 
ATOM     31  C   UNL     1      -6.644   4.573  -2.260  1.00  0.00     0.251 C 
ATOM     32  H   UNL     1      -5.636   3.651  -0.790  1.00  0.00     0.163 HD
ATOM     33  O   UNL     1      -6.946   5.539  -1.566  1.00  0.00    -0.269 OA
BRANCH  31  34
ATOM     34  C   UNL     1      -7.178   4.450  -3.636  1.00  0.00     0.039 A 
ATOM     35  C   UNL     1      -7.197   5.575  -4.465  1.00  0.00     0.014 A 
ATOM     36  C   UNL     1      -7.673   3.230  -4.104  1.00  0.00     0.014 A 
ATOM     37  C   UNL     1      -7.652   5.461  -5.783  1.00  0.00     0.010 A 
ATOM     38  C   UNL     1      -8.059   3.102  -5.437  1.00  0.00     0.010 A 
ATOM     39  C   UNL     1      -8.055   4.215  -6.291  1.00  0.00    -0.014 A 
BRANCH  39  40
ATOM     40  C   UNL     1      -8.475   4.046  -7.708  1.00  0.00     0.031 A 
ATOM     41  C   UNL     1      -9.873   3.597  -8.034  1.00  0.00     0.074 A 
ATOM     42  C   UNL     1      -7.572   4.202  -8.697  1.00  0.00     0.049 A 
ATOM     43  N   UNL     1     -10.391   3.276  -9.193  1.00  0.00    -0.248 NA
ATOM     44  C   UNL     1     -10.803   3.463  -6.902  1.00  0.00     0.031 C 
ATOM     45  C   UNL     1      -6.171   4.582  -8.511  1.00  0.00     0.029 A 
ATOM     46  N   UNL     1      -7.693   4.032 -10.054  1.00  0.00    -0.354 N 
ATOM     47  C   UNL     1     -11.697   2.880  -8.927  1.00  0.00     0.074 A 
ATOM     48  C   UNL     1     -11.874   2.955  -7.493  1.00  0.00     0.031 C 
ATOM     49  C   UNL     1      -5.562   4.615  -9.707  1.00  0.00     0.029 A 
ATOM     50  C   UNL     1      -6.516   4.221 -10.740  1.00  0.00     0.049 A 
ATOM     51  H   UNL     1      -8.541   3.797 -10.494  1.00  0.00     0.167 HD
ATOM     52  C   UNL     1     -12.665   2.506  -9.799  1.00  0.00     0.037 A 
ATOM     53  C   UNL     1      -6.229   4.075 -12.048  1.00  0.00     0.037 A 
ATOM     54  C   UNL     1     -12.489   2.449 -11.227  1.00  0.00     0.049 A 
ATOM     55  C   UNL     1      -7.318   3.674 -13.003  1.00  0.00     0.074 A 
ATOM     56  C   UNL     1     -13.424   2.142 -12.199  1.00  0.00     0.029 A 
ATOM     57  N   UNL     1     -11.294   2.699 -11.888  1.00  0.00    -0.354 N 
ATOM     58  N   UNL     1      -8.567   3.368 -12.744  1.00  0.00    -0.248 NA
ATOM     59  C   UNL     1      -6.965   3.610 -14.428  1.00  0.00     0.031 C 
ATOM     60  C   UNL     1     -12.785   2.165 -13.444  1.00  0.00     0.029 A 
ATOM     61  C   UNL     1     -11.463   2.534 -13.253  1.00  0.00     0.049 A 
ATOM     62  H   UNL     1     -10.450   2.954 -11.450  1.00  0.00     0.167 HD
ATOM     63  C   UNL     1      -9.155   3.094 -13.974  1.00  0.00     0.074 A 
ATOM     64  C   UNL     1      -8.127   3.281 -14.978  1.00  0.00     0.031 C 
ATOM     65  C   UNL     1     -10.431   2.724 -14.245  1.00  0.00     0.037 A 
BRANCH  52  66
ATOM     66  C   UNL     1     -14.001   2.122  -9.220  1.00  0.00     0.058 A 
ATOM     67  C   UNL     1     -14.843   3.070  -8.614  1.00  0.00     0.135 A 
ATOM     68  C   UNL     1     -14.443   0.790  -9.262  1.00  0.00     0.135 A 
ATOM     69  F   UNL     1     -14.467   4.357  -8.536  1.00  0.00    -0.206 F 
ATOM     70  C   UNL     1     -16.048   2.702  -8.023  1.00  0.00     0.059 A 
ATOM     71  C   UNL     1     -15.660   0.405  -8.705  1.00  0.00     0.059 A 
ATOM     72  F   UNL     1     -13.684  -0.157  -9.835  1.00  0.00    -0.206 F 
ATOM     73  C   UNL     1     -16.443   1.365  -8.065  1.00  0.00     0.060 A 
BRANCH  73  74
ATOM     74  S   UNL     1     -17.989   0.895  -7.261  1.00  0.00     0.124 S 
ATOM     75  O   UNL     1     -17.605   0.934  -5.853  1.00  0.00    -0.237 OA
ATOM     76  O   UNL     1     -18.902   1.946  -7.696  1.00  0.00    -0.237 OA
ATOM     77  O   UNL     1     -18.264  -0.433  -7.801  1.00  0.00    -0.744 OA
ENDBRANCH  73  74
ENDBRANCH  52  66
BRANCH  53  78
ATOM     78  C   UNL     1      -4.841   4.323 -12.519  1.00  0.00     0.058 A 
ATOM     79  C   UNL     1      -4.516   5.480 -13.241  1.00  0.00     0.135 A 
ATOM     80  C   UNL     1      -3.800   3.437 -12.199  1.00  0.00     0.135 A 
ATOM     81  F   UNL     1      -5.479   6.353 -13.577  1.00  0.00    -0.206 F 
ATOM     82  C   UNL     1      -3.208   5.756 -13.624  1.00  0.00     0.059 A 
ATOM     83  C   UNL     1      -2.481   3.701 -12.553  1.00  0.00     0.059 A 
ATOM     84  F   UNL     1      -4.056   2.325 -11.492  1.00  0.00    -0.206 F 
ATOM     85  C   UNL     1      -2.195   4.864 -13.265  1.00  0.00     0.060 A 
BRANCH  85  86
ATOM     86  S   UNL     1      -0.484   5.281 -13.669  1.00  0.00     0.124 S 
ATOM     87  O   UNL     1      -0.446   5.013 -15.101  1.00  0.00    -0.237 OA
ATOM     88  O   UNL     1      -0.411   6.685 -13.277  1.00  0.00    -0.237 OA
ATOM     89  O   UNL     1       0.287   4.367 -12.831  1.00  0.00    -0.744 OA
ENDBRANCH  85  86
ENDBRANCH  53  78
BRANCH  65  90
ATOM     90  C   UNL     1     -10.805   2.522 -15.688  1.00  0.00     0.058 A 
ATOM     91  C   UNL     1     -10.375   1.401 -16.413  1.00  0.00     0.135 A 
ATOM     92  C   UNL     1     -11.654   3.435 -16.334  1.00  0.00     0.135 A 
ATOM     93  F   UNL     1      -9.556   0.502 -15.845  1.00  0.00    -0.206 F 
ATOM     94  C   UNL     1     -10.760   1.199 -17.735  1.00  0.00     0.059 A 
ATOM     95  C   UNL     1     -12.072   3.241 -17.647  1.00  0.00     0.059 A 
ATOM     96  F   UNL     1     -12.101   4.521 -15.683  1.00  0.00    -0.206 F 
ATOM     97  C   UNL     1     -11.611   2.124 -18.343  1.00  0.00     0.060 A 
BRANCH  97  98
ATOM     98  S   UNL     1     -12.136   1.831 -20.046  1.00  0.00     0.124 S 
ATOM     99  O   UNL     1     -10.925   2.167 -20.788  1.00  0.00    -0.237 OA
ATOM    100  O   UNL     1     -12.495   0.417 -20.024  1.00  0.00    -0.237 OA
ATOM    101  O   UNL     1     -13.255   2.753 -20.220  1.00  0.00    -0.744 OA
ENDBRANCH  97  98
ENDBRANCH  65  90
ENDBRANCH  39  40
ENDBRANCH  31  34
ENDBRANCH  29  30
ENDBRANCH  28  29
ENDBRANCH   1  28
TORSDOF 19
