REMARK SMILES CC1(C)CCN(S(=O)(=O)c2ccc(O)c(C(=O)NCCCNC(=O)c3ccc(-c4c5nc(c(-c6c(F)cc(S(=O)(=O)[O-])cc6F)c6ccc([nH]6)c(-c6c(F)cc(S(=O)(=O)[O-])cc6F)c6nc(c(-c7c(F)cc(S(=O)(=O)[O-])cc7F)c7ccc4[nH]7)C=C6)C=C5)cc3)c2)C1
REMARK SMILES IDX 20 1 19 2 18 3 16 4 17 5 15 7 10 8 11 9 91 10 12 11 13 12
REMARK SMILES IDX 7 13 8 14 9 15 6 16 1 17 2 18 3 19 4 20 92 21 5 22 14 23
REMARK SMILES IDX 21 25 22 26 23 27 24 29 25 30 26 31 90 32 27 33 89 34 28 35
REMARK SMILES IDX 29 36 30 37 83 38 31 39 88 40 82 41 84 42 32 43 87 44 81 45
REMARK SMILES IDX 80 46 33 48 67 49 46 50 66 51 47 52 50 53 65 54 85 55 48 56
REMARK SMILES IDX 49 57 64 59 86 60 51 61 34 62 35 63 44 64 36 65 37 66 43 67
REMARK SMILES IDX 45 68 38 69 39 70 40 71 41 72 42 73 68 74 69 75 78 76 70 77
REMARK SMILES IDX 71 78 77 79 79 80 72 81 73 82 74 83 75 84 76 85 52 86 53 87
REMARK SMILES IDX 62 88 54 89 55 90 61 91 63 92 56 93 57 94 58 95 59 96 60 97
REMARK H PARENT 18 6 14 24 22 28 84 47 50 58
REMARK Flexibility Score: inf
ROOT
ATOM      1  C   UNL     1       3.785   9.239   1.001  1.00  0.00     0.042 C 
ENDROOT
BRANCH   1   2
ATOM      2  C   UNL     1       3.812   8.302  -0.209  1.00  0.00     0.118 C 
BRANCH   2   3
ATOM      3  N   UNL     1       4.773   7.234  -0.035  1.00  0.00    -0.352 N 
ATOM      4  C   UNL     1       4.666   5.935   0.383  1.00  0.00     0.255 C 
ATOM      5  O   UNL     1       5.717   5.285   0.361  1.00  0.00    -0.269 OA
ATOM      6  H   UNL     1       5.694   7.496  -0.264  1.00  0.00     0.163 HD
BRANCH   4   7
ATOM      7  C   UNL     1       3.418   5.228   0.823  1.00  0.00     0.082 A 
ATOM      8  C   UNL     1       2.459   3.004   1.226  1.00  0.00     0.083 A 
ATOM      9  C   UNL     1       1.370   3.580   1.875  1.00  0.00     0.025 A 
ATOM     10  C   UNL     1       3.473   3.817   0.705  1.00  0.00     0.039 A 
ATOM     11  C   UNL     1       1.266   4.962   1.953  1.00  0.00     0.048 A 
ATOM     12  C   UNL     1       2.289   5.778   1.452  1.00  0.00     0.128 A 
BRANCH   8  13
ATOM     13  S   UNL     1       2.645   1.235   1.255  1.00  0.00     0.243 S 
ATOM     14  O   UNL     1       2.217   0.778   2.566  1.00  0.00    -0.207 OA
ATOM     15  O   UNL     1       3.953   0.901   0.745  1.00  0.00    -0.207 OA
BRANCH  13  16
ATOM     16  N   UNL     1       1.501   0.660   0.123  1.00  0.00    -0.197 NA
ATOM     17  C   UNL     1      -1.004  -0.147  -1.630  1.00  0.00     0.012 C 
ATOM     18  C   UNL     1      -0.744  -0.199  -0.117  1.00  0.00    -0.020 C 
ATOM     19  C   UNL     1      -2.081  -0.284   0.624  1.00  0.00     0.012 C 
ATOM     20  C   UNL     1       0.189  -1.349   0.258  1.00  0.00     0.024 C 
ATOM     21  C   UNL     1       0.072   1.010   0.358  1.00  0.00     0.109 C 
ATOM     22  C   UNL     1       1.577  -0.820  -0.087  1.00  0.00     0.103 C 
ENDBRANCH  13  16
ENDBRANCH   8  13
BRANCH  12  23
ATOM     23  O   UNL     1       2.142   7.111   1.677  1.00  0.00    -0.507 OA
ATOM     24  H   UNL     1       1.371   7.432   2.101  1.00  0.00     0.293 HD
ENDBRANCH  12  23
ENDBRANCH   4   7
ENDBRANCH   2   3
ENDBRANCH   1   2
BRANCH   1  25
ATOM     25  C   UNL     1       4.909  10.266   1.029  1.00  0.00     0.118 C 
BRANCH  25  26
ATOM     26  N   UNL     1       4.719  11.302   0.030  1.00  0.00    -0.352 N 
ATOM     27  C   UNL     1       4.595  12.661   0.169  1.00  0.00     0.251 C 
ATOM     28  H   UNL     1       4.671  10.977  -0.898  1.00  0.00     0.163 HD
ATOM     29  O   UNL     1       4.193  13.312  -0.793  1.00  0.00    -0.269 OA
BRANCH  27  30
ATOM     30  C   UNL     1       4.933  13.355   1.437  1.00  0.00     0.039 A 
ATOM     31  C   UNL     1       4.222  14.515   1.764  1.00  0.00     0.014 A 
ATOM     32  C   UNL     1       5.992  12.947   2.255  1.00  0.00     0.014 A 
ATOM     33  C   UNL     1       4.564  15.255   2.900  1.00  0.00     0.010 A 
ATOM     34  C   UNL     1       6.284  13.642   3.430  1.00  0.00     0.010 A 
ATOM     35  C   UNL     1       5.597  14.822   3.746  1.00  0.00    -0.014 A 
BRANCH  35  36
ATOM     36  C   UNL     1       6.003  15.635   4.922  1.00  0.00     0.031 A 
ATOM     37  C   UNL     1       7.362  16.286   4.958  1.00  0.00     0.074 A 
ATOM     38  C   UNL     1       5.157  15.778   5.961  1.00  0.00     0.049 A 
ATOM     39  N   UNL     1       7.897  17.033   5.890  1.00  0.00    -0.248 NA
ATOM     40  C   UNL     1       8.247  16.044   3.807  1.00  0.00     0.031 C 
ATOM     41  C   UNL     1       3.836  15.157   6.068  1.00  0.00     0.029 A 
ATOM     42  N   UNL     1       5.283  16.493   7.125  1.00  0.00    -0.354 N 
ATOM     43  C   UNL     1       9.180  17.336   5.446  1.00  0.00     0.074 A 
ATOM     44  C   UNL     1       9.363  16.649   4.186  1.00  0.00     0.031 C 
ATOM     45  C   UNL     1       3.262  15.540   7.220  1.00  0.00     0.029 A 
ATOM     46  C   UNL     1       4.180  16.415   7.942  1.00  0.00     0.049 A 
ATOM     47  H   UNL     1       6.087  17.013   7.354  1.00  0.00     0.167 HD
ATOM     48  C   UNL     1      10.114  18.133   6.020  1.00  0.00     0.037 A 
ATOM     49  C   UNL     1       3.933  16.993   9.134  1.00  0.00     0.037 A 
ATOM     50  C   UNL     1       9.915  18.843   7.257  1.00  0.00     0.049 A 
ATOM     51  C   UNL     1       4.963  17.916   9.726  1.00  0.00     0.074 A 
ATOM     52  C   UNL     1      10.778  19.711   7.904  1.00  0.00     0.029 A 
ATOM     53  N   UNL     1       8.766  18.773   8.031  1.00  0.00    -0.354 N 
ATOM     54  N   UNL     1       6.151  18.230   9.267  1.00  0.00    -0.248 NA
ATOM     55  C   UNL     1       4.610  18.578  10.989  1.00  0.00     0.031 C 
ATOM     56  C   UNL     1      10.159  20.148   9.081  1.00  0.00     0.029 A 
ATOM     57  C   UNL     1       8.897  19.581   9.148  1.00  0.00     0.049 A 
ATOM     58  H   UNL     1       7.973  18.230   7.817  1.00  0.00     0.167 HD
ATOM     59  C   UNL     1       6.676  19.149  10.169  1.00  0.00     0.074 A 
ATOM     60  C   UNL     1       5.670  19.348  11.193  1.00  0.00     0.031 C 
ATOM     61  C   UNL     1       7.880  19.772  10.152  1.00  0.00     0.037 A 
BRANCH  48  62
ATOM     62  C   UNL     1      11.431  18.285   5.308  1.00  0.00     0.058 A 
ATOM     63  C   UNL     1      11.539  19.009   4.109  1.00  0.00     0.135 A 
ATOM     64  C   UNL     1      12.601  17.718   5.836  1.00  0.00     0.135 A 
ATOM     65  F   UNL     1      10.449  19.559   3.550  1.00  0.00    -0.206 F 
ATOM     66  C   UNL     1      12.754  19.137   3.443  1.00  0.00     0.059 A 
ATOM     67  C   UNL     1      13.832  17.856   5.200  1.00  0.00     0.059 A 
ATOM     68  F   UNL     1      12.556  17.016   6.980  1.00  0.00    -0.206 F 
ATOM     69  C   UNL     1      13.895  18.553   3.994  1.00  0.00     0.060 A 
BRANCH  69  70
ATOM     70  S   UNL     1      15.464  18.725   3.118  1.00  0.00     0.124 S 
ATOM     71  O   UNL     1      15.293  17.771   2.026  1.00  0.00    -0.237 OA
ATOM     72  O   UNL     1      15.457  20.133   2.734  1.00  0.00    -0.237 OA
ATOM     73  O   UNL     1      16.456  18.358   4.123  1.00  0.00    -0.744 OA
ENDBRANCH  69  70
ENDBRANCH  48  62
BRANCH  49  74
ATOM     74  C   UNL     1       2.635  16.756   9.818  1.00  0.00     0.058 A 
ATOM     75  C   UNL     1       1.659  17.761   9.880  1.00  0.00     0.135 A 
ATOM     76  C   UNL     1       2.339  15.518  10.407  1.00  0.00     0.135 A 
ATOM     77  F   UNL     1       1.898  18.963   9.334  1.00  0.00    -0.206 F 
ATOM     78  C   UNL     1       0.440  17.555  10.518  1.00  0.00     0.059 A 
ATOM     79  C   UNL     1       1.118  15.280  11.031  1.00  0.00     0.059 A 
ATOM     80  F   UNL     1       3.232  14.518  10.357  1.00  0.00    -0.206 F 
ATOM     81  C   UNL     1       0.178  16.309  11.090  1.00  0.00     0.060 A 
BRANCH  81  82
ATOM     82  S   UNL     1      -1.428  16.030  11.868  1.00  0.00     0.124 S 
ATOM     83  O   UNL     1      -1.270  16.743  13.130  1.00  0.00    -0.237 OA
ATOM     84  O   UNL     1      -2.346  16.630  10.906  1.00  0.00    -0.237 OA
ATOM     85  O   UNL     1      -1.502  14.575  11.968  1.00  0.00    -0.744 OA
ENDBRANCH  81  82
ENDBRANCH  49  74
BRANCH  61  86
ATOM     86  C   UNL     1       8.153  20.758  11.253  1.00  0.00     0.058 A 
ATOM     87  C   UNL     1       8.418  20.343  12.567  1.00  0.00     0.135 A 
ATOM     88  C   UNL     1       8.160  22.136  10.985  1.00  0.00     0.135 A 
ATOM     89  F   UNL     1       8.421  19.036  12.876  1.00  0.00    -0.206 F 
ATOM     90  C   UNL     1       8.638  21.262  13.588  1.00  0.00     0.059 A 
ATOM     91  C   UNL     1       8.402  23.072  11.985  1.00  0.00     0.059 A 
ATOM     92  F   UNL     1       7.926  22.584   9.741  1.00  0.00    -0.206 F 
ATOM     93  C   UNL     1       8.620  22.625  13.288  1.00  0.00     0.060 A 
BRANCH  93  94
ATOM     94  S   UNL     1       8.898  23.813  14.618  1.00  0.00     0.124 S 
ATOM     95  O   UNL     1       7.595  23.828  15.274  1.00  0.00    -0.237 OA
ATOM     96  O   UNL     1       9.982  23.194  15.374  1.00  0.00    -0.237 OA
ATOM     97  O   UNL     1       9.259  25.037  13.908  1.00  0.00    -0.744 OA
ENDBRANCH  93  94
ENDBRANCH  61  86
ENDBRANCH  35  36
ENDBRANCH  27  30
ENDBRANCH  25  26
ENDBRANCH   1  25
TORSDOF 16
