REMARK SMILES O=C(COc1cccc(NC(=O)c2ccc3c(c2)C(=O)N(c2ccccc2-c2ccccc2)C3=O)c1)NCCCNC(=O)c1ccc(-c2c3nc(c(-c4c(F)cc(S(=O)(=O)[O-])cc4F)c4ccc([nH]4)c(-c4c(F)cc(S(=O)(=O)[O-])cc4F)c4nc(c(-c5c(F)cc(S(=O)(=O)[O-])cc5F)c5ccc2[nH]5)C=C4)C=C3)cc1
REMARK SMILES IDX 1 1 2 2 37 3 3 5 4 6 5 7 6 8 36 9 7 10 9 11 8 12 10 13 11 14
REMARK SMILES IDX 12 16 13 17 14 18 18 19 15 20 17 21 16 22 19 23 34 24 20 25
REMARK SMILES IDX 21 26 35 27 22 28 23 29 27 30 24 31 26 32 25 33 28 34 29 35
REMARK SMILES IDX 33 36 30 37 32 38 31 39 38 40 39 41 40 42 41 43 42 44 43 46
REMARK SMILES IDX 44 47 45 48 109 49 46 50 108 51 47 52 48 53 49 54 102 55
REMARK SMILES IDX 50 56 107 57 101 58 103 59 51 60 106 61 100 62 99 63 52 65
REMARK SMILES IDX 86 66 65 67 85 68 66 69 69 70 84 71 104 72 67 73 68 74 83 76
REMARK SMILES IDX 105 77 70 78 53 79 54 80 63 81 55 82 56 83 62 84 64 85 57 86
REMARK SMILES IDX 58 87 59 88 60 89 61 90 87 91 88 92 97 93 89 94 90 95 96 96
REMARK SMILES IDX 98 97 91 98 92 99 93 100 94 101 95 102 71 103 72 104 81 105
REMARK SMILES IDX 73 106 74 107 80 108 82 109 75 110 76 111 77 112 78 113
REMARK SMILES IDX 79 114
REMARK H PARENT 37 4 10 15 41 45 103 64 69 75
REMARK Flexibility Score: inf
ROOT
ATOM      1  O   UNL     1       0.755  -0.223   0.871  1.00  0.00    -0.271 OA
ATOM      2  C   UNL     1       1.883  -0.072   0.416  1.00  0.00     0.257 C 
ATOM      3  N   UNL     1       2.612   1.094   0.532  1.00  0.00    -0.353 N 
ATOM      4  H   UNL     1       3.568   1.082   0.298  1.00  0.00     0.163 HD
ENDROOT
BRANCH   2   5
ATOM      5  C   UNL     1       2.593  -1.161  -0.387  1.00  0.00     0.329 C 
BRANCH   5   6
ATOM      6  O   UNL     1       3.592  -0.685  -1.284  1.00  0.00    -0.484 OA
BRANCH   6   7
ATOM      7  C   UNL     1       3.139  -0.233  -2.496  1.00  0.00     0.122 A 
ATOM      8  C   UNL     1       3.856  -0.687  -3.597  1.00  0.00     0.046 A 
ATOM      9  C   UNL     1       2.142   0.742  -2.663  1.00  0.00     0.072 A 
ATOM     10  C   UNL     1       3.582  -0.165  -4.853  1.00  0.00     0.006 A 
ATOM     11  C   UNL     1       1.865   1.292  -3.923  1.00  0.00     0.045 A 
ATOM     12  C   UNL     1       2.608   0.826  -5.005  1.00  0.00     0.026 A 
BRANCH  11  13
ATOM     13  N   UNL     1       0.930   2.360  -3.979  1.00  0.00    -0.322 N 
ATOM     14  C   UNL     1       0.299   3.002  -5.032  1.00  0.00     0.255 C 
ATOM     15  H   UNL     1       0.681   2.714  -3.095  1.00  0.00     0.170 HD
ATOM     16  O   UNL     1      -0.295   4.064  -4.882  1.00  0.00    -0.269 OA
BRANCH  14  17
ATOM     17  C   UNL     1       0.203   2.319  -6.330  1.00  0.00     0.041 A 
ATOM     18  C   UNL     1       1.071   2.665  -7.391  1.00  0.00     0.015 A 
ATOM     19  C   UNL     1      -0.578   1.167  -6.359  1.00  0.00     0.028 A 
ATOM     20  C   UNL     1       1.322   1.731  -8.410  1.00  0.00     0.015 A 
ATOM     21  C   UNL     1      -0.291   0.277  -7.366  1.00  0.00     0.054 A 
ATOM     22  C   UNL     1       0.672   0.508  -8.320  1.00  0.00     0.053 A 
ATOM     23  C   UNL     1      -0.650  -1.122  -7.413  1.00  0.00     0.266 C 
ATOM     24  C   UNL     1       0.965  -0.792  -8.935  1.00  0.00     0.266 C 
ATOM     25  O   UNL     1      -1.624  -1.514  -6.797  1.00  0.00    -0.268 OA
ATOM     26  N   UNL     1       0.302  -1.748  -8.189  1.00  0.00    -0.242 N 
ATOM     27  O   UNL     1       1.616  -0.855  -9.962  1.00  0.00    -0.268 OA
BRANCH  26  28
ATOM     28  C   UNL     1       0.549  -3.164  -8.127  1.00  0.00     0.060 A 
ATOM     29  C   UNL     1      -0.451  -3.993  -7.560  1.00  0.00     0.027 A 
ATOM     30  C   UNL     1       1.782  -3.789  -8.456  1.00  0.00     0.006 A 
ATOM     31  C   UNL     1      -0.265  -5.354  -7.306  1.00  0.00     0.002 A 
ATOM     32  C   UNL     1       1.931  -5.184  -8.223  1.00  0.00     0.011 A 
ATOM     33  C   UNL     1       0.929  -5.955  -7.645  1.00  0.00     0.001 A 
BRANCH  30  34
ATOM     34  C   UNL     1       3.015  -3.112  -8.886  1.00  0.00    -0.016 A 
ATOM     35  C   UNL     1       3.427  -3.145 -10.227  1.00  0.00     0.009 A 
ATOM     36  C   UNL     1       3.871  -2.524  -7.940  1.00  0.00     0.009 A 
ATOM     37  C   UNL     1       4.632  -2.558 -10.620  1.00  0.00     0.001 A 
ATOM     38  C   UNL     1       5.081  -1.944  -8.332  1.00  0.00     0.001 A 
ATOM     39  C   UNL     1       5.456  -1.954  -9.673  1.00  0.00     0.000 A 
ENDBRANCH  30  34
ENDBRANCH  26  28
ENDBRANCH  14  17
ENDBRANCH  11  13
ENDBRANCH   6   7
ENDBRANCH   5   6
ENDBRANCH   2   5
BRANCH   3  40
ATOM     40  C   UNL     1       2.023   2.335   0.986  1.00  0.00     0.117 C 
BRANCH  40  41
ATOM     41  C   UNL     1       2.383   2.676   2.420  1.00  0.00     0.042 C 
BRANCH  41  42
ATOM     42  C   UNL     1       3.876   2.880   2.657  1.00  0.00     0.118 C 
BRANCH  42  43
ATOM     43  N   UNL     1       4.430   4.005   1.914  1.00  0.00    -0.352 N 
ATOM     44  C   UNL     1       5.116   5.109   2.360  1.00  0.00     0.251 C 
ATOM     45  H   UNL     1       4.292   3.967   0.940  1.00  0.00     0.163 HD
ATOM     46  O   UNL     1       5.382   6.011   1.569  1.00  0.00    -0.269 OA
BRANCH  44  47
ATOM     47  C   UNL     1       5.509   5.231   3.781  1.00  0.00     0.039 A 
ATOM     48  C   UNL     1       5.336   6.461   4.424  1.00  0.00     0.014 A 
ATOM     49  C   UNL     1       6.054   4.151   4.481  1.00  0.00     0.014 A 
ATOM     50  C   UNL     1       5.633   6.583   5.784  1.00  0.00     0.010 A 
ATOM     51  C   UNL     1       6.278   4.253   5.852  1.00  0.00     0.010 A 
ATOM     52  C   UNL     1       6.066   5.469   6.520  1.00  0.00    -0.014 A 
BRANCH  52  53
ATOM     53  C   UNL     1       6.289   5.548   7.987  1.00  0.00     0.031 A 
ATOM     54  C   UNL     1       7.661   5.322   8.561  1.00  0.00     0.074 A 
ATOM     55  C   UNL     1       5.239   5.750   8.809  1.00  0.00     0.049 A 
ATOM     56  N   UNL     1       8.033   5.262   9.814  1.00  0.00    -0.248 NA
ATOM     57  C   UNL     1       8.755   5.108   7.600  1.00  0.00     0.031 C 
ATOM     58  C   UNL     1       3.851   5.934   8.381  1.00  0.00     0.029 A 
ATOM     59  N   UNL     1       5.174   5.820  10.179  1.00  0.00    -0.354 N 
ATOM     60  C   UNL     1       9.395   4.987   9.794  1.00  0.00     0.074 A 
ATOM     61  C   UNL     1       9.775   4.846   8.405  1.00  0.00     0.031 C 
ATOM     62  C   UNL     1       3.076   6.113   9.463  1.00  0.00     0.029 A 
ATOM     63  C   UNL     1       3.902   6.020  10.662  1.00  0.00     0.049 A 
ATOM     64  H   UNL     1       5.964   5.735  10.761  1.00  0.00     0.167 HD
ATOM     65  C   UNL     1      10.254   4.881  10.836  1.00  0.00     0.037 A 
ATOM     66  C   UNL     1       3.449   6.108  11.928  1.00  0.00     0.037 A 
ATOM     67  C   UNL     1       9.878   5.051  12.216  1.00  0.00     0.049 A 
ATOM     68  C   UNL     1       4.424   5.998  13.068  1.00  0.00     0.074 A 
ATOM     69  C   UNL     1      10.687   5.023  13.338  1.00  0.00     0.029 A 
ATOM     70  N   UNL     1       8.585   5.283  12.662  1.00  0.00    -0.354 N 
ATOM     71  N   UNL     1       5.719   5.794  13.027  1.00  0.00    -0.248 NA
ATOM     72  C   UNL     1       3.879   6.135  14.426  1.00  0.00     0.031 C 
ATOM     73  C   UNL     1       9.879   5.202  14.466  1.00  0.00     0.029 A 
ATOM     74  C   UNL     1       8.572   5.384  14.044  1.00  0.00     0.049 A 
ATOM     75  H   UNL     1       7.793   5.363  12.082  1.00  0.00     0.167 HD
ATOM     76  C   UNL     1       6.147   5.804  14.350  1.00  0.00     0.074 A 
ATOM     77  C   UNL     1       4.975   6.043  15.167  1.00  0.00     0.031 C 
ATOM     78  C   UNL     1       7.398   5.631  14.843  1.00  0.00     0.037 A 
BRANCH  65  79
ATOM     79  C   UNL     1      11.692   4.571  10.523  1.00  0.00     0.058 A 
ATOM     80  C   UNL     1      12.535   5.521   9.923  1.00  0.00     0.135 A 
ATOM     81  C   UNL     1      12.244   3.323  10.854  1.00  0.00     0.135 A 
ATOM     82  F   UNL     1      12.055   6.725   9.572  1.00  0.00    -0.206 F 
ATOM     83  C   UNL     1      13.864   5.234   9.633  1.00  0.00     0.059 A 
ATOM     84  C   UNL     1      13.579   3.023  10.598  1.00  0.00     0.059 A 
ATOM     85  F   UNL     1      11.483   2.379  11.430  1.00  0.00    -0.206 F 
ATOM     86  C   UNL     1      14.377   3.981   9.972  1.00  0.00     0.060 A 
BRANCH  86  87
ATOM     87  S   UNL     1      16.104   3.622   9.588  1.00  0.00     0.124 S 
ATOM     88  O   UNL     1      16.044   3.422   8.143  1.00  0.00    -0.237 OA
ATOM     89  O   UNL     1      16.783   4.835  10.031  1.00  0.00    -0.237 OA
ATOM     90  O   UNL     1      16.386   2.426  10.376  1.00  0.00    -0.744 OA
ENDBRANCH  86  87
ENDBRANCH  65  79
BRANCH  66  91
ATOM     91  C   UNL     1       2.002   6.335  12.183  1.00  0.00     0.058 A 
ATOM     92  C   UNL     1       1.541   7.573  12.655  1.00  0.00     0.135 A 
ATOM     93  C   UNL     1       1.053   5.330  11.947  1.00  0.00     0.135 A 
ATOM     94  F   UNL     1       2.413   8.563  12.902  1.00  0.00    -0.206 F 
ATOM     95  C   UNL     1       0.192   7.803  12.899  1.00  0.00     0.059 A 
ATOM     96  C   UNL     1      -0.305   5.543  12.161  1.00  0.00     0.059 A 
ATOM     97  F   UNL     1       1.442   4.133  11.479  1.00  0.00    -0.206 F 
ATOM     98  C   UNL     1      -0.725   6.781  12.646  1.00  0.00     0.060 A 
BRANCH  98  99
ATOM     99  S   UNL     1      -2.481   7.106  12.918  1.00  0.00     0.124 S 
ATOM    100  O   UNL     1      -2.566   7.063  14.373  1.00  0.00    -0.237 OA
ATOM    101  O   UNL     1      -2.649   8.420  12.306  1.00  0.00    -0.237 OA
ATOM    102  O   UNL     1      -3.136   6.007  12.213  1.00  0.00    -0.744 OA
ENDBRANCH  98  99
ENDBRANCH  66  91
BRANCH  78 103
ATOM    103  C   UNL     1       7.573   5.727  16.333  1.00  0.00     0.058 A 
ATOM    104  C   UNL     1       7.150   4.701  17.192  1.00  0.00     0.135 A 
ATOM    105  C   UNL     1       8.219   6.837  16.902  1.00  0.00     0.135 A 
ATOM    106  F   UNL     1       6.521   3.623  16.699  1.00  0.00    -0.206 F 
ATOM    107  C   UNL     1       7.341   4.782  18.568  1.00  0.00     0.059 A 
ATOM    108  C   UNL     1       8.443   6.927  18.272  1.00  0.00     0.059 A 
ATOM    109  F   UNL     1       8.651   7.840  16.122  1.00  0.00    -0.206 F 
ATOM    110  C   UNL     1       7.990   5.899  19.098  1.00  0.00     0.060 A 
BRANCH 110 111
ATOM    111  S   UNL     1       8.266   5.976  20.881  1.00  0.00     0.124 S 
ATOM    112  O   UNL     1       6.933   6.315  21.370  1.00  0.00    -0.237 OA
ATOM    113  O   UNL     1       8.729   4.626  21.186  1.00  0.00    -0.237 OA
ATOM    114  O   UNL     1       9.272   7.024  21.023  1.00  0.00    -0.744 OA
ENDBRANCH 110 111
ENDBRANCH  78 103
ENDBRANCH  52  53
ENDBRANCH  44  47
ENDBRANCH  42  43
ENDBRANCH  41  42
ENDBRANCH  40  41
ENDBRANCH   3  40
TORSDOF 19
