REMARK SMILES Cc1nsc(NC(=O)[C@]2([NH3+])CCC[C@@H](C)C2)c1C(=O)NCCCNC(=O)c1ccc(-c2c3nc(c(-c4c(F)cc(S(=O)(=O)[O-])cc4F)c4ccc([nH]4)c(-c4c(F)cc(S(=O)(=O)[O-])cc4F)c4nc(c(-c5c(F)cc(S(=O)(=O)[O-])cc5F)c5ccc2[nH]5)C=C4)C=C3)cc1
REMARK SMILES IDX 22 1 21 2 20 3 18 4 19 5 17 7 1 8 2 9 3 10 4 11 5 12 6 13
REMARK SMILES IDX 7 14 8 16 9 17 11 18 16 19 12 20 14 21 13 22 15 23 10 24
REMARK SMILES IDX 23 28 24 29 25 30 26 32 27 33 28 34 92 35 29 36 91 37 30 38
REMARK SMILES IDX 31 39 32 40 85 41 33 42 90 43 84 44 86 45 34 46 89 47 83 48
REMARK SMILES IDX 82 49 35 51 69 52 48 53 68 54 49 55 52 56 67 57 87 58 50 59
REMARK SMILES IDX 51 60 66 62 88 63 53 64 36 65 37 66 46 67 38 68 39 69 45 70
REMARK SMILES IDX 47 71 40 72 41 73 42 74 43 75 44 76 70 77 71 78 80 79 72 80
REMARK SMILES IDX 73 81 79 82 81 83 74 84 75 85 76 86 77 87 78 88 54 89 55 90
REMARK SMILES IDX 64 91 56 92 57 93 63 94 65 95 58 96 59 97 60 98 61 99 62 100
REMARK H PARENT 20 6 6 15 10 25 10 26 10 27 24 31 86 50 52 61
REMARK Flexibility Score: inf
ROOT
ATOM      1  C   UNL     1       2.816  -0.697   3.260  1.00  0.00     0.042 C 
ENDROOT
BRANCH   1   2
ATOM      2  C   UNL     1       3.196  -2.174   3.288  1.00  0.00     0.118 C 
BRANCH   2   3
ATOM      3  N   UNL     1       2.064  -3.064   3.305  1.00  0.00    -0.352 N 
ATOM      4  C   UNL     1       1.270  -3.617   2.342  1.00  0.00     0.256 C 
ATOM      5  O   UNL     1       0.614  -4.583   2.751  1.00  0.00    -0.269 OA
ATOM      6  H   UNL     1       1.804  -3.335   4.216  1.00  0.00     0.163 HD
BRANCH   4   7
ATOM      7  C   UNL     1       1.067  -3.130   0.966  1.00  0.00     0.097 A 
ATOM      8  C   UNL     1       2.849  -1.250   0.215  1.00  0.00     0.069 C 
ATOM      9  C   UNL     1       1.619  -2.078   0.115  1.00  0.00     0.066 A 
ATOM     10  N   UNL     1       0.898  -1.781  -0.974  1.00  0.00    -0.195 NA
ATOM     11  S   UNL     1      -0.392  -2.787  -1.057  1.00  0.00    -0.017 S 
ATOM     12  C   UNL     1       0.160  -3.833   0.152  1.00  0.00     0.129 A 
BRANCH  12  13
ATOM     13  N   UNL     1      -0.401  -5.070   0.379  1.00  0.00    -0.310 N 
ATOM     14  C   UNL     1      -0.898  -6.051  -0.423  1.00  0.00     0.286 C 
ATOM     15  H   UNL     1      -0.454  -5.296   1.336  1.00  0.00     0.171 HD
ATOM     16  O   UNL     1      -1.387  -7.017   0.186  1.00  0.00    -0.267 OA
BRANCH  14  17
ATOM     17  C   UNL     1      -0.929  -6.048  -1.998  1.00  0.00     0.174 C 
ATOM     18  C   UNL     1      -1.175  -7.523  -2.451  1.00  0.00     0.079 C 
ATOM     19  C   UNL     1       0.384  -5.604  -2.686  1.00  0.00     0.082 C 
ATOM     20  C   UNL     1      -1.130  -7.756  -3.963  1.00  0.00     0.007 C 
ATOM     21  C   UNL     1       0.425  -5.768  -4.219  1.00  0.00    -0.008 C 
ATOM     22  C   UNL     1       0.152  -7.223  -4.595  1.00  0.00     0.004 C 
ATOM     23  C   UNL     1      -0.499  -4.802  -4.972  1.00  0.00     0.008 C 
BRANCH  17  24
ATOM     24  N   UNL     1      -2.106  -5.253  -2.412  1.00  0.00    -0.345 N 
ATOM     25  H   UNL     1      -2.159  -5.229  -3.430  1.00  0.00     0.345 HD
ATOM     26  H   UNL     1      -2.017  -4.302  -2.053  1.00  0.00     0.345 HD
ATOM     27  H   UNL     1      -2.953  -5.679  -2.037  1.00  0.00     0.345 HD
ENDBRANCH  17  24
ENDBRANCH  14  17
ENDBRANCH  12  13
ENDBRANCH   4   7
ENDBRANCH   2   3
ENDBRANCH   1   2
BRANCH   1  28
ATOM     28  C   UNL     1       2.724  -0.087   4.641  1.00  0.00     0.118 C 
BRANCH  28  29
ATOM     29  N   UNL     1       4.043   0.024   5.273  1.00  0.00    -0.352 N 
ATOM     30  C   UNL     1       4.345   0.445   6.559  1.00  0.00     0.251 C 
ATOM     31  H   UNL     1       4.811  -0.233   4.713  1.00  0.00     0.163 HD
ATOM     32  O   UNL     1       5.463   0.824   6.848  1.00  0.00    -0.269 OA
BRANCH  30  33
ATOM     33  C   UNL     1       3.260   0.417   7.553  1.00  0.00     0.039 A 
ATOM     34  C   UNL     1       3.042   1.473   8.440  1.00  0.00     0.014 A 
ATOM     35  C   UNL     1       2.391  -0.665   7.495  1.00  0.00     0.014 A 
ATOM     36  C   UNL     1       1.877   1.465   9.201  1.00  0.00     0.010 A 
ATOM     37  C   UNL     1       1.153  -0.550   8.058  1.00  0.00     0.010 A 
ATOM     38  C   UNL     1       0.920   0.461   8.978  1.00  0.00    -0.014 A 
BRANCH  38  39
ATOM     39  C   UNL     1      -0.382   0.481   9.627  1.00  0.00     0.031 A 
ATOM     40  C   UNL     1      -1.125   1.760   9.485  1.00  0.00     0.074 A 
ATOM     41  C   UNL     1      -0.955  -0.633  10.134  1.00  0.00     0.049 A 
ATOM     42  N   UNL     1      -1.323   2.647  10.402  1.00  0.00    -0.248 NA
ATOM     43  C   UNL     1      -1.546   2.194   8.143  1.00  0.00     0.031 C 
ATOM     44  C   UNL     1      -0.474  -2.022  10.094  1.00  0.00     0.029 A 
ATOM     45  N   UNL     1      -2.169  -0.766  10.727  1.00  0.00    -0.354 N 
ATOM     46  C   UNL     1      -2.105   3.637   9.818  1.00  0.00     0.074 A 
ATOM     47  C   UNL     1      -2.031   3.412   8.397  1.00  0.00     0.031 C 
ATOM     48  C   UNL     1      -1.480  -2.864  10.416  1.00  0.00     0.029 A 
ATOM     49  C   UNL     1      -2.612  -2.078  10.864  1.00  0.00     0.049 A 
ATOM     50  H   UNL     1      -2.695   0.007  11.035  1.00  0.00     0.167 HD
ATOM     51  C   UNL     1      -2.937   4.410  10.571  1.00  0.00     0.037 A 
ATOM     52  C   UNL     1      -3.827  -2.481  11.313  1.00  0.00     0.037 A 
ATOM     53  C   UNL     1      -2.654   4.249  11.978  1.00  0.00     0.049 A 
ATOM     54  C   UNL     1      -4.384  -1.345  12.098  1.00  0.00     0.074 A 
ATOM     55  C   UNL     1      -1.541   4.465  12.768  1.00  0.00     0.029 A 
ATOM     56  N   UNL     1      -3.466   3.401  12.695  1.00  0.00    -0.354 N 
ATOM     57  N   UNL     1      -3.865  -0.933  13.225  1.00  0.00    -0.248 NA
ATOM     58  C   UNL     1      -5.185  -0.358  11.389  1.00  0.00     0.031 C 
ATOM     59  C   UNL     1      -1.516   3.365  13.674  1.00  0.00     0.029 A 
ATOM     60  C   UNL     1      -2.655   2.589  13.448  1.00  0.00     0.049 A 
ATOM     61  H   UNL     1      -4.450   3.380  12.672  1.00  0.00     0.167 HD
ATOM     62  C   UNL     1      -3.902   0.453  13.152  1.00  0.00     0.074 A 
ATOM     63  C   UNL     1      -4.802   0.748  12.036  1.00  0.00     0.031 C 
ATOM     64  C   UNL     1      -2.977   1.222  13.801  1.00  0.00     0.037 A 
BRANCH  51  65
ATOM     65  C   UNL     1      -4.225   5.028  10.087  1.00  0.00     0.058 A 
ATOM     66  C   UNL     1      -4.887   5.968  10.903  1.00  0.00     0.135 A 
ATOM     67  C   UNL     1      -4.970   4.539   8.992  1.00  0.00     0.135 A 
ATOM     68  F   UNL     1      -4.273   6.496  11.975  1.00  0.00    -0.206 F 
ATOM     69  C   UNL     1      -6.214   6.340  10.690  1.00  0.00     0.059 A 
ATOM     70  C   UNL     1      -6.276   4.937   8.729  1.00  0.00     0.059 A 
ATOM     71  F   UNL     1      -4.506   3.580   8.182  1.00  0.00    -0.206 F 
ATOM     72  C   UNL     1      -6.905   5.805   9.607  1.00  0.00     0.060 A 
BRANCH  72  73
ATOM     73  S   UNL     1      -8.646   6.206   9.386  1.00  0.00     0.124 S 
ATOM     74  O   UNL     1      -9.248   5.523  10.525  1.00  0.00    -0.237 OA
ATOM     75  O   UNL     1      -8.630   7.663   9.448  1.00  0.00    -0.237 OA
ATOM     76  O   UNL     1      -8.956   5.642   8.076  1.00  0.00    -0.744 OA
ENDBRANCH  72  73
ENDBRANCH  51  65
BRANCH  52  77
ATOM     77  C   UNL     1      -4.640  -3.642  10.862  1.00  0.00     0.058 A 
ATOM     78  C   UNL     1      -5.781  -4.057  11.573  1.00  0.00     0.135 A 
ATOM     79  C   UNL     1      -4.481  -4.192   9.573  1.00  0.00     0.135 A 
ATOM     80  F   UNL     1      -6.022  -3.574  12.801  1.00  0.00    -0.206 F 
ATOM     81  C   UNL     1      -6.736  -4.918  11.018  1.00  0.00     0.059 A 
ATOM     82  C   UNL     1      -5.414  -5.058   9.003  1.00  0.00     0.059 A 
ATOM     83  F   UNL     1      -3.456  -3.829   8.788  1.00  0.00    -0.206 F 
ATOM     84  C   UNL     1      -6.555  -5.394   9.719  1.00  0.00     0.060 A 
BRANCH  84  85
ATOM     85  S   UNL     1      -7.878  -6.341   8.924  1.00  0.00     0.124 S 
ATOM     86  O   UNL     1      -7.830  -7.602   9.656  1.00  0.00    -0.237 OA
ATOM     87  O   UNL     1      -9.047  -5.504   9.171  1.00  0.00    -0.237 OA
ATOM     88  O   UNL     1      -7.451  -6.411   7.529  1.00  0.00    -0.744 OA
ENDBRANCH  84  85
ENDBRANCH  52  77
BRANCH  64  89
ATOM     89  C   UNL     1      -2.073   0.553  14.810  1.00  0.00     0.058 A 
ATOM     90  C   UNL     1      -1.130  -0.444  14.499  1.00  0.00     0.135 A 
ATOM     91  C   UNL     1      -2.055   1.055  16.119  1.00  0.00     0.135 A 
ATOM     92  F   UNL     1      -0.998  -0.904  13.248  1.00  0.00    -0.206 F 
ATOM     93  C   UNL     1      -0.246  -0.952  15.454  1.00  0.00     0.059 A 
ATOM     94  C   UNL     1      -1.161   0.588  17.080  1.00  0.00     0.059 A 
ATOM     95  F   UNL     1      -2.881   2.055  16.466  1.00  0.00    -0.206 F 
ATOM     96  C   UNL     1      -0.271  -0.429  16.745  1.00  0.00     0.060 A 
BRANCH  96  97
ATOM     97  S   UNL     1       0.910  -1.043  17.966  1.00  0.00     0.124 S 
ATOM     98  O   UNL     1       0.389  -2.375  18.253  1.00  0.00    -0.237 OA
ATOM     99  O   UNL     1       2.174  -1.001  17.237  1.00  0.00    -0.237 OA
ATOM    100  O   UNL     1       0.801  -0.080  19.060  1.00  0.00    -0.744 OA
ENDBRANCH  96  97
ENDBRANCH  64  89
ENDBRANCH  38  39
ENDBRANCH  30  33
ENDBRANCH  28  29
ENDBRANCH   1  28
TORSDOF 16
