REMARK SMILES COC(=O)c1sc(SCC(=O)NCCCNC(=O)c2ccc(-c3c4nc(c(-c5c(F)cc(S(=O)(=O)[O-])cc5F)c5ccc([nH]5)c(-c5c(F)cc(S(=O)(=O)[O-])cc5F)c5nc(c(-c6c(F)cc(S(=O)(=O)[O-])cc6F)c6ccc3[nH]6)C=C5)C=C4)cc2)c(NC(=O)c2ccccc2)c1O
REMARK SMILES IDX 13 1 12 2 10 3 11 4 9 6 8 7 7 8 5 9 6 10 95 11 85 12 3 13
REMARK SMILES IDX 4 14 2 15 1 16 96 17 86 19 87 20 88 22 89 23 90 24 94 25
REMARK SMILES IDX 91 26 93 27 92 28 14 29 15 30 16 31 17 32 18 34 19 35 20 36
REMARK SMILES IDX 84 37 21 38 83 39 22 40 23 41 24 42 77 43 25 44 82 45 76 46
REMARK SMILES IDX 78 47 26 48 81 49 75 50 74 51 27 53 61 54 40 55 60 56 41 57
REMARK SMILES IDX 44 58 59 59 79 60 42 61 43 62 58 64 80 65 45 66 28 67 29 68
REMARK SMILES IDX 38 69 30 70 31 71 37 72 39 73 32 74 33 75 34 76 35 77 36 78
REMARK SMILES IDX 62 79 63 80 72 81 64 82 65 83 71 84 73 85 66 86 67 87 68 88
REMARK SMILES IDX 69 89 70 90 46 91 47 92 56 93 48 94 49 95 55 96 57 97 50 98
REMARK SMILES IDX 51 99 52 100 53 101 54 102
REMARK H PARENT 12 5 96 18 86 21 16 33 78 52 44 63
REMARK Flexibility Score: inf
ROOT
ATOM      1  C   UNL     1       0.529  -8.707   6.286  1.00  0.00     0.117 C 
ENDROOT
BRANCH   1   2
ATOM      2  N   UNL     1      -0.743  -8.170   5.834  1.00  0.00    -0.355 N 
ATOM      3  C   UNL     1      -1.424  -8.323   4.652  1.00  0.00     0.230 C 
ATOM      4  O   UNL     1      -2.608  -7.972   4.685  1.00  0.00    -0.274 OA
ATOM      5  H   UNL     1      -1.196  -7.595   6.492  1.00  0.00     0.163 HD
BRANCH   3   6
ATOM      6  C   UNL     1      -0.672  -9.107   3.287  1.00  0.00     0.175 C 
BRANCH   6   7
ATOM      7  S   UNL     1       0.018  -8.127   0.992  1.00  0.00    -0.103 SA
BRANCH   7   8
ATOM      8  C   UNL     1      -0.142  -6.298   0.712  1.00  0.00     0.089 A 
ATOM      9  C   UNL     1       0.440  -3.918   0.182  1.00  0.00     0.157 A 
ATOM     10  S   UNL     1       1.242  -5.437   0.125  1.00  0.00    -0.116 S 
ATOM     11  C   UNL     1      -0.873  -4.085   0.565  1.00  0.00     0.166 A 
ATOM     12  C   UNL     1      -1.228  -5.434   0.854  1.00  0.00     0.109 A 
BRANCH   9  13
ATOM     13  C   UNL     1       1.159  -2.704  -0.153  1.00  0.00     0.352 C 
ATOM     14  O   UNL     1       2.246  -2.629  -0.712  1.00  0.00    -0.245 OA
BRANCH  13  15
ATOM     15  O   UNL     1       0.425  -1.625   0.258  1.00  0.00    -0.465 OA
ATOM     16  C   UNL     1       1.006  -0.338   0.015  1.00  0.00     0.282 C 
ENDBRANCH  13  15
ENDBRANCH   9  13
BRANCH  11  17
ATOM     17  O   UNL     1      -1.762  -3.075   0.705  1.00  0.00    -0.504 OA
ATOM     18  H   UNL     1      -1.506  -2.195   0.509  1.00  0.00     0.293 HD
ENDBRANCH  11  17
BRANCH  12  19
ATOM     19  N   UNL     1      -2.522  -5.723   1.277  1.00  0.00    -0.317 N 
ATOM     20  C   UNL     1      -2.945  -6.902   1.812  1.00  0.00     0.255 C 
ATOM     21  H   UNL     1      -3.194  -5.010   1.181  1.00  0.00     0.170 HD
ATOM     22  O   UNL     1      -4.115  -7.250   1.876  1.00  0.00    -0.269 OA
BRANCH  20  23
ATOM     23  C   UNL     1      -1.870  -7.785   2.255  1.00  0.00     0.040 A 
ATOM     24  C   UNL     1      -1.858  -9.430   1.544  1.00  0.00     0.014 A 
ATOM     25  C   UNL     1      -0.351  -7.103   3.041  1.00  0.00     0.014 A 
ATOM     26  C   UNL     1      -0.349 -10.400   1.606  1.00  0.00     0.001 A 
ATOM     27  C   UNL     1       1.153  -8.097   3.044  1.00  0.00     0.001 A 
ATOM     28  C   UNL     1       1.147  -9.738   2.318  1.00  0.00     0.000 A 
ENDBRANCH  20  23
ENDBRANCH  12  19
ENDBRANCH   7   8
ENDBRANCH   6   7
ENDBRANCH   3   6
ENDBRANCH   1   2
BRANCH   1  29
ATOM     29  C   UNL     1       1.681  -7.708   6.201  1.00  0.00     0.042 C 
BRANCH  29  30
ATOM     30  C   UNL     1       1.609  -6.646   7.263  1.00  0.00     0.118 C 
BRANCH  30  31
ATOM     31  N   UNL     1       1.823  -7.150   8.616  1.00  0.00    -0.352 N 
ATOM     32  C   UNL     1       2.022  -6.402   9.764  1.00  0.00     0.251 C 
ATOM     33  H   UNL     1       1.826  -8.129   8.724  1.00  0.00     0.163 HD
ATOM     34  O   UNL     1       2.505  -6.913  10.767  1.00  0.00    -0.269 OA
BRANCH  32  35
ATOM     35  C   UNL     1       1.637  -4.979   9.733  1.00  0.00     0.039 A 
ATOM     36  C   UNL     1       2.361  -3.985  10.388  1.00  0.00     0.014 A 
ATOM     37  C   UNL     1       0.536  -4.649   8.950  1.00  0.00     0.014 A 
ATOM     38  C   UNL     1       1.961  -2.665  10.204  1.00  0.00     0.010 A 
ATOM     39  C   UNL     1       0.376  -3.374   8.511  1.00  0.00     0.010 A 
ATOM     40  C   UNL     1       0.966  -2.377   9.251  1.00  0.00    -0.014 A 
BRANCH  40  41
ATOM     41  C   UNL     1       0.542  -1.027   8.939  1.00  0.00     0.031 A 
ATOM     42  C   UNL     1       1.669  -0.154   8.567  1.00  0.00     0.074 A 
ATOM     43  C   UNL     1      -0.750  -0.650   8.821  1.00  0.00     0.049 A 
ATOM     44  N   UNL     1       2.309   0.638   9.357  1.00  0.00    -0.248 NA
ATOM     45  C   UNL     1       2.324  -0.364   7.268  1.00  0.00     0.031 C 
ATOM     46  C   UNL     1      -1.975  -1.461   8.841  1.00  0.00     0.029 A 
ATOM     47  N   UNL     1      -1.234   0.599   8.602  1.00  0.00    -0.354 N 
ATOM     48  C   UNL     1       3.262   1.253   8.563  1.00  0.00     0.074 A 
ATOM     49  C   UNL     1       3.398   0.419   7.397  1.00  0.00     0.031 C 
ATOM     50  C   UNL     1      -3.030  -0.712   8.441  1.00  0.00     0.029 A 
ATOM     51  C   UNL     1      -2.594   0.666   8.313  1.00  0.00     0.049 A 
ATOM     52  H   UNL     1      -0.664   1.401   8.645  1.00  0.00     0.167 HD
ATOM     53  C   UNL     1       3.619   2.544   8.805  1.00  0.00     0.037 A 
ATOM     54  C   UNL     1      -3.294   1.788   8.003  1.00  0.00     0.037 A 
ATOM     55  C   UNL     1       3.155   2.964  10.112  1.00  0.00     0.049 A 
ATOM     56  C   UNL     1      -2.509   2.933   8.546  1.00  0.00     0.074 A 
ATOM     57  C   UNL     1       3.345   2.494  11.399  1.00  0.00     0.029 A 
ATOM     58  N   UNL     1       2.013   3.733  10.165  1.00  0.00    -0.354 N 
ATOM     59  N   UNL     1      -2.316   3.130   9.824  1.00  0.00    -0.248 NA
ATOM     60  C   UNL     1      -1.522   3.545   7.668  1.00  0.00     0.031 C 
ATOM     61  C   UNL     1       2.063   2.584  12.020  1.00  0.00     0.029 A 
ATOM     62  C   UNL     1       1.186   3.194  11.121  1.00  0.00     0.049 A 
ATOM     63  H   UNL     1       1.823   4.527   9.616  1.00  0.00     0.167 HD
ATOM     64  C   UNL     1      -0.983   3.502   9.933  1.00  0.00     0.074 A 
ATOM     65  C   UNL     1      -0.564   3.805   8.563  1.00  0.00     0.031 C 
ATOM     66  C   UNL     1      -0.262   3.249  11.067  1.00  0.00     0.037 A 
BRANCH  53  67
ATOM     67  C   UNL     1       4.013   3.527   7.731  1.00  0.00     0.058 A 
ATOM     68  C   UNL     1       4.490   4.796   8.114  1.00  0.00     0.135 A 
ATOM     69  C   UNL     1       3.703   3.383   6.359  1.00  0.00     0.135 A 
ATOM     70  F   UNL     1       4.812   5.048   9.393  1.00  0.00    -0.206 F 
ATOM     71  C   UNL     1       4.578   5.862   7.219  1.00  0.00     0.059 A 
ATOM     72  C   UNL     1       3.837   4.415   5.440  1.00  0.00     0.059 A 
ATOM     73  F   UNL     1       3.164   2.271   5.848  1.00  0.00    -0.206 F 
ATOM     74  C   UNL     1       4.237   5.662   5.886  1.00  0.00     0.060 A 
BRANCH  74  75
ATOM     75  S   UNL     1       4.266   7.051   4.744  1.00  0.00     0.124 S 
ATOM     76  O   UNL     1       3.166   7.864   5.250  1.00  0.00    -0.237 OA
ATOM     77  O   UNL     1       5.608   7.582   4.955  1.00  0.00    -0.237 OA
ATOM     78  O   UNL     1       4.043   6.422   3.446  1.00  0.00    -0.744 OA
ENDBRANCH  74  75
ENDBRANCH  53  67
BRANCH  54  79
ATOM     79  C   UNL     1      -4.343   1.959   6.958  1.00  0.00     0.058 A 
ATOM     80  C   UNL     1      -5.088   3.150   6.858  1.00  0.00     0.135 A 
ATOM     81  C   UNL     1      -4.424   1.088   5.853  1.00  0.00     0.135 A 
ATOM     82  F   UNL     1      -5.061   4.046   7.857  1.00  0.00    -0.206 F 
ATOM     83  C   UNL     1      -5.811   3.489   5.707  1.00  0.00     0.059 A 
ATOM     84  C   UNL     1      -5.143   1.401   4.698  1.00  0.00     0.059 A 
ATOM     85  F   UNL     1      -3.720  -0.054   5.822  1.00  0.00    -0.206 F 
ATOM     86  C   UNL     1      -5.811   2.617   4.619  1.00  0.00     0.060 A 
BRANCH  86  87
ATOM     87  S   UNL     1      -6.567   3.135   3.057  1.00  0.00     0.124 S 
ATOM     88  O   UNL     1      -7.988   3.100   3.382  1.00  0.00    -0.237 OA
ATOM     89  O   UNL     1      -5.990   4.461   2.859  1.00  0.00    -0.237 OA
ATOM     90  O   UNL     1      -6.116   2.118   2.110  1.00  0.00    -0.744 OA
ENDBRANCH  86  87
ENDBRANCH  54  79
BRANCH  66  91
ATOM     91  C   UNL     1      -1.007   2.811  12.308  1.00  0.00     0.058 A 
ATOM     92  C   UNL     1      -1.742   1.616  12.432  1.00  0.00     0.135 A 
ATOM     93  C   UNL     1      -0.842   3.575  13.473  1.00  0.00     0.135 A 
ATOM     94  F   UNL     1      -1.867   0.773  11.399  1.00  0.00    -0.206 F 
ATOM     95  C   UNL     1      -2.318   1.225  13.645  1.00  0.00     0.059 A 
ATOM     96  C   UNL     1      -1.381   3.190  14.698  1.00  0.00     0.059 A 
ATOM     97  F   UNL     1      -0.103   4.697  13.441  1.00  0.00    -0.206 F 
ATOM     98  C   UNL     1      -2.132   2.021  14.775  1.00  0.00     0.060 A 
BRANCH  98  99
ATOM     99  S   UNL     1      -2.830   1.495  16.357  1.00  0.00     0.124 S 
ATOM    100  O   UNL     1      -4.261   1.677  16.137  1.00  0.00    -0.237 OA
ATOM    101  O   UNL     1      -2.375   0.111  16.461  1.00  0.00    -0.237 OA
ATOM    102  O   UNL     1      -2.226   2.413  17.319  1.00  0.00    -0.744 OA
ENDBRANCH  98  99
ENDBRANCH  66  91
ENDBRANCH  40  41
ENDBRANCH  32  35
ENDBRANCH  30  31
ENDBRANCH  29  30
ENDBRANCH   1  29
TORSDOF 20
