REMARK SMILES Cc1ccc(C(=O)NC2CC2)cc1NC(=O)[C@@H]1[C@@H](C(=O)NCCCNC(=O)c2ccc(-c3c4nc(c(-c5c(F)cc(S(=O)(=O)[O-])cc5F)c5ccc([nH]5)c(-c5c(F)cc(S(=O)(=O)[O-])cc5F)c5nc(c(-c6c(F)cc(S(=O)(=O)[O-])cc6F)c6ccc3[nH]6)C=C5)C=C4)cc2)[C@H]2C=C[C@@H]1C2
REMARK SMILES IDX 22 1 21 2 19 3 20 4 18 6 17 7 97 8 94 9 96 10 98 11 95 12
REMARK SMILES IDX 15 13 14 14 16 16 13 17 1 18 2 19 3 20 4 21 12 22 5 23 6 24
REMARK SMILES IDX 7 25 8 26 9 28 10 29 11 30 23 31 24 32 25 33 26 34 27 36
REMARK SMILES IDX 28 37 29 38 93 39 30 40 92 41 31 42 32 43 33 44 86 45 34 46
REMARK SMILES IDX 91 47 85 48 87 49 35 50 90 51 84 52 83 53 36 55 70 56 49 57
REMARK SMILES IDX 69 58 50 59 53 60 68 61 88 62 51 63 52 64 67 66 89 67 54 68
REMARK SMILES IDX 37 69 38 70 47 71 39 72 40 73 46 74 48 75 41 76 42 77 43 78
REMARK SMILES IDX 44 79 45 80 71 81 72 82 81 83 73 84 74 85 80 86 82 87 75 88
REMARK SMILES IDX 76 89 77 90 78 91 79 92 55 93 56 94 65 95 57 96 58 97 64 98
REMARK SMILES IDX 66 99 59 100 60 101 61 102 62 103 63 104
REMARK H PARENT 21 5 14 15 8 27 25 35 87 54 53 65
REMARK Flexibility Score: inf
ROOT
ATOM      1  C   UNL     1      -4.045   7.245   0.754  1.00  0.00     0.117 C 
ENDROOT
BRANCH   1   2
ATOM      2  N   UNL     1      -3.359   6.544  -0.321  1.00  0.00    -0.356 N 
ATOM      3  C   UNL     1      -2.277   5.734  -0.359  1.00  0.00     0.224 C 
ATOM      4  O   UNL     1      -1.928   5.347  -1.483  1.00  0.00    -0.275 OA
ATOM      5  H   UNL     1      -3.768   6.689  -1.205  1.00  0.00     0.163 HD
BRANCH   3   6
ATOM      6  C   UNL     1      -1.422   5.349   0.846  1.00  0.00     0.098 C 
ATOM      7  C   UNL     1      -0.965   3.846   0.669  1.00  0.00     0.099 C 
ATOM      8  C   UNL     1      -1.178   3.246   2.082  1.00  0.00     0.025 C 
ATOM      9  C   UNL     1      -2.002   5.320   2.276  1.00  0.00     0.025 C 
ATOM     10  C   UNL     1      -2.664   3.107   2.294  1.00  0.00    -0.027 C 
ATOM     11  C   UNL     1      -0.940   4.463   2.980  1.00  0.00     0.017 C 
ATOM     12  C   UNL     1      -3.161   4.348   2.390  1.00  0.00    -0.027 C 
BRANCH   7  13
ATOM     13  C   UNL     1       0.458   3.623   0.191  1.00  0.00     0.228 C 
ATOM     14  N   UNL     1       0.903   2.367  -0.156  1.00  0.00    -0.326 N 
ATOM     15  H   UNL     1       1.857   2.339  -0.399  1.00  0.00     0.169 HD
ATOM     16  O   UNL     1       1.294   4.532   0.208  1.00  0.00    -0.274 OA
BRANCH  14  17
ATOM     17  C   UNL     1       0.262   1.107  -0.233  1.00  0.00     0.044 A 
ATOM     18  C   UNL     1       2.491  -0.095   0.268  1.00  0.00     0.046 C 
ATOM     19  C   UNL     1       1.003  -0.059   0.042  1.00  0.00    -0.027 A 
ATOM     20  C   UNL     1       0.332  -1.294   0.085  1.00  0.00     0.006 A 
ATOM     21  C   UNL     1      -1.043  -1.374  -0.138  1.00  0.00     0.014 A 
ATOM     22  C   UNL     1      -1.092   0.974  -0.591  1.00  0.00     0.040 A 
ATOM     23  C   UNL     1      -1.782  -0.239  -0.492  1.00  0.00     0.041 A 
BRANCH  23  24
ATOM     24  C   UNL     1      -3.248  -0.444  -0.746  1.00  0.00     0.251 C 
ATOM     25  O   UNL     1      -3.688  -1.598  -0.737  1.00  0.00    -0.269 OA
ATOM     26  N   UNL     1      -4.159   0.570  -0.954  1.00  0.00    -0.349 N 
ATOM     27  H   UNL     1      -5.085   0.260  -1.084  1.00  0.00     0.164 HD
BRANCH  26  28
ATOM     28  C   UNL     1      -4.003   1.978  -1.014  1.00  0.00     0.082 C 
ATOM     29  C   UNL     1      -3.899   2.659  -2.352  1.00  0.00     0.027 C 
ATOM     30  C   UNL     1      -5.103   2.887  -1.490  1.00  0.00     0.027 C 
ENDBRANCH  26  28
ENDBRANCH  23  24
ENDBRANCH  14  17
ENDBRANCH   7  13
ENDBRANCH   3   6
ENDBRANCH   1   2
BRANCH   1  31
ATOM     31  C   UNL     1      -3.401   8.591   1.051  1.00  0.00     0.042 C 
BRANCH  31  32
ATOM     32  C   UNL     1      -4.119   9.722   0.327  1.00  0.00     0.118 C 
BRANCH  32  33
ATOM     33  N   UNL     1      -4.984  10.507   1.200  1.00  0.00    -0.352 N 
ATOM     34  C   UNL     1      -5.672  11.667   0.887  1.00  0.00     0.251 C 
ATOM     35  H   UNL     1      -5.092  10.173   2.119  1.00  0.00     0.163 HD
ATOM     36  O   UNL     1      -6.183  12.377   1.736  1.00  0.00    -0.269 OA
BRANCH  34  37
ATOM     37  C   UNL     1      -5.871  11.944  -0.548  1.00  0.00     0.039 A 
ATOM     38  C   UNL     1      -7.162  11.765  -1.058  1.00  0.00     0.014 A 
ATOM     39  C   UNL     1      -4.768  12.059  -1.389  1.00  0.00     0.014 A 
ATOM     40  C   UNL     1      -7.328  11.527  -2.419  1.00  0.00     0.010 A 
ATOM     41  C   UNL     1      -4.924  11.726  -2.720  1.00  0.00     0.010 A 
ATOM     42  C   UNL     1      -6.196  11.423  -3.228  1.00  0.00    -0.014 A 
BRANCH  42  43
ATOM     43  C   UNL     1      -6.234  10.920  -4.596  1.00  0.00     0.031 A 
ATOM     44  C   UNL     1      -6.022  11.845  -5.732  1.00  0.00     0.074 A 
ATOM     45  C   UNL     1      -6.401   9.599  -4.828  1.00  0.00     0.049 A 
ATOM     46  N   UNL     1      -6.462  11.635  -6.928  1.00  0.00    -0.248 NA
ATOM     47  C   UNL     1      -5.317  13.118  -5.596  1.00  0.00     0.031 C 
ATOM     48  C   UNL     1      -6.180   8.893  -6.087  1.00  0.00     0.029 A 
ATOM     49  N   UNL     1      -6.990   8.645  -3.996  1.00  0.00    -0.354 N 
ATOM     50  C   UNL     1      -5.893  12.578  -7.752  1.00  0.00     0.074 A 
ATOM     51  C   UNL     1      -5.226  13.508  -6.871  1.00  0.00     0.031 C 
ATOM     52  C   UNL     1      -6.826   7.718  -6.048  1.00  0.00     0.029 A 
ATOM     53  C   UNL     1      -7.606   7.687  -4.823  1.00  0.00     0.049 A 
ATOM     54  H   UNL     1      -6.978   8.643  -3.011  1.00  0.00     0.167 HD
ATOM     55  C   UNL     1      -5.926  12.414  -9.104  1.00  0.00     0.037 A 
ATOM     56  C   UNL     1      -8.953   7.469  -4.767  1.00  0.00     0.037 A 
ATOM     57  C   UNL     1      -6.645  11.204  -9.481  1.00  0.00     0.049 A 
ATOM     58  C   UNL     1      -9.683   7.817  -6.047  1.00  0.00     0.074 A 
ATOM     59  C   UNL     1      -6.218   9.914  -9.749  1.00  0.00     0.029 A 
ATOM     60  N   UNL     1      -8.020  11.129  -9.284  1.00  0.00    -0.354 N 
ATOM     61  N   UNL     1      -9.160   8.511  -7.020  1.00  0.00    -0.248 NA
ATOM     62  C   UNL     1     -11.065   7.431  -6.325  1.00  0.00     0.031 C 
ATOM     63  C   UNL     1      -7.331   9.047  -9.632  1.00  0.00     0.029 A 
ATOM     64  C   UNL     1      -8.441   9.812  -9.321  1.00  0.00     0.049 A 
ATOM     65  H   UNL     1      -8.610  11.904  -9.140  1.00  0.00     0.167 HD
ATOM     66  C   UNL     1     -10.096   8.711  -8.001  1.00  0.00     0.074 A 
ATOM     67  C   UNL     1     -11.264   7.988  -7.534  1.00  0.00     0.031 C 
ATOM     68  C   UNL     1      -9.838   9.467  -9.110  1.00  0.00     0.037 A 
BRANCH  55  69
ATOM     69  C   UNL     1      -5.027  13.207 -10.019  1.00  0.00     0.058 A 
ATOM     70  C   UNL     1      -4.320  12.582 -11.066  1.00  0.00     0.135 A 
ATOM     71  C   UNL     1      -4.775  14.584  -9.859  1.00  0.00     0.135 A 
ATOM     72  F   UNL     1      -4.507  11.290 -11.365  1.00  0.00    -0.206 F 
ATOM     73  C   UNL     1      -3.362  13.247 -11.831  1.00  0.00     0.059 A 
ATOM     74  C   UNL     1      -3.784  15.260 -10.579  1.00  0.00     0.059 A 
ATOM     75  F   UNL     1      -5.488  15.315  -8.987  1.00  0.00    -0.206 F 
ATOM     76  C   UNL     1      -3.075  14.578 -11.560  1.00  0.00     0.060 A 
BRANCH  76  77
ATOM     77  S   UNL     1      -1.745  15.379 -12.479  1.00  0.00     0.124 S 
ATOM     78  O   UNL     1      -0.664  14.402 -12.378  1.00  0.00    -0.237 OA
ATOM     79  O   UNL     1      -2.340  15.530 -13.802  1.00  0.00    -0.237 OA
ATOM     80  O   UNL     1      -1.523  16.620 -11.742  1.00  0.00    -0.744 OA
ENDBRANCH  76  77
ENDBRANCH  55  69
BRANCH  56  81
ATOM     81  C   UNL     1      -9.503   7.583  -3.388  1.00  0.00     0.058 A 
ATOM     82  C   UNL     1      -9.118   6.603  -2.453  1.00  0.00     0.135 A 
ATOM     83  C   UNL     1      -9.985   8.801  -2.889  1.00  0.00     0.135 A 
ATOM     84  F   UNL     1      -8.667   5.411  -2.877  1.00  0.00    -0.206 F 
ATOM     85  C   UNL     1      -9.048   6.877  -1.091  1.00  0.00     0.059 A 
ATOM     86  C   UNL     1      -9.929   9.095  -1.524  1.00  0.00     0.059 A 
ATOM     87  F   UNL     1     -10.374   9.770  -3.731  1.00  0.00    -0.206 F 
ATOM     88  C   UNL     1      -9.390   8.152  -0.647  1.00  0.00     0.060 A 
BRANCH  88  89
ATOM     89  S   UNL     1      -8.948   8.597   1.050  1.00  0.00     0.124 S 
ATOM     90  O   UNL     1      -9.714   7.630   1.828  1.00  0.00    -0.237 OA
ATOM     91  O   UNL     1      -7.499   8.393   1.048  1.00  0.00    -0.237 OA
ATOM     92  O   UNL     1      -9.384   9.983   1.158  1.00  0.00    -0.744 OA
ENDBRANCH  88  89
ENDBRANCH  56  81
BRANCH  68  93
ATOM     93  C   UNL     1     -10.849   9.881 -10.149  1.00  0.00     0.058 A 
ATOM     94  C   UNL     1     -12.193  10.169  -9.862  1.00  0.00     0.135 A 
ATOM     95  C   UNL     1     -10.434  10.142 -11.477  1.00  0.00     0.135 A 
ATOM     96  F   UNL     1     -12.678  10.056  -8.617  1.00  0.00    -0.206 F 
ATOM     97  C   UNL     1     -13.082  10.628 -10.837  1.00  0.00     0.059 A 
ATOM     98  C   UNL     1     -11.290  10.649 -12.451  1.00  0.00     0.059 A 
ATOM     99  F   UNL     1      -9.171   9.920 -11.870  1.00  0.00    -0.206 F 
ATOM    100  C   UNL     1     -12.621  10.866 -12.129  1.00  0.00     0.060 A 
BRANCH 100 101
ATOM    101  S   UNL     1     -13.742  11.516 -13.382  1.00  0.00     0.124 S 
ATOM    102  O   UNL     1     -14.216  10.288 -14.012  1.00  0.00    -0.237 OA
ATOM    103  O   UNL     1     -14.732  12.241 -12.592  1.00  0.00    -0.237 OA
ATOM    104  O   UNL     1     -12.871  12.353 -14.201  1.00  0.00    -0.744 OA
ENDBRANCH 100 101
ENDBRANCH  68  93
ENDBRANCH  42  43
ENDBRANCH  34  37
ENDBRANCH  32  33
ENDBRANCH  31  32
ENDBRANCH   1  31
TORSDOF 17
