REMARK SMILES O=C(N/N=C/c1ccc(C(=O)NCCCNC(=O)c2ccc(-c3c4nc(c(-c5c(F)cc(S(=O)(=O)[O-])cc5F)c5ccc([nH]5)c(-c5c(F)cc(S(=O)(=O)[O-])cc5F)c5nc(c(-c6c(F)cc(S(=O)(=O)[O-])cc6F)c6ccc3[nH]6)C=C5)C=C4)cc2)cc1)C(=O)Nc1cccc(Br)c1
REMARK SMILES IDX 13 1 12 2 10 3 11 4 9 6 6 7 7 8 86 9 8 10 85 11 5 12 4 13
REMARK SMILES IDX 3 14 1 15 2 16 87 18 88 19 89 20 90 22 91 23 96 24 92 25
REMARK SMILES IDX 94 26 93 27 95 28 14 29 15 30 16 31 17 32 18 34 19 35 20 36
REMARK SMILES IDX 84 37 21 38 83 39 22 40 23 41 24 42 77 43 25 44 82 45 76 46
REMARK SMILES IDX 78 47 26 48 81 49 75 50 74 51 27 53 61 54 40 55 60 56 41 57
REMARK SMILES IDX 44 58 59 59 79 60 42 61 43 62 58 64 80 65 45 66 28 67 29 68
REMARK SMILES IDX 38 69 30 70 31 71 37 72 39 73 32 74 33 75 34 76 35 77 36 78
REMARK SMILES IDX 62 79 63 80 72 81 64 82 65 83 71 84 73 85 66 86 67 87 68 88
REMARK SMILES IDX 69 89 70 90 46 91 47 92 56 93 48 94 49 95 55 96 57 97 50 98
REMARK SMILES IDX 51 99 52 100 53 101 54 102
REMARK H PARENT 12 5 3 17 89 21 16 33 78 52 44 63
REMARK Flexibility Score: inf
ROOT
ATOM      1  C   UNL     1      11.152   0.777   2.921  1.00  0.00     0.118 C 
ENDROOT
BRANCH   1   2
ATOM      2  N   UNL     1      11.777   0.361   1.674  1.00  0.00    -0.352 N 
ATOM      3  C   UNL     1      11.239  -0.238   0.562  1.00  0.00     0.251 C 
ATOM      4  O   UNL     1      11.961  -0.493  -0.398  1.00  0.00    -0.269 OA
ATOM      5  H   UNL     1      12.744   0.539   1.618  1.00  0.00     0.163 HD
BRANCH   3   6
ATOM      6  C   UNL     1       9.778  -0.422   0.453  1.00  0.00     0.039 A 
ATOM      7  C   UNL     1       6.763   0.114   0.387  1.00  0.00    -0.005 A 
ATOM      8  C   UNL     1       7.770   0.183  -0.741  1.00  0.00     0.010 A 
ATOM      9  C   UNL     1       7.553  -0.731   1.360  1.00  0.00     0.010 A 
ATOM     10  C   UNL     1       9.170  -0.034  -0.711  1.00  0.00     0.014 A 
ATOM     11  C   UNL     1       8.959  -0.932   1.428  1.00  0.00     0.014 A 
BRANCH   7  12
ATOM     12  C   UNL     1       4.840   1.017   0.552  1.00  0.00     0.141 C 
ATOM     13  N   UNL     1       3.670   0.760   1.231  1.00  0.00    -0.180 NA
BRANCH  13  14
ATOM     14  N   UNL     1       2.547   1.127   0.580  1.00  0.00    -0.239 N 
ATOM     15  O   UNL     1       0.669   0.496  -0.462  1.00  0.00    -0.262 OA
ATOM     16  C   UNL     1       1.875   0.280  -0.298  1.00  0.00     0.329 C 
ATOM     17  H   UNL     1       2.187   2.031   0.732  1.00  0.00     0.194 HD
BRANCH  16  18
ATOM     18  C   UNL     1       2.511  -0.881  -1.126  1.00  0.00     0.315 C 
ATOM     19  O   UNL     1       1.740  -1.549  -1.827  1.00  0.00    -0.263 OA
ATOM     20  N   UNL     1       3.859  -1.175  -1.277  1.00  0.00    -0.318 N 
ATOM     21  H   UNL     1       4.076  -1.859  -1.951  1.00  0.00     0.170 HD
BRANCH  20  22
ATOM     22  C   UNL     1       4.941  -0.627  -0.599  1.00  0.00     0.042 A 
ATOM     23  C   UNL     1       5.568   0.923  -1.318  1.00  0.00     0.026 A 
ATOM     24  C   UNL     1       5.036  -0.932   1.195  1.00  0.00     0.041 A 
ATOM     25  C   UNL     1       6.350   2.179  -0.219  1.00  0.00     0.003 A 
ATOM     26  C   UNL     1       5.690   0.398   2.293  1.00  0.00     0.020 A 
ATOM     27  C   UNL     1       6.378   1.913   1.575  1.00  0.00     0.016 A 
ATOM     28  Br  UNL     1       5.510   0.256   4.175  1.00  0.00    -0.051 Br
ENDBRANCH  20  22
ENDBRANCH  16  18
ENDBRANCH  13  14
ENDBRANCH   7  12
ENDBRANCH   3   6
ENDBRANCH   1   2
BRANCH   1  29
ATOM     29  C   UNL     1      11.316  -0.298   3.988  1.00  0.00     0.042 C 
BRANCH  29  30
ATOM     30  C   UNL     1      12.762  -0.474   4.425  1.00  0.00     0.118 C 
BRANCH  30  31
ATOM     31  N   UNL     1      13.206   0.609   5.289  1.00  0.00    -0.352 N 
ATOM     32  C   UNL     1      13.656   0.541   6.586  1.00  0.00     0.251 C 
ATOM     33  H   UNL     1      13.181   1.510   4.892  1.00  0.00     0.163 HD
ATOM     34  O   UNL     1      13.780   1.567   7.247  1.00  0.00    -0.269 OA
BRANCH  32  35
ATOM     35  C   UNL     1      13.965  -0.778   7.179  1.00  0.00     0.039 A 
ATOM     36  C   UNL     1      13.510  -1.073   8.466  1.00  0.00     0.014 A 
ATOM     37  C   UNL     1      14.689  -1.728   6.453  1.00  0.00     0.014 A 
ATOM     38  C   UNL     1      13.728  -2.345   9.001  1.00  0.00     0.010 A 
ATOM     39  C   UNL     1      14.828  -3.018   6.951  1.00  0.00     0.010 A 
ATOM     40  C   UNL     1      14.358  -3.338   8.234  1.00  0.00    -0.014 A 
BRANCH  40  41
ATOM     41  C   UNL     1      14.567  -4.716   8.747  1.00  0.00     0.031 A 
ATOM     42  C   UNL     1      15.970  -5.244   8.894  1.00  0.00     0.074 A 
ATOM     43  C   UNL     1      13.509  -5.518   8.975  1.00  0.00     0.049 A 
ATOM     44  N   UNL     1      16.372  -6.458   9.160  1.00  0.00    -0.248 NA
ATOM     45  C   UNL     1      17.066  -4.284   8.676  1.00  0.00     0.031 C 
ATOM     46  C   UNL     1      12.104  -5.133   8.822  1.00  0.00     0.029 A 
ATOM     47  N   UNL     1      13.449  -6.837   9.355  1.00  0.00    -0.354 N 
ATOM     48  C   UNL     1      17.760  -6.418   9.105  1.00  0.00     0.074 A 
ATOM     49  C   UNL     1      18.132  -5.068   8.745  1.00  0.00     0.031 C 
ATOM     50  C   UNL     1      11.323  -6.189   9.104  1.00  0.00     0.029 A 
ATOM     51  C   UNL     1      12.169  -7.338   9.411  1.00  0.00     0.049 A 
ATOM     52  H   UNL     1      14.247  -7.372   9.566  1.00  0.00     0.167 HD
ATOM     53  C   UNL     1      18.643  -7.414   9.348  1.00  0.00     0.037 A 
ATOM     54  C   UNL     1      11.729  -8.588   9.656  1.00  0.00     0.037 A 
ATOM     55  C   UNL     1      18.262  -8.739   9.756  1.00  0.00     0.049 A 
ATOM     56  C   UNL     1      12.732  -9.674   9.945  1.00  0.00     0.074 A 
ATOM     57  C   UNL     1      19.081  -9.795  10.115  1.00  0.00     0.029 A 
ATOM     58  N   UNL     1      16.955  -9.192   9.859  1.00  0.00    -0.354 N 
ATOM     59  N   UNL     1      14.042  -9.599   9.963  1.00  0.00    -0.248 NA
ATOM     60  C   UNL     1      12.203 -11.010  10.252  1.00  0.00     0.031 C 
ATOM     61  C   UNL     1      18.271 -10.900  10.388  1.00  0.00     0.029 A 
ATOM     62  C   UNL     1      16.946 -10.518  10.253  1.00  0.00     0.049 A 
ATOM     63  H   UNL     1      16.153  -8.650   9.679  1.00  0.00     0.167 HD
ATOM     64  C   UNL     1      14.490 -10.868  10.313  1.00  0.00     0.074 A 
ATOM     65  C   UNL     1      13.314 -11.690  10.504  1.00  0.00     0.031 C 
ATOM     66  C   UNL     1      15.762 -11.313  10.462  1.00  0.00     0.037 A 
BRANCH  53  67
ATOM     67  C   UNL     1      20.108  -7.117   9.187  1.00  0.00     0.058 A 
ATOM     68  C   UNL     1      20.802  -6.297  10.090  1.00  0.00     0.135 A 
ATOM     69  C   UNL     1      20.843  -7.719   8.152  1.00  0.00     0.135 A 
ATOM     70  F   UNL     1      20.146  -5.683  11.087  1.00  0.00    -0.206 F 
ATOM     71  C   UNL     1      22.169  -6.070   9.964  1.00  0.00     0.059 A 
ATOM     72  C   UNL     1      22.216  -7.529   8.023  1.00  0.00     0.059 A 
ATOM     73  F   UNL     1      20.228  -8.510   7.258  1.00  0.00    -0.206 F 
ATOM     74  C   UNL     1      22.868  -6.696   8.930  1.00  0.00     0.060 A 
BRANCH  74  75
ATOM     75  S   UNL     1      24.647  -6.418   8.803  1.00  0.00     0.124 S 
ATOM     76  O   UNL     1      24.693  -5.039   8.326  1.00  0.00    -0.237 OA
ATOM     77  O   UNL     1      25.094  -6.628  10.176  1.00  0.00    -0.237 OA
ATOM     78  O   UNL     1      25.082  -7.428   7.843  1.00  0.00    -0.744 OA
ENDBRANCH  74  75
ENDBRANCH  53  67
BRANCH  54  79
ATOM     79  C   UNL     1      10.271  -8.886   9.630  1.00  0.00     0.058 A 
ATOM     80  C   UNL     1       9.574  -9.204  10.805  1.00  0.00     0.135 A 
ATOM     81  C   UNL     1       9.545  -8.862   8.428  1.00  0.00     0.135 A 
ATOM     82  F   UNL     1      10.224  -9.246  11.979  1.00  0.00    -0.206 F 
ATOM     83  C   UNL     1       8.218  -9.514  10.789  1.00  0.00     0.059 A 
ATOM     84  C   UNL     1       8.182  -9.140   8.390  1.00  0.00     0.059 A 
ATOM     85  F   UNL     1      10.158  -8.544   7.277  1.00  0.00    -0.206 F 
ATOM     86  C   UNL     1       7.530  -9.480   9.575  1.00  0.00     0.060 A 
BRANCH  86  87
ATOM     87  S   UNL     1       5.764  -9.855   9.567  1.00  0.00     0.124 S 
ATOM     88  O   UNL     1       5.771 -11.300   9.764  1.00  0.00    -0.237 OA
ATOM     89  O   UNL     1       5.277  -9.059  10.690  1.00  0.00    -0.237 OA
ATOM     90  O   UNL     1       5.330  -9.398   8.250  1.00  0.00    -0.744 OA
ENDBRANCH  86  87
ENDBRANCH  54  79
BRANCH  66  91
ATOM     91  C   UNL     1      15.960 -12.737  10.900  1.00  0.00     0.058 A 
ATOM     92  C   UNL     1      15.761 -13.813  10.024  1.00  0.00     0.135 A 
ATOM     93  C   UNL     1      16.449 -13.017  12.187  1.00  0.00     0.135 A 
ATOM     94  F   UNL     1      15.288 -13.599   8.786  1.00  0.00    -0.206 F 
ATOM     95  C   UNL     1      16.035 -15.121  10.410  1.00  0.00     0.059 A 
ATOM     96  C   UNL     1      16.754 -14.313  12.585  1.00  0.00     0.059 A 
ATOM     97  F   UNL     1      16.665 -12.020  13.060  1.00  0.00    -0.206 F 
ATOM     98  C   UNL     1      16.540 -15.360  11.690  1.00  0.00     0.060 A 
BRANCH  98  99
ATOM     99  S   UNL     1      16.956 -17.055  12.153  1.00  0.00     0.124 S 
ATOM    100  O   UNL     1      15.634 -17.645  12.331  1.00  0.00    -0.237 OA
ATOM    101  O   UNL     1      17.707 -17.520  10.991  1.00  0.00    -0.237 OA
ATOM    102  O   UNL     1      17.740 -16.891  13.374  1.00  0.00    -0.744 OA
ENDBRANCH  98  99
ENDBRANCH  66  91
ENDBRANCH  40  41
ENDBRANCH  32  35
ENDBRANCH  30  31
ENDBRANCH  29  30
ENDBRANCH   1  29
TORSDOF 17
