REMARK SMILES COc1ccc(-n2nc(C(=O)NCCCNC(=O)c3ccc(-c4c5nc(c(-c6c(F)cc(S(=O)(=O)[O-])cc6F)c6ccc([nH]6)c(-c6c(F)cc(S(=O)(=O)[O-])cc6F)c6nc(c(-c7c(F)cc(S(=O)(=O)[O-])cc7F)c7ccc4[nH]7)C=C6)C=C5)cc3)c(=O)cc2C)cc1
REMARK SMILES IDX 14 1 13 2 12 3 10 4 11 5 9 7 7 8 8 9 88 10 87 11 89 12 85 13
REMARK SMILES IDX 86 14 6 15 3 16 4 17 91 18 5 19 90 20 2 21 1 22 15 23 16 24
REMARK SMILES IDX 17 25 18 27 19 28 20 29 84 30 21 31 83 32 22 33 23 34 24 35
REMARK SMILES IDX 77 36 25 37 82 38 76 39 78 40 26 41 81 42 75 43 74 44 27 46
REMARK SMILES IDX 61 47 40 48 60 49 41 50 44 51 59 52 79 53 42 54 43 55 58 57
REMARK SMILES IDX 80 58 45 59 28 60 29 61 38 62 30 63 31 64 37 65 39 66 32 67
REMARK SMILES IDX 33 68 34 69 35 70 36 71 62 72 63 73 72 74 64 75 65 76 71 77
REMARK SMILES IDX 73 78 66 79 67 80 68 81 69 82 70 83 46 84 47 85 56 86 48 87
REMARK SMILES IDX 49 88 55 89 57 90 50 91 51 92 52 93 53 94 54 95
REMARK H PARENT 12 6 16 26 78 45 44 56
REMARK Flexibility Score: inf
ROOT
ATOM      1  C   UNL     1       1.756   6.732 -10.361  1.00  0.00     0.042 C 
ENDROOT
BRANCH   1   2
ATOM      2  C   UNL     1       2.139   7.009  -8.904  1.00  0.00     0.118 C 
BRANCH   2   3
ATOM      3  N   UNL     1       1.042   6.708  -8.003  1.00  0.00    -0.350 N 
ATOM      4  C   UNL     1       0.715   5.566  -7.312  1.00  0.00     0.275 C 
ATOM      5  O   UNL     1      -0.381   5.535  -6.751  1.00  0.00    -0.267 OA
ATOM      6  H   UNL     1       0.420   7.458  -7.861  1.00  0.00     0.163 HD
BRANCH   4   7
ATOM      7  C   UNL     1       1.647   4.369  -7.141  1.00  0.00     0.196 A 
ATOM      8  N   UNL     1       2.308   2.658  -5.720  1.00  0.00    -0.237 N 
ATOM      9  N   UNL     1       1.570   3.789  -5.971  1.00  0.00    -0.158 NA
ATOM     10  C   UNL     1       3.267   2.154  -6.605  1.00  0.00     0.044 A 
ATOM     11  C   UNL     1       3.451   2.699  -7.815  1.00  0.00     0.078 A 
ATOM     12  C   UNL     1       4.062   0.915  -6.272  1.00  0.00     0.067 C 
ATOM     13  C   UNL     1       2.549   3.787  -8.202  1.00  0.00     0.213 A 
ATOM     14  O   UNL     1       2.532   4.170  -9.358  1.00  0.00    -0.287 OA
BRANCH   8  15
ATOM     15  C   UNL     1       1.860   1.960  -4.559  1.00  0.00     0.065 A 
ATOM     16  C   UNL     1       0.928   0.527  -2.313  1.00  0.00     0.119 A 
ATOM     17  C   UNL     1       0.051   0.870  -3.340  1.00  0.00     0.048 A 
ATOM     18  C   UNL     1       2.271   0.894  -2.404  1.00  0.00     0.048 A 
ATOM     19  C   UNL     1       0.507   1.598  -4.441  1.00  0.00     0.032 A 
ATOM     20  C   UNL     1       2.730   1.611  -3.518  1.00  0.00     0.032 A 
BRANCH  16  21
ATOM     21  O   UNL     1       0.383  -0.204  -1.293  1.00  0.00    -0.497 OA
ATOM     22  C   UNL     1       0.945   0.045  -0.010  1.00  0.00     0.278 C 
ENDBRANCH  16  21
ENDBRANCH   8  15
ENDBRANCH   4   7
ENDBRANCH   2   3
ENDBRANCH   1   2
BRANCH   1  23
ATOM     23  C   UNL     1       0.842   7.780 -10.988  1.00  0.00     0.118 C 
BRANCH  23  24
ATOM     24  N   UNL     1       1.542   9.019 -11.286  1.00  0.00    -0.352 N 
ATOM     25  C   UNL     1       1.728   9.658 -12.489  1.00  0.00     0.251 C 
ATOM     26  H   UNL     1       1.945   9.469 -10.508  1.00  0.00     0.163 HD
ATOM     27  O   UNL     1       2.531  10.586 -12.554  1.00  0.00    -0.269 OA
BRANCH  25  28
ATOM     28  C   UNL     1       0.986   9.238 -13.702  1.00  0.00     0.039 A 
ATOM     29  C   UNL     1       1.659   9.211 -14.928  1.00  0.00     0.014 A 
ATOM     30  C   UNL     1      -0.375   8.922 -13.652  1.00  0.00     0.014 A 
ATOM     31  C   UNL     1       0.986   8.816 -16.090  1.00  0.00     0.010 A 
ATOM     32  C   UNL     1      -1.029   8.469 -14.798  1.00  0.00     0.010 A 
ATOM     33  C   UNL     1      -0.357   8.416 -16.029  1.00  0.00    -0.014 A 
BRANCH  33  34
ATOM     34  C   UNL     1      -1.087   7.946 -17.237  1.00  0.00     0.031 A 
ATOM     35  C   UNL     1      -2.260   8.730 -17.760  1.00  0.00     0.074 A 
ATOM     36  C   UNL     1      -0.748   6.774 -17.811  1.00  0.00     0.049 A 
ATOM     37  N   UNL     1      -3.105   8.421 -18.709  1.00  0.00    -0.248 NA
ATOM     38  C   UNL     1      -2.533  10.022 -17.110  1.00  0.00     0.031 C 
ATOM     39  C   UNL     1       0.348   5.905 -17.377  1.00  0.00     0.029 A 
ATOM     40  N   UNL     1      -1.305   6.100 -18.869  1.00  0.00    -0.354 N 
ATOM     41  C   UNL     1      -4.025   9.462 -18.753  1.00  0.00     0.074 A 
ATOM     42  C   UNL     1      -3.653  10.397 -17.712  1.00  0.00     0.031 C 
ATOM     43  C   UNL     1       0.385   4.818 -18.164  1.00  0.00     0.029 A 
ATOM     44  C   UNL     1      -0.705   4.891 -19.132  1.00  0.00     0.049 A 
ATOM     45  H   UNL     1      -2.063   6.450 -19.391  1.00  0.00     0.167 HD
ATOM     46  C   UNL     1      -5.075   9.631 -19.593  1.00  0.00     0.037 A 
ATOM     47  C   UNL     1      -1.009   3.940 -20.037  1.00  0.00     0.037 A 
ATOM     48  C   UNL     1      -5.418   8.715 -20.649  1.00  0.00     0.049 A 
ATOM     49  C   UNL     1      -2.172   4.154 -20.967  1.00  0.00     0.074 A 
ATOM     50  C   UNL     1      -6.426   8.826 -21.591  1.00  0.00     0.029 A 
ATOM     51  N   UNL     1      -4.760   7.522 -20.907  1.00  0.00    -0.354 N 
ATOM     52  N   UNL     1      -3.004   5.167 -21.024  1.00  0.00    -0.248 NA
ATOM     53  C   UNL     1      -2.438   3.101 -21.957  1.00  0.00     0.031 C 
ATOM     54  C   UNL     1      -6.398   7.684 -22.398  1.00  0.00     0.029 A 
ATOM     55  C   UNL     1      -5.347   6.880 -21.984  1.00  0.00     0.049 A 
ATOM     56  H   UNL     1      -3.988   7.181 -20.399  1.00  0.00     0.167 HD
ATOM     57  C   UNL     1      -3.874   4.885 -22.070  1.00  0.00     0.074 A 
ATOM     58  C   UNL     1      -3.465   3.611 -22.623  1.00  0.00     0.031 C 
ATOM     59  C   UNL     1      -4.917   5.618 -22.532  1.00  0.00     0.037 A 
BRANCH  46  60
ATOM     60  C   UNL     1      -5.929  10.855 -19.404  1.00  0.00     0.058 A 
ATOM     61  C   UNL     1      -5.465  12.136 -19.742  1.00  0.00     0.135 A 
ATOM     62  C   UNL     1      -7.239  10.742 -18.910  1.00  0.00     0.135 A 
ATOM     63  F   UNL     1      -4.216  12.302 -20.206  1.00  0.00    -0.206 F 
ATOM     64  C   UNL     1      -6.257  13.266 -19.566  1.00  0.00     0.059 A 
ATOM     65  C   UNL     1      -8.058  11.856 -18.750  1.00  0.00     0.059 A 
ATOM     66  F   UNL     1      -7.734   9.541 -18.573  1.00  0.00    -0.206 F 
ATOM     67  C   UNL     1      -7.551  13.117 -19.066  1.00  0.00     0.060 A 
BRANCH  67  68
ATOM     68  S   UNL     1      -8.567  14.592 -18.840  1.00  0.00     0.124 S 
ATOM     69  O   UNL     1      -7.974  15.171 -17.639  1.00  0.00    -0.237 OA
ATOM     70  O   UNL     1      -8.331  15.328 -20.079  1.00  0.00    -0.237 OA
ATOM     71  O   UNL     1      -9.915  14.056 -18.680  1.00  0.00    -0.744 OA
ENDBRANCH  67  68
ENDBRANCH  46  60
BRANCH  47  72
ATOM     72  C   UNL     1      -0.186   2.704 -20.116  1.00  0.00     0.058 A 
ATOM     73  C   UNL     1       0.693   2.493 -21.188  1.00  0.00     0.135 A 
ATOM     74  C   UNL     1      -0.244   1.723 -19.114  1.00  0.00     0.135 A 
ATOM     75  F   UNL     1       0.778   3.399 -22.174  1.00  0.00    -0.206 F 
ATOM     76  C   UNL     1       1.479   1.348 -21.271  1.00  0.00     0.059 A 
ATOM     77  C   UNL     1       0.548   0.580 -19.164  1.00  0.00     0.059 A 
ATOM     78  F   UNL     1      -1.058   1.886 -18.060  1.00  0.00    -0.206 F 
ATOM     79  C   UNL     1       1.401   0.398 -20.252  1.00  0.00     0.060 A 
BRANCH  79  80
ATOM     80  S   UNL     1       2.467  -1.058 -20.340  1.00  0.00     0.124 S 
ATOM     81  O   UNL     1       1.795  -1.852 -21.362  1.00  0.00    -0.237 OA
ATOM     82  O   UNL     1       3.750  -0.478 -20.723  1.00  0.00    -0.237 OA
ATOM     83  O   UNL     1       2.412  -1.595 -18.983  1.00  0.00    -0.744 OA
ENDBRANCH  79  80
ENDBRANCH  47  72
BRANCH  59  84
ATOM     84  C   UNL     1      -5.670   5.085 -23.718  1.00  0.00     0.058 A 
ATOM     85  C   UNL     1      -6.583   4.028 -23.595  1.00  0.00     0.135 A 
ATOM     86  C   UNL     1      -5.531   5.692 -24.976  1.00  0.00     0.135 A 
ATOM     87  F   UNL     1      -6.746   3.409 -22.414  1.00  0.00    -0.206 F 
ATOM     88  C   UNL     1      -7.328   3.583 -24.682  1.00  0.00     0.059 A 
ATOM     89  C   UNL     1      -6.281   5.279 -26.072  1.00  0.00     0.059 A 
ATOM     90  F   UNL     1      -4.675   6.713 -25.144  1.00  0.00    -0.206 F 
ATOM     91  C   UNL     1      -7.173   4.218 -25.916  1.00  0.00     0.060 A 
BRANCH  91  92
ATOM     92  S   UNL     1      -8.188   3.671 -27.306  1.00  0.00     0.124 S 
ATOM     93  O   UNL     1      -7.525   2.427 -27.682  1.00  0.00    -0.237 OA
ATOM     94  O   UNL     1      -9.506   3.529 -26.697  1.00  0.00    -0.237 OA
ATOM     95  O   UNL     1      -8.064   4.764 -28.267  1.00  0.00    -0.744 OA
ENDBRANCH  91  92
ENDBRANCH  59  84
ENDBRANCH  33  34
ENDBRANCH  25  28
ENDBRANCH  23  24
ENDBRANCH   1  23
TORSDOF 15
