REMARK SMILES C[C@H]1CC[C@@]2(CO)C(C(=O)NCCCNC(=O)c3ccc(-c4c5nc(c(-c6c(F)cc(S(=O)(=O)[O-])cc6F)c6ccc([nH]6)c(-c6c(F)cc(S(=O)(=O)[O-])cc6F)c6nc(c(-c7c(F)cc(S(=O)(=O)[O-])cc7F)c7ccc4[nH]7)C=C6)C=C5)cc3)=C[C@@H](O)C[C@@H]2[C@@]1(C)CCc1ccoc1
REMARK SMILES IDX 13 1 12 2 11 3 9 4 10 5 8 7 1 8 2 9 3 10 89 11 4 12 88 13
REMARK SMILES IDX 90 14 5 15 87 16 85 17 84 18 91 19 92 20 93 21 94 22 97 23
REMARK SMILES IDX 95 24 96 25 6 26 7 27 86 29 14 31 15 32 16 33 17 35 18 36
REMARK SMILES IDX 19 37 83 38 20 39 82 40 21 41 22 42 23 43 76 44 24 45 81 46
REMARK SMILES IDX 75 47 77 48 25 49 80 50 74 51 73 52 26 54 60 55 39 56 59 57
REMARK SMILES IDX 40 58 43 59 58 60 78 61 41 62 42 63 57 65 79 66 44 67 27 68
REMARK SMILES IDX 28 69 37 70 29 71 30 72 36 73 38 74 31 75 32 76 33 77 34 78
REMARK SMILES IDX 35 79 61 80 62 81 71 82 63 83 64 84 70 85 72 86 65 87 66 88
REMARK SMILES IDX 67 89 68 90 69 91 45 92 46 93 55 94 47 95 48 96 54 97 56 98
REMARK SMILES IDX 49 99 50 100 51 101 52 102 53 103
REMARK H PARENT 11 6 7 28 86 30 15 34 77 53 43 64
REMARK Flexibility Score: inf
ROOT
ATOM      1  C   UNL     1      -0.085   0.002   4.164  1.00  0.00     0.042 C 
ENDROOT
BRANCH   1   2
ATOM      2  C   UNL     1       0.408   0.305   2.757  1.00  0.00     0.118 C 
BRANCH   2   3
ATOM      3  N   UNL     1       1.383  -0.694   2.303  1.00  0.00    -0.352 N 
ATOM      4  C   UNL     1       1.247  -1.752   1.435  1.00  0.00     0.247 C 
ATOM      5  O   UNL     1       2.173  -2.532   1.240  1.00  0.00    -0.270 OA
ATOM      6  H   UNL     1       2.285  -0.588   2.683  1.00  0.00     0.163 HD
BRANCH   4   7
ATOM      7  C   UNL     1      -0.027  -1.856   0.682  1.00  0.00     0.024 C 
ATOM      8  C   UNL     1       1.491   1.815  -1.091  1.00  0.00     0.008 C 
ATOM      9  C   UNL     1       0.656   1.136  -2.208  1.00  0.00    -0.008 C 
ATOM     10  C   UNL     1       1.318  -0.196  -2.581  1.00  0.00     0.005 C 
ATOM     11  C   UNL     1      -0.885   0.959  -1.859  1.00  0.00    -0.026 C 
ATOM     12  C   UNL     1       1.241  -1.223  -1.456  1.00  0.00     0.015 C 
ATOM     13  C   UNL     1      -0.945  -0.028  -0.630  1.00  0.00     0.011 C 
ATOM     14  C   UNL     1      -1.640   0.410  -3.083  1.00  0.00     0.012 C 
ATOM     15  C   UNL     1      -0.148  -1.377  -0.771  1.00  0.00     0.027 C 
ATOM     16  C   UNL     1      -2.333  -0.260   0.049  1.00  0.00     0.041 C 
ATOM     17  C   UNL     1      -2.410  -1.409   1.113  1.00  0.00     0.138 C 
ATOM     18  C   UNL     1      -1.112  -2.085   1.439  1.00  0.00     0.014 C 
BRANCH  11  19
ATOM     19  C   UNL     1      -1.434   2.412  -1.535  1.00  0.00     0.012 C 
BRANCH  19  20
ATOM     20  C   UNL     1      -2.832   2.859  -2.009  1.00  0.00     0.039 C 
BRANCH  20  21
ATOM     21  C   UNL     1      -3.921   2.908  -0.994  1.00  0.00    -0.010 A 
ATOM     22  C   UNL     1      -5.319   2.906  -1.279  1.00  0.00     0.045 A 
ATOM     23  C   UNL     1      -3.834   3.055   0.375  1.00  0.00     0.198 A 
ATOM     24  C   UNL     1      -5.966   3.025  -0.073  1.00  0.00     0.195 A 
ATOM     25  O   UNL     1      -5.067   3.113   0.937  1.00  0.00    -0.472 OA
ENDBRANCH  20  21
ENDBRANCH  19  20
ENDBRANCH  11  19
BRANCH  15  26
ATOM     26  C   UNL     1      -0.944  -2.517  -1.510  1.00  0.00     0.168 C 
BRANCH  26  27
ATOM     27  O   UNL     1      -0.808  -2.524  -2.922  1.00  0.00    -0.395 OA
ATOM     28  H   UNL     1      -1.170  -1.700  -3.285  1.00  0.00     0.210 HD
ENDBRANCH  26  27
ENDBRANCH  15  26
BRANCH  17  29
ATOM     29  O   UNL     1      -2.847  -0.811   2.338  1.00  0.00    -0.389 OA
ATOM     30  H   UNL     1      -2.194  -0.156   2.629  1.00  0.00     0.211 HD
ENDBRANCH  17  29
ENDBRANCH   4   7
ENDBRANCH   2   3
ENDBRANCH   1   2
BRANCH   1  31
ATOM     31  C   UNL     1       0.871   0.536   5.215  1.00  0.00     0.118 C 
BRANCH  31  32
ATOM     32  N   UNL     1       0.600   1.934   5.540  1.00  0.00    -0.352 N 
ATOM     33  C   UNL     1       0.175   2.480   6.729  1.00  0.00     0.251 C 
ATOM     34  H   UNL     1       0.741   2.575   4.806  1.00  0.00     0.163 HD
ATOM     35  O   UNL     1      -0.215   3.650   6.762  1.00  0.00    -0.269 OA
BRANCH  33  36
ATOM     36  C   UNL     1       0.171   1.659   7.958  1.00  0.00     0.039 A 
ATOM     37  C   UNL     1      -0.896   1.751   8.854  1.00  0.00     0.014 A 
ATOM     38  C   UNL     1       1.224   0.779   8.216  1.00  0.00     0.014 A 
ATOM     39  C   UNL     1      -0.930   0.914   9.974  1.00  0.00     0.010 A 
ATOM     40  C   UNL     1       1.120  -0.141   9.249  1.00  0.00     0.010 A 
ATOM     41  C   UNL     1       0.061  -0.064  10.163  1.00  0.00    -0.014 A 
BRANCH  41  42
ATOM     42  C   UNL     1       0.053  -0.979  11.335  1.00  0.00     0.031 A 
ATOM     43  C   UNL     1       1.234  -0.991  12.275  1.00  0.00     0.074 A 
ATOM     44  C   UNL     1      -0.969  -1.840  11.513  1.00  0.00     0.049 A 
ATOM     45  N   UNL     1       1.469  -1.770  13.299  1.00  0.00    -0.248 NA
ATOM     46  C   UNL     1       2.318  -0.032  11.998  1.00  0.00     0.031 C 
ATOM     47  C   UNL     1      -2.131  -1.973  10.632  1.00  0.00     0.029 A 
ATOM     48  N   UNL     1      -1.192  -2.774  12.494  1.00  0.00    -0.354 N 
ATOM     49  C   UNL     1       2.733  -1.415  13.761  1.00  0.00     0.074 A 
ATOM     50  C   UNL     1       3.247  -0.410  12.862  1.00  0.00     0.031 C 
ATOM     51  C   UNL     1      -2.961  -2.902  11.132  1.00  0.00     0.029 A 
ATOM     52  C   UNL     1      -2.375  -3.460  12.347  1.00  0.00     0.049 A 
ATOM     53  H   UNL     1      -0.564  -2.937  13.234  1.00  0.00     0.167 HD
ATOM     54  C   UNL     1       3.390  -1.857  14.859  1.00  0.00     0.037 A 
ATOM     55  C   UNL     1      -2.924  -4.428  13.107  1.00  0.00     0.037 A 
ATOM     56  C   UNL     1       2.842  -2.816  15.780  1.00  0.00     0.049 A 
ATOM     57  C   UNL     1      -2.196  -4.875  14.346  1.00  0.00     0.074 A 
ATOM     58  C   UNL     1       3.384  -3.279  16.964  1.00  0.00     0.029 A 
ATOM     59  N   UNL     1       1.619  -3.452  15.620  1.00  0.00    -0.354 N 
ATOM     60  N   UNL     1      -1.033  -4.478  14.807  1.00  0.00    -0.248 NA
ATOM     61  C   UNL     1      -2.855  -5.893  15.175  1.00  0.00     0.031 C 
ATOM     62  C   UNL     1       2.507  -4.228  17.501  1.00  0.00     0.029 A 
ATOM     63  C   UNL     1       1.395  -4.315  16.678  1.00  0.00     0.049 A 
ATOM     64  H   UNL     1       1.002  -3.309  14.867  1.00  0.00     0.167 HD
ATOM     65  C   UNL     1      -0.836  -5.173  15.995  1.00  0.00     0.074 A 
ATOM     66  C   UNL     1      -2.005  -6.007  16.187  1.00  0.00     0.031 C 
ATOM     67  C   UNL     1       0.215  -5.125  16.852  1.00  0.00     0.037 A 
BRANCH  54  68
ATOM     68  C   UNL     1       4.760  -1.293  15.130  1.00  0.00     0.058 A 
ATOM     69  C   UNL     1       4.949   0.052  15.489  1.00  0.00     0.135 A 
ATOM     70  C   UNL     1       5.899  -2.111  15.050  1.00  0.00     0.135 A 
ATOM     71  F   UNL     1       3.900   0.887  15.564  1.00  0.00    -0.206 F 
ATOM     72  C   UNL     1       6.218   0.575  15.721  1.00  0.00     0.059 A 
ATOM     73  C   UNL     1       7.175  -1.618  15.311  1.00  0.00     0.059 A 
ATOM     74  F   UNL     1       5.780  -3.405  14.711  1.00  0.00    -0.206 F 
ATOM     75  C   UNL     1       7.325  -0.269  15.630  1.00  0.00     0.060 A 
BRANCH  75  76
ATOM     76  S   UNL     1       8.963   0.424  15.941  1.00  0.00     0.124 S 
ATOM     77  O   UNL     1       9.172   1.225  14.739  1.00  0.00    -0.237 OA
ATOM     78  O   UNL     1       8.754   1.175  17.174  1.00  0.00    -0.237 OA
ATOM     79  O   UNL     1       9.814  -0.755  16.065  1.00  0.00    -0.744 OA
ENDBRANCH  75  76
ENDBRANCH  54  68
BRANCH  55  80
ATOM     80  C   UNL     1      -4.246  -5.005  12.740  1.00  0.00     0.058 A 
ATOM     81  C   UNL     1      -5.389  -4.738  13.508  1.00  0.00     0.135 A 
ATOM     82  C   UNL     1      -4.401  -5.816  11.604  1.00  0.00     0.135 A 
ATOM     83  F   UNL     1      -5.295  -3.972  14.606  1.00  0.00    -0.206 F 
ATOM     84  C   UNL     1      -6.633  -5.267  13.177  1.00  0.00     0.059 A 
ATOM     85  C   UNL     1      -5.639  -6.334  11.236  1.00  0.00     0.059 A 
ATOM     86  F   UNL     1      -3.344  -6.087  10.822  1.00  0.00    -0.206 F 
ATOM     87  C   UNL     1      -6.749  -6.062  12.036  1.00  0.00     0.060 A 
BRANCH  87  88
ATOM     88  S   UNL     1      -8.377  -6.702  11.586  1.00  0.00     0.124 S 
ATOM     89  O   UNL     1      -8.583  -7.724  12.606  1.00  0.00    -0.237 OA
ATOM     90  O   UNL     1      -9.215  -5.512  11.696  1.00  0.00    -0.237 OA
ATOM     91  O   UNL     1      -8.180  -7.197  10.227  1.00  0.00    -0.744 OA
ENDBRANCH  87  88
ENDBRANCH  55  80
BRANCH  67  92
ATOM     92  C   UNL     1       0.133  -5.966  18.095  1.00  0.00     0.058 A 
ATOM     93  C   UNL     1       0.266  -7.362  18.054  1.00  0.00     0.135 A 
ATOM     94  C   UNL     1      -0.016  -5.356  19.352  1.00  0.00     0.135 A 
ATOM     95  F   UNL     1       0.407  -7.993  16.878  1.00  0.00    -0.206 F 
ATOM     96  C   UNL     1       0.230  -8.127  19.215  1.00  0.00     0.059 A 
ATOM     97  C   UNL     1      -0.024  -6.098  20.527  1.00  0.00     0.059 A 
ATOM     98  F   UNL     1      -0.134  -4.021  19.446  1.00  0.00    -0.206 F 
ATOM     99  C   UNL     1       0.088  -7.485  20.447  1.00  0.00     0.060 A 
BRANCH  99 100
ATOM    100  S   UNL     1       0.081  -8.488  21.947  1.00  0.00     0.124 S 
ATOM    101  O   UNL     1      -1.236  -9.113  21.876  1.00  0.00    -0.237 OA
ATOM    102  O   UNL     1       1.218  -9.378  21.733  1.00  0.00    -0.237 OA
ATOM    103  O   UNL     1       0.253  -7.506  23.013  1.00  0.00    -0.744 OA
ENDBRANCH  99 100
ENDBRANCH  67  92
ENDBRANCH  41  42
ENDBRANCH  33  36
ENDBRANCH  31  32
ENDBRANCH   1  31
TORSDOF 19
