REMARK SMILES CC1=C(CCC(=O)NCCCNC(=O)c2ccc(-c3c4nc(c(-c5c(F)cc(S(=O)(=O)[O-])cc5F)c5ccc([nH]5)c(-c5c(F)cc(S(=O)(=O)[O-])cc5F)c5nc(c(-c6c(F)cc(S(=O)(=O)[O-])cc6F)c6ccc3[nH]6)C=C5)C=C4)cc2)N=N[C@H]1C
REMARK SMILES IDX 10 1 9 2 8 3 6 4 7 5 5 7 4 8 3 9 1 10 2 11 83 12 81 13 82 14
REMARK SMILES IDX 84 15 11 16 12 17 13 18 14 20 15 21 16 22 80 23 17 24 79 25
REMARK SMILES IDX 18 26 19 27 20 28 73 29 21 30 78 31 72 32 74 33 22 34 77 35
REMARK SMILES IDX 71 36 70 37 23 39 57 40 36 41 56 42 37 43 40 44 55 45 75 46
REMARK SMILES IDX 38 47 39 48 54 50 76 51 41 52 24 53 25 54 34 55 26 56 27 57
REMARK SMILES IDX 33 58 35 59 28 60 29 61 30 62 31 63 32 64 58 65 59 66 68 67
REMARK SMILES IDX 60 68 61 69 67 70 69 71 62 72 63 73 64 74 65 75 66 76 42 77
REMARK SMILES IDX 43 78 52 79 44 80 45 81 51 82 53 83 46 84 47 85 48 86 49 87
REMARK SMILES IDX 50 88
REMARK H PARENT 8 6 12 19 74 38 40 49
REMARK Flexibility Score: inf
ROOT
ATOM      1  C   UNL     1      -0.292   4.302   1.128  1.00  0.00     0.042 C 
ENDROOT
BRANCH   1   2
ATOM      2  C   UNL     1      -0.700   3.647   2.441  1.00  0.00     0.117 C 
BRANCH   2   3
ATOM      3  N   UNL     1      -2.138   3.433   2.478  1.00  0.00    -0.356 N 
ATOM      4  C   UNL     1      -2.856   2.321   2.151  1.00  0.00     0.220 C 
ATOM      5  O   UNL     1      -4.079   2.419   2.050  1.00  0.00    -0.275 OA
ATOM      6  H   UNL     1      -2.671   4.203   2.782  1.00  0.00     0.163 HD
BRANCH   4   7
ATOM      7  C   UNL     1      -2.173   0.976   1.993  1.00  0.00     0.106 C 
BRANCH   7   8
ATOM      8  C   UNL     1      -1.986   0.518   0.542  1.00  0.00     0.068 C 
BRANCH   8   9
ATOM      9  C   UNL     1      -0.702   0.976  -0.082  1.00  0.00     0.064 C 
ATOM     10  C   UNL     1       0.978  -0.873   0.518  1.00  0.00     0.044 C 
ATOM     11  C   UNL     1       0.510   0.409  -0.046  1.00  0.00    -0.024 C 
ATOM     12  C   UNL     1       1.421   1.369  -0.734  1.00  0.00     0.153 C 
ATOM     13  N   UNL     1      -0.708   2.088  -0.882  1.00  0.00    -0.160 NA
ATOM     14  N   UNL     1       0.461   2.366  -1.271  1.00  0.00    -0.181 NA
ATOM     15  C   UNL     1       2.379   2.055   0.243  1.00  0.00     0.040 C 
ENDBRANCH   8   9
ENDBRANCH   7   8
ENDBRANCH   4   7
ENDBRANCH   2   3
ENDBRANCH   1   2
BRANCH   1  16
ATOM     16  C   UNL     1      -0.384   5.801   1.132  1.00  0.00     0.118 C 
BRANCH  16  17
ATOM     17  N   UNL     1       0.844   6.482   1.537  1.00  0.00    -0.352 N 
ATOM     18  C   UNL     1       1.240   7.771   1.185  1.00  0.00     0.251 C 
ATOM     19  H   UNL     1       1.456   5.977   2.120  1.00  0.00     0.163 HD
ATOM     20  O   UNL     1       2.381   8.144   1.367  1.00  0.00    -0.269 OA
BRANCH  18  21
ATOM     21  C   UNL     1       0.227   8.658   0.556  1.00  0.00     0.039 A 
ATOM     22  C   UNL     1       0.550   9.536  -0.479  1.00  0.00     0.014 A 
ATOM     23  C   UNL     1      -1.095   8.506   0.951  1.00  0.00     0.014 A 
ATOM     24  C   UNL     1      -0.491  10.171  -1.160  1.00  0.00     0.010 A 
ATOM     25  C   UNL     1      -2.100   8.901   0.117  1.00  0.00     0.010 A 
ATOM     26  C   UNL     1      -1.824   9.816  -0.879  1.00  0.00    -0.014 A 
BRANCH  26  27
ATOM     27  C   UNL     1      -2.946  10.302  -1.678  1.00  0.00     0.031 A 
ATOM     28  C   UNL     1      -2.725  10.178  -3.138  1.00  0.00     0.074 A 
ATOM     29  C   UNL     1      -4.151  10.648  -1.165  1.00  0.00     0.049 A 
ATOM     30  N   UNL     1      -2.370  11.119  -3.947  1.00  0.00    -0.248 NA
ATOM     31  C   UNL     1      -2.680   8.834  -3.736  1.00  0.00     0.031 C 
ATOM     32  C   UNL     1      -4.622  10.524   0.223  1.00  0.00     0.029 A 
ATOM     33  N   UNL     1      -5.264  11.105  -1.804  1.00  0.00    -0.354 N 
ATOM     34  C   UNL     1      -2.369  10.538  -5.208  1.00  0.00     0.074 A 
ATOM     35  C   UNL     1      -2.297   9.119  -4.984  1.00  0.00     0.031 C 
ATOM     36  C   UNL     1      -5.965  10.661   0.270  1.00  0.00     0.029 A 
ATOM     37  C   UNL     1      -6.428  11.082  -1.036  1.00  0.00     0.049 A 
ATOM     38  H   UNL     1      -5.248  11.426  -2.734  1.00  0.00     0.167 HD
ATOM     39  C   UNL     1      -2.764  11.260  -6.294  1.00  0.00     0.037 A 
ATOM     40  C   UNL     1      -7.686  11.400  -1.436  1.00  0.00     0.037 A 
ATOM     41  C   UNL     1      -2.810  12.672  -5.973  1.00  0.00     0.049 A 
ATOM     42  C   UNL     1      -7.542  12.260  -2.635  1.00  0.00     0.074 A 
ATOM     43  C   UNL     1      -1.907  13.599  -5.489  1.00  0.00     0.029 A 
ATOM     44  N   UNL     1      -4.056  13.212  -5.764  1.00  0.00    -0.354 N 
ATOM     45  N   UNL     1      -7.027  13.459  -2.610  1.00  0.00    -0.248 NA
ATOM     46  C   UNL     1      -7.571  11.623  -3.940  1.00  0.00     0.031 C 
ATOM     47  C   UNL     1      -2.665  14.441  -4.619  1.00  0.00     0.029 A 
ATOM     48  C   UNL     1      -4.002  14.045  -4.678  1.00  0.00     0.049 A 
ATOM     49  H   UNL     1      -4.858  13.029  -6.306  1.00  0.00     0.167 HD
ATOM     50  C   UNL     1      -6.264  13.535  -3.765  1.00  0.00     0.074 A 
ATOM     51  C   UNL     1      -6.742  12.436  -4.601  1.00  0.00     0.031 C 
ATOM     52  C   UNL     1      -5.128  14.294  -3.800  1.00  0.00     0.037 A 
BRANCH  39  53
ATOM     53  C   UNL     1      -3.535  10.691  -7.470  1.00  0.00     0.058 A 
ATOM     54  C   UNL     1      -3.814  11.535  -8.567  1.00  0.00     0.135 A 
ATOM     55  C   UNL     1      -4.256   9.475  -7.448  1.00  0.00     0.135 A 
ATOM     56  F   UNL     1      -3.192  12.717  -8.695  1.00  0.00    -0.206 F 
ATOM     57  C   UNL     1      -4.796  11.237  -9.512  1.00  0.00     0.059 A 
ATOM     58  C   UNL     1      -5.199   9.134  -8.411  1.00  0.00     0.059 A 
ATOM     59  F   UNL     1      -4.161   8.593  -6.449  1.00  0.00    -0.206 F 
ATOM     60  C   UNL     1      -5.494  10.038  -9.415  1.00  0.00     0.060 A 
BRANCH  60  61
ATOM     61  S   UNL     1      -6.817   9.686 -10.582  1.00  0.00     0.124 S 
ATOM     62  O   UNL     1      -7.825  10.658 -10.178  1.00  0.00    -0.237 OA
ATOM     63  O   UNL     1      -6.162   9.934 -11.862  1.00  0.00    -0.237 OA
ATOM     64  O   UNL     1      -7.139   8.288 -10.310  1.00  0.00    -0.744 OA
ENDBRANCH  60  61
ENDBRANCH  39  53
BRANCH  40  65
ATOM     65  C   UNL     1      -8.991  10.813  -1.031  1.00  0.00     0.058 A 
ATOM     66  C   UNL     1     -10.205  11.413  -1.417  1.00  0.00     0.135 A 
ATOM     67  C   UNL     1      -9.083   9.498  -0.533  1.00  0.00     0.135 A 
ATOM     68  F   UNL     1     -10.215  12.661  -1.908  1.00  0.00    -0.206 F 
ATOM     69  C   UNL     1     -11.424  10.725  -1.387  1.00  0.00     0.059 A 
ATOM     70  C   UNL     1     -10.288   8.795  -0.485  1.00  0.00     0.059 A 
ATOM     71  F   UNL     1      -7.984   8.821  -0.167  1.00  0.00    -0.206 F 
ATOM     72  C   UNL     1     -11.450   9.404  -0.945  1.00  0.00     0.060 A 
BRANCH  72  73
ATOM     73  S   UNL     1     -12.980   8.448  -1.098  1.00  0.00     0.124 S 
ATOM     74  O   UNL     1     -13.825   9.065  -0.082  1.00  0.00    -0.237 OA
ATOM     75  O   UNL     1     -13.364   8.697  -2.483  1.00  0.00    -0.237 OA
ATOM     76  O   UNL     1     -12.555   7.081  -0.809  1.00  0.00    -0.744 OA
ENDBRANCH  72  73
ENDBRANCH  40  65
BRANCH  52  77
ATOM     77  C   UNL     1      -4.957  15.360  -2.745  1.00  0.00     0.058 A 
ATOM     78  C   UNL     1      -4.870  15.136  -1.359  1.00  0.00     0.135 A 
ATOM     79  C   UNL     1      -4.779  16.681  -3.187  1.00  0.00     0.135 A 
ATOM     80  F   UNL     1      -4.921  13.896  -0.852  1.00  0.00    -0.206 F 
ATOM     81  C   UNL     1      -4.680  16.186  -0.455  1.00  0.00     0.059 A 
ATOM     82  C   UNL     1      -4.552  17.735  -2.308  1.00  0.00     0.059 A 
ATOM     83  F   UNL     1      -4.792  16.958  -4.502  1.00  0.00    -0.206 F 
ATOM     84  C   UNL     1      -4.527  17.484  -0.940  1.00  0.00     0.060 A 
BRANCH  84  85
ATOM     85  S   UNL     1      -4.254  18.839   0.222  1.00  0.00     0.124 S 
ATOM     86  O   UNL     1      -5.555  18.956   0.871  1.00  0.00    -0.237 OA
ATOM     87  O   UNL     1      -3.172  18.328   1.058  1.00  0.00    -0.237 OA
ATOM     88  O   UNL     1      -3.885  19.960  -0.641  1.00  0.00    -0.744 OA
ENDBRANCH  84  85
ENDBRANCH  52  77
ENDBRANCH  26  27
ENDBRANCH  18  21
ENDBRANCH  16  17
ENDBRANCH   1  16
TORSDOF 15
