REMARK SMILES Cc1cc2c(c(C)c1Cl)C=C(C(=O)NCCCNC(=O)c1ccc(-c3c4nc(c(-c5c(F)cc(S(=O)(=O)[O-])cc5F)c5ccc([nH]5)c(-c5c(F)cc(S(=O)(=O)[O-])cc5F)c5nc(c(-c6c(F)cc(S(=O)(=O)[O-])cc6F)c6ccc3[nH]6)C=C5)C=C4)cc1)[C@@H](C(F)(F)F)O2
REMARK SMILES IDX 17 1 16 2 15 3 14 4 12 5 13 6 11 8 1 9 2 10 3 11 8 12 4 13
REMARK SMILES IDX 6 14 9 15 5 16 92 17 7 18 10 19 87 20 88 21 89 22 90 23
REMARK SMILES IDX 91 24 18 25 19 26 20 28 21 29 22 30 86 31 23 32 85 33 24 34
REMARK SMILES IDX 25 35 26 36 79 37 27 38 84 39 78 40 80 41 28 42 83 43 77 44
REMARK SMILES IDX 76 45 29 47 63 48 42 49 62 50 43 51 46 52 61 53 81 54 44 55
REMARK SMILES IDX 45 56 60 58 82 59 47 60 30 61 31 62 40 63 32 64 33 65 39 66
REMARK SMILES IDX 41 67 34 68 35 69 36 70 37 71 38 72 64 73 65 74 74 75 66 76
REMARK SMILES IDX 67 77 73 78 75 79 68 80 69 81 70 82 71 83 72 84 48 85 49 86
REMARK SMILES IDX 58 87 50 88 51 89 57 90 59 91 52 92 53 93 54 94 55 95 56 96
REMARK H PARENT 14 7 18 27 80 46 46 57
REMARK Flexibility Score: inf
ROOT
ATOM      1  C   UNL     1      -2.258   4.603   9.505  1.00  0.00     0.118 C 
ENDROOT
BRANCH   1   2
ATOM      2  C   UNL     1      -2.067   3.568   8.402  1.00  0.00     0.042 C 
BRANCH   2   3
ATOM      3  C   UNL     1      -2.771   3.963   7.112  1.00  0.00     0.118 C 
BRANCH   3   4
ATOM      4  N   UNL     1      -2.043   4.996   6.389  1.00  0.00    -0.352 N 
ATOM      5  C   UNL     1      -1.316   5.091   5.252  1.00  0.00     0.251 C 
ATOM      6  O   UNL     1      -0.875   6.217   5.004  1.00  0.00    -0.270 OA
ATOM      7  H   UNL     1      -2.094   5.862   6.854  1.00  0.00     0.163 HD
BRANCH   5   8
ATOM      8  C   UNL     1      -1.034   3.964   4.315  1.00  0.00     0.067 C 
ATOM      9  C   UNL     1       1.109  -0.130  -0.269  1.00  0.00     0.046 C 
ATOM     10  C   UNL     1       0.768   1.054   0.595  1.00  0.00    -0.028 A 
ATOM     11  C   UNL     1       0.076   0.829   1.786  1.00  0.00     0.052 A 
ATOM     12  C   UNL     1       1.135   2.373   0.258  1.00  0.00     0.047 A 
ATOM     13  C   UNL     1      -0.251   1.890   2.623  1.00  0.00     0.128 A 
ATOM     14  C   UNL     1       0.814   3.462   1.105  1.00  0.00    -0.021 A 
ATOM     15  Cl  UNL     1       2.007   2.630  -1.225  1.00  0.00    -0.084 Cl
ATOM     16  C   UNL     1       0.118   3.202   2.311  1.00  0.00     0.022 A 
ATOM     17  O   UNL     1      -0.904   1.545   3.771  1.00  0.00    -0.475 OA
ATOM     18  C   UNL     1       1.207   4.881   0.764  1.00  0.00     0.047 C 
ATOM     19  C   UNL     1      -0.202   4.242   3.294  1.00  0.00     0.026 C 
ATOM     20  C   UNL     1      -1.637   2.599   4.443  1.00  0.00     0.314 C 
BRANCH  20  21
ATOM     21  C   UNL     1      -3.112   2.560   3.999  1.00  0.00     0.429 C 
ATOM     22  F   UNL     1      -3.722   1.444   4.471  1.00  0.00    -0.167 F 
ATOM     23  F   UNL     1      -3.825   3.612   4.466  1.00  0.00    -0.167 F 
ATOM     24  F   UNL     1      -3.253   2.562   2.655  1.00  0.00    -0.167 F 
ENDBRANCH  20  21
ENDBRANCH   5   8
ENDBRANCH   3   4
ENDBRANCH   2   3
ENDBRANCH   1   2
BRANCH   1  25
ATOM     25  N   UNL     1      -3.660   4.724   9.898  1.00  0.00    -0.352 N 
ATOM     26  C   UNL     1      -4.309   4.256  11.012  1.00  0.00     0.251 C 
ATOM     27  H   UNL     1      -4.227   5.218   9.263  1.00  0.00     0.163 HD
ATOM     28  O   UNL     1      -5.537   4.208  11.024  1.00  0.00    -0.269 OA
BRANCH  26  29
ATOM     29  C   UNL     1      -3.535   3.811  12.187  1.00  0.00     0.039 A 
ATOM     30  C   UNL     1      -3.943   2.675  12.889  1.00  0.00     0.014 A 
ATOM     31  C   UNL     1      -2.416   4.533  12.608  1.00  0.00     0.014 A 
ATOM     32  C   UNL     1      -3.186   2.228  13.974  1.00  0.00     0.010 A 
ATOM     33  C   UNL     1      -1.610   4.033  13.621  1.00  0.00     0.010 A 
ATOM     34  C   UNL     1      -1.993   2.883  14.325  1.00  0.00    -0.014 A 
BRANCH  34  35
ATOM     35  C   UNL     1      -1.146   2.399  15.442  1.00  0.00     0.031 A 
ATOM     36  C   UNL     1      -0.918   3.280  16.642  1.00  0.00     0.074 A 
ATOM     37  C   UNL     1      -0.544   1.197  15.348  1.00  0.00     0.049 A 
ATOM     38  N   UNL     1      -0.165   3.065  17.688  1.00  0.00    -0.248 NA
ATOM     39  C   UNL     1      -1.601   4.586  16.657  1.00  0.00     0.031 C 
ATOM     40  C   UNL     1      -0.647   0.285  14.206  1.00  0.00     0.029 A 
ATOM     41  N   UNL     1       0.280   0.535  16.224  1.00  0.00    -0.354 N 
ATOM     42  C   UNL     1      -0.276   4.205  18.475  1.00  0.00     0.074 A 
ATOM     43  C   UNL     1      -1.118   5.137  17.762  1.00  0.00     0.031 C 
ATOM     44  C   UNL     1       0.057  -0.829  14.465  1.00  0.00     0.029 A 
ATOM     45  C   UNL     1       0.692  -0.697  15.772  1.00  0.00     0.049 A 
ATOM     46  H   UNL     1       0.550   0.907  17.094  1.00  0.00     0.167 HD
ATOM     47  C   UNL     1       0.248   4.437  19.700  1.00  0.00     0.037 A 
ATOM     48  C   UNL     1       1.493  -1.615  16.348  1.00  0.00     0.037 A 
ATOM     49  C   UNL     1       1.042   3.482  20.425  1.00  0.00     0.049 A 
ATOM     50  C   UNL     1       2.058  -1.332  17.715  1.00  0.00     0.074 A 
ATOM     51  C   UNL     1       1.564   3.595  21.701  1.00  0.00     0.029 A 
ATOM     52  N   UNL     1       1.420   2.239  19.943  1.00  0.00    -0.354 N 
ATOM     53  N   UNL     1       1.885  -0.274  18.472  1.00  0.00    -0.248 NA
ATOM     54  C   UNL     1       2.922  -2.362  18.308  1.00  0.00     0.031 C 
ATOM     55  C   UNL     1       2.293   2.436  21.975  1.00  0.00     0.029 A 
ATOM     56  C   UNL     1       2.185   1.581  20.889  1.00  0.00     0.049 A 
ATOM     57  H   UNL     1       1.179   1.877  19.059  1.00  0.00     0.167 HD
ATOM     58  C   UNL     1       2.598  -0.523  19.639  1.00  0.00     0.074 A 
ATOM     59  C   UNL     1       3.193  -1.835  19.495  1.00  0.00     0.031 C 
ATOM     60  C   UNL     1       2.751   0.266  20.731  1.00  0.00     0.037 A 
BRANCH  47  61
ATOM     61  C   UNL     1      -0.047   5.753  20.363  1.00  0.00     0.058 A 
ATOM     62  C   UNL     1      -1.319   6.038  20.883  1.00  0.00     0.135 A 
ATOM     63  C   UNL     1       0.973   6.695  20.569  1.00  0.00     0.135 A 
ATOM     64  F   UNL     1      -2.335   5.181  20.695  1.00  0.00    -0.206 F 
ATOM     65  C   UNL     1      -1.569   7.211  21.587  1.00  0.00     0.059 A 
ATOM     66  C   UNL     1       0.752   7.863  21.292  1.00  0.00     0.059 A 
ATOM     67  F   UNL     1       2.205   6.473  20.085  1.00  0.00    -0.206 F 
ATOM     68  C   UNL     1      -0.524   8.111  21.797  1.00  0.00     0.060 A 
BRANCH  68  69
ATOM     69  S   UNL     1      -0.856   9.595  22.771  1.00  0.00     0.124 S 
ATOM     70  O   UNL     1      -1.727  10.345  21.872  1.00  0.00    -0.237 OA
ATOM     71  O   UNL     1      -1.495   9.046  23.962  1.00  0.00    -0.237 OA
ATOM     72  O   UNL     1       0.470  10.169  22.981  1.00  0.00    -0.744 OA
ENDBRANCH  68  69
ENDBRANCH  47  61
BRANCH  48  73
ATOM     73  C   UNL     1       1.792  -2.894  15.648  1.00  0.00     0.058 A 
ATOM     74  C   UNL     1       1.288  -4.113  16.126  1.00  0.00     0.135 A 
ATOM     75  C   UNL     1       2.588  -2.926  14.492  1.00  0.00     0.135 A 
ATOM     76  F   UNL     1       0.525  -4.136  17.229  1.00  0.00    -0.206 F 
ATOM     77  C   UNL     1       1.582  -5.320  15.499  1.00  0.00     0.059 A 
ATOM     78  C   UNL     1       2.874  -4.117  13.832  1.00  0.00     0.059 A 
ATOM     79  F   UNL     1       3.079  -1.786  13.982  1.00  0.00    -0.206 F 
ATOM     80  C   UNL     1       2.377  -5.312  14.352  1.00  0.00     0.060 A 
BRANCH  80  81
ATOM     81  S   UNL     1       2.732  -6.882  13.535  1.00  0.00     0.124 S 
ATOM     82  O   UNL     1       3.648  -7.506  14.483  1.00  0.00    -0.237 OA
ATOM     83  O   UNL     1       1.406  -7.483  13.437  1.00  0.00    -0.237 OA
ATOM     84  O   UNL     1       3.322  -6.473  12.264  1.00  0.00    -0.744 OA
ENDBRANCH  80  81
ENDBRANCH  48  73
BRANCH  60  85
ATOM     85  C   UNL     1       3.570  -0.265  21.872  1.00  0.00     0.058 A 
ATOM     86  C   UNL     1       4.970  -0.317  21.803  1.00  0.00     0.135 A 
ATOM     87  C   UNL     1       2.955  -0.618  23.084  1.00  0.00     0.135 A 
ATOM     88  F   UNL     1       5.603   0.004  20.664  1.00  0.00    -0.206 F 
ATOM     89  C   UNL     1       5.734  -0.701  22.899  1.00  0.00     0.059 A 
ATOM     90  C   UNL     1       3.700  -0.980  24.200  1.00  0.00     0.059 A 
ATOM     91  F   UNL     1       1.618  -0.574  23.202  1.00  0.00    -0.206 F 
ATOM     92  C   UNL     1       5.090  -1.020  24.097  1.00  0.00     0.060 A 
BRANCH  92  93
ATOM     93  S   UNL     1       6.102  -1.443  25.530  1.00  0.00     0.124 S 
ATOM     94  O   UNL     1       6.620  -2.753  25.149  1.00  0.00    -0.237 OA
ATOM     95  O   UNL     1       7.078  -0.357  25.552  1.00  0.00    -0.237 OA
ATOM     96  O   UNL     1       5.147  -1.443  26.634  1.00  0.00    -0.744 OA
ENDBRANCH  92  93
ENDBRANCH  60  85
ENDBRANCH  34  35
ENDBRANCH  26  29
ENDBRANCH   1  25
TORSDOF 14
