REMARK SMILES Cc1nc2cc(S(=O)(=O)N3CCC(C(=O)NCCCNC(=O)c4ccc(-c5c6nc(c(-c7c(F)cc(S(=O)(=O)[O-])cc7F)c7ccc([nH]7)c(-c7c(F)cc(S(=O)(=O)[O-])cc7F)c7nc(c(-c8c(F)cc(S(=O)(=O)[O-])cc8F)c8ccc5[nH]8)C=C7)C=C6)cc4)CC3)ccc2n1C1CCCC1
REMARK SMILES IDX 18 1 17 2 16 3 14 4 15 5 13 7 10 8 11 9 90 10 12 11 89 12
REMARK SMILES IDX 7 13 8 14 9 15 6 16 1 17 2 18 3 19 94 20 4 21 93 22 5 23
REMARK SMILES IDX 92 24 91 25 95 26 96 27 99 28 97 29 98 30 19 31 20 32 21 33
REMARK SMILES IDX 22 35 23 36 24 37 88 38 25 39 87 40 26 41 27 42 28 43 81 44
REMARK SMILES IDX 29 45 86 46 80 47 82 48 30 49 85 50 79 51 78 52 31 54 65 55
REMARK SMILES IDX 44 56 64 57 45 58 48 59 63 60 83 61 46 62 47 63 62 65 84 66
REMARK SMILES IDX 49 67 32 68 33 69 42 70 34 71 35 72 41 73 43 74 36 75 37 76
REMARK SMILES IDX 38 77 39 78 40 79 66 80 67 81 76 82 68 83 69 84 75 85 77 86
REMARK SMILES IDX 70 87 71 88 72 89 73 90 74 91 50 92 51 93 60 94 52 95 53 96
REMARK SMILES IDX 59 97 61 98 54 99 55 100 56 101 57 102 58 103
REMARK H PARENT 16 6 20 34 82 53 48 64
REMARK Flexibility Score: inf
ROOT
ATOM      1  C   UNL     1      -1.578  -3.121  13.176  1.00  0.00     0.042 C 
ENDROOT
BRANCH   1   2
ATOM      2  C   UNL     1      -2.713  -2.618  12.290  1.00  0.00     0.117 C 
BRANCH   2   3
ATOM      3  N   UNL     1      -2.873  -1.169  12.345  1.00  0.00    -0.356 N 
ATOM      4  C   UNL     1      -2.699  -0.208  11.397  1.00  0.00     0.223 C 
ATOM      5  O   UNL     1      -2.929   0.963  11.709  1.00  0.00    -0.275 OA
ATOM      6  H   UNL     1      -3.156  -0.826  13.223  1.00  0.00     0.163 HD
BRANCH   4   7
ATOM      7  C   UNL     1      -2.244  -0.551   9.989  1.00  0.00     0.081 C 
ATOM      8  N   UNL     1      -1.451  -2.467   7.982  1.00  0.00    -0.198 NA
ATOM      9  C   UNL     1      -0.404  -1.667   8.651  1.00  0.00     0.103 C 
ATOM     10  C   UNL     1      -2.840  -1.960   7.946  1.00  0.00     0.103 C 
ATOM     11  C   UNL     1      -0.847  -1.159  10.003  1.00  0.00     0.030 C 
ATOM     12  C   UNL     1      -3.303  -1.380   9.266  1.00  0.00     0.030 C 
BRANCH   8  13
ATOM     13  S   UNL     1      -0.938  -3.291   6.559  1.00  0.00     0.243 S 
ATOM     14  O   UNL     1      -2.053  -4.080   6.090  1.00  0.00    -0.207 OA
ATOM     15  O   UNL     1       0.367  -3.850   6.838  1.00  0.00    -0.207 OA
BRANCH  13  16
ATOM     16  C   UNL     1      -0.673  -2.028   5.324  1.00  0.00     0.085 A 
ATOM     17  C   UNL     1       0.959  -0.118  -0.098  1.00  0.00     0.088 C 
ATOM     18  C   UNL     1       0.496  -0.407   1.282  1.00  0.00     0.106 A 
ATOM     19  N   UNL     1       0.488  -1.615   1.810  1.00  0.00    -0.233 NA
ATOM     20  N   UNL     1       0.036   0.529   2.188  1.00  0.00    -0.325 N 
ATOM     21  C   UNL     1       0.028  -1.474   3.090  1.00  0.00     0.090 A 
ATOM     22  C   UNL     1      -0.246  -0.138   3.361  1.00  0.00     0.068 A 
ATOM     23  C   UNL     1      -0.181  -2.447   4.079  1.00  0.00     0.052 A 
ATOM     24  C   UNL     1      -0.716   0.291   4.600  1.00  0.00     0.030 A 
ATOM     25  C   UNL     1      -0.931  -0.679   5.569  1.00  0.00     0.024 A 
BRANCH  20  26
ATOM     26  C   UNL     1      -0.165   1.946   1.957  1.00  0.00     0.089 C 
ATOM     27  C   UNL     1      -1.607   2.424   2.157  1.00  0.00     0.025 C 
ATOM     28  C   UNL     1       0.659   2.875   2.854  1.00  0.00     0.025 C 
ATOM     29  C   UNL     1      -1.481   3.935   2.275  1.00  0.00     0.002 C 
ATOM     30  C   UNL     1      -0.086   4.208   2.836  1.00  0.00     0.002 C 
ENDBRANCH  20  26
ENDBRANCH  13  16
ENDBRANCH   8  13
ENDBRANCH   4   7
ENDBRANCH   2   3
ENDBRANCH   1   2
BRANCH   1  31
ATOM     31  C   UNL     1      -1.784  -2.854  14.663  1.00  0.00     0.118 C 
BRANCH  31  32
ATOM     32  N   UNL     1      -3.050  -3.328  15.180  1.00  0.00    -0.352 N 
ATOM     33  C   UNL     1      -3.512  -4.521  15.659  1.00  0.00     0.251 C 
ATOM     34  H   UNL     1      -3.741  -2.626  15.188  1.00  0.00     0.163 HD
ATOM     35  O   UNL     1      -4.650  -4.493  16.137  1.00  0.00    -0.269 OA
BRANCH  33  36
ATOM     36  C   UNL     1      -2.791  -5.822  15.590  1.00  0.00     0.039 A 
ATOM     37  C   UNL     1      -1.508  -6.023  15.083  1.00  0.00     0.014 A 
ATOM     38  C   UNL     1      -3.523  -6.945  16.021  1.00  0.00     0.014 A 
ATOM     39  C   UNL     1      -1.018  -7.314  14.898  1.00  0.00     0.010 A 
ATOM     40  C   UNL     1      -3.028  -8.235  15.866  1.00  0.00     0.010 A 
ATOM     41  C   UNL     1      -1.796  -8.421  15.251  1.00  0.00    -0.014 A 
BRANCH  41  42
ATOM     42  C   UNL     1      -1.230  -9.755  15.053  1.00  0.00     0.031 A 
ATOM     43  C   UNL     1       0.031 -10.015  15.810  1.00  0.00     0.074 A 
ATOM     44  C   UNL     1      -1.835 -10.731  14.344  1.00  0.00     0.049 A 
ATOM     45  N   UNL     1       1.213 -10.264  15.346  1.00  0.00    -0.248 NA
ATOM     46  C   UNL     1      -0.015  -9.859  17.273  1.00  0.00     0.031 C 
ATOM     47  C   UNL     1      -3.183 -10.739  13.769  1.00  0.00     0.029 A 
ATOM     48  N   UNL     1      -1.377 -11.982  14.053  1.00  0.00    -0.354 N 
ATOM     49  C   UNL     1       2.021 -10.494  16.458  1.00  0.00     0.074 A 
ATOM     50  C   UNL     1       1.254 -10.091  17.609  1.00  0.00     0.031 C 
ATOM     51  C   UNL     1      -3.505 -11.999  13.392  1.00  0.00     0.029 A 
ATOM     52  C   UNL     1      -2.342 -12.854  13.557  1.00  0.00     0.049 A 
ATOM     53  H   UNL     1      -0.438 -12.248  14.184  1.00  0.00     0.167 HD
ATOM     54  C   UNL     1       3.193 -11.183  16.377  1.00  0.00     0.037 A 
ATOM     55  C   UNL     1      -2.195 -14.187  13.338  1.00  0.00     0.037 A 
ATOM     56  C   UNL     1       3.689 -11.238  15.028  1.00  0.00     0.049 A 
ATOM     57  C   UNL     1      -0.739 -14.450  13.232  1.00  0.00     0.074 A 
ATOM     58  C   UNL     1       4.101 -10.295  14.106  1.00  0.00     0.029 A 
ATOM     59  N   UNL     1       3.480 -12.388  14.309  1.00  0.00    -0.354 N 
ATOM     60  N   UNL     1       0.012 -14.028  12.254  1.00  0.00    -0.248 NA
ATOM     61  C   UNL     1      -0.031 -14.845  14.439  1.00  0.00     0.031 C 
ATOM     62  C   UNL     1       3.642 -10.782  12.846  1.00  0.00     0.029 A 
ATOM     63  C   UNL     1       3.027 -12.014  13.069  1.00  0.00     0.049 A 
ATOM     64  H   UNL     1       3.627 -13.309  14.624  1.00  0.00     0.167 HD
ATOM     65  C   UNL     1       1.220 -13.704  12.851  1.00  0.00     0.074 A 
ATOM     66  C   UNL     1       1.165 -14.314  14.176  1.00  0.00     0.031 C 
ATOM     67  C   UNL     1       2.037 -12.751  12.315  1.00  0.00     0.037 A 
BRANCH  54  68
ATOM     68  C   UNL     1       3.718 -12.072  17.479  1.00  0.00     0.058 A 
ATOM     69  C   UNL     1       5.040 -12.558  17.435  1.00  0.00     0.135 A 
ATOM     70  C   UNL     1       2.882 -12.671  18.449  1.00  0.00     0.135 A 
ATOM     71  F   UNL     1       5.913 -12.084  16.531  1.00  0.00    -0.206 F 
ATOM     72  C   UNL     1       5.487 -13.585  18.272  1.00  0.00     0.059 A 
ATOM     73  C   UNL     1       3.321 -13.655  19.327  1.00  0.00     0.059 A 
ATOM     74  F   UNL     1       1.574 -12.393  18.526  1.00  0.00    -0.206 F 
ATOM     75  C   UNL     1       4.616 -14.130  19.211  1.00  0.00     0.060 A 
BRANCH  75  76
ATOM     76  S   UNL     1       5.164 -15.505  20.239  1.00  0.00     0.124 S 
ATOM     77  O   UNL     1       5.306 -16.570  19.253  1.00  0.00    -0.237 OA
ATOM     78  O   UNL     1       6.405 -14.984  20.803  1.00  0.00    -0.237 OA
ATOM     79  O   UNL     1       4.071 -15.668  21.193  1.00  0.00    -0.744 OA
ENDBRANCH  75  76
ENDBRANCH  54  68
BRANCH  55  80
ATOM     80  C   UNL     1      -3.162 -15.297  13.558  1.00  0.00     0.058 A 
ATOM     81  C   UNL     1      -2.870 -16.599  13.106  1.00  0.00     0.135 A 
ATOM     82  C   UNL     1      -4.206 -15.185  14.496  1.00  0.00     0.135 A 
ATOM     83  F   UNL     1      -1.888 -16.801  12.215  1.00  0.00    -0.206 F 
ATOM     84  C   UNL     1      -3.510 -17.731  13.623  1.00  0.00     0.059 A 
ATOM     85  C   UNL     1      -4.865 -16.299  15.018  1.00  0.00     0.059 A 
ATOM     86  F   UNL     1      -4.546 -13.995  15.012  1.00  0.00    -0.206 F 
ATOM     87  C   UNL     1      -4.484 -17.572  14.606  1.00  0.00     0.060 A 
BRANCH  87  88
ATOM     88  S   UNL     1      -5.144 -19.037  15.437  1.00  0.00     0.124 S 
ATOM     89  O   UNL     1      -5.895 -19.682  14.365  1.00  0.00    -0.237 OA
ATOM     90  O   UNL     1      -3.928 -19.721  15.864  1.00  0.00    -0.237 OA
ATOM     91  O   UNL     1      -5.953 -18.479  16.517  1.00  0.00    -0.744 OA
ENDBRANCH  87  88
ENDBRANCH  55  80
BRANCH  67  92
ATOM     92  C   UNL     1       1.744 -12.280  10.913  1.00  0.00     0.058 A 
ATOM     93  C   UNL     1       0.573 -11.601  10.525  1.00  0.00     0.135 A 
ATOM     94  C   UNL     1       2.749 -12.422   9.945  1.00  0.00     0.135 A 
ATOM     95  F   UNL     1      -0.394 -11.332  11.414  1.00  0.00    -0.206 F 
ATOM     96  C   UNL     1       0.392 -11.132   9.222  1.00  0.00     0.059 A 
ATOM     97  C   UNL     1       2.603 -11.935   8.650  1.00  0.00     0.059 A 
ATOM     98  F   UNL     1       3.915 -13.006  10.268  1.00  0.00    -0.206 F 
ATOM     99  C   UNL     1       1.414 -11.306   8.289  1.00  0.00     0.060 A 
BRANCH  99 100
ATOM    100  S   UNL     1       1.203 -10.655   6.618  1.00  0.00     0.124 S 
ATOM    101  O   UNL     1       0.179 -11.540   6.071  1.00  0.00    -0.237 OA
ATOM    102  O   UNL     1       0.788  -9.279   6.869  1.00  0.00    -0.237 OA
ATOM    103  O   UNL     1       2.532 -10.800   6.026  1.00  0.00    -0.744 OA
ENDBRANCH  99 100
ENDBRANCH  67  92
ENDBRANCH  41  42
ENDBRANCH  33  36
ENDBRANCH  31  32
ENDBRANCH   1  31
TORSDOF 16
