REMARK SMILES COC(=O)c1ccc([C@H]2Nc3c(C(=O)NCCCNC(=O)c4ccc(-c5c6nc(c(-c7c(F)cc(S(=O)(=O)[O-])cc7F)c7ccc([nH]7)c(-c7c(F)cc(S(=O)(=O)[O-])cc7F)c7nc(c(-c8c(F)cc(S(=O)(=O)[O-])cc8F)c8ccc5[nH]8)C=C7)C=C6)cc4)cccc3[C@@H]3[C@@H]4CC[C@@H](C4)[C@@H]32)cc1
REMARK SMILES IDX 17 1 16 2 15 3 13 4 14 5 12 7 9 8 10 9 98 10 11 11 92 13
REMARK SMILES IDX 96 14 91 15 93 16 95 17 97 18 88 19 90 20 94 21 89 22 8 23
REMARK SMILES IDX 5 24 6 25 100 26 7 27 99 28 3 29 4 30 2 31 1 32 18 33 19 34
REMARK SMILES IDX 20 35 21 37 22 38 23 39 87 40 24 41 86 42 25 43 26 44 27 45
REMARK SMILES IDX 80 46 28 47 85 48 79 49 81 50 29 51 84 52 78 53 77 54 30 56
REMARK SMILES IDX 64 57 43 58 63 59 44 60 47 61 62 62 82 63 45 64 46 65 61 67
REMARK SMILES IDX 83 68 48 69 31 70 32 71 41 72 33 73 34 74 40 75 42 76 35 77
REMARK SMILES IDX 36 78 37 79 38 80 39 81 65 82 66 83 75 84 67 85 68 86 74 87
REMARK SMILES IDX 76 88 69 89 70 90 71 91 72 92 73 93 49 94 50 95 59 96 51 97
REMARK SMILES IDX 52 98 58 99 60 100 53 101 54 102 55 103 56 104 57 105
REMARK H PARENT 15 6 10 12 19 36 81 55 47 66
REMARK Flexibility Score: inf
ROOT
ATOM      1  C   UNL     1      -5.044   8.202   2.058  1.00  0.00     0.042 C 
ENDROOT
BRANCH   1   2
ATOM      2  C   UNL     1      -4.426   6.174   2.639  1.00  0.00     0.118 C 
BRANCH   2   3
ATOM      3  N   UNL     1      -4.023   4.815   1.791  1.00  0.00    -0.352 N 
ATOM      4  C   UNL     1      -3.109   4.210   0.941  1.00  0.00     0.253 C 
ATOM      5  O   UNL     1      -3.460   3.054   0.640  1.00  0.00    -0.269 OA
ATOM      6  H   UNL     1      -4.732   4.154   1.961  1.00  0.00     0.163 HD
BRANCH   4   7
ATOM      7  C   UNL     1      -1.807   4.691   0.287  1.00  0.00     0.063 A 
ATOM      8  C   UNL     1      -1.397   7.503   2.311  1.00  0.00     0.113 C 
ATOM      9  N   UNL     1      -1.615   6.956   1.053  1.00  0.00    -0.377 N 
ATOM     10  C   UNL     1      -0.139   8.323   1.752  1.00  0.00     0.027 C 
ATOM     11  C   UNL     1      -1.076   5.864   0.503  1.00  0.00     0.051 A 
ATOM     12  H   UNL     1      -2.257   7.442   0.486  1.00  0.00     0.161 HD
ATOM     13  C   UNL     1       0.488   7.772   0.248  1.00  0.00     0.030 C 
ATOM     14  C   UNL     1       1.203   8.360   2.536  1.00  0.00    -0.005 C 
ATOM     15  C   UNL     1       0.059   6.324  -0.183  1.00  0.00    -0.020 A 
ATOM     16  C   UNL     1       1.999   7.964   0.443  1.00  0.00    -0.003 C 
ATOM     17  C   UNL     1       1.931   6.994   2.626  1.00  0.00     0.004 C 
ATOM     18  C   UNL     1       2.094   9.076   1.498  1.00  0.00     0.008 C 
ATOM     19  C   UNL     1      -1.307   3.929  -0.769  1.00  0.00     0.016 A 
ATOM     20  C   UNL     1       0.500   5.550  -1.236  1.00  0.00     0.006 A 
ATOM     21  C   UNL     1       2.552   6.781   1.235  1.00  0.00     0.004 C 
ATOM     22  C   UNL     1      -0.184   4.352  -1.519  1.00  0.00     0.001 A 
BRANCH   8  23
ATOM     23  C   UNL     1      -2.985   7.684   2.346  1.00  0.00    -0.025 A 
ATOM     24  C   UNL     1      -6.478   6.663   2.246  1.00  0.00     0.060 A 
ATOM     25  C   UNL     1      -5.497   6.503   0.816  1.00  0.00     0.016 A 
ATOM     26  C   UNL     1      -5.732   7.315   3.801  1.00  0.00     0.016 A 
ATOM     27  C   UNL     1      -3.839   7.043   0.835  1.00  0.00     0.007 A 
ATOM     28  C   UNL     1      -3.991   7.844   3.852  1.00  0.00     0.007 A 
BRANCH  24  29
ATOM     29  C   UNL     1      -7.906   6.725   1.738  1.00  0.00     0.337 C 
ATOM     30  O   UNL     1      -8.931   6.543   2.353  1.00  0.00    -0.246 OA
BRANCH  29  31
ATOM     31  O   UNL     1      -7.756   7.290   0.507  1.00  0.00    -0.465 OA
ATOM     32  C   UNL     1      -8.763   7.873  -0.326  1.00  0.00     0.282 C 
ENDBRANCH  29  31
ENDBRANCH  24  29
ENDBRANCH   8  23
ENDBRANCH   4   7
ENDBRANCH   2   3
ENDBRANCH   1   2
BRANCH   1  33
ATOM     33  C   UNL     1      -6.389   9.300   2.357  1.00  0.00     0.118 C 
BRANCH  33  34
ATOM     34  N   UNL     1      -7.480   9.012   3.293  1.00  0.00    -0.352 N 
ATOM     35  C   UNL     1      -8.199   9.859   4.065  1.00  0.00     0.251 C 
ATOM     36  H   UNL     1      -7.725   8.062   3.372  1.00  0.00     0.163 HD
ATOM     37  O   UNL     1      -8.530   9.590   5.208  1.00  0.00    -0.269 OA
BRANCH  35  38
ATOM     38  C   UNL     1      -8.744  10.982   3.334  1.00  0.00     0.039 A 
ATOM     39  C   UNL     1      -8.475  12.267   3.773  1.00  0.00     0.014 A 
ATOM     40  C   UNL     1      -9.410  10.689   2.137  1.00  0.00     0.014 A 
ATOM     41  C   UNL     1      -8.834  13.305   2.940  1.00  0.00     0.010 A 
ATOM     42  C   UNL     1      -9.670  11.716   1.268  1.00  0.00     0.010 A 
ATOM     43  C   UNL     1      -9.380  13.023   1.674  1.00  0.00    -0.014 A 
BRANCH  43  44
ATOM     44  C   UNL     1      -9.632  14.108   0.726  1.00  0.00     0.031 A 
ATOM     45  C   UNL     1     -11.035  14.374   0.295  1.00  0.00     0.074 A 
ATOM     46  C   UNL     1      -8.570  14.768   0.236  1.00  0.00     0.049 A 
ATOM     47  N   UNL     1     -11.466  15.257  -0.559  1.00  0.00    -0.248 NA
ATOM     48  C   UNL     1     -12.089  13.511   0.862  1.00  0.00     0.031 C 
ATOM     49  C   UNL     1      -7.168  14.486   0.569  1.00  0.00     0.029 A 
ATOM     50  N   UNL     1      -8.501  15.811  -0.639  1.00  0.00    -0.354 N 
ATOM     51  C   UNL     1     -12.835  15.054  -0.633  1.00  0.00     0.074 A 
ATOM     52  C   UNL     1     -13.155  13.912   0.189  1.00  0.00     0.031 C 
ATOM     53  C   UNL     1      -6.382  15.374  -0.056  1.00  0.00     0.029 A 
ATOM     54  C   UNL     1      -7.219  16.243  -0.873  1.00  0.00     0.049 A 
ATOM     55  H   UNL     1      -9.292  16.215  -1.063  1.00  0.00     0.167 HD
ATOM     56  C   UNL     1     -13.742  15.793  -1.306  1.00  0.00     0.037 A 
ATOM     57  C   UNL     1      -6.783  17.232  -1.672  1.00  0.00     0.037 A 
ATOM     58  C   UNL     1     -13.378  16.934  -2.098  1.00  0.00     0.049 A 
ATOM     59  C   UNL     1      -7.814  18.024  -2.424  1.00  0.00     0.074 A 
ATOM     60  C   UNL     1     -14.203  17.803  -2.782  1.00  0.00     0.029 A 
ATOM     61  N   UNL     1     -12.071  17.355  -2.319  1.00  0.00    -0.354 N 
ATOM     62  N   UNL     1      -9.121  17.895  -2.410  1.00  0.00    -0.248 NA
ATOM     63  C   UNL     1      -7.319  19.092  -3.297  1.00  0.00     0.031 C 
ATOM     64  C   UNL     1     -13.393  18.707  -3.474  1.00  0.00     0.029 A 
ATOM     65  C   UNL     1     -12.065  18.446  -3.166  1.00  0.00     0.049 A 
ATOM     66  H   UNL     1     -11.270  16.936  -1.929  1.00  0.00     0.167 HD
ATOM     67  C   UNL     1      -9.608  18.874  -3.265  1.00  0.00     0.074 A 
ATOM     68  C   UNL     1      -8.454  19.606  -3.752  1.00  0.00     0.031 C 
ATOM     69  C   UNL     1     -10.887  19.143  -3.626  1.00  0.00     0.037 A 
BRANCH  56  70
ATOM     70  C   UNL     1     -15.183  15.388  -1.208  1.00  0.00     0.058 A 
ATOM     71  C   UNL     1     -15.898  15.476  -0.001  1.00  0.00     0.135 A 
ATOM     72  C   UNL     1     -15.866  14.923  -2.341  1.00  0.00     0.135 A 
ATOM     73  F   UNL     1     -15.286  15.885   1.122  1.00  0.00    -0.206 F 
ATOM     74  C   UNL     1     -17.233  15.099   0.082  1.00  0.00     0.059 A 
ATOM     75  C   UNL     1     -17.212  14.575  -2.290  1.00  0.00     0.059 A 
ATOM     76  F   UNL     1     -15.226  14.801  -3.515  1.00  0.00    -0.206 F 
ATOM     77  C   UNL     1     -17.883  14.658  -1.072  1.00  0.00     0.060 A 
BRANCH  77  78
ATOM     78  S   UNL     1     -19.627  14.211  -0.952  1.00  0.00     0.124 S 
ATOM     79  O   UNL     1     -19.563  12.996  -0.146  1.00  0.00    -0.237 OA
ATOM     80  O   UNL     1     -20.199  15.381  -0.293  1.00  0.00    -0.237 OA
ATOM     81  O   UNL     1     -20.025  14.020  -2.343  1.00  0.00    -0.744 OA
ENDBRANCH  77  78
ENDBRANCH  56  70
BRANCH  57  82
ATOM     82  C   UNL     1      -5.330  17.517  -1.780  1.00  0.00     0.058 A 
ATOM     83  C   UNL     1      -4.791  18.717  -1.296  1.00  0.00     0.135 A 
ATOM     84  C   UNL     1      -4.446  16.583  -2.344  1.00  0.00     0.135 A 
ATOM     85  F   UNL     1      -5.593  19.638  -0.742  1.00  0.00    -0.206 F 
ATOM     86  C   UNL     1      -3.431  18.993  -1.388  1.00  0.00     0.059 A 
ATOM     87  C   UNL     1      -3.078  16.822  -2.418  1.00  0.00     0.059 A 
ATOM     88  F   UNL     1      -4.906  15.406  -2.798  1.00  0.00    -0.206 F 
ATOM     89  C   UNL     1      -2.582  18.037  -1.949  1.00  0.00     0.060 A 
BRANCH  89  90
ATOM     90  S   UNL     1      -0.815  18.391  -2.028  1.00  0.00     0.124 S 
ATOM     91  O   UNL     1      -0.773  19.455  -3.024  1.00  0.00    -0.237 OA
ATOM     92  O   UNL     1      -0.523  18.788  -0.654  1.00  0.00    -0.237 OA
ATOM     93  O   UNL     1      -0.234  17.116  -2.441  1.00  0.00    -0.744 OA
ENDBRANCH  89  90
ENDBRANCH  57  82
BRANCH  69  94
ATOM     94  C   UNL     1     -11.101  20.274  -4.590  1.00  0.00     0.058 A 
ATOM     95  C   UNL     1     -10.737  20.160  -5.939  1.00  0.00     0.135 A 
ATOM     96  C   UNL     1     -11.755  21.446  -4.176  1.00  0.00     0.135 A 
ATOM     97  F   UNL     1     -10.100  19.063  -6.379  1.00  0.00    -0.206 F 
ATOM     98  C   UNL     1     -11.002  21.178  -6.846  1.00  0.00     0.059 A 
ATOM     99  C   UNL     1     -12.064  22.459  -5.074  1.00  0.00     0.059 A 
ATOM    100  F   UNL     1     -12.132  21.596  -2.897  1.00  0.00    -0.206 F 
ATOM    101  C   UNL     1     -11.677  22.318  -6.406  1.00  0.00     0.060 A 
BRANCH 101 102
ATOM    102  S   UNL     1     -12.072  23.597  -7.614  1.00  0.00     0.124 S 
ATOM    103  O   UNL     1     -10.749  24.128  -7.924  1.00  0.00    -0.237 OA
ATOM    104  O   UNL     1     -12.714  22.830  -8.676  1.00  0.00    -0.237 OA
ATOM    105  O   UNL     1     -12.953  24.500  -6.878  1.00  0.00    -0.744 OA
ENDBRANCH 101 102
ENDBRANCH  69  94
ENDBRANCH  43  44
ENDBRANCH  35  38
ENDBRANCH  33  34
ENDBRANCH   1  33
TORSDOF 16
