REMARK SMILES Nc1nc(CC(=O)NC2(CC(=O)NCCCNC(=O)c3ccc(-c4c5nc(c(-c6c(F)cc(S(=O)(=O)[O-])cc6F)c6ccc([nH]6)c(-c6c(F)cc(S(=O)(=O)[O-])cc6F)c6nc(c(-c7c(F)cc(S(=O)(=O)[O-])cc7F)c7ccc4[nH]7)C=C6)C=C5)cc3)CCC2)cs1
REMARK SMILES IDX 14 1 13 2 11 3 12 4 10 6 9 7 86 8 88 9 87 10 8 11 6 12 7 13
REMARK SMILES IDX 5 15 4 16 2 17 3 18 90 19 89 20 1 21 15 24 16 25 17 26 18 27
REMARK SMILES IDX 19 29 20 30 21 31 85 32 22 33 84 34 23 35 24 36 25 37 78 38
REMARK SMILES IDX 26 39 83 40 77 41 79 42 27 43 82 44 76 45 75 46 28 48 62 49
REMARK SMILES IDX 41 50 61 51 42 52 45 53 60 54 80 55 43 56 44 57 59 59 81 60
REMARK SMILES IDX 46 61 29 62 30 63 39 64 31 65 32 66 38 67 40 68 33 69 34 70
REMARK SMILES IDX 35 71 36 72 37 73 63 74 64 75 73 76 65 77 66 78 72 79 74 80
REMARK SMILES IDX 67 81 68 82 69 83 70 84 71 85 47 86 48 87 57 88 49 89 50 90
REMARK SMILES IDX 56 91 58 92 51 93 52 94 53 95 54 96 55 97
REMARK H PARENT 13 5 8 14 1 22 1 23 17 28 79 47 45 58
REMARK Flexibility Score: inf
ROOT
ATOM      1  C   UNL     1       1.115  -5.911   1.941  1.00  0.00     0.117 C 
ENDROOT
BRANCH   1   2
ATOM      2  N   UNL     1       0.292  -5.459   0.838  1.00  0.00    -0.356 N 
ATOM      3  C   UNL     1      -0.506  -4.355   0.809  1.00  0.00     0.222 C 
ATOM      4  O   UNL     1      -1.547  -4.420   0.159  1.00  0.00    -0.275 OA
ATOM      5  H   UNL     1       0.310  -6.008   0.021  1.00  0.00     0.163 HD
BRANCH   3   6
ATOM      6  C   UNL     1      -0.015  -3.087   1.456  1.00  0.00     0.128 C 
BRANCH   6   7
ATOM      7  C   UNL     1      -0.887  -2.418   2.519  1.00  0.00     0.049 C 
ATOM      8  C   UNL     1      -0.296  -1.084   3.098  1.00  0.00     0.029 C 
ATOM      9  C   UNL     1      -0.672  -2.989   3.969  1.00  0.00     0.029 C 
ATOM     10  C   UNL     1       0.392  -1.906   4.198  1.00  0.00     0.005 C 
BRANCH   7  11
ATOM     11  N   UNL     1      -2.333  -2.292   2.212  1.00  0.00    -0.350 N 
ATOM     12  C   UNL     1      -3.023  -1.733   1.172  1.00  0.00     0.226 C 
ATOM     13  O   UNL     1      -4.239  -1.573   1.334  1.00  0.00    -0.275 OA
ATOM     14  H   UNL     1      -2.915  -2.694   2.897  1.00  0.00     0.164 HD
BRANCH  12  15
ATOM     15  C   UNL     1      -2.378  -1.344  -0.139  1.00  0.00     0.157 C 
BRANCH  15  16
ATOM     16  C   UNL     1      -1.456  -0.180  -0.049  1.00  0.00     0.063 A 
ATOM     17  C   UNL     1       0.566   0.717  -0.227  1.00  0.00     0.180 A 
ATOM     18  N   UNL     1      -0.133  -0.369  -0.419  1.00  0.00    -0.225 NA
ATOM     19  S   UNL     1      -0.339   2.078   0.291  1.00  0.00    -0.106 S 
ATOM     20  C   UNL     1      -1.759   1.115   0.324  1.00  0.00     0.093 A 
BRANCH  17  21
ATOM     21  N   UNL     1       1.890   0.751  -0.395  1.00  0.00    -0.375 N 
ATOM     22  H   UNL     1       2.369  -0.056  -0.694  1.00  0.00     0.159 HD
ATOM     23  H   UNL     1       2.388   1.582  -0.220  1.00  0.00     0.159 HD
ENDBRANCH  17  21
ENDBRANCH  15  16
ENDBRANCH  12  15
ENDBRANCH   7  11
ENDBRANCH   6   7
ENDBRANCH   3   6
ENDBRANCH   1   2
BRANCH   1  24
ATOM     24  C   UNL     1       0.256  -6.639   2.970  1.00  0.00     0.042 C 
BRANCH  24  25
ATOM     25  C   UNL     1      -0.556  -7.782   2.376  1.00  0.00     0.118 C 
BRANCH  25  26
ATOM     26  N   UNL     1       0.301  -8.825   1.843  1.00  0.00    -0.352 N 
ATOM     27  C   UNL     1       0.662 -10.021   2.408  1.00  0.00     0.251 C 
ATOM     28  H   UNL     1       0.676  -8.649   0.949  1.00  0.00     0.163 HD
ATOM     29  O   UNL     1       1.640 -10.623   1.974  1.00  0.00    -0.269 OA
BRANCH  27  30
ATOM     30  C   UNL     1      -0.121 -10.576   3.532  1.00  0.00     0.039 A 
ATOM     31  C   UNL     1       0.548 -11.242   4.561  1.00  0.00     0.014 A 
ATOM     32  C   UNL     1      -1.517 -10.495   3.543  1.00  0.00     0.014 A 
ATOM     33  C   UNL     1      -0.183 -11.810   5.606  1.00  0.00     0.010 A 
ATOM     34  C   UNL     1      -2.235 -10.971   4.633  1.00  0.00     0.010 A 
ATOM     35  C   UNL     1      -1.580 -11.672   5.654  1.00  0.00    -0.014 A 
BRANCH  35  36
ATOM     36  C   UNL     1      -2.383 -12.330   6.713  1.00  0.00     0.031 A 
ATOM     37  C   UNL     1      -3.379 -13.397   6.332  1.00  0.00     0.074 A 
ATOM     38  C   UNL     1      -2.257 -11.938   7.996  1.00  0.00     0.049 A 
ATOM     39  N   UNL     1      -4.227 -14.044   7.089  1.00  0.00    -0.248 NA
ATOM     40  C   UNL     1      -3.460 -13.759   4.906  1.00  0.00     0.031 C 
ATOM     41  C   UNL     1      -1.377 -10.868   8.474  1.00  0.00     0.029 A 
ATOM     42  N   UNL     1      -2.880 -12.387   9.132  1.00  0.00    -0.354 N 
ATOM     43  C   UNL     1      -4.962 -14.854   6.230  1.00  0.00     0.074 A 
ATOM     44  C   UNL     1      -4.494 -14.588   4.890  1.00  0.00     0.031 C 
ATOM     45  C   UNL     1      -1.505 -10.757   9.807  1.00  0.00     0.029 A 
ATOM     46  C   UNL     1      -2.490 -11.727  10.274  1.00  0.00     0.049 A 
ATOM     47  H   UNL     1      -3.543 -13.114   9.130  1.00  0.00     0.167 HD
ATOM     48  C   UNL     1      -5.921 -15.759   6.534  1.00  0.00     0.037 A 
ATOM     49  C   UNL     1      -2.884 -11.891  11.551  1.00  0.00     0.037 A 
ATOM     50  C   UNL     1      -6.326 -16.073   7.878  1.00  0.00     0.049 A 
ATOM     51  C   UNL     1      -3.885 -12.970  11.871  1.00  0.00     0.074 A 
ATOM     52  C   UNL     1      -7.225 -17.035   8.304  1.00  0.00     0.029 A 
ATOM     53  N   UNL     1      -5.842 -15.444   9.015  1.00  0.00    -0.354 N 
ATOM     54  N   UNL     1      -4.517 -13.775  11.051  1.00  0.00    -0.248 NA
ATOM     55  C   UNL     1      -4.209 -13.177  13.288  1.00  0.00     0.031 C 
ATOM     56  C   UNL     1      -7.302 -16.972   9.699  1.00  0.00     0.029 A 
ATOM     57  C   UNL     1      -6.423 -15.997  10.142  1.00  0.00     0.049 A 
ATOM     58  H   UNL     1      -5.182 -14.713   9.019  1.00  0.00     0.167 HD
ATOM     59  C   UNL     1      -5.288 -14.606  11.856  1.00  0.00     0.074 A 
ATOM     60  C   UNL     1      -5.034 -14.213  13.226  1.00  0.00     0.031 C 
ATOM     61  C   UNL     1      -6.132 -15.605  11.496  1.00  0.00     0.037 A 
BRANCH  48  62
ATOM     62  C   UNL     1      -6.582 -16.496   5.403  1.00  0.00     0.058 A 
ATOM     63  C   UNL     1      -5.909 -17.491   4.678  1.00  0.00     0.135 A 
ATOM     64  C   UNL     1      -7.928 -16.249   5.084  1.00  0.00     0.135 A 
ATOM     65  F   UNL     1      -4.616 -17.753   4.928  1.00  0.00    -0.206 F 
ATOM     66  C   UNL     1      -6.542 -18.208   3.668  1.00  0.00     0.059 A 
ATOM     67  C   UNL     1      -8.588 -16.972   4.094  1.00  0.00     0.059 A 
ATOM     68  F   UNL     1      -8.616 -15.304   5.743  1.00  0.00    -0.206 F 
ATOM     69  C   UNL     1      -7.884 -17.945   3.387  1.00  0.00     0.060 A 
BRANCH  69  70
ATOM     70  S   UNL     1      -8.704 -18.918   2.106  1.00  0.00     0.124 S 
ATOM     71  O   UNL     1      -8.141 -18.334   0.892  1.00  0.00    -0.237 OA
ATOM     72  O   UNL     1      -8.268 -20.276   2.416  1.00  0.00    -0.237 OA
ATOM     73  O   UNL     1     -10.121 -18.651   2.332  1.00  0.00    -0.744 OA
ENDBRANCH  69  70
ENDBRANCH  48  62
BRANCH  49  74
ATOM     74  C   UNL     1      -2.314 -11.039  12.627  1.00  0.00     0.058 A 
ATOM     75  C   UNL     1      -1.424 -11.569  13.574  1.00  0.00     0.135 A 
ATOM     76  C   UNL     1      -2.658  -9.684  12.740  1.00  0.00     0.135 A 
ATOM     77  F   UNL     1      -1.064 -12.860  13.507  1.00  0.00    -0.206 F 
ATOM     78  C   UNL     1      -0.923 -10.796  14.616  1.00  0.00     0.059 A 
ATOM     79  C   UNL     1      -2.150  -8.883  13.758  1.00  0.00     0.059 A 
ATOM     80  F   UNL     1      -3.485  -9.123  11.845  1.00  0.00    -0.206 F 
ATOM     81  C   UNL     1      -1.297  -9.454  14.703  1.00  0.00     0.060 A 
BRANCH  81  82
ATOM     82  S   UNL     1      -0.630  -8.449  16.048  1.00  0.00     0.124 S 
ATOM     83  O   UNL     1      -1.450  -8.884  17.172  1.00  0.00    -0.237 OA
ATOM     84  O   UNL     1       0.769  -8.863  16.080  1.00  0.00    -0.237 OA
ATOM     85  O   UNL     1      -0.860  -7.083  15.587  1.00  0.00    -0.744 OA
ENDBRANCH  81  82
ENDBRANCH  49  74
BRANCH  61  86
ATOM     86  C   UNL     1      -6.793 -16.376  12.601  1.00  0.00     0.058 A 
ATOM     87  C   UNL     1      -7.841 -15.831  13.358  1.00  0.00     0.135 A 
ATOM     88  C   UNL     1      -6.395 -17.694  12.879  1.00  0.00     0.135 A 
ATOM     89  F   UNL     1      -8.256 -14.575  13.130  1.00  0.00    -0.206 F 
ATOM     90  C   UNL     1      -8.450 -16.554  14.377  1.00  0.00     0.059 A 
ATOM     91  C   UNL     1      -7.007 -18.444  13.876  1.00  0.00     0.059 A 
ATOM     92  F   UNL     1      -5.406 -18.265  12.172  1.00  0.00    -0.206 F 
ATOM     93  C   UNL     1      -8.023 -17.859  14.632  1.00  0.00     0.060 A 
BRANCH  93  94
ATOM     94  S   UNL     1      -8.826 -18.796  15.949  1.00  0.00     0.124 S 
ATOM     95  O   UNL     1      -8.196 -18.228  17.136  1.00  0.00    -0.237 OA
ATOM     96  O   UNL     1     -10.235 -18.464  15.759  1.00  0.00    -0.237 OA
ATOM     97  O   UNL     1      -8.468 -20.178  15.646  1.00  0.00    -0.744 OA
ENDBRANCH  93  94
ENDBRANCH  61  86
ENDBRANCH  35  36
ENDBRANCH  27  30
ENDBRANCH  25  26
ENDBRANCH  24  25
ENDBRANCH   1  24
TORSDOF 18
