REMARK SMILES CCC(=O)N1CCC[C@](C[C@H]2CC(c3ccc(C)cc3)=NO2)(C(=O)NCCCNC(=O)c2ccc(-c3c4nc(c(-c5c(F)cc(S(=O)(=O)[O-])cc5F)c5ccc([nH]5)c(-c5c(F)cc(S(=O)(=O)[O-])cc5F)c5nc(c(-c6c(F)cc(S(=O)(=O)[O-])cc6F)c6ccc3[nH]6)C=C5)C=C4)cc2)C1
REMARK SMILES IDX 27 1 26 2 25 3 23 4 24 5 9 7 5 8 6 9 98 10 7 11 8 12 3 13
REMARK SMILES IDX 4 14 2 15 1 16 10 17 11 18 12 19 22 20 13 21 21 22 14 23
REMARK SMILES IDX 15 24 20 25 16 26 19 27 17 28 18 29 28 30 29 31 30 32 31 34
REMARK SMILES IDX 32 35 33 36 97 37 34 38 96 39 35 40 36 41 37 42 90 43 38 44
REMARK SMILES IDX 95 45 89 46 91 47 39 48 94 49 88 50 87 51 40 53 74 54 53 55
REMARK SMILES IDX 73 56 54 57 57 58 72 59 92 60 55 61 56 62 71 64 93 65 58 66
REMARK SMILES IDX 41 67 42 68 51 69 43 70 44 71 50 72 52 73 45 74 46 75 47 76
REMARK SMILES IDX 48 77 49 78 75 79 76 80 85 81 77 82 78 83 84 84 86 85 79 86
REMARK SMILES IDX 80 87 81 88 82 89 83 90 59 91 60 92 69 93 61 94 62 95 68 96
REMARK SMILES IDX 70 97 63 98 64 99 65 100 66 101 67 102
REMARK H PARENT 25 6 29 33 91 52 57 63
REMARK Flexibility Score: inf
ROOT
ATOM      1  C   UNL     1       1.706   3.346   4.419  1.00  0.00     0.042 C 
ENDROOT
BRANCH   1   2
ATOM      2  C   UNL     1       1.507   2.949   2.967  1.00  0.00     0.117 C 
BRANCH   2   3
ATOM      3  N   UNL     1       2.467   3.604   2.090  1.00  0.00    -0.355 N 
ATOM      4  C   UNL     1       3.635   3.304   1.491  1.00  0.00     0.228 C 
ATOM      5  O   UNL     1       4.036   4.218   0.751  1.00  0.00    -0.274 OA
ATOM      6  H   UNL     1       2.183   4.522   1.875  1.00  0.00     0.163 HD
BRANCH   4   7
ATOM      7  C   UNL     1       4.506   2.008   1.677  1.00  0.00     0.070 C 
ATOM      8  N   UNL     1       3.028   0.108   2.497  1.00  0.00    -0.342 N 
ATOM      9  C   UNL     1       3.865  -0.102   3.669  1.00  0.00     0.119 C 
ATOM     10  C   UNL     1       3.670   0.750   1.358  1.00  0.00     0.136 C 
ATOM     11  C   UNL     1       4.596   1.131   4.151  1.00  0.00     0.023 C 
ATOM     12  C   UNL     1       5.160   2.032   3.070  1.00  0.00     0.021 C 
BRANCH   8  13
ATOM     13  C   UNL     1       1.798  -0.543   2.493  1.00  0.00     0.222 C 
ATOM     14  O   UNL     1       1.286  -0.878   3.568  1.00  0.00    -0.275 OA
BRANCH  13  15
ATOM     15  C   UNL     1       1.126  -1.029   1.207  1.00  0.00     0.097 C 
ATOM     16  C   UNL     1       0.974  -0.147  -0.013  1.00  0.00     0.014 C 
ENDBRANCH  13  15
ENDBRANCH   8  13
BRANCH   7  17
ATOM     17  C   UNL     1       5.644   2.202   0.573  1.00  0.00     0.067 C 
BRANCH  17  18
ATOM     18  C   UNL     1       6.785   1.215   0.270  1.00  0.00     0.211 C 
ATOM     19  C   UNL     1       7.919   1.076   1.263  1.00  0.00     0.108 C 
ATOM     20  O   UNL     1       6.312  -0.102  -0.005  1.00  0.00    -0.392 OA
ATOM     21  C   UNL     1       7.701  -0.337   1.663  1.00  0.00     0.091 C 
ATOM     22  N   UNL     1       6.843  -0.992   0.952  1.00  0.00    -0.090 NA
BRANCH  21  23
ATOM     23  C   UNL     1       8.517  -0.973   2.705  1.00  0.00    -0.001 A 
ATOM     24  C   UNL     1       8.691  -0.385   3.958  1.00  0.00     0.010 A 
ATOM     25  C   UNL     1       9.135  -2.188   2.400  1.00  0.00     0.010 A 
ATOM     26  C   UNL     1       9.498  -1.020   4.908  1.00  0.00     0.004 A 
ATOM     27  C   UNL     1       9.954  -2.807   3.342  1.00  0.00     0.004 A 
ATOM     28  C   UNL     1      10.139  -2.230   4.605  1.00  0.00    -0.051 A 
ATOM     29  C   UNL     1      11.037  -2.904   5.601  1.00  0.00     0.044 C 
ENDBRANCH  21  23
ENDBRANCH  17  18
ENDBRANCH   7  17
ENDBRANCH   4   7
ENDBRANCH   2   3
ENDBRANCH   1   2
BRANCH   1  30
ATOM     30  C   UNL     1       0.417   3.367   5.221  1.00  0.00     0.118 C 
BRANCH  30  31
ATOM     31  N   UNL     1       0.199   2.234   6.116  1.00  0.00    -0.352 N 
ATOM     32  C   UNL     1      -0.768   2.163   7.119  1.00  0.00     0.251 C 
ATOM     33  H   UNL     1       0.786   1.452   6.002  1.00  0.00     0.163 HD
ATOM     34  O   UNL     1      -0.830   1.248   7.923  1.00  0.00    -0.269 OA
BRANCH  32  35
ATOM     35  C   UNL     1      -1.751   3.273   7.149  1.00  0.00     0.039 A 
ATOM     36  C   UNL     1      -2.959   3.068   6.476  1.00  0.00     0.014 A 
ATOM     37  C   UNL     1      -1.259   4.555   7.377  1.00  0.00     0.014 A 
ATOM     38  C   UNL     1      -3.542   4.135   5.797  1.00  0.00     0.010 A 
ATOM     39  C   UNL     1      -1.777   5.582   6.607  1.00  0.00     0.010 A 
ATOM     40  C   UNL     1      -2.873   5.357   5.754  1.00  0.00    -0.014 A 
BRANCH  40  41
ATOM     41  C   UNL     1      -3.131   6.391   4.743  1.00  0.00     0.031 A 
ATOM     42  C   UNL     1      -3.482   7.769   5.172  1.00  0.00     0.074 A 
ATOM     43  C   UNL     1      -2.969   6.134   3.423  1.00  0.00     0.049 A 
ATOM     44  N   UNL     1      -3.829   8.723   4.377  1.00  0.00    -0.248 NA
ATOM     45  C   UNL     1      -3.553   8.155   6.579  1.00  0.00     0.031 C 
ATOM     46  C   UNL     1      -2.828   7.107   2.341  1.00  0.00     0.029 A 
ATOM     47  N   UNL     1      -3.123   4.914   2.759  1.00  0.00    -0.354 N 
ATOM     48  C   UNL     1      -3.935   9.882   5.109  1.00  0.00     0.074 A 
ATOM     49  C   UNL     1      -3.843   9.454   6.480  1.00  0.00     0.031 C 
ATOM     50  C   UNL     1      -3.148   6.524   1.177  1.00  0.00     0.029 A 
ATOM     51  C   UNL     1      -3.640   5.193   1.474  1.00  0.00     0.049 A 
ATOM     52  H   UNL     1      -2.911   4.024   3.120  1.00  0.00     0.167 HD
ATOM     53  C   UNL     1      -4.003  11.073   4.449  1.00  0.00     0.037 A 
ATOM     54  C   UNL     1      -4.869   4.722   1.105  1.00  0.00     0.037 A 
ATOM     55  C   UNL     1      -4.433  10.857   3.062  1.00  0.00     0.049 A 
ATOM     56  C   UNL     1      -5.931   5.793   0.938  1.00  0.00     0.074 A 
ATOM     57  C   UNL     1      -3.828  10.845   1.817  1.00  0.00     0.029 A 
ATOM     58  N   UNL     1      -5.697  10.319   2.868  1.00  0.00    -0.354 N 
ATOM     59  N   UNL     1      -5.717   7.079   1.004  1.00  0.00    -0.248 NA
ATOM     60  C   UNL     1      -7.353   5.476   0.769  1.00  0.00     0.031 C 
ATOM     61  C   UNL     1      -4.711  10.185   0.904  1.00  0.00     0.029 A 
ATOM     62  C   UNL     1      -5.859   9.827   1.589  1.00  0.00     0.049 A 
ATOM     63  H   UNL     1      -6.395  10.292   3.561  1.00  0.00     0.167 HD
ATOM     64  C   UNL     1      -6.922   7.731   1.028  1.00  0.00     0.074 A 
ATOM     65  C   UNL     1      -7.916   6.693   0.831  1.00  0.00     0.031 C 
ATOM     66  C   UNL     1      -7.059   9.063   1.284  1.00  0.00     0.037 A 
BRANCH  53  67
ATOM     67  C   UNL     1      -3.568  12.419   5.013  1.00  0.00     0.058 A 
ATOM     68  C   UNL     1      -3.443  13.541   4.160  1.00  0.00     0.135 A 
ATOM     69  C   UNL     1      -3.129  12.659   6.335  1.00  0.00     0.135 A 
ATOM     70  F   UNL     1      -3.809  13.480   2.871  1.00  0.00    -0.206 F 
ATOM     71  C   UNL     1      -2.896  14.765   4.573  1.00  0.00     0.059 A 
ATOM     72  C   UNL     1      -2.603  13.874   6.775  1.00  0.00     0.059 A 
ATOM     73  F   UNL     1      -3.140  11.724   7.286  1.00  0.00    -0.206 F 
ATOM     74  C   UNL     1      -2.466  14.919   5.883  1.00  0.00     0.060 A 
BRANCH  74  75
ATOM     75  S   UNL     1      -1.692  16.459   6.405  1.00  0.00     0.124 S 
ATOM     76  O   UNL     1      -0.512  16.509   5.548  1.00  0.00    -0.237 OA
ATOM     77  O   UNL     1      -2.733  17.439   6.118  1.00  0.00    -0.237 OA
ATOM     78  O   UNL     1      -1.418  16.241   7.824  1.00  0.00    -0.744 OA
ENDBRANCH  74  75
ENDBRANCH  53  67
BRANCH  54  79
ATOM     79  C   UNL     1      -5.110   3.336   1.589  1.00  0.00     0.058 A 
ATOM     80  C   UNL     1      -4.294   2.316   1.062  1.00  0.00     0.135 A 
ATOM     81  C   UNL     1      -5.770   3.088   2.800  1.00  0.00     0.135 A 
ATOM     82  F   UNL     1      -3.652   2.502  -0.104  1.00  0.00    -0.206 F 
ATOM     83  C   UNL     1      -3.999   1.174   1.792  1.00  0.00     0.059 A 
ATOM     84  C   UNL     1      -5.501   1.941   3.543  1.00  0.00     0.059 A 
ATOM     85  F   UNL     1      -6.553   4.027   3.351  1.00  0.00    -0.206 F 
ATOM     86  C   UNL     1      -4.556   1.035   3.062  1.00  0.00     0.060 A 
BRANCH  86  87
ATOM     87  S   UNL     1      -3.824  -0.199   4.160  1.00  0.00     0.124 S 
ATOM     88  O   UNL     1      -4.029  -1.431   3.406  1.00  0.00    -0.237 OA
ATOM     89  O   UNL     1      -2.452   0.293   4.235  1.00  0.00    -0.237 OA
ATOM     90  O   UNL     1      -4.610  -0.063   5.381  1.00  0.00    -0.744 OA
ENDBRANCH  86  87
ENDBRANCH  54  79
BRANCH  66  91
ATOM     91  C   UNL     1      -8.403   9.723   1.286  1.00  0.00     0.058 A 
ATOM     92  C   UNL     1      -9.223   9.701   0.147  1.00  0.00     0.135 A 
ATOM     93  C   UNL     1      -8.850  10.493   2.377  1.00  0.00     0.135 A 
ATOM     94  F   UNL     1      -8.865   8.989  -0.934  1.00  0.00    -0.206 F 
ATOM     95  C   UNL     1     -10.421  10.411   0.088  1.00  0.00     0.059 A 
ATOM     96  C   UNL     1     -10.022  11.241   2.326  1.00  0.00     0.059 A 
ATOM     97  F   UNL     1      -8.158  10.524   3.527  1.00  0.00    -0.206 F 
ATOM     98  C   UNL     1     -10.807  11.188   1.179  1.00  0.00     0.060 A 
BRANCH  98  99
ATOM     99  S   UNL     1     -12.315  12.173   1.082  1.00  0.00     0.124 S 
ATOM    100  O   UNL     1     -12.407  12.489  -0.340  1.00  0.00    -0.237 OA
ATOM    101  O   UNL     1     -13.310  11.231   1.584  1.00  0.00    -0.237 OA
ATOM    102  O   UNL     1     -12.025  13.309   1.951  1.00  0.00    -0.744 OA
ENDBRANCH  98  99
ENDBRANCH  66  91
ENDBRANCH  40  41
ENDBRANCH  32  35
ENDBRANCH  30  31
ENDBRANCH   1  30
TORSDOF 18
