REMARK SMILES C[NH+](CC(=O)NCCCNC(=O)c1ccc(-c2c3nc(c(-c4c(F)cc(S(=O)(=O)[O-])cc4F)c4ccc([nH]4)c(-c4c(F)cc(S(=O)(=O)[O-])cc4F)c4nc(c(-c5c(F)cc(S(=O)(=O)[O-])cc5F)c5ccc2[nH]5)C=C4)C=C3)cc1)Cc1noc(-c2ccccc2Cl)n1
REMARK SMILES IDX 7 1 6 2 4 3 5 4 3 6 2 7 1 8 79 10 80 11 81 12 91 13 82 14
REMARK SMILES IDX 83 15 84 16 85 17 89 18 86 19 88 20 90 21 87 22 8 23 9 24
REMARK SMILES IDX 10 25 11 26 12 28 13 29 14 30 78 31 15 32 77 33 16 34 17 35
REMARK SMILES IDX 18 36 71 37 19 38 76 39 70 40 72 41 20 42 75 43 69 44 68 45
REMARK SMILES IDX 21 47 55 48 34 49 54 50 35 51 38 52 53 53 73 54 36 55 37 56
REMARK SMILES IDX 52 58 74 59 39 60 22 61 23 62 32 63 24 64 25 65 31 66 33 67
REMARK SMILES IDX 26 68 27 69 28 70 29 71 30 72 56 73 57 74 66 75 58 76 59 77
REMARK SMILES IDX 65 78 67 79 60 80 61 81 62 82 63 83 64 84 40 85 41 86 50 87
REMARK SMILES IDX 42 88 43 89 49 90 51 91 44 92 45 93 46 94 47 95 48 96
REMARK H PARENT 6 5 2 9 10 27 72 46 38 57
REMARK Flexibility Score: inf
ROOT
ATOM      1  C   UNL     1      -0.692   0.519   1.874  1.00  0.00     0.118 C 
ENDROOT
BRANCH   1   2
ATOM      2  N   UNL     1      -1.569   1.025   0.833  1.00  0.00    -0.351 N 
ATOM      3  C   UNL     1      -1.671   0.667  -0.482  1.00  0.00     0.275 C 
ATOM      4  O   UNL     1      -2.504   1.248  -1.185  1.00  0.00    -0.269 OA
ATOM      5  H   UNL     1      -2.187   1.736   1.119  1.00  0.00     0.163 HD
BRANCH   3   6
ATOM      6  C   UNL     1      -0.805  -0.453  -1.058  1.00  0.00     0.363 C 
BRANCH   6   7
ATOM      7  N   UNL     1       0.541  -0.031  -1.409  1.00  0.00    -0.323 N 
ATOM      8  C   UNL     1       1.677  -0.574  -0.715  1.00  0.00     0.333 C 
ATOM      9  H   UNL     1       0.159  -0.818  -1.933  1.00  0.00     0.348 HD
BRANCH   7  10
ATOM     10  C   UNL     1       0.754   0.975  -2.443  1.00  0.00     0.345 C 
BRANCH  10  11
ATOM     11  C   UNL     1       0.824   2.399  -1.969  1.00  0.00     0.226 A 
ATOM     12  N   UNL     1       0.379   2.828  -0.781  1.00  0.00    -0.056 NA
ATOM     13  N   UNL     1       1.311   3.403  -2.777  1.00  0.00    -0.186 NA
ATOM     14  O   UNL     1       0.568   4.199  -0.827  1.00  0.00    -0.334 OA
ATOM     15  C   UNL     1       1.119   4.480  -2.046  1.00  0.00     0.259 A 
BRANCH  15  16
ATOM     16  C   UNL     1       1.359   5.891  -2.313  1.00  0.00     0.058 A 
ATOM     17  C   UNL     1       1.718   6.740  -1.246  1.00  0.00     0.015 A 
ATOM     18  C   UNL     1       1.230   6.453  -3.592  1.00  0.00     0.053 A 
ATOM     19  C   UNL     1       1.937   8.104  -1.448  1.00  0.00     0.001 A 
ATOM     20  C   UNL     1       1.450   7.822  -3.791  1.00  0.00     0.021 A 
ATOM     21  Cl  UNL     1       0.745   5.536  -4.979  1.00  0.00    -0.083 Cl
ATOM     22  C   UNL     1       1.803   8.645  -2.722  1.00  0.00     0.002 A 
ENDBRANCH  15  16
ENDBRANCH  10  11
ENDBRANCH   7  10
ENDBRANCH   6   7
ENDBRANCH   3   6
ENDBRANCH   1   2
BRANCH   1  23
ATOM     23  C   UNL     1       0.533   1.394   2.138  1.00  0.00     0.042 C 
BRANCH  23  24
ATOM     24  C   UNL     1       0.229   2.822   2.580  1.00  0.00     0.118 C 
BRANCH  24  25
ATOM     25  N   UNL     1      -0.264   2.885   3.946  1.00  0.00    -0.352 N 
ATOM     26  C   UNL     1       0.338   3.300   5.108  1.00  0.00     0.251 C 
ATOM     27  H   UNL     1      -1.192   2.575   4.058  1.00  0.00     0.163 HD
ATOM     28  O   UNL     1      -0.218   3.048   6.176  1.00  0.00    -0.269 OA
BRANCH  26  29
ATOM     29  C   UNL     1       1.634   4.027   5.116  1.00  0.00     0.039 A 
ATOM     30  C   UNL     1       2.527   3.774   6.165  1.00  0.00     0.014 A 
ATOM     31  C   UNL     1       1.951   5.010   4.176  1.00  0.00     0.014 A 
ATOM     32  C   UNL     1       3.742   4.465   6.244  1.00  0.00     0.010 A 
ATOM     33  C   UNL     1       3.195   5.649   4.214  1.00  0.00     0.010 A 
ATOM     34  C   UNL     1       4.102   5.392   5.254  1.00  0.00    -0.014 A 
BRANCH  34  35
ATOM     35  C   UNL     1       5.410   6.105   5.306  1.00  0.00     0.031 A 
ATOM     36  C   UNL     1       5.461   7.603   5.471  1.00  0.00     0.074 A 
ATOM     37  C   UNL     1       6.557   5.412   5.161  1.00  0.00     0.049 A 
ATOM     38  N   UNL     1       6.499   8.400   5.473  1.00  0.00    -0.248 NA
ATOM     39  C   UNL     1       4.174   8.298   5.633  1.00  0.00     0.031 C 
ATOM     40  C   UNL     1       6.651   3.965   4.958  1.00  0.00     0.029 A 
ATOM     41  N   UNL     1       7.865   5.831   5.153  1.00  0.00    -0.354 N 
ATOM     42  C   UNL     1       5.994   9.687   5.619  1.00  0.00     0.074 A 
ATOM     43  C   UNL     1       4.552   9.568   5.656  1.00  0.00     0.031 C 
ATOM     44  C   UNL     1       7.944   3.615   4.865  1.00  0.00     0.029 A 
ATOM     45  C   UNL     1       8.772   4.814   4.963  1.00  0.00     0.049 A 
ATOM     46  H   UNL     1       8.130   6.772   5.272  1.00  0.00     0.167 HD
ATOM     47  C   UNL     1       6.667  10.858   5.733  1.00  0.00     0.037 A 
ATOM     48  C   UNL     1      10.116   4.840   4.869  1.00  0.00     0.037 A 
ATOM     49  C   UNL     1       8.103  10.973   5.729  1.00  0.00     0.049 A 
ATOM     50  C   UNL     1      10.841   6.151   5.000  1.00  0.00     0.074 A 
ATOM     51  C   UNL     1       8.876  12.111   5.894  1.00  0.00     0.029 A 
ATOM     52  N   UNL     1       8.984   9.916   5.552  1.00  0.00    -0.354 N 
ATOM     53  N   UNL     1      10.346   7.351   5.187  1.00  0.00    -0.248 NA
ATOM     54  C   UNL     1      12.308   6.112   4.912  1.00  0.00     0.031 C 
ATOM     55  C   UNL     1      10.222  11.747   5.779  1.00  0.00     0.029 A 
ATOM     56  C   UNL     1      10.290  10.377   5.587  1.00  0.00     0.049 A 
ATOM     57  H   UNL     1       8.720   8.977   5.422  1.00  0.00     0.167 HD
ATOM     58  C   UNL     1      11.441   8.206   5.264  1.00  0.00     0.074 A 
ATOM     59  C   UNL     1      12.624   7.384   5.115  1.00  0.00     0.031 C 
ATOM     60  C   UNL     1      11.462   9.550   5.444  1.00  0.00     0.037 A 
BRANCH  47  61
ATOM     61  C   UNL     1       5.856  12.118   5.875  1.00  0.00     0.058 A 
ATOM     62  C   UNL     1       5.150  12.411   7.053  1.00  0.00     0.135 A 
ATOM     63  C   UNL     1       5.813  13.062   4.836  1.00  0.00     0.135 A 
ATOM     64  F   UNL     1       5.146  11.539   8.073  1.00  0.00    -0.206 F 
ATOM     65  C   UNL     1       4.403  13.578   7.183  1.00  0.00     0.059 A 
ATOM     66  C   UNL     1       5.095  14.249   4.955  1.00  0.00     0.059 A 
ATOM     67  F   UNL     1       6.472  12.835   3.688  1.00  0.00    -0.206 F 
ATOM     68  C   UNL     1       4.380  14.490   6.127  1.00  0.00     0.060 A 
BRANCH  68  69
ATOM     69  S   UNL     1       3.402  15.997   6.309  1.00  0.00     0.124 S 
ATOM     70  O   UNL     1       2.045  15.480   6.161  1.00  0.00    -0.237 OA
ATOM     71  O   UNL     1       3.766  16.448   7.647  1.00  0.00    -0.237 OA
ATOM     72  O   UNL     1       3.874  16.842   5.215  1.00  0.00    -0.744 OA
ENDBRANCH  68  69
ENDBRANCH  47  61
BRANCH  48  73
ATOM     73  C   UNL     1      10.868   3.574   4.655  1.00  0.00     0.058 A 
ATOM     74  C   UNL     1      11.643   3.014   5.681  1.00  0.00     0.135 A 
ATOM     75  C   UNL     1      10.814   2.893   3.429  1.00  0.00     0.135 A 
ATOM     76  F   UNL     1      11.733   3.633   6.868  1.00  0.00    -0.206 F 
ATOM     77  C   UNL     1      12.351   1.831   5.496  1.00  0.00     0.059 A 
ATOM     78  C   UNL     1      11.492   1.695   3.228  1.00  0.00     0.059 A 
ATOM     79  F   UNL     1      10.073   3.380   2.421  1.00  0.00    -0.206 F 
ATOM     80  C   UNL     1      12.266   1.177   4.266  1.00  0.00     0.060 A 
BRANCH  80  81
ATOM     81  S   UNL     1      13.143  -0.388   4.053  1.00  0.00     0.124 S 
ATOM     82  O   UNL     1      14.523   0.064   3.925  1.00  0.00    -0.237 OA
ATOM     83  O   UNL     1      12.814  -1.095   5.288  1.00  0.00    -0.237 OA
ATOM     84  O   UNL     1      12.544  -0.945   2.844  1.00  0.00    -0.744 OA
ENDBRANCH  80  81
ENDBRANCH  48  73
BRANCH  60  85
ATOM     85  C   UNL     1      12.807  10.218   5.521  1.00  0.00     0.058 A 
ATOM     86  C   UNL     1      13.604  10.403   4.381  1.00  0.00     0.135 A 
ATOM     87  C   UNL     1      13.281  10.722   6.742  1.00  0.00     0.135 A 
ATOM     88  F   UNL     1      13.200   9.934   3.190  1.00  0.00    -0.206 F 
ATOM     89  C   UNL     1      14.835  11.048   4.452  1.00  0.00     0.059 A 
ATOM     90  C   UNL     1      14.498  11.392   6.833  1.00  0.00     0.059 A 
ATOM     91  F   UNL     1      12.554  10.579   7.861  1.00  0.00    -0.206 F 
ATOM     92  C   UNL     1      15.273  11.540   5.684  1.00  0.00     0.060 A 
BRANCH  92  93
ATOM     93  S   UNL     1      16.856  12.406   5.758  1.00  0.00     0.124 S 
ATOM     94  O   UNL     1      17.801  11.298   5.666  1.00  0.00    -0.237 OA
ATOM     95  O   UNL     1      16.790  13.281   4.591  1.00  0.00    -0.237 OA
ATOM     96  O   UNL     1      16.810  13.088   7.048  1.00  0.00    -0.744 OA
ENDBRANCH  92  93
ENDBRANCH  60  85
ENDBRANCH  34  35
ENDBRANCH  26  29
ENDBRANCH  24  25
ENDBRANCH  23  24
ENDBRANCH   1  23
TORSDOF 17
