REMARK SMILES O=C(NCCCNC(=O)c1ccccc1Nc1cccc(S(F)(F)(F)(F)F)c1)c1ccc(-c2c3nc(c(-c4c(F)cc(S(=O)(=O)[O-])cc4F)c4ccc([nH]4)c(-c4c(F)cc(S(=O)(=O)[O-])cc4F)c4nc(c(-c5c(F)cc(S(=O)(=O)[O-])cc5F)c5ccc2[nH]5)C=C4)C=C3)cc1
REMARK SMILES IDX 5 1 4 2 3 3 1 4 2 5 29 7 30 8 94 9 31 10 93 11 32 12 33 13
REMARK SMILES IDX 34 14 87 15 35 16 92 17 86 18 88 19 36 20 91 21 85 22 84 23
REMARK SMILES IDX 37 25 71 26 50 27 70 28 51 29 54 30 69 31 89 32 52 33 53 34
REMARK SMILES IDX 68 36 90 37 55 38 38 39 39 40 48 41 40 42 41 43 47 44 49 45
REMARK SMILES IDX 42 46 43 47 44 48 45 49 46 50 72 51 73 52 82 53 74 54 75 55
REMARK SMILES IDX 81 56 83 57 76 58 77 59 78 60 79 61 80 62 56 63 57 64 66 65
REMARK SMILES IDX 58 66 59 67 65 68 67 69 60 70 61 71 62 72 63 73 64 74 6 75
REMARK SMILES IDX 7 76 8 77 9 79 10 80 11 81 15 82 12 83 14 84 13 85 16 86
REMARK SMILES IDX 17 88 18 89 28 90 19 91 21 92 20 93 22 94 23 95 24 96 25 97
REMARK SMILES IDX 26 98 27 99
REMARK H PARENT 3 6 88 24 54 35 7 78 16 87
REMARK Flexibility Score: inf
ROOT
ATOM      1  C   UNL     1       4.971  -1.043   2.206  1.00  0.00     0.042 C 
ENDROOT
BRANCH   1   2
ATOM      2  C   UNL     1       4.464  -1.128   0.776  1.00  0.00     0.118 C 
BRANCH   2   3
ATOM      3  N   UNL     1       2.994  -1.128   0.776  1.00  0.00    -0.352 N 
ATOM      4  O   UNL     1       0.988  -0.065   0.075  1.00  0.00    -0.269 OA
ATOM      5  C   UNL     1       2.259  -0.065   0.075  1.00  0.00     0.251 C 
ATOM      6  H   UNL     1       2.502  -1.840   1.245  1.00  0.00     0.163 HD
BRANCH   5   7
ATOM      7  C   UNL     1       3.019   1.034  -0.650  1.00  0.00     0.039 A 
ATOM      8  C   UNL     1       4.056   0.785  -1.534  1.00  0.00     0.014 A 
ATOM      9  C   UNL     1       2.568   2.266  -0.446  1.00  0.00     0.014 A 
ATOM     10  C   UNL     1       4.751   1.948  -1.943  1.00  0.00     0.010 A 
ATOM     11  C   UNL     1       3.218   3.348  -0.989  1.00  0.00     0.010 A 
ATOM     12  C   UNL     1       4.287   3.179  -1.824  1.00  0.00    -0.014 A 
BRANCH  12  13
ATOM     13  C   UNL     1       4.909   4.345  -2.576  1.00  0.00     0.031 A 
ATOM     14  C   UNL     1       5.402   5.351  -1.744  1.00  0.00     0.074 A 
ATOM     15  C   UNL     1       4.864   4.434  -3.957  1.00  0.00     0.049 A 
ATOM     16  N   UNL     1       5.932   6.520  -2.108  1.00  0.00    -0.248 NA
ATOM     17  C   UNL     1       5.419   5.273  -0.276  1.00  0.00     0.031 C 
ATOM     18  C   UNL     1       4.375   3.420  -4.803  1.00  0.00     0.029 A 
ATOM     19  N   UNL     1       5.269   5.485  -4.749  1.00  0.00    -0.354 N 
ATOM     20  C   UNL     1       6.310   7.210  -1.030  1.00  0.00     0.074 A 
ATOM     21  C   UNL     1       5.980   6.421   0.164  1.00  0.00     0.031 C 
ATOM     22  C   UNL     1       4.474   3.857  -6.086  1.00  0.00     0.029 A 
ATOM     23  C   UNL     1       5.026   5.152  -6.063  1.00  0.00     0.049 A 
ATOM     24  H   UNL     1       5.665   6.329  -4.431  1.00  0.00     0.167 HD
ATOM     25  C   UNL     1       6.918   8.466  -0.996  1.00  0.00     0.037 A 
ATOM     26  C   UNL     1       5.264   5.920  -7.192  1.00  0.00     0.037 A 
ATOM     27  C   UNL     1       7.196   9.216  -2.127  1.00  0.00     0.049 A 
ATOM     28  C   UNL     1       5.819   7.201  -7.154  1.00  0.00     0.074 A 
ATOM     29  C   UNL     1       7.816  10.481  -2.111  1.00  0.00     0.029 A 
ATOM     30  N   UNL     1       6.930   8.893  -3.440  1.00  0.00    -0.354 N 
ATOM     31  N   UNL     1       6.233   7.874  -6.079  1.00  0.00    -0.248 NA
ATOM     32  C   UNL     1       6.046   8.038  -8.340  1.00  0.00     0.031 C 
ATOM     33  C   UNL     1       7.914  10.918  -3.395  1.00  0.00     0.029 A 
ATOM     34  C   UNL     1       7.356   9.935  -4.234  1.00  0.00     0.049 A 
ATOM     35  H   UNL     1       6.508   8.062  -3.756  1.00  0.00     0.167 HD
ATOM     36  C   UNL     1       6.725   9.061  -6.441  1.00  0.00     0.074 A 
ATOM     37  C   UNL     1       6.604   9.186  -7.900  1.00  0.00     0.031 C 
ATOM     38  C   UNL     1       7.272  10.043  -5.613  1.00  0.00     0.037 A 
BRANCH  25  39
ATOM     39  C   UNL     1       7.298   9.043   0.358  1.00  0.00     0.058 A 
ATOM     40  C   UNL     1       8.080   8.300   1.227  1.00  0.00     0.135 A 
ATOM     41  C   UNL     1       6.761  10.198   0.732  1.00  0.00     0.135 A 
ATOM     42  F   UNL     1       8.838   7.281   0.830  1.00  0.00    -0.206 F 
ATOM     43  C   UNL     1       8.000   8.723   2.575  1.00  0.00     0.059 A 
ATOM     44  C   UNL     1       6.838  10.615   2.039  1.00  0.00     0.059 A 
ATOM     45  F   UNL     1       6.143  10.959  -0.167  1.00  0.00    -0.206 F 
ATOM     46  C   UNL     1       7.545   9.899   2.965  1.00  0.00     0.060 A 
BRANCH  46  47
ATOM     47  S   UNL     1       7.841  10.530   4.635  1.00  0.00     0.124 S 
ATOM     48  O   UNL     1       7.233   9.569   5.659  1.00  0.00    -0.237 OA
ATOM     49  O   UNL     1       9.348  10.647   4.877  1.00  0.00    -0.237 OA
ATOM     50  O   UNL     1       7.117  12.071   4.799  1.00  0.00    -0.744 OA
ENDBRANCH  46  47
ENDBRANCH  25  39
BRANCH  26  51
ATOM     51  C   UNL     1       4.899   5.336  -8.547  1.00  0.00     0.058 A 
ATOM     52  C   UNL     1       5.872   5.032  -9.485  1.00  0.00     0.135 A 
ATOM     53  C   UNL     1       3.627   5.014  -8.745  1.00  0.00     0.135 A 
ATOM     54  F   UNL     1       7.175   5.102  -9.228  1.00  0.00    -0.206 F 
ATOM     55  C   UNL     1       5.353   4.639 -10.742  1.00  0.00     0.059 A 
ATOM     56  C   UNL     1       3.213   4.508  -9.953  1.00  0.00     0.059 A 
ATOM     57  F   UNL     1       2.744   5.184  -7.764  1.00  0.00    -0.206 F 
ATOM     58  C   UNL     1       4.112   4.238 -10.947  1.00  0.00     0.060 A 
BRANCH  58  59
ATOM     59  S   UNL     1       3.627   3.376 -12.464  1.00  0.00     0.124 S 
ATOM     60  O   UNL     1       3.903   4.275 -13.671  1.00  0.00    -0.237 OA
ATOM     61  O   UNL     1       4.434   2.083 -12.595  1.00  0.00    -0.237 OA
ATOM     62  O   UNL     1       1.960   3.004 -12.399  1.00  0.00    -0.744 OA
ENDBRANCH  58  59
ENDBRANCH  26  51
BRANCH  38  63
ATOM     63  C   UNL     1       7.808  11.307  -6.264  1.00  0.00     0.058 A 
ATOM     64  C   UNL     1       7.018  12.213  -6.952  1.00  0.00     0.135 A 
ATOM     65  C   UNL     1       9.099  11.540  -6.054  1.00  0.00     0.135 A 
ATOM     66  F   UNL     1       5.690  12.151  -6.969  1.00  0.00    -0.206 F 
ATOM     67  C   UNL     1       7.752  13.211  -7.636  1.00  0.00     0.059 A 
ATOM     68  C   UNL     1       9.722  12.612  -6.646  1.00  0.00     0.059 A 
ATOM     69  F   UNL     1       9.794  10.727  -5.264  1.00  0.00    -0.206 F 
ATOM     70  C   UNL     1       9.013  13.515  -7.388  1.00  0.00     0.060 A 
BRANCH  70  71
ATOM     71  S   UNL     1       9.763  15.045  -7.999  1.00  0.00     0.124 S 
ATOM     72  O   UNL     1       9.697  15.071  -9.528  1.00  0.00    -0.237 OA
ATOM     73  O   UNL     1       9.002  16.247  -7.435  1.00  0.00    -0.237 OA
ATOM     74  O   UNL     1      11.396  15.119  -7.498  1.00  0.00    -0.744 OA
ENDBRANCH  70  71
ENDBRANCH  38  63
ENDBRANCH  12  13
ENDBRANCH   5   7
ENDBRANCH   2   3
ENDBRANCH   1   2
BRANCH   1  75
ATOM     75  C   UNL     1       4.464  -2.239   2.995  1.00  0.00     0.118 C 
BRANCH  75  76
ATOM     76  N   UNL     1       4.954  -3.478   2.375  1.00  0.00    -0.352 N 
ATOM     77  C   UNL     1       5.799  -4.402   3.145  1.00  0.00     0.253 C 
ATOM     78  H   UNL     1       4.716  -3.690   1.443  1.00  0.00     0.163 HD
ATOM     79  O   UNL     1       6.223  -5.473   2.609  1.00  0.00    -0.269 OA
BRANCH  77  80
ATOM     80  C   UNL     1       6.166  -4.075   4.584  1.00  0.00     0.063 A 
ATOM     81  C   UNL     1       7.455  -4.313   5.033  1.00  0.00     0.016 A 
ATOM     82  C   UNL     1       5.221  -3.635   5.406  1.00  0.00     0.051 A 
ATOM     83  C   UNL     1       7.577  -4.331   6.442  1.00  0.00     0.001 A 
ATOM     84  C   UNL     1       5.453  -3.550   6.757  1.00  0.00     0.027 A 
ATOM     85  C   UNL     1       6.687  -3.827   7.277  1.00  0.00     0.002 A 
BRANCH  82  86
ATOM     86  N   UNL     1       3.913  -3.236   4.865  1.00  0.00    -0.355 N 
ATOM     87  H   UNL     1       3.742  -3.296   3.897  1.00  0.00     0.167 HD
BRANCH  86  88
ATOM     88  C   UNL     1       2.862  -2.748   5.769  1.00  0.00     0.040 A 
ATOM     89  C   UNL     1       1.646  -3.412   5.790  1.00  0.00     0.026 A 
ATOM     90  C   UNL     1       3.070  -1.667   6.510  1.00  0.00     0.050 A 
ATOM     91  C   UNL     1       0.606  -2.683   6.414  1.00  0.00     0.004 A 
ATOM     92  C   UNL     1       2.035  -1.085   7.203  1.00  0.00     0.109 A 
ATOM     93  C   UNL     1       0.792  -1.654   7.220  1.00  0.00     0.024 A 
BRANCH  92  94
ATOM     94  S   UNL     1       2.323   0.458   8.106  1.00  0.00     0.310 S 
ATOM     95  F   UNL     1       0.912   0.222   8.790  1.00  0.00    -0.094 F 
ATOM     96  F   UNL     1       1.556   1.166   6.926  1.00  0.00    -0.094 F 
ATOM     97  F   UNL     1       2.411   1.797   8.890  1.00  0.00    -0.094 F 
ATOM     98  F   UNL     1       2.964  -0.296   9.337  1.00  0.00    -0.094 F 
ATOM     99  F   UNL     1       2.140  -0.930   7.371  1.00  0.00    -0.094 F 
ENDBRANCH  92  94
ENDBRANCH  86  88
ENDBRANCH  82  86
ENDBRANCH  77  80
ENDBRANCH  75  76
ENDBRANCH   1  75
TORSDOF 16
