REMARK SMILES COc1ccc(F)cc1[C@@H](C(=O)NCCCNC(=O)c1ccc(-c2c3nc(c(-c4c(F)cc(S(=O)(=O)[O-])cc4F)c4ccc([nH]4)c(-c4c(F)cc(S(=O)(=O)[O-])cc4F)c4nc(c(-c5c(F)cc(S(=O)(=O)[O-])cc5F)c5ccc2[nH]5)C=C4)C=C3)cc1)[N@@H+](C)CCn1ccnc1C
REMARK SMILES IDX 14 1 13 2 11 3 12 4 10 6 9 7 3 8 4 9 5 10 8 11 6 12 7 13
REMARK SMILES IDX 2 14 1 15 86 16 87 17 88 19 89 20 90 21 91 22 94 23 92 24
REMARK SMILES IDX 93 25 95 26 15 27 16 28 17 29 18 30 19 32 20 33 21 34 85 35
REMARK SMILES IDX 22 36 84 37 23 38 24 39 25 40 78 41 26 42 83 43 77 44 79 45
REMARK SMILES IDX 27 46 82 47 76 48 75 49 28 51 62 52 41 53 61 54 42 55 45 56
REMARK SMILES IDX 60 57 80 58 43 59 44 60 59 62 81 63 46 64 29 65 30 66 39 67
REMARK SMILES IDX 31 68 32 69 38 70 40 71 33 72 34 73 35 74 36 75 37 76 63 77
REMARK SMILES IDX 64 78 73 79 65 80 66 81 72 82 74 83 67 84 68 85 69 86 70 87
REMARK SMILES IDX 71 88 47 89 48 90 57 91 49 92 50 93 56 94 58 95 51 96 52 97
REMARK SMILES IDX 53 98 54 99 55 100
REMARK H PARENT 13 5 86 18 17 31 79 50 45 61
REMARK Flexibility Score: inf
ROOT
ATOM      1  C   UNL     1      -2.254   1.646   0.543  1.00  0.00     0.118 C 
ENDROOT
BRANCH   1   2
ATOM      2  N   UNL     1      -2.326   2.285  -0.783  1.00  0.00    -0.351 N 
ATOM      3  C   UNL     1      -2.586   1.586  -1.948  1.00  0.00     0.283 C 
ATOM      4  O   UNL     1      -3.792   1.301  -2.081  1.00  0.00    -0.268 OA
ATOM      5  H   UNL     1      -2.181   3.257  -0.843  1.00  0.00     0.163 HD
BRANCH   3   6
ATOM      6  C   UNL     1      -1.570   1.360  -3.224  1.00  0.00     0.309 C 
BRANCH   6   7
ATOM      7  C   UNL     1      -0.025   1.609  -3.308  1.00  0.00     0.064 A 
ATOM      8  C   UNL     1       0.913   0.736  -2.722  1.00  0.00     0.128 A 
ATOM      9  C   UNL     1       2.303   1.033  -2.731  1.00  0.00     0.050 A 
ATOM     10  C   UNL     1       2.797   2.208  -3.295  1.00  0.00     0.043 A 
ATOM     11  C   UNL     1       0.551   2.732  -3.968  1.00  0.00     0.053 A 
ATOM     12  C   UNL     1       1.912   3.039  -3.936  1.00  0.00     0.124 A 
ATOM     13  F   UNL     1       2.330   4.207  -4.443  1.00  0.00    -0.207 F 
BRANCH   8  14
ATOM     14  O   UNL     1       0.422  -0.398  -2.129  1.00  0.00    -0.496 OA
ATOM     15  C   UNL     1       1.091  -0.734  -0.916  1.00  0.00     0.278 C 
ENDBRANCH   8  14
ENDBRANCH   6   7
BRANCH   6  16
ATOM     16  N   UNL     1      -2.212   1.912  -4.446  1.00  0.00    -0.322 N 
ATOM     17  C   UNL     1      -3.386   1.166  -4.904  1.00  0.00     0.333 C 
ATOM     18  H   UNL     1      -1.475   1.739  -5.130  1.00  0.00     0.348 HD
BRANCH  16  19
ATOM     19  C   UNL     1      -2.361   3.368  -4.551  1.00  0.00     0.285 C 
BRANCH  19  20
ATOM     20  C   UNL     1      -2.496   4.339  -3.329  1.00  0.00     0.184 C 
BRANCH  20  21
ATOM     21  N   UNL     1      -1.570   4.986  -2.388  1.00  0.00    -0.330 N 
ATOM     22  C   UNL     1      -1.881   6.323  -2.089  1.00  0.00     0.107 A 
ATOM     23  C   UNL     1      -0.636   4.647  -1.397  1.00  0.00     0.105 A 
ATOM     24  C   UNL     1      -1.191   6.680  -0.971  1.00  0.00     0.131 A 
ATOM     25  N   UNL     1      -0.455   5.644  -0.549  1.00  0.00    -0.242 NA
ATOM     26  C   UNL     1       0.198   3.467  -1.083  1.00  0.00     0.087 C 
ENDBRANCH  20  21
ENDBRANCH  19  20
ENDBRANCH  16  19
ENDBRANCH   6  16
ENDBRANCH   3   6
ENDBRANCH   1   2
BRANCH   1  27
ATOM     27  C   UNL     1      -1.409   2.323   1.659  1.00  0.00     0.042 C 
BRANCH  27  28
ATOM     28  C   UNL     1      -1.758   3.754   2.136  1.00  0.00     0.118 C 
BRANCH  28  29
ATOM     29  N   UNL     1      -2.153   3.732   3.550  1.00  0.00    -0.352 N 
ATOM     30  C   UNL     1      -1.402   3.906   4.693  1.00  0.00     0.251 C 
ATOM     31  H   UNL     1      -3.111   3.566   3.707  1.00  0.00     0.163 HD
ATOM     32  O   UNL     1      -1.739   3.279   5.699  1.00  0.00    -0.269 OA
BRANCH  30  33
ATOM     33  C   UNL     1      -0.258   4.857   4.788  1.00  0.00     0.039 A 
ATOM     34  C   UNL     1       0.727   4.629   5.764  1.00  0.00     0.014 A 
ATOM     35  C   UNL     1      -0.229   6.058   4.075  1.00  0.00     0.014 A 
ATOM     36  C   UNL     1       1.724   5.584   6.020  1.00  0.00     0.010 A 
ATOM     37  C   UNL     1       0.795   6.992   4.300  1.00  0.00     0.010 A 
ATOM     38  C   UNL     1       1.770   6.781   5.289  1.00  0.00    -0.014 A 
BRANCH  38  39
ATOM     39  C   UNL     1       2.795   7.829   5.583  1.00  0.00     0.031 A 
ATOM     40  C   UNL     1       2.377   9.175   6.127  1.00  0.00     0.074 A 
ATOM     41  C   UNL     1       4.101   7.587   5.346  1.00  0.00     0.049 A 
ATOM     42  N   UNL     1       3.109  10.228   6.393  1.00  0.00    -0.248 NA
ATOM     43  C   UNL     1       0.942   9.366   6.392  1.00  0.00     0.031 C 
ATOM     44  C   UNL     1       4.641   6.337   4.812  1.00  0.00     0.029 A 
ATOM     45  N   UNL     1       5.213   8.378   5.521  1.00  0.00    -0.354 N 
ATOM     46  C   UNL     1       2.227  11.205   6.844  1.00  0.00     0.074 A 
ATOM     47  C   UNL     1       0.899  10.637   6.765  1.00  0.00     0.031 C 
ATOM     48  C   UNL     1       5.978   6.433   4.729  1.00  0.00     0.029 A 
ATOM     49  C   UNL     1       6.392   7.764   5.165  1.00  0.00     0.049 A 
ATOM     50  H   UNL     1       5.169   9.298   5.869  1.00  0.00     0.167 HD
ATOM     51  C   UNL     1       2.497  12.451   7.307  1.00  0.00     0.037 A 
ATOM     52  C   UNL     1       7.662   8.218   5.183  1.00  0.00     0.037 A 
ATOM     53  C   UNL     1       3.824  13.006   7.403  1.00  0.00     0.049 A 
ATOM     54  C   UNL     1       7.938   9.615   5.670  1.00  0.00     0.074 A 
ATOM     55  C   UNL     1       4.205  14.248   7.882  1.00  0.00     0.029 A 
ATOM     56  N   UNL     1       4.987  12.353   7.019  1.00  0.00    -0.354 N 
ATOM     57  N   UNL     1       7.092  10.515   6.113  1.00  0.00    -0.248 NA
ATOM     58  C   UNL     1       9.339  10.061   5.664  1.00  0.00     0.031 C 
ATOM     59  C   UNL     1       5.592  14.362   7.748  1.00  0.00     0.029 A 
ATOM     60  C   UNL     1       6.083  13.172   7.237  1.00  0.00     0.049 A 
ATOM     61  H   UNL     1       5.027  11.443   6.647  1.00  0.00     0.167 HD
ATOM     62  C   UNL     1       7.859  11.621   6.463  1.00  0.00     0.074 A 
ATOM     63  C   UNL     1       9.239  11.276   6.188  1.00  0.00     0.031 C 
ATOM     64  C   UNL     1       7.455  12.813   6.968  1.00  0.00     0.037 A 
BRANCH  51  65
ATOM     65  C   UNL     1       1.339  13.302   7.762  1.00  0.00     0.058 A 
ATOM     66  C   UNL     1       0.972  14.458   7.054  1.00  0.00     0.135 A 
ATOM     67  C   UNL     1       0.623  13.002   8.933  1.00  0.00     0.135 A 
ATOM     68  F   UNL     1       1.619  14.797   5.928  1.00  0.00    -0.206 F 
ATOM     69  C   UNL     1      -0.056  15.288   7.494  1.00  0.00     0.059 A 
ATOM     70  C   UNL     1      -0.428  13.801   9.375  1.00  0.00     0.059 A 
ATOM     71  F   UNL     1       0.919  11.900   9.641  1.00  0.00    -0.206 F 
ATOM     72  C   UNL     1      -0.752  14.950   8.655  1.00  0.00     0.060 A 
BRANCH  72  73
ATOM     73  S   UNL     1      -2.113  16.012   9.188  1.00  0.00     0.124 S 
ATOM     74  O   UNL     1      -1.408  17.211   9.624  1.00  0.00    -0.237 OA
ATOM     75  O   UNL     1      -2.896  16.143   7.963  1.00  0.00    -0.237 OA
ATOM     76  O   UNL     1      -2.753  15.236  10.247  1.00  0.00    -0.744 OA
ENDBRANCH  72  73
ENDBRANCH  51  65
BRANCH  52  77
ATOM     77  C   UNL     1       8.773   7.318   4.763  1.00  0.00     0.058 A 
ATOM     78  C   UNL     1       8.930   6.920   3.427  1.00  0.00     0.135 A 
ATOM     79  C   UNL     1       9.673   6.800   5.707  1.00  0.00     0.135 A 
ATOM     80  F   UNL     1       8.094   7.380   2.484  1.00  0.00    -0.206 F 
ATOM     81  C   UNL     1       9.917   6.016   3.046  1.00  0.00     0.059 A 
ATOM     82  C   UNL     1      10.685   5.914   5.346  1.00  0.00     0.059 A 
ATOM     83  F   UNL     1       9.575   7.163   6.995  1.00  0.00    -0.206 F 
ATOM     84  C   UNL     1      10.786   5.512   4.016  1.00  0.00     0.060 A 
BRANCH  84  85
ATOM     85  S   UNL     1      12.040   4.320   3.498  1.00  0.00     0.124 S 
ATOM     86  O   UNL     1      11.215   3.158   3.162  1.00  0.00    -0.237 OA
ATOM     87  O   UNL     1      12.672   4.996   2.388  1.00  0.00    -0.237 OA
ATOM     88  O   UNL     1      12.868   4.163   4.700  1.00  0.00    -0.744 OA
ENDBRANCH  84  85
ENDBRANCH  52  77
BRANCH  64  89
ATOM     89  C   UNL     1       8.511  13.835   7.290  1.00  0.00     0.058 A 
ATOM     90  C   UNL     1       8.790  14.170   8.625  1.00  0.00     0.135 A 
ATOM     91  C   UNL     1       9.181  14.546   6.282  1.00  0.00     0.135 A 
ATOM     92  F   UNL     1       8.174  13.524   9.628  1.00  0.00    -0.206 F 
ATOM     93  C   UNL     1       9.677  15.190   8.950  1.00  0.00     0.059 A 
ATOM     94  C   UNL     1      10.094  15.552   6.585  1.00  0.00     0.059 A 
ATOM     95  F   UNL     1       8.958  14.257   4.990  1.00  0.00    -0.206 F 
ATOM     96  C   UNL     1      10.321  15.880   7.921  1.00  0.00     0.060 A 
BRANCH  96  97
ATOM     97  S   UNL     1      11.468  17.202   8.361  1.00  0.00     0.124 S 
ATOM     98  O   UNL     1      10.563  18.228   8.869  1.00  0.00    -0.237 OA
ATOM     99  O   UNL     1      12.317  16.555   9.357  1.00  0.00    -0.237 OA
ATOM    100  O   UNL     1      12.126  17.516   7.096  1.00  0.00    -0.744 OA
ENDBRANCH  96  97
ENDBRANCH  64  89
ENDBRANCH  38  39
ENDBRANCH  30  33
ENDBRANCH  28  29
ENDBRANCH  27  28
ENDBRANCH   1  27
TORSDOF 19
