REMARK SMILES Cc1cc(C[N@@H+]2C[C@@H](C(=O)NCCCNC(=O)c3ccc(-c4c5nc(c(-c6c(F)cc(S(=O)(=O)[O-])cc6F)c6ccc([nH]6)c(-c6c(F)cc(S(=O)(=O)[O-])cc6F)c6nc(c(-c7c(F)cc(S(=O)(=O)[O-])cc7F)c7ccc4[nH]7)C=C6)C=C5)cc3)[C@H](C3CC3)C2)on1
REMARK SMILES IDX 13 1 12 2 11 3 9 4 10 5 8 7 6 8 7 9 88 10 84 12 5 13 4 14
REMARK SMILES IDX 1 15 2 16 3 17 90 18 89 19 85 20 86 21 87 22 14 23 15 24
REMARK SMILES IDX 16 25 17 27 18 28 19 29 83 30 20 31 82 32 21 33 22 34 23 35
REMARK SMILES IDX 76 36 24 37 81 38 75 39 77 40 25 41 80 42 74 43 73 44 26 46
REMARK SMILES IDX 60 47 39 48 59 49 40 50 43 51 58 52 78 53 41 54 42 55 57 57
REMARK SMILES IDX 79 58 44 59 27 60 28 61 37 62 29 63 30 64 36 65 38 66 31 67
REMARK SMILES IDX 32 68 33 69 34 70 35 71 61 72 62 73 71 74 63 75 64 76 70 77
REMARK SMILES IDX 72 78 65 79 66 80 67 81 68 82 69 83 45 84 46 85 55 86 47 87
REMARK SMILES IDX 48 88 54 89 56 90 49 91 50 92 51 93 52 94 53 95
REMARK H PARENT 11 6 6 11 15 26 77 45 43 56
REMARK Flexibility Score: inf
ROOT
ATOM      1  C   UNL     1      -6.063   1.963   0.804  1.00  0.00     0.042 C 
ENDROOT
BRANCH   1   2
ATOM      2  C   UNL     1      -4.673   2.547   0.541  1.00  0.00     0.117 C 
BRANCH   2   3
ATOM      3  N   UNL     1      -3.967   2.754   1.790  1.00  0.00    -0.356 N 
ATOM      4  C   UNL     1      -3.229   1.902   2.554  1.00  0.00     0.229 C 
ATOM      5  O   UNL     1      -3.005   2.284   3.705  1.00  0.00    -0.275 OA
ATOM      6  H   UNL     1      -4.033   3.668   2.148  1.00  0.00     0.163 HD
BRANCH   4   7
ATOM      7  C   UNL     1      -2.613   0.622   1.982  1.00  0.00     0.142 C 
ATOM      8  N   UNL     1      -3.006  -1.652   1.316  1.00  0.00    -0.328 N 
ATOM      9  C   UNL     1      -3.610  -0.322   1.318  1.00  0.00     0.276 C 
ATOM     10  C   UNL     1      -2.219  -1.731   2.544  1.00  0.00     0.267 C 
ATOM     11  H   UNL     1      -3.723  -2.378   1.314  1.00  0.00     0.348 HD
ATOM     12  C   UNL     1      -2.000  -0.288   3.070  1.00  0.00     0.065 C 
BRANCH   8  13
ATOM     13  C   UNL     1      -2.292  -2.005   0.078  1.00  0.00     0.341 C 
BRANCH  13  14
ATOM     14  C   UNL     1      -1.040  -1.259  -0.216  1.00  0.00     0.191 A 
ATOM     15  C   UNL     1       2.388  -0.011  -0.384  1.00  0.00     0.070 C 
ATOM     16  C   UNL     1       0.950  -0.349  -0.469  1.00  0.00     0.081 A 
ATOM     17  C   UNL     1       0.287  -1.474   0.069  1.00  0.00     0.078 A 
ATOM     18  N   UNL     1       0.092   0.473  -1.083  1.00  0.00    -0.085 NA
ATOM     19  O   UNL     1      -1.156  -0.111  -0.939  1.00  0.00    -0.355 OA
ENDBRANCH  13  14
ENDBRANCH   8  13
BRANCH  12  20
ATOM     20  C   UNL     1      -0.551  -0.097   3.465  1.00  0.00    -0.001 C 
ATOM     21  C   UNL     1       0.422   0.838   2.790  1.00  0.00     0.004 C 
ATOM     22  C   UNL     1      -0.079   1.154   4.168  1.00  0.00     0.004 C 
ENDBRANCH  12  20
ENDBRANCH   4   7
ENDBRANCH   2   3
ENDBRANCH   1   2
BRANCH   1  23
ATOM     23  C   UNL     1      -7.038   2.987   1.377  1.00  0.00     0.118 C 
BRANCH  23  24
ATOM     24  N   UNL     1      -7.451   3.953   0.369  1.00  0.00    -0.352 N 
ATOM     25  C   UNL     1      -8.709   4.220  -0.112  1.00  0.00     0.251 C 
ATOM     26  H   UNL     1      -6.726   4.491  -0.022  1.00  0.00     0.163 HD
ATOM     27  O   UNL     1      -8.837   4.873  -1.143  1.00  0.00    -0.269 OA
BRANCH  25  28
ATOM     28  C   UNL     1      -9.900   3.717   0.606  1.00  0.00     0.039 A 
ATOM     29  C   UNL     1     -10.969   3.199  -0.131  1.00  0.00     0.014 A 
ATOM     30  C   UNL     1      -9.975   3.781   2.000  1.00  0.00     0.014 A 
ATOM     31  C   UNL     1     -12.092   2.701   0.534  1.00  0.00     0.010 A 
ATOM     32  C   UNL     1     -11.059   3.214   2.663  1.00  0.00     0.010 A 
ATOM     33  C   UNL     1     -12.133   2.679   1.938  1.00  0.00    -0.014 A 
BRANCH  33  34
ATOM     34  C   UNL     1     -13.295   2.114   2.671  1.00  0.00     0.031 A 
ATOM     35  C   UNL     1     -14.121   3.000   3.564  1.00  0.00     0.074 A 
ATOM     36  C   UNL     1     -13.557   0.794   2.590  1.00  0.00     0.049 A 
ATOM     37  N   UNL     1     -15.105   2.681   4.363  1.00  0.00    -0.248 NA
ATOM     38  C   UNL     1     -13.774   4.432   3.584  1.00  0.00     0.031 C 
ATOM     39  C   UNL     1     -12.796  -0.172   1.792  1.00  0.00     0.029 A 
ATOM     40  N   UNL     1     -14.523   0.032   3.198  1.00  0.00    -0.354 N 
ATOM     41  C   UNL     1     -15.480   3.862   4.994  1.00  0.00     0.074 A 
ATOM     42  C   UNL     1     -14.585   4.896   4.523  1.00  0.00     0.031 C 
ATOM     43  C   UNL     1     -13.334  -1.392   1.948  1.00  0.00     0.029 A 
ATOM     44  C   UNL     1     -14.447  -1.306   2.888  1.00  0.00     0.049 A 
ATOM     45  H   UNL     1     -15.206   0.408   3.799  1.00  0.00     0.167 HD
ATOM     46  C   UNL     1     -16.493   4.069   5.869  1.00  0.00     0.037 A 
ATOM     47  C   UNL     1     -15.182  -2.348   3.325  1.00  0.00     0.037 A 
ATOM     48  C   UNL     1     -17.397   3.037   6.306  1.00  0.00     0.049 A 
ATOM     49  C   UNL     1     -16.302  -2.092   4.297  1.00  0.00     0.074 A 
ATOM     50  C   UNL     1     -18.495   3.153   7.140  1.00  0.00     0.029 A 
ATOM     51  N   UNL     1     -17.307   1.700   5.946  1.00  0.00    -0.354 N 
ATOM     52  N   UNL     1     -16.685  -0.957   4.833  1.00  0.00    -0.248 NA
ATOM     53  C   UNL     1     -17.096  -3.254   4.720  1.00  0.00     0.031 C 
ATOM     54  C   UNL     1     -19.040   1.878   7.323  1.00  0.00     0.029 A 
ATOM     55  C   UNL     1     -18.316   0.976   6.559  1.00  0.00     0.049 A 
ATOM     56  H   UNL     1     -16.626   1.321   5.344  1.00  0.00     0.167 HD
ATOM     57  C   UNL     1     -17.781  -1.264   5.632  1.00  0.00     0.074 A 
ATOM     58  C   UNL     1     -18.006  -2.689   5.501  1.00  0.00     0.031 C 
ATOM     59  C   UNL     1     -18.533  -0.441   6.404  1.00  0.00     0.037 A 
BRANCH  46  60
ATOM     60  C   UNL     1     -16.684   5.461   6.408  1.00  0.00     0.058 A 
ATOM     61  C   UNL     1     -17.143   6.511   5.596  1.00  0.00     0.135 A 
ATOM     62  C   UNL     1     -16.450   5.739   7.765  1.00  0.00     0.135 A 
ATOM     63  F   UNL     1     -17.368   6.307   4.289  1.00  0.00    -0.206 F 
ATOM     64  C   UNL     1     -17.338   7.792   6.104  1.00  0.00     0.059 A 
ATOM     65  C   UNL     1     -16.668   7.006   8.300  1.00  0.00     0.059 A 
ATOM     66  F   UNL     1     -16.010   4.774   8.587  1.00  0.00    -0.206 F 
ATOM     67  C   UNL     1     -17.100   8.029   7.458  1.00  0.00     0.060 A 
BRANCH  67  68
ATOM     68  S   UNL     1     -17.376   9.692   8.102  1.00  0.00     0.124 S 
ATOM     69  O   UNL     1     -16.254  10.421   7.518  1.00  0.00    -0.237 OA
ATOM     70  O   UNL     1     -18.693  10.020   7.564  1.00  0.00    -0.237 OA
ATOM     71  O   UNL     1     -17.321   9.512   9.550  1.00  0.00    -0.744 OA
ENDBRANCH  67  68
ENDBRANCH  46  60
BRANCH  47  72
ATOM     72  C   UNL     1     -14.889  -3.723   2.837  1.00  0.00     0.058 A 
ATOM     73  C   UNL     1     -15.781  -4.394   1.987  1.00  0.00     0.135 A 
ATOM     74  C   UNL     1     -13.711  -4.392   3.204  1.00  0.00     0.135 A 
ATOM     75  F   UNL     1     -16.924  -3.800   1.611  1.00  0.00    -0.206 F 
ATOM     76  C   UNL     1     -15.527  -5.685   1.534  1.00  0.00     0.059 A 
ATOM     77  C   UNL     1     -13.421  -5.672   2.742  1.00  0.00     0.059 A 
ATOM     78  F   UNL     1     -12.815  -3.788   4.001  1.00  0.00    -0.206 F 
ATOM     79  C   UNL     1     -14.342  -6.315   1.917  1.00  0.00     0.060 A 
BRANCH  79  80
ATOM     80  S   UNL     1     -14.005  -7.976   1.294  1.00  0.00     0.124 S 
ATOM     81  O   UNL     1     -14.951  -8.776   2.062  1.00  0.00    -0.237 OA
ATOM     82  O   UNL     1     -14.295  -7.834  -0.130  1.00  0.00    -0.237 OA
ATOM     83  O   UNL     1     -12.596  -8.178   1.620  1.00  0.00    -0.744 OA
ENDBRANCH  79  80
ENDBRANCH  47  72
BRANCH  59  84
ATOM     84  C   UNL     1     -19.698  -1.047   7.137  1.00  0.00     0.058 A 
ATOM     85  C   UNL     1     -19.518  -1.876   8.255  1.00  0.00     0.135 A 
ATOM     86  C   UNL     1     -21.013  -0.737   6.753  1.00  0.00     0.135 A 
ATOM     87  F   UNL     1     -18.282  -2.209   8.658  1.00  0.00    -0.206 F 
ATOM     88  C   UNL     1     -20.603  -2.390   8.958  1.00  0.00     0.059 A 
ATOM     89  C   UNL     1     -22.111  -1.216   7.459  1.00  0.00     0.059 A 
ATOM     90  F   UNL     1     -21.239   0.059   5.696  1.00  0.00    -0.206 F 
ATOM     91  C   UNL     1     -21.896  -2.050   8.555  1.00  0.00     0.060 A 
BRANCH  91  92
ATOM     92  S   UNL     1     -23.293  -2.685   9.506  1.00  0.00     0.124 S 
ATOM     93  O   UNL     1     -23.299  -4.091   9.115  1.00  0.00    -0.237 OA
ATOM     94  O   UNL     1     -22.885  -2.411  10.880  1.00  0.00    -0.237 OA
ATOM     95  O   UNL     1     -24.421  -1.895   9.023  1.00  0.00    -0.744 OA
ENDBRANCH  91  92
ENDBRANCH  59  84
ENDBRANCH  33  34
ENDBRANCH  25  28
ENDBRANCH  23  24
ENDBRANCH   1  23
TORSDOF 16
