REMARK SMILES Cc1[nH]c2c(C(=O)N3CC[C@H](O)C[C@@H]3C(=O)NCCCNC(=O)c3ccc(-c4c5nc(c(-c6c(F)cc(S(=O)(=O)[O-])cc6F)c6ccc([nH]6)c(-c6c(F)cc(S(=O)(=O)[O-])cc6F)c6nc(c(-c7c(F)cc(S(=O)(=O)[O-])cc7F)c7ccc4[nH]7)C=C6)C=C5)cc3)cccc2c1C
REMARK SMILES IDX 19 1 18 2 17 3 15 4 16 5 14 7 8 8 9 9 10 10 13 11 11 12 6 13
REMARK SMILES IDX 7 14 5 15 1 16 2 17 3 18 94 19 4 20 93 22 95 23 92 24 90 25
REMARK SMILES IDX 91 26 12 27 20 29 21 30 22 31 23 33 24 34 25 35 89 36 26 37
REMARK SMILES IDX 88 38 27 39 28 40 29 41 82 42 30 43 87 44 81 45 83 46 31 47
REMARK SMILES IDX 86 48 80 49 79 50 32 52 66 53 45 54 65 55 46 56 49 57 64 58
REMARK SMILES IDX 84 59 47 60 48 61 63 63 85 64 50 65 33 66 34 67 43 68 35 69
REMARK SMILES IDX 36 70 42 71 44 72 37 73 38 74 39 75 40 76 41 77 67 78 68 79
REMARK SMILES IDX 77 80 69 81 70 82 76 83 78 84 71 85 72 86 73 87 74 88 75 89
REMARK SMILES IDX 51 90 52 91 61 92 53 93 54 94 60 95 62 96 55 97 56 98 57 99
REMARK SMILES IDX 58 100 59 101
REMARK H PARENT 17 6 3 21 12 28 21 32 83 51 49 62
REMARK Flexibility Score: inf
ROOT
ATOM      1  C   UNL     1      -3.273  -4.539  -1.318  1.00  0.00     0.042 C 
ENDROOT
BRANCH   1   2
ATOM      2  C   UNL     1      -2.139  -3.790  -0.639  1.00  0.00     0.117 C 
BRANCH   2   3
ATOM      3  N   UNL     1      -2.015  -4.095   0.776  1.00  0.00    -0.354 N 
ATOM      4  C   UNL     1      -0.976  -4.582   1.508  1.00  0.00     0.242 C 
ATOM      5  O   UNL     1      -1.281  -5.040   2.619  1.00  0.00    -0.273 OA
ATOM      6  H   UNL     1      -2.829  -3.918   1.300  1.00  0.00     0.163 HD
BRANCH   4   7
ATOM      7  C   UNL     1       0.500  -4.677   1.024  1.00  0.00     0.177 C 
ATOM      8  N   UNL     1       0.999  -3.650   0.102  1.00  0.00    -0.326 N 
ATOM      9  C   UNL     1       1.151  -3.951  -1.322  1.00  0.00     0.123 C 
ATOM     10  C   UNL     1       0.835  -5.380  -1.812  1.00  0.00     0.053 C 
ATOM     11  C   UNL     1       0.920  -6.084   0.624  1.00  0.00     0.067 C 
ATOM     12  C   UNL     1       0.452  -6.429  -0.770  1.00  0.00     0.118 C 
BRANCH   8  13
ATOM     13  C   UNL     1       1.872  -2.698   0.644  1.00  0.00     0.256 C 
ATOM     14  O   UNL     1       2.732  -2.980   1.474  1.00  0.00    -0.269 OA
BRANCH  13  15
ATOM     15  C   UNL     1       1.726  -1.286   0.228  1.00  0.00     0.064 A 
ATOM     16  C   UNL     1      -3.130  -0.272   0.791  1.00  0.00     0.064 C 
ATOM     17  C   UNL     1      -1.687  -0.049   0.520  1.00  0.00     0.016 A 
ATOM     18  N   UNL     1      -0.761  -1.054   0.634  1.00  0.00    -0.358 N 
ATOM     19  C   UNL     1      -1.012   1.101   0.149  1.00  0.00    -0.023 A 
ATOM     20  C   UNL     1       0.491  -0.616   0.276  1.00  0.00     0.059 A 
ATOM     21  H   UNL     1      -0.967  -1.970   0.932  1.00  0.00     0.166 HD
ATOM     22  C   UNL     1       0.372   0.751   0.020  1.00  0.00     0.003 A 
ATOM     23  C   UNL     1      -1.603   2.451  -0.053  1.00  0.00     0.047 C 
ATOM     24  C   UNL     1       1.539   1.487  -0.274  1.00  0.00     0.010 A 
ATOM     25  C   UNL     1       2.873  -0.524  -0.038  1.00  0.00     0.016 A 
ATOM     26  C   UNL     1       2.781   0.844  -0.290  1.00  0.00     0.002 A 
ENDBRANCH  13  15
ENDBRANCH   8  13
BRANCH  12  27
ATOM     27  O   UNL     1      -0.960  -6.609  -0.770  1.00  0.00    -0.393 OA
ATOM     28  H   UNL     1      -1.392  -5.779  -0.517  1.00  0.00     0.210 HD
ENDBRANCH  12  27
ENDBRANCH   4   7
ENDBRANCH   2   3
ENDBRANCH   1   2
BRANCH   1  29
ATOM     29  C   UNL     1      -4.645  -4.006  -0.946  1.00  0.00     0.118 C 
BRANCH  29  30
ATOM     30  N   UNL     1      -4.894  -2.666  -1.467  1.00  0.00    -0.352 N 
ATOM     31  C   UNL     1      -5.649  -2.229  -2.528  1.00  0.00     0.251 C 
ATOM     32  H   UNL     1      -4.442  -1.948  -0.969  1.00  0.00     0.163 HD
ATOM     33  O   UNL     1      -5.578  -1.051  -2.872  1.00  0.00    -0.269 OA
BRANCH  31  34
ATOM     34  C   UNL     1      -6.506  -3.170  -3.277  1.00  0.00     0.039 A 
ATOM     35  C   UNL     1      -6.577  -3.076  -4.670  1.00  0.00     0.014 A 
ATOM     36  C   UNL     1      -7.229  -4.155  -2.610  1.00  0.00     0.014 A 
ATOM     37  C   UNL     1      -7.298  -4.030  -5.391  1.00  0.00     0.010 A 
ATOM     38  C   UNL     1      -7.824  -5.179  -3.330  1.00  0.00     0.010 A 
ATOM     39  C   UNL     1      -7.885  -5.120  -4.729  1.00  0.00    -0.014 A 
BRANCH  39  40
ATOM     40  C   UNL     1      -8.616  -6.192  -5.450  1.00  0.00     0.031 A 
ATOM     41  C   UNL     1     -10.050  -6.476  -5.084  1.00  0.00     0.074 A 
ATOM     42  C   UNL     1      -7.972  -6.970  -6.343  1.00  0.00     0.049 A 
ATOM     43  N   UNL     1     -10.813  -7.478  -5.435  1.00  0.00    -0.248 NA
ATOM     44  C   UNL     1     -10.693  -5.537  -4.147  1.00  0.00     0.031 C 
ATOM     45  C   UNL     1      -6.566  -6.834  -6.735  1.00  0.00     0.029 A 
ATOM     46  N   UNL     1      -8.413  -8.046  -7.071  1.00  0.00    -0.354 N 
ATOM     47  C   UNL     1     -11.997  -7.316  -4.724  1.00  0.00     0.074 A 
ATOM     48  C   UNL     1     -11.829  -6.158  -3.876  1.00  0.00     0.031 C 
ATOM     49  C   UNL     1      -6.272  -7.768  -7.654  1.00  0.00     0.029 A 
ATOM     50  C   UNL     1      -7.450  -8.597  -7.883  1.00  0.00     0.049 A 
ATOM     51  H   UNL     1      -9.333  -8.391  -7.018  1.00  0.00     0.167 HD
ATOM     52  C   UNL     1     -13.134  -8.046  -4.795  1.00  0.00     0.037 A 
ATOM     53  C   UNL     1      -7.512  -9.656  -8.714  1.00  0.00     0.037 A 
ATOM     54  C   UNL     1     -13.316  -9.145  -5.704  1.00  0.00     0.049 A 
ATOM     55  C   UNL     1      -8.809 -10.409  -8.832  1.00  0.00     0.074 A 
ATOM     56  C   UNL     1     -14.450  -9.907  -5.919  1.00  0.00     0.029 A 
ATOM     57  N   UNL     1     -12.340  -9.622  -6.567  1.00  0.00    -0.354 N 
ATOM     58  N   UNL     1      -9.933 -10.219  -8.182  1.00  0.00    -0.248 NA
ATOM     59  C   UNL     1      -8.851 -11.515  -9.797  1.00  0.00     0.031 C 
ATOM     60  C   UNL     1     -14.153 -10.859  -6.901  1.00  0.00     0.029 A 
ATOM     61  C   UNL     1     -12.845 -10.666  -7.320  1.00  0.00     0.049 A 
ATOM     62  H   UNL     1     -11.423  -9.269  -6.633  1.00  0.00     0.167 HD
ATOM     63  C   UNL     1     -10.825 -11.161  -8.681  1.00  0.00     0.074 A 
ATOM     64  C   UNL     1     -10.111 -11.915  -9.692  1.00  0.00     0.031 C 
ATOM     65  C   UNL     1     -12.117 -11.383  -8.336  1.00  0.00     0.037 A 
BRANCH  52  66
ATOM     66  C   UNL     1     -14.268  -7.660  -3.885  1.00  0.00     0.058 A 
ATOM     67  C   UNL     1     -14.979  -6.462  -4.060  1.00  0.00     0.135 A 
ATOM     68  C   UNL     1     -14.651  -8.498  -2.825  1.00  0.00     0.135 A 
ATOM     69  F   UNL     1     -14.644  -5.614  -5.046  1.00  0.00    -0.206 F 
ATOM     70  C   UNL     1     -16.000  -6.087  -3.193  1.00  0.00     0.059 A 
ATOM     71  C   UNL     1     -15.690  -8.157  -1.963  1.00  0.00     0.059 A 
ATOM     72  F   UNL     1     -14.006  -9.655  -2.610  1.00  0.00    -0.206 F 
ATOM     73  C   UNL     1     -16.345  -6.939  -2.144  1.00  0.00     0.060 A 
BRANCH  73  74
ATOM     74  S   UNL     1     -17.666  -6.435  -1.022  1.00  0.00     0.124 S 
ATOM     75  O   UNL     1     -16.988  -5.429  -0.211  1.00  0.00    -0.237 OA
ATOM     76  O   UNL     1     -18.682  -5.929  -1.940  1.00  0.00    -0.237 OA
ATOM     77  O   UNL     1     -18.012  -7.672  -0.329  1.00  0.00    -0.744 OA
ENDBRANCH  73  74
ENDBRANCH  52  66
BRANCH  53  78
ATOM     78  C   UNL     1      -6.326 -10.037  -9.527  1.00  0.00     0.058 A 
ATOM     79  C   UNL     1      -6.301  -9.803 -10.910  1.00  0.00     0.135 A 
ATOM     80  C   UNL     1      -5.191 -10.619  -8.943  1.00  0.00     0.135 A 
ATOM     81  F   UNL     1      -7.364  -9.251 -11.515  1.00  0.00    -0.206 F 
ATOM     82  C   UNL     1      -5.202 -10.149 -11.690  1.00  0.00     0.059 A 
ATOM     83  C   UNL     1      -4.070 -10.953  -9.698  1.00  0.00     0.059 A 
ATOM     84  F   UNL     1      -5.155 -10.844  -7.620  1.00  0.00    -0.206 F 
ATOM     85  C   UNL     1      -4.090 -10.723 -11.073  1.00  0.00     0.060 A 
BRANCH  85  86
ATOM     86  S   UNL     1      -2.648 -11.123 -12.086  1.00  0.00     0.124 S 
ATOM     87  O   UNL     1      -3.105 -12.317 -12.788  1.00  0.00    -0.237 OA
ATOM     88  O   UNL     1      -2.501  -9.920 -12.900  1.00  0.00    -0.237 OA
ATOM     89  O   UNL     1      -1.594 -11.335 -11.099  1.00  0.00    -0.744 OA
ENDBRANCH  85  86
ENDBRANCH  53  78
BRANCH  65  90
ATOM     90  C   UNL     1     -12.858 -12.451  -9.087  1.00  0.00     0.058 A 
ATOM     91  C   UNL     1     -12.640 -13.813  -8.835  1.00  0.00     0.135 A 
ATOM     92  C   UNL     1     -13.851 -12.101 -10.016  1.00  0.00     0.135 A 
ATOM     93  F   UNL     1     -11.697 -14.196  -7.959  1.00  0.00    -0.206 F 
ATOM     94  C   UNL     1     -13.372 -14.796  -9.491  1.00  0.00     0.059 A 
ATOM     95  C   UNL     1     -14.611 -13.066 -10.666  1.00  0.00     0.059 A 
ATOM     96  F   UNL     1     -14.103 -10.809 -10.282  1.00  0.00    -0.206 F 
ATOM     97  C   UNL     1     -14.359 -14.412 -10.402  1.00  0.00     0.060 A 
BRANCH  97  98
ATOM     98  S   UNL     1     -15.338 -15.695 -11.210  1.00  0.00     0.124 S 
ATOM     99  O   UNL     1     -14.395 -16.203 -12.200  1.00  0.00    -0.237 OA
ATOM    100  O   UNL     1     -15.645 -16.598 -10.105  1.00  0.00    -0.237 OA
ATOM    101  O   UNL     1     -16.480 -14.962 -11.748  1.00  0.00    -0.744 OA
ENDBRANCH  97  98
ENDBRANCH  65  90
ENDBRANCH  39  40
ENDBRANCH  31  34
ENDBRANCH  29  30
ENDBRANCH   1  29
TORSDOF 16
