REMARK SMILES C[C@H]1[NH2+]CC[C@H]1C(=O)N1CC(C(=O)NCCCNC(=O)c2ccc(-c3c4nc(c(-c5c(F)cc(S(=O)(=O)[O-])cc5F)c5ccc([nH]5)c(-c5c(F)cc(S(=O)(=O)[O-])cc5F)c5nc(c(-c6c(F)cc(S(=O)(=O)[O-])cc6F)c6ccc3[nH]6)C=C5)C=C4)cc2)C1
REMARK SMILES IDX 17 1 16 2 15 3 14 4 12 5 13 6 11 8 7 9 8 10 9 11 10 12 87 13
REMARK SMILES IDX 6 14 1 15 2 16 3 17 4 18 5 21 18 22 19 23 20 25 21 26 22 27
REMARK SMILES IDX 86 28 23 29 85 30 24 31 25 32 26 33 79 34 27 35 84 36 78 37
REMARK SMILES IDX 80 38 28 39 83 40 77 41 76 42 29 44 63 45 42 46 62 47 43 48
REMARK SMILES IDX 46 49 61 50 81 51 44 52 45 53 60 55 82 56 47 57 30 58 31 59
REMARK SMILES IDX 40 60 32 61 33 62 39 63 41 64 34 65 35 66 36 67 37 68 38 69
REMARK SMILES IDX 64 70 65 71 74 72 66 73 67 74 73 75 75 76 68 77 69 78 70 79
REMARK SMILES IDX 71 80 72 81 48 82 49 83 58 84 50 85 51 86 57 87 59 88 52 89
REMARK SMILES IDX 53 90 54 91 55 92 56 93
REMARK H PARENT 14 7 3 19 3 20 18 24 80 43 46 54
REMARK Flexibility Score: inf
ROOT
ATOM      1  C   UNL     1       2.140   0.044   6.474  1.00  0.00     0.118 C 
ENDROOT
BRANCH   1   2
ATOM      2  C   UNL     1       1.691   0.317   5.043  1.00  0.00     0.042 C 
BRANCH   2   3
ATOM      3  C   UNL     1       1.352   1.774   4.754  1.00  0.00     0.117 C 
BRANCH   3   4
ATOM      4  N   UNL     1       2.496   2.658   4.889  1.00  0.00    -0.356 N 
ATOM      5  C   UNL     1       3.133   3.464   3.977  1.00  0.00     0.226 C 
ATOM      6  O   UNL     1       4.072   4.140   4.425  1.00  0.00    -0.275 OA
ATOM      7  H   UNL     1       2.883   2.684   5.793  1.00  0.00     0.163 HD
BRANCH   5   8
ATOM      8  C   UNL     1       2.735   3.523   2.500  1.00  0.00     0.117 C 
ATOM      9  C   UNL     1       0.921   2.411  -0.009  1.00  0.00     0.231 C 
ATOM     10  O   UNL     1       1.169   3.300  -0.823  1.00  0.00    -0.274 OA
ATOM     11  N   UNL     1       1.336   2.490   1.308  1.00  0.00    -0.341 N 
ATOM     12  C   UNL     1       1.301   3.764   2.061  1.00  0.00     0.134 C 
ATOM     13  C   UNL     1       2.743   2.247   1.683  1.00  0.00     0.134 C 
BRANCH   9  14
ATOM     14  C   UNL     1       0.087   1.194  -0.389  1.00  0.00     0.142 C 
ATOM     15  C   UNL     1       1.803  -0.578   0.479  1.00  0.00     0.076 C 
ATOM     16  C   UNL     1       0.782  -0.153  -0.569  1.00  0.00     0.192 C 
ATOM     17  N   UNL     1      -0.343  -1.104  -0.578  1.00  0.00    -0.343 N 
ATOM     18  C   UNL     1      -1.433  -0.552   0.227  1.00  0.00     0.261 C 
ATOM     19  H   UNL     1      -0.042  -1.995  -0.183  1.00  0.00     0.346 HD
ATOM     20  H   UNL     1      -0.661  -1.255  -1.535  1.00  0.00     0.346 HD
ATOM     21  C   UNL     1      -1.057   0.882   0.564  1.00  0.00     0.081 C 
ENDBRANCH   9  14
ENDBRANCH   5   8
ENDBRANCH   3   4
ENDBRANCH   2   3
ENDBRANCH   1   2
BRANCH   1  22
ATOM     22  N   UNL     1       1.120   0.374   7.461  1.00  0.00    -0.352 N 
ATOM     23  C   UNL     1       0.487  -0.420   8.385  1.00  0.00     0.251 C 
ATOM     24  H   UNL     1       0.840   1.318   7.466  1.00  0.00     0.163 HD
ATOM     25  O   UNL     1      -0.478   0.031   9.002  1.00  0.00    -0.269 OA
BRANCH  23  26
ATOM     26  C   UNL     1       0.935  -1.810   8.626  1.00  0.00     0.039 A 
ATOM     27  C   UNL     1      -0.027  -2.808   8.807  1.00  0.00     0.014 A 
ATOM     28  C   UNL     1       2.293  -2.132   8.693  1.00  0.00     0.014 A 
ATOM     29  C   UNL     1       0.373  -4.135   8.980  1.00  0.00     0.010 A 
ATOM     30  C   UNL     1       2.687  -3.465   8.778  1.00  0.00     0.010 A 
ATOM     31  C   UNL     1       1.733  -4.483   8.923  1.00  0.00    -0.014 A 
BRANCH  31  32
ATOM     32  C   UNL     1       2.173  -5.901   9.001  1.00  0.00     0.031 A 
ATOM     33  C   UNL     1       3.062  -6.363  10.124  1.00  0.00     0.074 A 
ATOM     34  C   UNL     1       1.828  -6.758   8.019  1.00  0.00     0.049 A 
ATOM     35  N   UNL     1       3.600  -7.539  10.322  1.00  0.00    -0.248 NA
ATOM     36  C   UNL     1       3.415  -5.364  11.146  1.00  0.00     0.031 C 
ATOM     37  C   UNL     1       1.012  -6.420   6.850  1.00  0.00     0.029 A 
ATOM     38  N   UNL     1       2.127  -8.086   7.839  1.00  0.00    -0.354 N 
ATOM     39  C   UNL     1       4.363  -7.419  11.477  1.00  0.00     0.074 A 
ATOM     40  C   UNL     1       4.264  -6.041  11.905  1.00  0.00     0.031 C 
ATOM     41  C   UNL     1       0.857  -7.515   6.089  1.00  0.00     0.029 A 
ATOM     42  C   UNL     1       1.597  -8.621   6.688  1.00  0.00     0.049 A 
ATOM     43  H   UNL     1       2.671  -8.606   8.474  1.00  0.00     0.167 HD
ATOM     44  C   UNL     1       5.064  -8.375  12.134  1.00  0.00     0.037 A 
ATOM     45  C   UNL     1       1.702  -9.859   6.166  1.00  0.00     0.037 A 
ATOM     46  C   UNL     1       5.143  -9.750  11.710  1.00  0.00     0.049 A 
ATOM     47  C   UNL     1       2.493 -10.902   6.907  1.00  0.00     0.074 A 
ATOM     48  C   UNL     1       5.777 -10.807  12.338  1.00  0.00     0.029 A 
ATOM     49  N   UNL     1       4.579 -10.256  10.548  1.00  0.00    -0.354 N 
ATOM     50  N   UNL     1       3.152 -10.789   8.036  1.00  0.00    -0.248 NA
ATOM     51  C   UNL     1       2.551 -12.243   6.309  1.00  0.00     0.031 C 
ATOM     52  C   UNL     1       5.645 -11.940  11.528  1.00  0.00     0.029 A 
ATOM     53  C   UNL     1       4.874 -11.605  10.426  1.00  0.00     0.049 A 
ATOM     54  H   UNL     1       4.047  -9.735   9.904  1.00  0.00     0.167 HD
ATOM     55  C   UNL     1       3.677 -12.049   8.299  1.00  0.00     0.074 A 
ATOM     56  C   UNL     1       3.250 -12.912   7.216  1.00  0.00     0.031 C 
ATOM     57  C   UNL     1       4.440 -12.455   9.345  1.00  0.00     0.037 A 
BRANCH  44  58
ATOM     58  C   UNL     1       5.805  -7.966  13.380  1.00  0.00     0.058 A 
ATOM     59  C   UNL     1       5.130  -7.591  14.554  1.00  0.00     0.135 A 
ATOM     60  C   UNL     1       7.209  -7.978  13.412  1.00  0.00     0.135 A 
ATOM     61  F   UNL     1       3.788  -7.549  14.579  1.00  0.00    -0.206 F 
ATOM     62  C   UNL     1       5.819  -7.205  15.699  1.00  0.00     0.059 A 
ATOM     63  C   UNL     1       7.919  -7.628  14.557  1.00  0.00     0.059 A 
ATOM     64  F   UNL     1       7.907  -8.331  12.321  1.00  0.00    -0.206 F 
ATOM     65  C   UNL     1       7.215  -7.226  15.691  1.00  0.00     0.060 A 
BRANCH  65  66
ATOM     66  S   UNL     1       8.092  -6.716  17.183  1.00  0.00     0.124 S 
ATOM     67  O   UNL     1       7.854  -5.276  17.182  1.00  0.00    -0.237 OA
ATOM     68  O   UNL     1       7.402  -7.472  18.224  1.00  0.00    -0.237 OA
ATOM     69  O   UNL     1       9.470  -7.124  16.925  1.00  0.00    -0.744 OA
ENDBRANCH  65  66
ENDBRANCH  44  58
BRANCH  45  70
ATOM     70  C   UNL     1       1.022 -10.180   4.883  1.00  0.00     0.058 A 
ATOM     71  C   UNL     1      -0.089 -11.035   4.848  1.00  0.00     0.135 A 
ATOM     72  C   UNL     1       1.450  -9.617   3.670  1.00  0.00     0.135 A 
ATOM     73  F   UNL     1      -0.533 -11.604   5.979  1.00  0.00    -0.206 F 
ATOM     74  C   UNL     1      -0.746 -11.331   3.657  1.00  0.00     0.059 A 
ATOM     75  C   UNL     1       0.794  -9.875   2.471  1.00  0.00     0.059 A 
ATOM     76  F   UNL     1       2.498  -8.778   3.650  1.00  0.00    -0.206 F 
ATOM     77  C   UNL     1      -0.300 -10.739   2.474  1.00  0.00     0.060 A 
BRANCH  77  78
ATOM     78  S   UNL     1      -1.199 -11.079   0.945  1.00  0.00     0.124 S 
ATOM     79  O   UNL     1      -0.829 -12.465   0.688  1.00  0.00    -0.237 OA
ATOM     80  O   UNL     1      -2.583 -10.850   1.349  1.00  0.00    -0.237 OA
ATOM     81  O   UNL     1      -0.656 -10.096   0.012  1.00  0.00    -0.744 OA
ENDBRANCH  77  78
ENDBRANCH  45  70
BRANCH  57  82
ATOM     82  C   UNL     1       4.836 -13.907   9.395  1.00  0.00     0.058 A 
ATOM     83  C   UNL     1       5.781 -14.449   8.511  1.00  0.00     0.135 A 
ATOM     84  C   UNL     1       4.301 -14.752  10.382  1.00  0.00     0.135 A 
ATOM     85  F   UNL     1       6.318 -13.688   7.545  1.00  0.00    -0.206 F 
ATOM     86  C   UNL     1       6.167 -15.784   8.589  1.00  0.00     0.059 A 
ATOM     87  C   UNL     1       4.696 -16.081  10.498  1.00  0.00     0.059 A 
ATOM     88  F   UNL     1       3.400 -14.283  11.259  1.00  0.00    -0.206 F 
ATOM     89  C   UNL     1       5.621 -16.591   9.589  1.00  0.00     0.060 A 
BRANCH  89  90
ATOM     90  S   UNL     1       6.159 -18.311   9.702  1.00  0.00     0.124 S 
ATOM     91  O   UNL     1       5.507 -18.900   8.537  1.00  0.00    -0.237 OA
ATOM     92  O   UNL     1       7.611 -18.188   9.622  1.00  0.00    -0.237 OA
ATOM     93  O   UNL     1       5.643 -18.745  10.997  1.00  0.00    -0.744 OA
ENDBRANCH  89  90
ENDBRANCH  57  82
ENDBRANCH  31  32
ENDBRANCH  23  26
ENDBRANCH   1  22
TORSDOF 14
