REMARK SMILES CCS(=O)(=O)c1ccccc1NC[C@H]1CC[C@H](C(=O)NCCCNC(=O)c2ccc(-c3c4nc(c(-c5c(F)cc(S(=O)(=O)[O-])cc5F)c5ccc([nH]5)c(-c5c(F)cc(S(=O)(=O)[O-])cc5F)c5nc(c(-c6c(F)cc(S(=O)(=O)[O-])cc6F)c6ccc3[nH]6)C=C5)C=C4)cc2)O1
REMARK SMILES IDX 21 1 20 2 18 3 19 4 17 6 14 7 15 8 93 9 16 10 13 11 12 12
REMARK SMILES IDX 11 14 6 15 7 16 8 17 10 18 9 19 3 20 4 21 5 22 2 23 1 24
REMARK SMILES IDX 22 25 23 26 24 27 25 28 26 30 27 31 28 32 92 33 29 34 91 35
REMARK SMILES IDX 30 36 31 37 32 38 85 39 33 40 90 41 84 42 86 43 34 44 89 45
REMARK SMILES IDX 83 46 82 47 35 49 69 50 48 51 68 52 49 53 52 54 67 55 87 56
REMARK SMILES IDX 50 57 51 58 66 60 88 61 53 62 36 63 37 64 46 65 38 66 39 67
REMARK SMILES IDX 45 68 47 69 40 70 41 71 42 72 43 73 44 74 70 75 71 76 80 77
REMARK SMILES IDX 72 78 73 79 79 80 81 81 74 82 75 83 76 84 77 85 78 86 54 87
REMARK SMILES IDX 55 88 64 89 56 90 57 91 63 92 65 93 58 94 59 95 60 96 61 97
REMARK SMILES IDX 62 98
REMARK H PARENT 20 5 12 13 24 29 86 48 52 59
REMARK Flexibility Score: inf
ROOT
ATOM      1  C   UNL     1       4.946   8.714   0.763  1.00  0.00     0.117 C 
ENDROOT
BRANCH   1   2
ATOM      2  N   UNL     1       4.493   9.992   0.253  1.00  0.00    -0.354 N 
ATOM      3  C   UNL     1       3.700  10.276  -0.818  1.00  0.00     0.249 C 
ATOM      4  O   UNL     1       3.448  11.465  -1.040  1.00  0.00    -0.272 OA
ATOM      5  H   UNL     1       4.806  10.777   0.759  1.00  0.00     0.163 HD
BRANCH   3   6
ATOM      6  C   UNL     1       3.182   9.174  -1.770  1.00  0.00     0.207 C 
ATOM      7  C   UNL     1       3.243   6.832  -1.886  1.00  0.00     0.138 C 
ATOM      8  C   UNL     1       4.506   7.349  -2.556  1.00  0.00     0.037 C 
ATOM      9  O   UNL     1       2.710   7.966  -1.162  1.00  0.00    -0.363 OA
ATOM     10  C   UNL     1       4.211   8.801  -2.826  1.00  0.00     0.045 C 
BRANCH   7  11
ATOM     11  C   UNL     1       2.140   6.286  -2.815  1.00  0.00     0.145 C 
BRANCH  11  12
ATOM     12  N   UNL     1       2.649   5.528  -3.944  1.00  0.00    -0.381 N 
ATOM     13  H   UNL     1       2.625   5.975  -4.820  1.00  0.00     0.160 HD
BRANCH  12  14
ATOM     14  C   UNL     1       3.163   4.245  -3.920  1.00  0.00     0.053 A 
ATOM     15  C   UNL     1       4.157   3.816  -4.830  1.00  0.00     0.090 A 
ATOM     16  C   UNL     1       4.671   2.510  -4.782  1.00  0.00     0.022 A 
ATOM     17  C   UNL     1       4.177   1.593  -3.858  1.00  0.00     0.001 A 
ATOM     18  C   UNL     1       2.719   3.305  -2.975  1.00  0.00     0.027 A 
ATOM     19  C   UNL     1       3.205   1.993  -2.951  1.00  0.00     0.002 A 
BRANCH  15  20
ATOM     20  S   UNL     1       4.905   4.949  -5.999  1.00  0.00     0.180 S 
ATOM     21  O   UNL     1       6.297   5.078  -5.620  1.00  0.00    -0.224 OA
ATOM     22  O   UNL     1       4.062   6.137  -6.062  1.00  0.00    -0.224 OA
BRANCH  20  23
ATOM     23  C   UNL     1       4.791   4.209  -7.612  1.00  0.00     0.139 C 
ATOM     24  C   UNL     1       5.909   3.253  -7.973  1.00  0.00     0.021 C 
ENDBRANCH  20  23
ENDBRANCH  15  20
ENDBRANCH  12  14
ENDBRANCH  11  12
ENDBRANCH   7  11
ENDBRANCH   3   6
ENDBRANCH   1   2
BRANCH   1  25
ATOM     25  C   UNL     1       6.400   8.438   0.401  1.00  0.00     0.042 C 
BRANCH  25  26
ATOM     26  C   UNL     1       7.393   9.150   1.308  1.00  0.00     0.118 C 
BRANCH  26  27
ATOM     27  N   UNL     1       7.346   8.642   2.673  1.00  0.00    -0.352 N 
ATOM     28  C   UNL     1       8.323   8.049   3.432  1.00  0.00     0.251 C 
ATOM     29  H   UNL     1       6.475   8.739   3.122  1.00  0.00     0.163 HD
ATOM     30  O   UNL     1       8.009   7.485   4.477  1.00  0.00    -0.269 OA
BRANCH  28  31
ATOM     31  C   UNL     1       9.737   8.079   3.000  1.00  0.00     0.039 A 
ATOM     32  C   UNL     1      10.536   6.955   3.230  1.00  0.00     0.014 A 
ATOM     33  C   UNL     1      10.290   9.219   2.412  1.00  0.00     0.014 A 
ATOM     34  C   UNL     1      11.873   6.959   2.826  1.00  0.00     0.010 A 
ATOM     35  C   UNL     1      11.595   9.191   1.933  1.00  0.00     0.010 A 
ATOM     36  C   UNL     1      12.405   8.067   2.149  1.00  0.00    -0.014 A 
BRANCH  36  37
ATOM     37  C   UNL     1      13.810   8.080   1.672  1.00  0.00     0.031 A 
ATOM     38  C   UNL     1      14.784   9.087   2.220  1.00  0.00     0.074 A 
ATOM     39  C   UNL     1      14.186   7.238   0.690  1.00  0.00     0.049 A 
ATOM     40  N   UNL     1      16.026   9.309   1.877  1.00  0.00    -0.248 NA
ATOM     41  C   UNL     1      14.282   9.988   3.270  1.00  0.00     0.031 C 
ATOM     42  C   UNL     1      13.312   6.263   0.034  1.00  0.00     0.029 A 
ATOM     43  N   UNL     1      15.393   7.081   0.059  1.00  0.00    -0.354 N 
ATOM     44  C   UNL     1      16.447  10.383   2.652  1.00  0.00     0.074 A 
ATOM     45  C   UNL     1      15.309  10.806   3.439  1.00  0.00     0.031 C 
ATOM     46  C   UNL     1      14.014   5.604  -0.900  1.00  0.00     0.029 A 
ATOM     47  C   UNL     1      15.375   6.130  -0.934  1.00  0.00     0.049 A 
ATOM     48  H   UNL     1      16.196   7.599   0.294  1.00  0.00     0.167 HD
ATOM     49  C   UNL     1      17.675  10.951   2.719  1.00  0.00     0.037 A 
ATOM     50  C   UNL     1      16.342   5.735  -1.784  1.00  0.00     0.037 A 
ATOM     51  C   UNL     1      18.805  10.510   1.942  1.00  0.00     0.049 A 
ATOM     52  C   UNL     1      17.706   6.355  -1.678  1.00  0.00     0.074 A 
ATOM     53  C   UNL     1      20.109  10.970   1.980  1.00  0.00     0.029 A 
ATOM     54  N   UNL     1      18.761   9.510   0.980  1.00  0.00    -0.354 N 
ATOM     55  N   UNL     1      18.111   7.318  -0.884  1.00  0.00    -0.248 NA
ATOM     56  C   UNL     1      18.747   5.830  -2.570  1.00  0.00     0.031 C 
ATOM     57  C   UNL     1      20.844  10.276   1.011  1.00  0.00     0.029 A 
ATOM     58  C   UNL     1      20.010   9.350   0.403  1.00  0.00     0.049 A 
ATOM     59  H   UNL     1      17.959   8.990   0.744  1.00  0.00     0.167 HD
ATOM     60  C   UNL     1      19.459   7.506  -1.170  1.00  0.00     0.074 A 
ATOM     61  C   UNL     1      19.802   6.544  -2.199  1.00  0.00     0.031 C 
ATOM     62  C   UNL     1      20.332   8.392  -0.628  1.00  0.00     0.037 A 
BRANCH  49  63
ATOM     63  C   UNL     1      17.845  12.113   3.661  1.00  0.00     0.058 A 
ATOM     64  C   UNL     1      17.777  11.950   5.055  1.00  0.00     0.135 A 
ATOM     65  C   UNL     1      18.058  13.410   3.167  1.00  0.00     0.135 A 
ATOM     66  F   UNL     1      17.564  10.734   5.584  1.00  0.00    -0.206 F 
ATOM     67  C   UNL     1      17.854  13.036   5.922  1.00  0.00     0.059 A 
ATOM     68  C   UNL     1      18.171  14.508   4.018  1.00  0.00     0.059 A 
ATOM     69  F   UNL     1      18.139  13.627   1.845  1.00  0.00    -0.206 F 
ATOM     70  C   UNL     1      18.040  14.313   5.392  1.00  0.00     0.060 A 
BRANCH  70  71
ATOM     71  S   UNL     1      18.092  15.718   6.524  1.00  0.00     0.124 S 
ATOM     72  O   UNL     1      16.681  15.864   6.869  1.00  0.00    -0.237 OA
ATOM     73  O   UNL     1      18.957  15.229   7.593  1.00  0.00    -0.237 OA
ATOM     74  O   UNL     1      18.654  16.790   5.709  1.00  0.00    -0.744 OA
ENDBRANCH  70  71
ENDBRANCH  49  63
BRANCH  50  75
ATOM     75  C   UNL     1      16.040   4.677  -2.784  1.00  0.00     0.058 A 
ATOM     76  C   UNL     1      16.521   3.371  -2.623  1.00  0.00     0.135 A 
ATOM     77  C   UNL     1      15.197   4.934  -3.877  1.00  0.00     0.135 A 
ATOM     78  F   UNL     1      17.334   3.078  -1.597  1.00  0.00    -0.206 F 
ATOM     79  C   UNL     1      16.174   2.353  -3.506  1.00  0.00     0.059 A 
ATOM     80  C   UNL     1      14.818   3.928  -4.761  1.00  0.00     0.059 A 
ATOM     81  F   UNL     1      14.696   6.165  -4.065  1.00  0.00    -0.206 F 
ATOM     82  C   UNL     1      15.312   2.639  -4.566  1.00  0.00     0.060 A 
BRANCH  82  83
ATOM     83  S   UNL     1      14.789   1.288  -5.645  1.00  0.00     0.124 S 
ATOM     84  O   UNL     1      15.998   1.045  -6.422  1.00  0.00    -0.237 OA
ATOM     85  O   UNL     1      14.427   0.250  -4.685  1.00  0.00    -0.237 OA
ATOM     86  O   UNL     1      13.668   1.862  -6.385  1.00  0.00    -0.744 OA
ENDBRANCH  82  83
ENDBRANCH  50  75
BRANCH  62  87
ATOM     87  C   UNL     1      21.750   8.355  -1.126  1.00  0.00     0.058 A 
ATOM     88  C   UNL     1      22.097   8.844  -2.395  1.00  0.00     0.135 A 
ATOM     89  C   UNL     1      22.781   7.876  -0.302  1.00  0.00     0.135 A 
ATOM     90  F   UNL     1      21.149   9.306  -3.225  1.00  0.00    -0.206 F 
ATOM     91  C   UNL     1      23.416   8.839  -2.839  1.00  0.00     0.059 A 
ATOM     92  C   UNL     1      24.109   7.886  -0.715  1.00  0.00     0.059 A 
ATOM     93  F   UNL     1      22.503   7.407   0.925  1.00  0.00    -0.206 F 
ATOM     94  C   UNL     1      24.416   8.360  -1.990  1.00  0.00     0.060 A 
BRANCH  94  95
ATOM     95  S   UNL     1      26.127   8.391  -2.563  1.00  0.00     0.124 S 
ATOM     96  O   UNL     1      26.139   7.286  -3.515  1.00  0.00    -0.237 OA
ATOM     97  O   UNL     1      26.240   9.727  -3.141  1.00  0.00    -0.237 OA
ATOM     98  O   UNL     1      26.898   8.177  -1.342  1.00  0.00    -0.744 OA
ENDBRANCH  94  95
ENDBRANCH  62  87
ENDBRANCH  36  37
ENDBRANCH  28  31
ENDBRANCH  26  27
ENDBRANCH  25  26
ENDBRANCH   1  25
TORSDOF 18
