REMARK SMILES O=C(NCCCNC(=O)c1ccc(-c2ccc(Cl)cc2)cc1F)c1ccc(-c2c3nc(c(-c4c(F)cc(S(=O)(=O)[O-])cc4F)c4ccc([nH]4)c(-c4c(F)cc(S(=O)(=O)[O-])cc4F)c4nc(c(-c5c(F)cc(S(=O)(=O)[O-])cc5F)c5ccc2[nH]5)C=C4)C=C3)cc1
REMARK SMILES IDX 4 1 3 2 1 3 2 4 24 6 25 7 89 8 26 9 88 10 27 11 28 12 29 13
REMARK SMILES IDX 82 14 30 15 87 16 81 17 83 18 31 19 86 20 80 21 79 22 32 24
REMARK SMILES IDX 66 25 45 26 65 27 46 28 49 29 64 30 84 31 47 32 48 33 63 35
REMARK SMILES IDX 85 36 50 37 33 38 34 39 43 40 35 41 36 42 42 43 44 44 37 45
REMARK SMILES IDX 38 46 39 47 40 48 41 49 67 50 68 51 77 52 69 53 70 54 76 55
REMARK SMILES IDX 78 56 71 57 72 58 73 59 74 60 75 61 51 62 52 63 61 64 53 65
REMARK SMILES IDX 54 66 60 67 62 68 55 69 56 70 57 71 58 72 59 73 5 74 6 75
REMARK SMILES IDX 7 76 8 77 9 79 10 80 11 81 22 82 12 83 21 84 23 85 13 86
REMARK SMILES IDX 14 87 15 88 20 89 16 90 19 91 17 92 18 93
REMARK H PARENT 3 5 83 23 49 34 7 78
REMARK Flexibility Score: inf
ROOT
ATOM      1  C   UNL     1       4.462  -1.365  -0.239  1.00  0.00     0.118 C 
ENDROOT
BRANCH   1   2
ATOM      2  N   UNL     1       3.037  -1.083  -0.353  1.00  0.00    -0.352 N 
ATOM      3  O   UNL     1       1.096   0.006  -0.052  1.00  0.00    -0.269 OA
ATOM      4  C   UNL     1       2.324   0.058  -0.074  1.00  0.00     0.251 C 
ATOM      5  H   UNL     1       2.495  -1.834  -0.686  1.00  0.00     0.163 HD
BRANCH   4   6
ATOM      6  C   UNL     1       3.014   1.335   0.216  1.00  0.00     0.039 A 
ATOM      7  C   UNL     1       4.141   1.727  -0.508  1.00  0.00     0.014 A 
ATOM      8  C   UNL     1       2.493   2.182   1.201  1.00  0.00     0.014 A 
ATOM      9  C   UNL     1       4.831   2.879  -0.148  1.00  0.00     0.010 A 
ATOM     10  C   UNL     1       3.136   3.388   1.499  1.00  0.00     0.010 A 
ATOM     11  C   UNL     1       4.329   3.731   0.848  1.00  0.00    -0.014 A 
BRANCH  11  12
ATOM     12  C   UNL     1       5.045   4.998   1.146  1.00  0.00     0.031 A 
ATOM     13  C   UNL     1       5.692   5.231   2.482  1.00  0.00     0.074 A 
ATOM     14  C   UNL     1       5.150   5.926   0.173  1.00  0.00     0.049 A 
ATOM     15  N   UNL     1       6.389   6.262   2.888  1.00  0.00    -0.248 NA
ATOM     16  C   UNL     1       5.537   4.176   3.495  1.00  0.00     0.031 C 
ATOM     17  C   UNL     1       4.559   5.810  -1.163  1.00  0.00     0.029 A 
ATOM     18  N   UNL     1       5.811   7.126   0.140  1.00  0.00    -0.354 N 
ATOM     19  C   UNL     1       6.743   5.990   4.204  1.00  0.00     0.074 A 
ATOM     20  C   UNL     1       6.162   4.707   4.538  1.00  0.00     0.031 C 
ATOM     21  C   UNL     1       4.941   6.859  -1.904  1.00  0.00     0.029 A 
ATOM     22  C   UNL     1       5.750   7.752  -1.081  1.00  0.00     0.049 A 
ATOM     23  H   UNL     1       6.285   7.502   0.917  1.00  0.00     0.167 HD
ATOM     24  C   UNL     1       7.491   6.738   5.050  1.00  0.00     0.037 A 
ATOM     25  C   UNL     1       6.282   8.917  -1.498  1.00  0.00     0.037 A 
ATOM     26  C   UNL     1       8.077   8.008   4.707  1.00  0.00     0.049 A 
ATOM     27  C   UNL     1       7.090   9.736  -0.538  1.00  0.00     0.074 A 
ATOM     28  C   UNL     1       8.858   8.837   5.494  1.00  0.00     0.029 A 
ATOM     29  N   UNL     1       7.949   8.634   3.475  1.00  0.00    -0.354 N 
ATOM     30  N   UNL     1       7.408   9.465   0.705  1.00  0.00    -0.248 NA
ATOM     31  C   UNL     1       7.601  11.023  -1.028  1.00  0.00     0.031 C 
ATOM     32  C   UNL     1       9.176   9.978   4.748  1.00  0.00     0.029 A 
ATOM     33  C   UNL     1       8.624   9.843   3.484  1.00  0.00     0.049 A 
ATOM     34  H   UNL     1       7.451   8.271   2.707  1.00  0.00     0.167 HD
ATOM     35  C   UNL     1       8.159  10.546   1.148  1.00  0.00     0.074 A 
ATOM     36  C   UNL     1       8.261  11.468   0.034  1.00  0.00     0.031 C 
ATOM     37  C   UNL     1       8.708  10.755   2.369  1.00  0.00     0.037 A 
BRANCH  24  38
ATOM     38  C   UNL     1       7.708   6.205   6.439  1.00  0.00     0.058 A 
ATOM     39  C   UNL     1       7.055   6.787   7.537  1.00  0.00     0.135 A 
ATOM     40  C   UNL     1       8.585   5.137   6.689  1.00  0.00     0.135 A 
ATOM     41  F   UNL     1       6.203   7.808   7.355  1.00  0.00    -0.206 F 
ATOM     42  C   UNL     1       7.262   6.328   8.835  1.00  0.00     0.059 A 
ATOM     43  C   UNL     1       8.791   4.649   7.977  1.00  0.00     0.059 A 
ATOM     44  F   UNL     1       9.218   4.532   5.672  1.00  0.00    -0.206 F 
ATOM     45  C   UNL     1       8.131   5.257   9.045  1.00  0.00     0.060 A 
BRANCH  45  46
ATOM     46  S   UNL     1       8.335   4.620  10.723  1.00  0.00     0.124 S 
ATOM     47  O   UNL     1       9.203   5.627  11.322  1.00  0.00    -0.237 OA
ATOM     48  O   UNL     1       6.960   4.590  11.213  1.00  0.00    -0.237 OA
ATOM     49  O   UNL     1       8.941   3.308  10.511  1.00  0.00    -0.744 OA
ENDBRANCH  45  46
ENDBRANCH  24  38
BRANCH  25  50
ATOM     50  C   UNL     1       6.069   9.344  -2.904  1.00  0.00     0.058 A 
ATOM     51  C   UNL     1       4.805   9.759  -3.352  1.00  0.00     0.135 A 
ATOM     52  C   UNL     1       7.102   9.247  -3.847  1.00  0.00     0.135 A 
ATOM     53  F   UNL     1       3.783   9.857  -2.488  1.00  0.00    -0.206 F 
ATOM     54  C   UNL     1       4.561  10.018  -4.695  1.00  0.00     0.059 A 
ATOM     55  C   UNL     1       6.887   9.522  -5.194  1.00  0.00     0.059 A 
ATOM     56  F   UNL     1       8.328   8.864  -3.460  1.00  0.00    -0.206 F 
ATOM     57  C   UNL     1       5.605   9.882  -5.611  1.00  0.00     0.060 A 
BRANCH  57  58
ATOM     58  S   UNL     1       5.254  10.160  -7.360  1.00  0.00     0.124 S 
ATOM     59  O   UNL     1       4.475   8.971  -7.691  1.00  0.00    -0.237 OA
ATOM     60  O   UNL     1       4.514  11.417  -7.329  1.00  0.00    -0.237 OA
ATOM     61  O   UNL     1       6.581  10.230  -7.963  1.00  0.00    -0.744 OA
ENDBRANCH  57  58
ENDBRANCH  25  50
BRANCH  37  62
ATOM     62  C   UNL     1       9.472  12.031   2.571  1.00  0.00     0.058 A 
ATOM     63  C   UNL     1      10.874  12.020   2.639  1.00  0.00     0.135 A 
ATOM     64  C   UNL     1       8.812  13.254   2.764  1.00  0.00     0.135 A 
ATOM     65  F   UNL     1      11.551  10.874   2.462  1.00  0.00    -0.206 F 
ATOM     66  C   UNL     1      11.596  13.177   2.906  1.00  0.00     0.059 A 
ATOM     67  C   UNL     1       9.515  14.428   3.014  1.00  0.00     0.059 A 
ATOM     68  F   UNL     1       7.473  13.316   2.694  1.00  0.00    -0.206 F 
ATOM     69  C   UNL     1      10.907  14.376   3.100  1.00  0.00     0.060 A 
BRANCH  69  70
ATOM     70  S   UNL     1      11.858  15.873   3.438  1.00  0.00     0.124 S 
ATOM     71  O   UNL     1      12.266  15.661   4.822  1.00  0.00    -0.237 OA
ATOM     72  O   UNL     1      12.924  15.795   2.443  1.00  0.00    -0.237 OA
ATOM     73  O   UNL     1      10.889  16.944   3.223  1.00  0.00    -0.744 OA
ENDBRANCH  69  70
ENDBRANCH  37  62
ENDBRANCH  11  12
ENDBRANCH   4   6
ENDBRANCH   1   2
BRANCH   1  74
ATOM     74  C   UNL     1       4.771  -2.378   0.855  1.00  0.00     0.042 C 
BRANCH  74  75
ATOM     75  C   UNL     1       4.189  -3.761   0.595  1.00  0.00     0.118 C 
BRANCH  75  76
ATOM     76  N   UNL     1       4.791  -4.407  -0.565  1.00  0.00    -0.352 N 
ATOM     77  C   UNL     1       5.658  -5.470  -0.614  1.00  0.00     0.254 C 
ATOM     78  H   UNL     1       4.539  -4.028  -1.438  1.00  0.00     0.163 HD
ATOM     79  O   UNL     1       6.176  -5.811  -1.674  1.00  0.00    -0.269 OA
BRANCH  77  80
ATOM     80  C   UNL     1       6.015  -6.176   0.623  1.00  0.00     0.075 A 
ATOM     81  C   UNL     1       7.352  -6.229   1.016  1.00  0.00     0.017 A 
ATOM     82  C   UNL     1       5.035  -6.773   1.407  1.00  0.00     0.136 A 
ATOM     83  C   UNL     1       7.684  -6.804   2.248  1.00  0.00     0.010 A 
ATOM     84  C   UNL     1       5.361  -7.332   2.638  1.00  0.00     0.048 A 
ATOM     85  F   UNL     1       3.749  -6.770   1.026  1.00  0.00    -0.206 F 
ATOM     86  C   UNL     1       6.690  -7.333   3.094  1.00  0.00    -0.015 A 
BRANCH  86  87
ATOM     87  C   UNL     1       7.011  -7.830   4.441  1.00  0.00    -0.018 A 
ATOM     88  C   UNL     1       6.528  -9.069   4.895  1.00  0.00     0.010 A 
ATOM     89  C   UNL     1       7.766  -7.047   5.334  1.00  0.00     0.010 A 
ATOM     90  C   UNL     1       6.777  -9.505   6.200  1.00  0.00     0.021 A 
ATOM     91  C   UNL     1       8.018  -7.481   6.639  1.00  0.00     0.021 A 
ATOM     92  C   UNL     1       7.519  -8.707   7.066  1.00  0.00     0.041 A 
ATOM     93  Cl  UNL     1       7.811  -9.239   8.676  1.00  0.00    -0.084 Cl
ENDBRANCH  86  87
ENDBRANCH  77  80
ENDBRANCH  75  76
ENDBRANCH  74  75
ENDBRANCH   1  74
TORSDOF 14
