REMARK SMILES Cc1ccc2cc(C[N@H+]3CC[NH2+][C@H](C(=O)NCCCNC(=O)c4ccc(-c5c6nc(c(-c7c(F)cc(S(=O)(=O)[O-])cc7F)c7ccc([nH]7)c(-c7c(F)cc(S(=O)(=O)[O-])cc7F)c7nc(c(-c8c(F)cc(S(=O)(=O)[O-])cc8F)c8ccc5[nH]8)C=C7)C=C6)cc4)C3)c(N3CCOCC3)nc2c1
REMARK SMILES IDX 18 1 17 2 16 3 14 4 15 5 13 7 9 8 10 9 89 10 11 12 12 13
REMARK SMILES IDX 8 16 7 17 1 18 2 19 3 20 99 21 4 22 98 23 5 24 97 25 6 26
REMARK SMILES IDX 90 27 91 28 92 29 96 30 93 31 95 32 94 33 19 34 20 35 21 36
REMARK SMILES IDX 22 38 23 39 24 40 88 41 25 42 87 43 26 44 27 45 28 46 81 47
REMARK SMILES IDX 29 48 86 49 80 50 82 51 30 52 85 53 79 54 78 55 31 57 65 58
REMARK SMILES IDX 44 59 64 60 45 61 48 62 63 63 83 64 46 65 47 66 62 68 84 69
REMARK SMILES IDX 49 70 32 71 33 72 42 73 34 74 35 75 41 76 43 77 36 78 37 79
REMARK SMILES IDX 38 80 39 81 40 82 66 83 67 84 76 85 68 86 69 87 75 88 77 89
REMARK SMILES IDX 70 90 71 91 72 92 73 93 74 94 50 95 51 96 60 97 52 98 53 99
REMARK SMILES IDX 59 100 61 101 54 102 55 103 56 104 57 105 58 106
REMARK H PARENT 16 6 9 11 12 14 12 15 20 37 82 56 48 67
REMARK Flexibility Score: inf
ROOT
ATOM      1  C   UNL     1      -0.188  -3.231   5.666  1.00  0.00     0.042 C 
ENDROOT
BRANCH   1   2
ATOM      2  C   UNL     1      -1.218  -2.569   4.765  1.00  0.00     0.118 C 
BRANCH   2   3
ATOM      3  N   UNL     1      -2.573  -2.693   5.262  1.00  0.00    -0.351 N 
ATOM      4  C   UNL     1      -3.462  -1.701   5.577  1.00  0.00     0.284 C 
ATOM      5  O   UNL     1      -4.603  -2.031   5.914  1.00  0.00    -0.268 OA
ATOM      6  H   UNL     1      -2.898  -3.614   5.390  1.00  0.00     0.163 HD
BRANCH   4   7
ATOM      7  C   UNL     1      -3.003  -0.228   5.575  1.00  0.00     0.328 C 
ATOM      8  N   UNL     1      -2.243   1.509   7.306  1.00  0.00    -0.321 N 
ATOM      9  C   UNL     1      -3.245   2.401   6.711  1.00  0.00     0.324 C 
ATOM     10  C   UNL     1      -2.497   0.095   7.004  1.00  0.00     0.339 C 
ATOM     11  H   UNL     1      -2.386   1.583   8.313  1.00  0.00     0.348 HD
ATOM     12  C   UNL     1      -3.705   2.044   5.279  1.00  0.00     0.323 C 
ATOM     13  N   UNL     1      -4.126   0.643   5.136  1.00  0.00    -0.327 N 
ATOM     14  H   UNL     1      -4.352   0.448   4.160  1.00  0.00     0.347 HD
ATOM     15  H   UNL     1      -4.953   0.464   5.705  1.00  0.00     0.347 HD
BRANCH   8  16
ATOM     16  C   UNL     1      -0.845   1.958   7.224  1.00  0.00     0.303 C 
BRANCH  16  17
ATOM     17  C   UNL     1      -0.221   2.048   5.849  1.00  0.00     0.049 A 
ATOM     18  C   UNL     1       1.043   0.612  -0.335  1.00  0.00     0.044 C 
ATOM     19  C   UNL     1       0.954   0.718   1.158  1.00  0.00    -0.049 A 
ATOM     20  C   UNL     1       1.290  -0.381   1.947  1.00  0.00     0.004 A 
ATOM     21  C   UNL     1       0.552   1.912   1.786  1.00  0.00     0.032 A 
ATOM     22  C   UNL     1       1.165  -0.301   3.329  1.00  0.00     0.010 A 
ATOM     23  C   UNL     1       0.398   2.012   3.167  1.00  0.00     0.073 A 
ATOM     24  C   UNL     1       0.670   0.867   3.932  1.00  0.00     0.001 A 
ATOM     25  N   UNL     1      -0.023   3.164   3.731  1.00  0.00    -0.230 NA
ATOM     26  C   UNL     1       0.363   0.907   5.292  1.00  0.00     0.023 A 
ATOM     27  C   UNL     1      -0.282   3.204   5.060  1.00  0.00     0.138 A 
BRANCH  27  28
ATOM     28  N   UNL     1      -0.638   4.417   5.629  1.00  0.00    -0.352 N 
ATOM     29  C   UNL     1       0.330   5.016   6.565  1.00  0.00     0.146 C 
ATOM     30  C   UNL     1      -1.307   5.418   4.796  1.00  0.00     0.146 C 
ATOM     31  C   UNL     1      -0.422   6.020   7.453  1.00  0.00     0.181 C 
ATOM     32  C   UNL     1      -1.998   6.429   5.731  1.00  0.00     0.181 C 
ATOM     33  O   UNL     1      -1.075   7.030   6.661  1.00  0.00    -0.378 OA
ENDBRANCH  27  28
ENDBRANCH  16  17
ENDBRANCH   8  16
ENDBRANCH   4   7
ENDBRANCH   2   3
ENDBRANCH   1   2
BRANCH   1  34
ATOM     34  C   UNL     1      -0.157  -4.748   5.561  1.00  0.00     0.118 C 
BRANCH  34  35
ATOM     35  N   UNL     1       0.269  -5.229   4.250  1.00  0.00    -0.352 N 
ATOM     36  C   UNL     1       1.231  -6.153   3.907  1.00  0.00     0.251 C 
ATOM     37  H   UNL     1      -0.208  -4.828   3.488  1.00  0.00     0.163 HD
ATOM     38  O   UNL     1       1.498  -6.327   2.720  1.00  0.00    -0.269 OA
BRANCH  36  39
ATOM     39  C   UNL     1       1.972  -6.896   4.952  1.00  0.00     0.039 A 
ATOM     40  C   UNL     1       1.332  -7.346   6.106  1.00  0.00     0.014 A 
ATOM     41  C   UNL     1       3.342  -7.123   4.789  1.00  0.00     0.014 A 
ATOM     42  C   UNL     1       2.086  -7.807   7.177  1.00  0.00     0.010 A 
ATOM     43  C   UNL     1       4.085  -7.698   5.827  1.00  0.00     0.010 A 
ATOM     44  C   UNL     1       3.475  -7.982   7.058  1.00  0.00    -0.014 A 
BRANCH  44  45
ATOM     45  C   UNL     1       4.251  -8.438   8.244  1.00  0.00     0.031 A 
ATOM     46  C   UNL     1       5.314  -7.559   8.856  1.00  0.00     0.074 A 
ATOM     47  C   UNL     1       3.933  -9.610   8.828  1.00  0.00     0.049 A 
ATOM     48  N   UNL     1       6.049  -7.776   9.918  1.00  0.00    -0.248 NA
ATOM     49  C   UNL     1       5.592  -6.274   8.194  1.00  0.00     0.031 C 
ATOM     50  C   UNL     1       2.917 -10.546   8.339  1.00  0.00     0.029 A 
ATOM     51  N   UNL     1       4.394 -10.198   9.979  1.00  0.00    -0.354 N 
ATOM     52  C   UNL     1       6.887  -6.673  10.037  1.00  0.00     0.074 A 
ATOM     53  C   UNL     1       6.591  -5.798   8.924  1.00  0.00     0.031 C 
ATOM     54  C   UNL     1       2.776 -11.545   9.222  1.00  0.00     0.029 A 
ATOM     55  C   UNL     1       3.740 -11.363  10.302  1.00  0.00     0.049 A 
ATOM     56  H   UNL     1       5.124  -9.821  10.521  1.00  0.00     0.167 HD
ATOM     57  C   UNL     1       7.808  -6.405  10.994  1.00  0.00     0.037 A 
ATOM     58  C   UNL     1       3.898 -12.200  11.345  1.00  0.00     0.037 A 
ATOM     59  C   UNL     1       8.078  -7.260  12.121  1.00  0.00     0.049 A 
ATOM     60  C   UNL     1       4.945 -11.895  12.377  1.00  0.00     0.074 A 
ATOM     61  C   UNL     1       8.983  -7.065  13.151  1.00  0.00     0.029 A 
ATOM     62  N   UNL     1       7.441  -8.465  12.373  1.00  0.00    -0.354 N 
ATOM     63  N   UNL     1       5.737 -10.853  12.460  1.00  0.00    -0.248 NA
ATOM     64  C   UNL     1       5.134 -12.886  13.444  1.00  0.00     0.031 C 
ATOM     65  C   UNL     1       8.916  -8.169  14.007  1.00  0.00     0.029 A 
ATOM     66  C   UNL     1       7.943  -9.033  13.532  1.00  0.00     0.049 A 
ATOM     67  H   UNL     1       6.735  -8.860  11.810  1.00  0.00     0.167 HD
ATOM     68  C   UNL     1       6.519 -11.063  13.589  1.00  0.00     0.074 A 
ATOM     69  C   UNL     1       6.088 -12.319  14.170  1.00  0.00     0.031 C 
ATOM     70  C   UNL     1       7.510 -10.288  14.093  1.00  0.00     0.037 A 
BRANCH  57  71
ATOM     71  C   UNL     1       8.601  -5.133  10.868  1.00  0.00     0.058 A 
ATOM     72  C   UNL     1       8.033  -3.881  11.148  1.00  0.00     0.135 A 
ATOM     73  C   UNL     1       9.961  -5.172  10.516  1.00  0.00     0.135 A 
ATOM     74  F   UNL     1       6.734  -3.785  11.472  1.00  0.00    -0.206 F 
ATOM     75  C   UNL     1       8.780  -2.710  11.066  1.00  0.00     0.059 A 
ATOM     76  C   UNL     1      10.732  -4.016  10.450  1.00  0.00     0.059 A 
ATOM     77  F   UNL     1      10.553  -6.345  10.238  1.00  0.00    -0.206 F 
ATOM     78  C   UNL     1      10.129  -2.787  10.716  1.00  0.00     0.060 A 
BRANCH  78  79
ATOM     79  S   UNL     1      11.084  -1.257  10.623  1.00  0.00     0.124 S 
ATOM     80  O   UNL     1      10.548  -0.655   9.406  1.00  0.00    -0.237 OA
ATOM     81  O   UNL     1      10.725  -0.590  11.870  1.00  0.00    -0.237 OA
ATOM     82  O   UNL     1      12.465  -1.722  10.537  1.00  0.00    -0.744 OA
ENDBRANCH  78  79
ENDBRANCH  57  71
BRANCH  58  83
ATOM     83  C   UNL     1       3.039 -13.407  11.454  1.00  0.00     0.058 A 
ATOM     84  C   UNL     1       2.039 -13.494  12.432  1.00  0.00     0.135 A 
ATOM     85  C   UNL     1       3.171 -14.476  10.554  1.00  0.00     0.135 A 
ATOM     86  F   UNL     1       1.880 -12.499  13.319  1.00  0.00    -0.206 F 
ATOM     87  C   UNL     1       1.196 -14.597  12.514  1.00  0.00     0.059 A 
ATOM     88  C   UNL     1       2.325 -15.578  10.600  1.00  0.00     0.059 A 
ATOM     89  F   UNL     1       4.106 -14.433   9.591  1.00  0.00    -0.206 F 
ATOM     90  C   UNL     1       1.343 -15.631  11.588  1.00  0.00     0.060 A 
BRANCH  90  91
ATOM     91  S   UNL     1       0.194 -17.024  11.653  1.00  0.00     0.124 S 
ATOM     92  O   UNL     1       0.677 -17.747  12.823  1.00  0.00    -0.237 OA
ATOM     93  O   UNL     1      -1.093 -16.352  11.802  1.00  0.00    -0.237 OA
ATOM     94  O   UNL     1       0.400 -17.687  10.369  1.00  0.00    -0.744 OA
ENDBRANCH  90  91
ENDBRANCH  58  83
BRANCH  70  95
ATOM     95  C   UNL     1       8.201 -10.773  15.334  1.00  0.00     0.058 A 
ATOM     96  C   UNL     1       9.144 -11.811  15.282  1.00  0.00     0.135 A 
ATOM     97  C   UNL     1       7.970 -10.153  16.571  1.00  0.00     0.135 A 
ATOM     98  F   UNL     1       9.393 -12.441  14.123  1.00  0.00    -0.206 F 
ATOM     99  C   UNL     1       9.827 -12.226  16.420  1.00  0.00     0.059 A 
ATOM    100  C   UNL     1       8.657 -10.538  17.718  1.00  0.00     0.059 A 
ATOM    101  F   UNL     1       7.082  -9.150  16.669  1.00  0.00    -0.206 F 
ATOM    102  C   UNL     1       9.580 -11.580  17.633  1.00  0.00     0.060 A 
BRANCH 102 103
ATOM    103  S   UNL     1      10.509 -12.097  19.092  1.00  0.00     0.124 S 
ATOM    104  O   UNL     1       9.879 -13.375  19.404  1.00  0.00    -0.237 OA
ATOM    105  O   UNL     1      11.875 -12.172  18.581  1.00  0.00    -0.237 OA
ATOM    106  O   UNL     1      10.262 -11.024  20.050  1.00  0.00    -0.744 OA
ENDBRANCH 102 103
ENDBRANCH  70  95
ENDBRANCH  44  45
ENDBRANCH  36  39
ENDBRANCH  34  35
ENDBRANCH   1  34
TORSDOF 16
