REMARK SMILES Cc1cccc(-n2ncc(C(=O)Nc3cccc(C(=O)NCCCNC(=O)c4ccc(-c5c6nc(c(-c7c(F)cc(S(=O)(=O)[O-])cc7F)c7ccc([nH]7)c(-c7c(F)cc(S(=O)(=O)[O-])cc7F)c7nc(c(-c8c(F)cc(S(=O)(=O)[O-])cc8F)c8ccc5[nH]8)C=C7)C=C6)cc4)c3C)c2C)c1
REMARK SMILES IDX 23 1 22 2 21 3 19 4 20 5 18 7 14 8 15 9 94 10 16 11 95 12
REMARK SMILES IDX 17 13 13 14 11 15 12 16 10 18 7 19 8 20 96 21 9 22 97 23
REMARK SMILES IDX 6 24 1 25 2 26 3 27 98 28 4 29 5 30 24 31 25 32 26 33 27 35
REMARK SMILES IDX 28 36 29 37 93 38 30 39 92 40 31 41 32 42 33 43 86 44 34 45
REMARK SMILES IDX 91 46 85 47 87 48 35 49 90 50 84 51 83 52 36 54 70 55 49 56
REMARK SMILES IDX 69 57 50 58 53 59 68 60 88 61 51 62 52 63 67 65 89 66 54 67
REMARK SMILES IDX 37 68 38 69 47 70 39 71 40 72 46 73 48 74 41 75 42 76 43 77
REMARK SMILES IDX 44 78 45 79 71 80 72 81 81 82 73 83 74 84 80 85 82 86 75 87
REMARK SMILES IDX 76 88 77 89 78 90 79 91 55 92 56 93 65 94 57 95 58 96 64 97
REMARK SMILES IDX 66 98 59 99 60 100 61 101 62 102 63 103
REMARK H PARENT 21 6 13 17 25 34 87 53 53 64
REMARK Flexibility Score: inf
ROOT
ATOM      1  C   UNL     1      -1.799   9.287  -5.130  1.00  0.00     0.042 C 
ENDROOT
BRANCH   1   2
ATOM      2  C   UNL     1      -0.949   9.139  -3.866  1.00  0.00     0.118 C 
BRANCH   2   3
ATOM      3  N   UNL     1      -1.481   9.914  -2.753  1.00  0.00    -0.352 N 
ATOM      4  C   UNL     1      -2.364   9.652  -1.730  1.00  0.00     0.251 C 
ATOM      5  O   UNL     1      -2.499  10.563  -0.915  1.00  0.00    -0.269 OA
ATOM      6  H   UNL     1      -1.129  10.833  -2.727  1.00  0.00     0.163 HD
BRANCH   4   7
ATOM      7  C   UNL     1      -3.119   8.353  -1.552  1.00  0.00     0.044 A 
ATOM      8  C   UNL     1      -4.128   6.616  -0.162  1.00  0.00     0.045 A 
ATOM      9  C   UNL     1      -4.341   5.816  -1.289  1.00  0.00     0.026 A 
ATOM     10  C   UNL     1      -3.614   7.934  -0.282  1.00  0.00    -0.015 A 
ATOM     11  C   UNL     1      -3.982   6.278  -2.539  1.00  0.00     0.003 A 
ATOM     12  C   UNL     1      -3.493   8.782   0.965  1.00  0.00     0.047 C 
ATOM     13  C   UNL     1      -3.364   7.520  -2.655  1.00  0.00     0.014 A 
BRANCH   8  14
ATOM     14  N   UNL     1      -4.413   6.074   1.103  1.00  0.00    -0.322 N 
ATOM     15  C   UNL     1      -4.149   4.805   1.576  1.00  0.00     0.259 C 
ATOM     16  O   UNL     1      -4.789   4.404   2.549  1.00  0.00    -0.269 OA
ATOM     17  H   UNL     1      -4.861   6.681   1.736  1.00  0.00     0.170 HD
BRANCH  15  18
ATOM     18  C   UNL     1      -3.048   4.026   1.002  1.00  0.00     0.081 A 
ATOM     19  N   UNL     1      -1.638   2.365   0.500  1.00  0.00    -0.237 N 
ATOM     20  N   UNL     1      -1.083   3.475  -0.040  1.00  0.00    -0.175 NA
ATOM     21  C   UNL     1      -2.767   2.682   1.248  1.00  0.00     0.054 A 
ATOM     22  C   UNL     1      -1.943   4.450   0.233  1.00  0.00     0.149 A 
ATOM     23  C   UNL     1      -3.420   1.767   2.225  1.00  0.00     0.068 C 
BRANCH  19  24
ATOM     24  C   UNL     1      -1.005   1.109   0.286  1.00  0.00     0.065 A 
ATOM     25  C   UNL     1       2.549  -0.164  -0.240  1.00  0.00     0.044 C 
ATOM     26  C   UNL     1       1.057  -0.133  -0.087  1.00  0.00    -0.049 A 
ATOM     27  C   UNL     1       0.326  -1.326  -0.054  1.00  0.00     0.003 A 
ATOM     28  C   UNL     1       0.380   1.083   0.057  1.00  0.00     0.031 A 
ATOM     29  C   UNL     1      -1.059  -1.302   0.118  1.00  0.00     0.002 A 
ATOM     30  C   UNL     1      -1.727  -0.088   0.292  1.00  0.00     0.028 A 
ENDBRANCH  19  24
ENDBRANCH  15  18
ENDBRANCH   8  14
ENDBRANCH   4   7
ENDBRANCH   2   3
ENDBRANCH   1   2
BRANCH   1  31
ATOM     31  C   UNL     1      -1.435  10.490  -5.988  1.00  0.00     0.118 C 
BRANCH  31  32
ATOM     32  N   UNL     1      -1.170  10.102  -7.371  1.00  0.00    -0.352 N 
ATOM     33  C   UNL     1      -1.127  10.911  -8.492  1.00  0.00     0.251 C 
ATOM     34  H   UNL     1      -1.000   9.144  -7.525  1.00  0.00     0.163 HD
ATOM     35  O   UNL     1      -1.014  10.462  -9.619  1.00  0.00    -0.269 OA
BRANCH  33  36
ATOM     36  C   UNL     1      -1.130  12.363  -8.246  1.00  0.00     0.039 A 
ATOM     37  C   UNL     1       0.101  13.022  -8.331  1.00  0.00     0.014 A 
ATOM     38  C   UNL     1      -2.231  12.945  -7.626  1.00  0.00     0.014 A 
ATOM     39  C   UNL     1       0.288  14.203  -7.622  1.00  0.00     0.010 A 
ATOM     40  C   UNL     1      -2.019  14.076  -6.862  1.00  0.00     0.010 A 
ATOM     41  C   UNL     1      -0.745  14.671  -6.814  1.00  0.00    -0.014 A 
BRANCH  41  42
ATOM     42  C   UNL     1      -0.575  15.716  -5.810  1.00  0.00     0.031 A 
ATOM     43  C   UNL     1      -1.220  17.035  -6.003  1.00  0.00     0.074 A 
ATOM     44  C   UNL     1       0.075  15.451  -4.656  1.00  0.00     0.049 A 
ATOM     45  N   UNL     1      -0.993  18.080  -5.282  1.00  0.00    -0.248 NA
ATOM     46  C   UNL     1      -2.122  17.299  -7.119  1.00  0.00     0.031 C 
ATOM     47  C   UNL     1      -0.024  16.194  -3.404  1.00  0.00     0.029 A 
ATOM     48  N   UNL     1       1.137  14.567  -4.453  1.00  0.00    -0.354 N 
ATOM     49  C   UNL     1      -1.909  19.047  -5.633  1.00  0.00     0.074 A 
ATOM     50  C   UNL     1      -2.491  18.555  -6.856  1.00  0.00     0.031 C 
ATOM     51  C   UNL     1       1.049  15.924  -2.648  1.00  0.00     0.029 A 
ATOM     52  C   UNL     1       1.957  15.130  -3.456  1.00  0.00     0.049 A 
ATOM     53  H   UNL     1       1.284  13.713  -4.918  1.00  0.00     0.167 HD
ATOM     54  C   UNL     1      -2.149  20.070  -4.761  1.00  0.00     0.037 A 
ATOM     55  C   UNL     1       3.256  15.470  -3.705  1.00  0.00     0.037 A 
ATOM     56  C   UNL     1      -1.098  20.124  -3.736  1.00  0.00     0.049 A 
ATOM     57  C   UNL     1       3.564  16.939  -3.522  1.00  0.00     0.074 A 
ATOM     58  C   UNL     1      -1.035  19.734  -2.409  1.00  0.00     0.029 A 
ATOM     59  N   UNL     1       0.213  20.393  -4.125  1.00  0.00    -0.354 N 
ATOM     60  N   UNL     1       2.655  17.872  -3.449  1.00  0.00    -0.248 NA
ATOM     61  C   UNL     1       4.918  17.475  -3.416  1.00  0.00     0.031 C 
ATOM     62  C   UNL     1       0.332  19.694  -2.026  1.00  0.00     0.029 A 
ATOM     63  C   UNL     1       1.099  20.088  -3.110  1.00  0.00     0.049 A 
ATOM     64  H   UNL     1       0.473  20.752  -5.004  1.00  0.00     0.167 HD
ATOM     65  C   UNL     1       3.258  19.099  -3.330  1.00  0.00     0.074 A 
ATOM     66  C   UNL     1       4.676  18.791  -3.279  1.00  0.00     0.031 C 
ATOM     67  C   UNL     1       2.536  20.259  -3.298  1.00  0.00     0.037 A 
BRANCH  54  68
ATOM     68  C   UNL     1      -3.462  20.849  -4.665  1.00  0.00     0.058 A 
ATOM     69  C   UNL     1      -3.773  21.589  -3.497  1.00  0.00     0.135 A 
ATOM     70  C   UNL     1      -4.512  20.824  -5.609  1.00  0.00     0.135 A 
ATOM     71  F   UNL     1      -2.870  21.770  -2.523  1.00  0.00    -0.206 F 
ATOM     72  C   UNL     1      -5.029  22.165  -3.257  1.00  0.00     0.059 A 
ATOM     73  C   UNL     1      -5.775  21.380  -5.389  1.00  0.00     0.059 A 
ATOM     74  F   UNL     1      -4.384  20.274  -6.816  1.00  0.00    -0.206 F 
ATOM     75  C   UNL     1      -6.037  22.031  -4.200  1.00  0.00     0.060 A 
BRANCH  75  76
ATOM     76  S   UNL     1      -7.674  22.706  -3.872  1.00  0.00     0.124 S 
ATOM     77  O   UNL     1      -8.086  21.946  -2.696  1.00  0.00    -0.237 OA
ATOM     78  O   UNL     1      -7.386  24.119  -3.650  1.00  0.00    -0.237 OA
ATOM     79  O   UNL     1      -8.418  22.409  -5.093  1.00  0.00    -0.744 OA
ENDBRANCH  75  76
ENDBRANCH  54  68
BRANCH  55  80
ATOM     80  C   UNL     1       3.928  14.548  -4.660  1.00  0.00     0.058 A 
ATOM     81  C   UNL     1       4.171  13.234  -4.217  1.00  0.00     0.135 A 
ATOM     82  C   UNL     1       3.875  14.771  -6.043  1.00  0.00     0.135 A 
ATOM     83  F   UNL     1       4.254  12.974  -2.901  1.00  0.00    -0.206 F 
ATOM     84  C   UNL     1       4.168  12.158  -5.095  1.00  0.00     0.059 A 
ATOM     85  C   UNL     1       3.880  13.703  -6.944  1.00  0.00     0.059 A 
ATOM     86  F   UNL     1       3.655  16.004  -6.522  1.00  0.00    -0.206 F 
ATOM     87  C   UNL     1       3.943  12.400  -6.448  1.00  0.00     0.060 A 
BRANCH  87  88
ATOM     88  S   UNL     1       3.519  10.984  -7.490  1.00  0.00     0.124 S 
ATOM     89  O   UNL     1       4.691  10.129  -7.337  1.00  0.00    -0.237 OA
ATOM     90  O   UNL     1       2.297  10.503  -6.845  1.00  0.00    -0.237 OA
ATOM     91  O   UNL     1       3.339  11.579  -8.809  1.00  0.00    -0.744 OA
ENDBRANCH  87  88
ENDBRANCH  55  80
BRANCH  67  92
ATOM     92  C   UNL     1       3.101  21.664  -3.364  1.00  0.00     0.058 A 
ATOM     93  C   UNL     1       4.299  22.008  -4.014  1.00  0.00     0.135 A 
ATOM     94  C   UNL     1       2.348  22.758  -2.870  1.00  0.00     0.135 A 
ATOM     95  F   UNL     1       5.050  21.083  -4.630  1.00  0.00    -0.206 F 
ATOM     96  C   UNL     1       4.753  23.327  -4.108  1.00  0.00     0.059 A 
ATOM     97  C   UNL     1       2.753  24.085  -3.002  1.00  0.00     0.059 A 
ATOM     98  F   UNL     1       1.173  22.575  -2.247  1.00  0.00    -0.206 F 
ATOM     99  C   UNL     1       3.973  24.360  -3.601  1.00  0.00     0.060 A 
BRANCH  99 100
ATOM    100  S   UNL     1       4.508  26.073  -3.782  1.00  0.00     0.124 S 
ATOM    101  O   UNL     1       5.185  26.303  -2.510  1.00  0.00    -0.237 OA
ATOM    102  O   UNL     1       5.375  26.024  -4.956  1.00  0.00    -0.237 OA
ATOM    103  O   UNL     1       3.252  26.792  -3.972  1.00  0.00    -0.744 OA
ENDBRANCH  99 100
ENDBRANCH  67  92
ENDBRANCH  41  42
ENDBRANCH  33  36
ENDBRANCH  31  32
ENDBRANCH   1  31
TORSDOF 16
