REMARK SMILES O=C(NCCCNC(=O)[C@]1([NH2+]C2CC2)CC[C@@H](SCCCO)C1)c1ccc(-c2c3nc(c(-c4c(F)cc(S(=O)(=O)[O-])cc4F)c4ccc([nH]4)c(-c4c(F)cc(S(=O)(=O)[O-])cc4F)c4nc(c(-c5c(F)cc(S(=O)(=O)[O-])cc5F)c5ccc2[nH]5)C=C4)C=C3)cc1
REMARK SMILES IDX 6 1 5 2 4 3 3 4 1 5 2 6 24 8 25 9 89 10 26 11 88 12 27 13
REMARK SMILES IDX 28 14 29 15 82 16 30 17 87 18 81 19 83 20 31 21 86 22 80 23
REMARK SMILES IDX 79 24 32 26 66 27 45 28 65 29 46 30 49 31 64 32 84 33 47 34
REMARK SMILES IDX 48 35 63 37 85 38 50 39 33 40 34 41 43 42 35 43 36 44 42 45
REMARK SMILES IDX 44 46 37 47 38 48 39 49 40 50 41 51 67 52 68 53 77 54 69 55
REMARK SMILES IDX 70 56 76 57 78 58 71 59 72 60 73 61 74 62 75 63 51 64 52 65
REMARK SMILES IDX 61 66 53 67 54 68 60 69 62 70 55 71 56 72 57 73 58 74 59 75
REMARK SMILES IDX 7 76 8 77 9 79 10 80 15 81 23 82 16 83 17 84 11 85 12 88
REMARK SMILES IDX 13 89 14 90 18 91 19 92 20 93 21 94 22 95
REMARK H PARENT 3 7 83 25 49 36 7 78 11 86 11 87 22 96
REMARK Flexibility Score: inf
ROOT
ATOM      1  C   UNL     1       6.437   2.201   8.942  1.00  0.00     0.118 C 
ENDROOT
BRANCH   1   2
ATOM      2  C   UNL     1       5.322   3.207   9.171  1.00  0.00     0.042 C 
BRANCH   2   3
ATOM      3  C   UNL     1       4.957   3.276  10.640  1.00  0.00     0.118 C 
BRANCH   3   4
ATOM      4  N   UNL     1       6.040   3.872  11.420  1.00  0.00    -0.352 N 
ATOM      5  O   UNL     1       7.135   5.537  12.465  1.00  0.00    -0.269 OA
ATOM      6  C   UNL     1       6.068   5.061  12.108  1.00  0.00     0.251 C 
ATOM      7  H   UNL     1       6.871   3.345  11.457  1.00  0.00     0.163 HD
BRANCH   6   8
ATOM      8  C   UNL     1       4.793   5.742  12.403  1.00  0.00     0.039 A 
ATOM      9  C   UNL     1       3.674   4.982  12.746  1.00  0.00     0.014 A 
ATOM     10  C   UNL     1       4.712   7.134  12.339  1.00  0.00     0.014 A 
ATOM     11  C   UNL     1       2.438   5.588  12.845  1.00  0.00     0.010 A 
ATOM     12  C   UNL     1       3.488   7.758  12.586  1.00  0.00     0.010 A 
ATOM     13  C   UNL     1       2.340   6.986  12.822  1.00  0.00    -0.014 A 
BRANCH  13  14
ATOM     14  C   UNL     1       1.038   7.599  13.169  1.00  0.00     0.031 A 
ATOM     15  C   UNL     1       0.299   8.464  12.195  1.00  0.00     0.074 A 
ATOM     16  C   UNL     1       0.526   7.323  14.385  1.00  0.00     0.049 A 
ATOM     17  N   UNL     1      -0.842   9.082  12.354  1.00  0.00    -0.248 NA
ATOM     18  C   UNL     1       0.921   8.679  10.879  1.00  0.00     0.031 C 
ATOM     19  C   UNL     1       1.184   6.500  15.408  1.00  0.00     0.029 A 
ATOM     20  N   UNL     1      -0.662   7.677  14.965  1.00  0.00    -0.354 N 
ATOM     21  C   UNL     1      -1.061   9.785  11.176  1.00  0.00     0.074 A 
ATOM     22  C   UNL     1       0.073   9.530  10.315  1.00  0.00     0.031 C 
ATOM     23  C   UNL     1       0.369   6.365  16.460  1.00  0.00     0.029 A 
ATOM     24  C   UNL     1      -0.823   7.168  16.232  1.00  0.00     0.049 A 
ATOM     25  H   UNL     1      -1.335   8.240  14.519  1.00  0.00     0.167 HD
ATOM     26  C   UNL     1      -2.117  10.571  10.855  1.00  0.00     0.037 A 
ATOM     27  C   UNL     1      -1.803   7.356  17.132  1.00  0.00     0.037 A 
ATOM     28  C   UNL     1      -3.241  10.794  11.730  1.00  0.00     0.049 A 
ATOM     29  C   UNL     1      -2.954   8.236  16.753  1.00  0.00     0.074 A 
ATOM     30  C   UNL     1      -4.381  11.541  11.493  1.00  0.00     0.029 A 
ATOM     31  N   UNL     1      -3.362  10.277  13.014  1.00  0.00    -0.354 N 
ATOM     32  N   UNL     1      -3.158   8.876  15.626  1.00  0.00    -0.248 NA
ATOM     33  C   UNL     1      -4.001   8.427  17.760  1.00  0.00     0.031 C 
ATOM     34  C   UNL     1      -5.168  11.516  12.651  1.00  0.00     0.029 A 
ATOM     35  C   UNL     1      -4.545  10.709  13.591  1.00  0.00     0.049 A 
ATOM     36  H   UNL     1      -2.704   9.690  13.450  1.00  0.00     0.167 HD
ATOM     37  C   UNL     1      -4.362   9.546  15.785  1.00  0.00     0.074 A 
ATOM     38  C   UNL     1      -4.851   9.211  17.110  1.00  0.00     0.031 C 
ATOM     39  C   UNL     1      -5.004  10.366  14.916  1.00  0.00     0.037 A 
BRANCH  26  40
ATOM     40  C   UNL     1      -2.088  11.273   9.524  1.00  0.00     0.058 A 
ATOM     41  C   UNL     1      -2.236  10.580   8.311  1.00  0.00     0.135 A 
ATOM     42  C   UNL     1      -1.928  12.667   9.462  1.00  0.00     0.135 A 
ATOM     43  F   UNL     1      -2.377   9.245   8.308  1.00  0.00    -0.206 F 
ATOM     44  C   UNL     1      -2.193  11.239   7.086  1.00  0.00     0.059 A 
ATOM     45  C   UNL     1      -1.910  13.351   8.249  1.00  0.00     0.059 A 
ATOM     46  F   UNL     1      -1.782  13.381  10.589  1.00  0.00    -0.206 F 
ATOM     47  C   UNL     1      -2.026  12.625   7.065  1.00  0.00     0.060 A 
BRANCH  47  48
ATOM     48  S   UNL     1      -1.958  13.465   5.468  1.00  0.00     0.124 S 
ATOM     49  O   UNL     1      -0.637  13.070   4.987  1.00  0.00    -0.237 OA
ATOM     50  O   UNL     1      -3.091  12.879   4.758  1.00  0.00    -0.237 OA
ATOM     51  O   UNL     1      -2.102  14.874   5.817  1.00  0.00    -0.744 OA
ENDBRANCH  47  48
ENDBRANCH  26  40
BRANCH  27  52
ATOM     52  C   UNL     1      -1.695   6.723  18.471  1.00  0.00     0.058 A 
ATOM     53  C   UNL     1      -2.532   5.664  18.845  1.00  0.00     0.135 A 
ATOM     54  C   UNL     1      -0.695   7.119  19.375  1.00  0.00     0.135 A 
ATOM     55  F   UNL     1      -3.500   5.248  18.015  1.00  0.00    -0.206 F 
ATOM     56  C   UNL     1      -2.385   5.020  20.070  1.00  0.00     0.059 A 
ATOM     57  C   UNL     1      -0.509   6.472  20.591  1.00  0.00     0.059 A 
ATOM     58  F   UNL     1       0.150   8.112  19.052  1.00  0.00    -0.206 F 
ATOM     59  C   UNL     1      -1.365   5.428  20.933  1.00  0.00     0.060 A 
BRANCH  59  60
ATOM     60  S   UNL     1      -1.137   4.540  22.488  1.00  0.00     0.124 S 
ATOM     61  O   UNL     1      -2.263   5.031  23.273  1.00  0.00    -0.237 OA
ATOM     62  O   UNL     1      -1.215   3.146  22.061  1.00  0.00    -0.237 OA
ATOM     63  O   UNL     1       0.183   4.977  22.933  1.00  0.00    -0.744 OA
ENDBRANCH  59  60
ENDBRANCH  27  52
BRANCH  39  64
ATOM     64  C   UNL     1      -6.314  10.941  15.372  1.00  0.00     0.058 A 
ATOM     65  C   UNL     1      -6.374  11.959  16.336  1.00  0.00     0.135 A 
ATOM     66  C   UNL     1      -7.518  10.494  14.807  1.00  0.00     0.135 A 
ATOM     67  F   UNL     1      -5.250  12.411  16.914  1.00  0.00    -0.206 F 
ATOM     68  C   UNL     1      -7.588  12.501  16.740  1.00  0.00     0.059 A 
ATOM     69  C   UNL     1      -8.742  11.041  15.177  1.00  0.00     0.059 A 
ATOM     70  F   UNL     1      -7.512   9.525  13.877  1.00  0.00    -0.206 F 
ATOM     71  C   UNL     1      -8.767  12.037  16.152  1.00  0.00     0.060 A 
BRANCH  71  72
ATOM     72  S   UNL     1     -10.334  12.775  16.659  1.00  0.00     0.124 S 
ATOM     73  O   UNL     1     -10.524  12.182  17.978  1.00  0.00    -0.237 OA
ATOM     74  O   UNL     1     -10.027  14.202  16.642  1.00  0.00    -0.237 OA
ATOM     75  O   UNL     1     -11.267  12.329  15.629  1.00  0.00    -0.744 OA
ENDBRANCH  71  72
ENDBRANCH  39  64
ENDBRANCH  13  14
ENDBRANCH   6   8
ENDBRANCH   3   4
ENDBRANCH   2   3
ENDBRANCH   1   2
BRANCH   1  76
ATOM     76  N   UNL     1       5.901   0.891   8.673  1.00  0.00    -0.351 N 
ATOM     77  C   UNL     1       5.677   0.211   7.519  1.00  0.00     0.281 C 
ATOM     78  H   UNL     1       5.649   0.392   9.483  1.00  0.00     0.163 HD
ATOM     79  O   UNL     1       4.939  -0.771   7.668  1.00  0.00    -0.268 OA
BRANCH  77  80
ATOM     80  C   UNL     1       6.259   0.642   6.115  1.00  0.00     0.176 C 
ATOM     81  C   UNL     1       7.728   1.117   6.144  1.00  0.00     0.080 C 
ATOM     82  C   UNL     1       5.455   1.826   5.515  1.00  0.00     0.093 C 
ATOM     83  C   UNL     1       7.771   2.613   5.812  1.00  0.00     0.022 C 
ATOM     84  C   UNL     1       6.330   3.070   5.633  1.00  0.00     0.053 C 
BRANCH  80  85
ATOM     85  N   UNL     1       6.084  -0.500   5.164  1.00  0.00    -0.331 N 
ATOM     86  H   UNL     1       6.300  -0.155   4.229  1.00  0.00     0.347 HD
ATOM     87  H   UNL     1       5.122  -0.809   5.307  1.00  0.00     0.347 HD
BRANCH  85  88
ATOM     88  C   UNL     1       6.897  -1.704   5.386  1.00  0.00     0.183 C 
ATOM     89  C   UNL     1       6.373  -2.905   6.118  1.00  0.00     0.071 C 
ATOM     90  C   UNL     1       6.475  -2.937   4.625  1.00  0.00     0.071 C 
ENDBRANCH  85  88
ENDBRANCH  80  85
BRANCH  84  91
ATOM     91  S   UNL     1       6.107   4.390   4.386  1.00  0.00    -0.158 SA
BRANCH  91  92
ATOM     92  C   UNL     1       6.340   3.568   2.767  1.00  0.00     0.072 C 
BRANCH  92  93
ATOM     93  C   UNL     1       7.795   3.336   2.357  1.00  0.00     0.039 C 
BRANCH  93  94
ATOM     94  C   UNL     1       8.226   1.875   2.424  1.00  0.00     0.157 C 
BRANCH  94  95
ATOM     95  O   UNL     1       7.563   1.095   1.440  1.00  0.00    -0.396 OA
ATOM     96  H   UNL     1       6.606   1.129   1.592  1.00  0.00     0.210 HD
ENDBRANCH  94  95
ENDBRANCH  93  94
ENDBRANCH  92  93
ENDBRANCH  91  92
ENDBRANCH  84  91
ENDBRANCH  77  80
ENDBRANCH   1  76
TORSDOF 20
