REMARK SMILES [NH3+][C@]1(C(=O)NCCCNC(=O)c2ccc(-c3c4nc(c(-c5c(F)cc(S(=O)(=O)[O-])cc5F)c5ccc([nH]5)c(-c5c(F)cc(S(=O)(=O)[O-])cc5F)c5nc(c(-c6c(F)cc(S(=O)(=O)[O-])cc6F)c6ccc3[nH]6)C=C5)C=C4)cc2)CCC[C@@H]1CCOc1ccc(CO)cc1
REMARK SMILES IDX 3 1 4 2 5 3 2 5 78 6 81 7 79 8 80 9 1 10 82 14 83 15 84 16
REMARK SMILES IDX 85 17 86 18 92 19 87 20 91 21 88 22 89 23 90 24 6 26 7 27
REMARK SMILES IDX 8 28 9 29 10 30 11 32 12 33 13 34 77 35 14 36 76 37 15 38
REMARK SMILES IDX 16 39 17 40 70 41 18 42 75 43 69 44 71 45 19 46 74 47 68 48
REMARK SMILES IDX 67 49 20 51 54 52 33 53 53 54 34 55 37 56 52 57 72 58 35 59
REMARK SMILES IDX 36 60 51 62 73 63 38 64 21 65 22 66 31 67 23 68 24 69 30 70
REMARK SMILES IDX 32 71 25 72 26 73 27 74 28 75 29 76 55 77 56 78 65 79 57 80
REMARK SMILES IDX 58 81 64 82 66 83 59 84 60 85 61 86 62 87 63 88 39 89 40 90
REMARK SMILES IDX 49 91 41 92 42 93 48 94 50 95 43 96 44 97 45 98 46 99 47 100
REMARK H PARENT 5 4 1 11 1 12 1 13 90 25 9 31 71 50 37 61
REMARK Flexibility Score: inf
ROOT
ATOM      1  C   UNL     1       0.888   0.746   1.056  1.00  0.00     0.281 C 
ATOM      2  O   UNL     1       0.159   0.583   2.038  1.00  0.00    -0.268 OA
ATOM      3  N   UNL     1       2.217   0.483   1.246  1.00  0.00    -0.351 N 
ATOM      4  H   UNL     1       2.427  -0.082   2.024  1.00  0.00     0.163 HD
ENDROOT
BRANCH   1   5
ATOM      5  C   UNL     1       0.324   0.927  -0.405  1.00  0.00     0.176 C 
ATOM      6  C   UNL     1      -1.192   1.259  -0.307  1.00  0.00     0.079 C 
ATOM      7  C   UNL     1       0.939   2.086  -1.262  1.00  0.00     0.064 C 
ATOM      8  C   UNL     1      -1.457   2.391  -1.279  1.00  0.00     0.008 C 
ATOM      9  C   UNL     1      -0.163   3.172  -1.259  1.00  0.00     0.011 C 
BRANCH   5  10
ATOM     10  N   UNL     1       0.498  -0.410  -0.973  1.00  0.00    -0.345 N 
ATOM     11  H   UNL     1       0.162  -0.417  -1.936  1.00  0.00     0.345 HD
ATOM     12  H   UNL     1      -0.032  -1.085  -0.423  1.00  0.00     0.345 HD
ATOM     13  H   UNL     1       1.487  -0.660  -0.957  1.00  0.00     0.345 HD
ENDBRANCH   5  10
BRANCH   7  14
ATOM     14  C   UNL     1       1.436   1.905  -2.740  1.00  0.00     0.052 C 
BRANCH  14  15
ATOM     15  C   UNL     1       2.118   0.621  -3.254  1.00  0.00     0.230 C 
BRANCH  15  16
ATOM     16  O   UNL     1       1.468   0.061  -4.424  1.00  0.00    -0.494 OA
BRANCH  16  17
ATOM     17  C   UNL     1       0.321  -0.606  -4.084  1.00  0.00     0.119 A 
ATOM     18  C   UNL     1       0.366  -1.914  -3.608  1.00  0.00     0.047 A 
ATOM     19  C   UNL     1      -0.891   0.070  -4.168  1.00  0.00     0.047 A 
ATOM     20  C   UNL     1      -0.781  -2.471  -3.028  1.00  0.00     0.010 A 
ATOM     21  C   UNL     1      -2.028  -0.475  -3.574  1.00  0.00     0.010 A 
ATOM     22  C   UNL     1      -1.963  -1.720  -2.933  1.00  0.00    -0.022 A 
BRANCH  22  23
ATOM     23  C   UNL     1      -3.105  -2.181  -2.065  1.00  0.00     0.191 C 
BRANCH  23  24
ATOM     24  O   UNL     1      -4.236  -2.552  -2.835  1.00  0.00    -0.392 OA
ATOM     25  H   UNL     1      -4.547  -1.786  -3.342  1.00  0.00     0.211 HD
ENDBRANCH  23  24
ENDBRANCH  22  23
ENDBRANCH  16  17
ENDBRANCH  15  16
ENDBRANCH  14  15
ENDBRANCH   7  14
ENDBRANCH   1   5
BRANCH   3  26
ATOM     26  C   UNL     1       3.359   0.914   0.468  1.00  0.00     0.118 C 
BRANCH  26  27
ATOM     27  C   UNL     1       3.786   2.304   0.925  1.00  0.00     0.042 C 
BRANCH  27  28
ATOM     28  C   UNL     1       4.396   2.273   2.313  1.00  0.00     0.118 C 
BRANCH  28  29
ATOM     29  N   UNL     1       5.712   1.656   2.308  1.00  0.00    -0.352 N 
ATOM     30  C   UNL     1       6.857   2.127   2.908  1.00  0.00     0.251 C 
ATOM     31  H   UNL     1       5.794   0.806   1.819  1.00  0.00     0.163 HD
ATOM     32  O   UNL     1       7.941   1.632   2.660  1.00  0.00    -0.269 OA
BRANCH  30  33
ATOM     33  C   UNL     1       6.724   3.266   3.839  1.00  0.00     0.039 A 
ATOM     34  C   UNL     1       7.545   4.381   3.673  1.00  0.00     0.014 A 
ATOM     35  C   UNL     1       5.728   3.246   4.820  1.00  0.00     0.014 A 
ATOM     36  C   UNL     1       7.338   5.503   4.476  1.00  0.00     0.010 A 
ATOM     37  C   UNL     1       5.463   4.395   5.548  1.00  0.00     0.010 A 
ATOM     38  C   UNL     1       6.281   5.526   5.401  1.00  0.00    -0.014 A 
BRANCH  38  39
ATOM     39  C   UNL     1       6.045   6.691   6.286  1.00  0.00     0.031 A 
ATOM     40  C   UNL     1       6.163   6.505   7.776  1.00  0.00     0.074 A 
ATOM     41  C   UNL     1       5.672   7.876   5.765  1.00  0.00     0.049 A 
ATOM     42  N   UNL     1       5.870   7.337   8.739  1.00  0.00    -0.248 NA
ATOM     43  C   UNL     1       6.637   5.189   8.245  1.00  0.00     0.031 C 
ATOM     44  C   UNL     1       5.491   8.160   4.339  1.00  0.00     0.029 A 
ATOM     45  N   UNL     1       5.368   9.064   6.379  1.00  0.00    -0.354 N 
ATOM     46  C   UNL     1       6.110   6.644   9.920  1.00  0.00     0.074 A 
ATOM     47  C   UNL     1       6.499   5.301   9.557  1.00  0.00     0.031 C 
ATOM     48  C   UNL     1       5.133   9.446   4.188  1.00  0.00     0.029 A 
ATOM     49  C   UNL     1       5.018  10.066   5.505  1.00  0.00     0.049 A 
ATOM     50  H   UNL     1       5.398   9.188   7.355  1.00  0.00     0.167 HD
ATOM     51  C   UNL     1       6.051   7.098  11.193  1.00  0.00     0.037 A 
ATOM     52  C   UNL     1       4.640  11.336   5.745  1.00  0.00     0.037 A 
ATOM     53  C   UNL     1       5.706   8.449  11.541  1.00  0.00     0.049 A 
ATOM     54  C   UNL     1       4.574  11.813   7.174  1.00  0.00     0.074 A 
ATOM     55  C   UNL     1       5.634   9.024  12.797  1.00  0.00     0.029 A 
ATOM     56  N   UNL     1       5.395   9.442  10.624  1.00  0.00    -0.354 N 
ATOM     57  N   UNL     1       4.829  11.151   8.278  1.00  0.00    -0.248 NA
ATOM     58  C   UNL     1       4.175  13.211   7.391  1.00  0.00     0.031 C 
ATOM     59  C   UNL     1       5.257  10.361  12.641  1.00  0.00     0.029 A 
ATOM     60  C   UNL     1       5.135  10.628  11.286  1.00  0.00     0.049 A 
ATOM     61  H   UNL     1       5.363   9.321   9.648  1.00  0.00     0.167 HD
ATOM     62  C   UNL     1       4.664  12.063   9.314  1.00  0.00     0.074 A 
ATOM     63  C   UNL     1       4.292  13.323   8.706  1.00  0.00     0.031 C 
ATOM     64  C   UNL     1       4.807  11.878  10.650  1.00  0.00     0.037 A 
BRANCH  51  65
ATOM     65  C   UNL     1       6.404   6.137  12.294  1.00  0.00     0.058 A 
ATOM     66  C   UNL     1       7.724   5.697  12.483  1.00  0.00     0.135 A 
ATOM     67  C   UNL     1       5.427   5.679  13.192  1.00  0.00     0.135 A 
ATOM     68  F   UNL     1       8.694   6.086  11.639  1.00  0.00    -0.206 F 
ATOM     69  C   UNL     1       8.061   4.823  13.509  1.00  0.00     0.059 A 
ATOM     70  C   UNL     1       5.746   4.826  14.245  1.00  0.00     0.059 A 
ATOM     71  F   UNL     1       4.148   6.062  13.053  1.00  0.00    -0.206 F 
ATOM     72  C   UNL     1       7.065   4.395  14.388  1.00  0.00     0.060 A 
BRANCH  72  73
ATOM     73  S   UNL     1       7.527   3.283  15.732  1.00  0.00     0.124 S 
ATOM     74  O   UNL     1       7.762   2.036  15.009  1.00  0.00    -0.237 OA
ATOM     75  O   UNL     1       8.715   3.931  16.278  1.00  0.00    -0.237 OA
ATOM     76  O   UNL     1       6.355   3.293  16.601  1.00  0.00    -0.744 OA
ENDBRANCH  72  73
ENDBRANCH  51  65
BRANCH  52  77
ATOM     77  C   UNL     1       4.314  12.258   4.623  1.00  0.00     0.058 A 
ATOM     78  C   UNL     1       5.136  13.359   4.336  1.00  0.00     0.135 A 
ATOM     79  C   UNL     1       3.163  12.083   3.841  1.00  0.00     0.135 A 
ATOM     80  F   UNL     1       6.248  13.570   5.055  1.00  0.00    -0.206 F 
ATOM     81  C   UNL     1       4.806  14.278   3.345  1.00  0.00     0.059 A 
ATOM     82  C   UNL     1       2.826  12.972   2.825  1.00  0.00     0.059 A 
ATOM     83  F   UNL     1       2.354  11.033   4.057  1.00  0.00    -0.206 F 
ATOM     84  C   UNL     1       3.643  14.080   2.599  1.00  0.00     0.060 A 
BRANCH  84  85
ATOM     85  S   UNL     1       3.218  15.281   1.319  1.00  0.00     0.124 S 
ATOM     86  O   UNL     1       2.743  16.404   2.119  1.00  0.00    -0.237 OA
ATOM     87  O   UNL     1       4.496  15.474   0.641  1.00  0.00    -0.237 OA
ATOM     88  O   UNL     1       2.200  14.587   0.536  1.00  0.00    -0.744 OA
ENDBRANCH  84  85
ENDBRANCH  52  77
BRANCH  64  89
ATOM     89  C   UNL     1       4.633  13.075  11.539  1.00  0.00     0.058 A 
ATOM     90  C   UNL     1       3.368  13.616  11.812  1.00  0.00     0.135 A 
ATOM     91  C   UNL     1       5.746  13.640  12.184  1.00  0.00     0.135 A 
ATOM     92  F   UNL     1       2.275  13.114  11.216  1.00  0.00    -0.206 F 
ATOM     93  C   UNL     1       3.213  14.688  12.684  1.00  0.00     0.059 A 
ATOM     94  C   UNL     1       5.611  14.694  13.080  1.00  0.00     0.059 A 
ATOM     95  F   UNL     1       6.976  13.150  11.963  1.00  0.00    -0.206 F 
ATOM     96  C   UNL     1       4.340  15.217  13.317  1.00  0.00     0.060 A 
BRANCH  96  97
ATOM     97  S   UNL     1       4.118  16.573  14.486  1.00  0.00     0.124 S 
ATOM     98  O   UNL     1       3.854  17.694  13.590  1.00  0.00    -0.237 OA
ATOM     99  O   UNL     1       2.983  16.116  15.282  1.00  0.00    -0.237 OA
ATOM    100  O   UNL     1       5.393  16.622  15.196  1.00  0.00    -0.744 OA
ENDBRANCH  96  97
ENDBRANCH  64  89
ENDBRANCH  38  39
ENDBRANCH  30  33
ENDBRANCH  28  29
ENDBRANCH  27  28
ENDBRANCH  26  27
ENDBRANCH   3  26
TORSDOF 20
