REMARK SMILES C[C@H](Oc1cc2oc(=O)cc(-c3ccccc3)c2cc1Cl)C(=O)NCCCNC(=O)c1ccc(-c2c3nc(c(-c4c(F)cc(S(=O)(=O)[O-])cc4F)c4ccc([nH]4)c(-c4c(F)cc(S(=O)(=O)[O-])cc4F)c4nc(c(-c5c(F)cc(S(=O)(=O)[O-])cc5F)c5ccc2[nH]5)C=C4)C=C3)cc1
REMARK SMILES IDX 26 1 25 2 24 3 22 4 23 5 2 7 1 8 3 9 4 10 5 11 20 12 6 13
REMARK SMILES IDX 19 14 21 15 7 16 18 17 8 18 11 19 9 20 10 21 12 22 13 23
REMARK SMILES IDX 17 24 14 25 16 26 15 27 27 28 28 29 29 30 30 32 31 33 32 34
REMARK SMILES IDX 96 35 33 36 95 37 34 38 35 39 36 40 89 41 37 42 94 43 88 44
REMARK SMILES IDX 90 45 38 46 93 47 87 48 86 49 39 51 73 52 52 53 72 54 53 55
REMARK SMILES IDX 56 56 71 57 91 58 54 59 55 60 70 62 92 63 57 64 40 65 41 66
REMARK SMILES IDX 50 67 42 68 43 69 49 70 51 71 44 72 45 73 46 74 47 75 48 76
REMARK SMILES IDX 74 77 75 78 84 79 76 80 77 81 83 82 85 83 78 84 79 85 80 86
REMARK SMILES IDX 81 87 82 88 58 89 59 90 68 91 60 92 61 93 67 94 69 95 62 96
REMARK SMILES IDX 63 97 64 98 65 99 66 100
REMARK H PARENT 24 6 28 31 90 50 56 61
REMARK Flexibility Score: inf
ROOT
ATOM      1  C   UNL     1      -1.435  -2.067   1.552  1.00  0.00     0.042 C 
ENDROOT
BRANCH   1   2
ATOM      2  C   UNL     1      -1.108  -2.249   0.079  1.00  0.00     0.118 C 
BRANCH   2   3
ATOM      3  N   UNL     1      -1.660  -1.193  -0.756  1.00  0.00    -0.353 N 
ATOM      4  C   UNL     1      -1.006  -0.298  -1.562  1.00  0.00     0.260 C 
ATOM      5  O   UNL     1      -1.679   0.508  -2.209  1.00  0.00    -0.271 OA
ATOM      6  H   UNL     1      -2.641  -1.110  -0.739  1.00  0.00     0.163 HD
BRANCH   4   7
ATOM      7  C   UNL     1       0.523  -0.362  -1.705  1.00  0.00     0.258 C 
ATOM      8  C   UNL     1       0.884  -1.688  -2.387  1.00  0.00     0.064 C 
BRANCH   7   9
ATOM      9  O   UNL     1       1.033  -0.151  -0.386  1.00  0.00    -0.479 OA
BRANCH   9  10
ATOM     10  C   UNL     1       2.362  -0.201  -0.090  1.00  0.00     0.142 A 
ATOM     11  C   UNL     1       3.372  -0.458  -1.008  1.00  0.00     0.096 A 
ATOM     12  C   UNL     1       2.714  -0.035   1.261  1.00  0.00     0.084 A 
ATOM     13  C   UNL     1       4.675  -0.683  -0.554  1.00  0.00     0.142 A 
ATOM     14  C   UNL     1       4.036  -0.205   1.694  1.00  0.00     0.037 A 
ATOM     15  Cl  UNL     1       1.526   0.365   2.454  1.00  0.00    -0.080 Cl
ATOM     16  O   UNL     1       5.606  -1.069  -1.534  1.00  0.00    -0.423 OA
ATOM     17  C   UNL     1       5.031  -0.580   0.789  1.00  0.00     0.027 A 
ATOM     18  C   UNL     1       6.885  -1.458  -1.181  1.00  0.00     0.336 A 
ATOM     19  C   UNL     1       6.416  -0.880   1.190  1.00  0.00    -0.000 A 
ATOM     20  O   UNL     1       7.688  -1.879  -2.000  1.00  0.00    -0.246 OA
ATOM     21  C   UNL     1       7.255  -1.318   0.235  1.00  0.00     0.103 A 
BRANCH  19  22
ATOM     22  C   UNL     1       6.979  -0.787   2.555  1.00  0.00    -0.017 A 
ATOM     23  C   UNL     1       8.014   0.120   2.831  1.00  0.00     0.009 A 
ATOM     24  C   UNL     1       6.491  -1.597   3.589  1.00  0.00     0.009 A 
ATOM     25  C   UNL     1       8.551   0.211   4.116  1.00  0.00     0.001 A 
ATOM     26  C   UNL     1       7.023  -1.495   4.877  1.00  0.00     0.001 A 
ATOM     27  C   UNL     1       8.053  -0.593   5.138  1.00  0.00     0.000 A 
ENDBRANCH  19  22
ENDBRANCH   9  10
ENDBRANCH   7   9
ENDBRANCH   4   7
ENDBRANCH   2   3
ENDBRANCH   1   2
BRANCH   1  28
ATOM     28  C   UNL     1      -2.913  -2.202   1.887  1.00  0.00     0.118 C 
BRANCH  28  29
ATOM     29  N   UNL     1      -3.449  -3.516   1.563  1.00  0.00    -0.352 N 
ATOM     30  C   UNL     1      -4.095  -4.432   2.356  1.00  0.00     0.251 C 
ATOM     31  H   UNL     1      -3.328  -3.793   0.626  1.00  0.00     0.163 HD
ATOM     32  O   UNL     1      -4.311  -5.557   1.912  1.00  0.00    -0.269 OA
BRANCH  30  33
ATOM     33  C   UNL     1      -4.511  -4.086   3.734  1.00  0.00     0.039 A 
ATOM     34  C   UNL     1      -4.399  -5.058   4.732  1.00  0.00     0.014 A 
ATOM     35  C   UNL     1      -5.035  -2.829   4.045  1.00  0.00     0.014 A 
ATOM     36  C   UNL     1      -4.756  -4.748   6.046  1.00  0.00     0.010 A 
ATOM     37  C   UNL     1      -5.303  -2.493   5.370  1.00  0.00     0.010 A 
ATOM     38  C   UNL     1      -5.179  -3.452   6.384  1.00  0.00    -0.014 A 
BRANCH  38  39
ATOM     39  C   UNL     1      -5.500  -3.094   7.790  1.00  0.00     0.031 A 
ATOM     40  C   UNL     1      -6.894  -2.665   8.168  1.00  0.00     0.074 A 
ATOM     41  C   UNL     1      -4.524  -3.113   8.720  1.00  0.00     0.049 A 
ATOM     42  N   UNL     1      -7.357  -2.299   9.335  1.00  0.00    -0.248 NA
ATOM     43  C   UNL     1      -7.893  -2.614   7.087  1.00  0.00     0.031 C 
ATOM     44  C   UNL     1      -3.121  -3.449   8.466  1.00  0.00     0.029 A 
ATOM     45  N   UNL     1      -4.560  -2.842  10.064  1.00  0.00    -0.354 N 
ATOM     46  C   UNL     1      -8.690  -1.964   9.129  1.00  0.00     0.074 A 
ATOM     47  C   UNL     1      -8.947  -2.114   7.713  1.00  0.00     0.031 C 
ATOM     48  C   UNL     1      -2.439  -3.396   9.621  1.00  0.00     0.029 A 
ATOM     49  C   UNL     1      -3.345  -2.990  10.691  1.00  0.00     0.049 A 
ATOM     50  H   UNL     1      -5.379  -2.567  10.537  1.00  0.00     0.167 HD
ATOM     51  C   UNL     1      -9.623  -1.594  10.039  1.00  0.00     0.037 A 
ATOM     52  C   UNL     1      -2.999  -2.821  11.982  1.00  0.00     0.037 A 
ATOM     53  C   UNL     1      -9.368  -1.473  11.450  1.00  0.00     0.049 A 
ATOM     54  C   UNL     1      -4.057  -2.428  12.976  1.00  0.00     0.074 A 
ATOM     55  C   UNL     1     -10.258  -1.164  12.463  1.00  0.00     0.029 A 
ATOM     56  N   UNL     1      -8.130  -1.657  12.050  1.00  0.00    -0.354 N 
ATOM     57  N   UNL     1      -5.330  -2.185  12.774  1.00  0.00    -0.248 NA
ATOM     58  C   UNL     1      -3.634  -2.296  14.377  1.00  0.00     0.031 C 
ATOM     59  C   UNL     1      -9.551  -1.118  13.670  1.00  0.00     0.029 A 
ATOM     60  C   UNL     1      -8.230  -1.449  13.416  1.00  0.00     0.049 A 
ATOM     61  H   UNL     1      -7.302  -1.898  11.575  1.00  0.00     0.167 HD
ATOM     62  C   UNL     1      -5.866  -1.899  14.024  1.00  0.00     0.074 A 
ATOM     63  C   UNL     1      -4.782  -2.014  14.978  1.00  0.00     0.031 C 
ATOM     64  C   UNL     1      -7.141  -1.571  14.353  1.00  0.00     0.037 A 
BRANCH  51  65
ATOM     65  C   UNL     1     -11.012  -1.303   9.535  1.00  0.00     0.058 A 
ATOM     66  C   UNL     1     -11.849  -2.321   9.052  1.00  0.00     0.135 A 
ATOM     67  C   UNL     1     -11.526   0.004   9.567  1.00  0.00     0.135 A 
ATOM     68  F   UNL     1     -11.405  -3.587   8.983  1.00  0.00    -0.206 F 
ATOM     69  C   UNL     1     -13.133  -2.052   8.590  1.00  0.00     0.059 A 
ATOM     70  C   UNL     1     -12.819   0.292   9.138  1.00  0.00     0.059 A 
ATOM     71  F   UNL     1     -10.771   1.017  10.020  1.00  0.00    -0.206 F 
ATOM     72  C   UNL     1     -13.610  -0.741   8.637  1.00  0.00     0.060 A 
BRANCH  72  73
ATOM     73  S   UNL     1     -15.281  -0.410   8.040  1.00  0.00     0.124 S 
ATOM     74  O   UNL     1     -15.105  -0.537   6.596  1.00  0.00    -0.237 OA
ATOM     75  O   UNL     1     -16.056  -1.468   8.679  1.00  0.00    -0.237 OA
ATOM     76  O   UNL     1     -15.553   0.941   8.522  1.00  0.00    -0.744 OA
ENDBRANCH  72  73
ENDBRANCH  51  65
BRANCH  52  77
ATOM     77  C   UNL     1      -1.594  -3.056  12.411  1.00  0.00     0.058 A 
ATOM     78  C   UNL     1      -1.257  -4.166  13.200  1.00  0.00     0.135 A 
ATOM     79  C   UNL     1      -0.560  -2.187  12.031  1.00  0.00     0.135 A 
ATOM     80  F   UNL     1      -2.211  -5.024  13.594  1.00  0.00    -0.206 F 
ATOM     81  C   UNL     1       0.052  -4.398  13.612  1.00  0.00     0.059 A 
ATOM     82  C   UNL     1       0.760  -2.412  12.408  1.00  0.00     0.059 A 
ATOM     83  F   UNL     1      -0.827  -1.121  11.260  1.00  0.00    -0.206 F 
ATOM     84  C   UNL     1       1.055  -3.515  13.208  1.00  0.00     0.060 A 
BRANCH  84  85
ATOM     85  S   UNL     1       2.758  -3.851  13.705  1.00  0.00     0.124 S 
ATOM     86  O   UNL     1       2.729  -3.490  15.117  1.00  0.00    -0.237 OA
ATOM     87  O   UNL     1       2.888  -5.275  13.411  1.00  0.00    -0.237 OA
ATOM     88  O   UNL     1       3.539  -2.969  12.843  1.00  0.00    -0.744 OA
ENDBRANCH  84  85
ENDBRANCH  52  77
BRANCH  64  89
ATOM     89  C   UNL     1      -7.439  -1.345  15.810  1.00  0.00     0.058 A 
ATOM     90  C   UNL     1      -6.981  -0.207  16.491  1.00  0.00     0.135 A 
ATOM     91  C   UNL     1      -8.222  -2.267  16.525  1.00  0.00     0.135 A 
ATOM     92  F   UNL     1      -6.225   0.703  15.856  1.00  0.00    -0.206 F 
ATOM     93  C   UNL     1      -7.260  -0.006  17.839  1.00  0.00     0.059 A 
ATOM     94  C   UNL     1      -8.537  -2.071  17.866  1.00  0.00     0.059 A 
ATOM     95  F   UNL     1      -8.695  -3.367  15.919  1.00  0.00    -0.206 F 
ATOM     96  C   UNL     1      -8.038  -0.946  18.519  1.00  0.00     0.060 A 
BRANCH  96  97
ATOM     97  S   UNL     1      -8.404  -0.667  20.264  1.00  0.00     0.124 S 
ATOM     98  O   UNL     1      -7.127  -0.994  20.888  1.00  0.00    -0.237 OA
ATOM     99  O   UNL     1      -8.777   0.744  20.285  1.00  0.00    -0.237 OA
ATOM    100  O   UNL     1      -9.493  -1.601  20.535  1.00  0.00    -0.744 OA
ENDBRANCH  96  97
ENDBRANCH  64  89
ENDBRANCH  38  39
ENDBRANCH  30  33
ENDBRANCH  28  29
ENDBRANCH   1  28
TORSDOF 16
