REMARK SMILES CCN(Cc1ccccn1)C(=O)[C@H]([NH3+])CCC(=O)NCCCNC(=O)c1ccc(-c2c3nc(c(-c4c(F)cc(S(=O)(=O)[O-])cc4F)c4ccc([nH]4)c(-c4c(F)cc(S(=O)(=O)[O-])cc4F)c4nc(c(-c5c(F)cc(S(=O)(=O)[O-])cc5F)c5ccc2[nH]5)C=C4)C=C3)cc1
REMARK SMILES IDX 17 1 18 2 19 3 16 5 15 6 13 7 11 8 12 9 3 10 2 11 1 12 4 13
REMARK SMILES IDX 5 14 6 15 10 16 7 17 9 18 8 19 14 20 20 24 21 25 22 26 23 27
REMARK SMILES IDX 24 28 25 30 26 31 27 32 91 33 28 34 90 35 29 36 30 37 31 38
REMARK SMILES IDX 84 39 32 40 89 41 83 42 85 43 33 44 88 45 82 46 81 47 34 49
REMARK SMILES IDX 68 50 47 51 67 52 48 53 51 54 66 55 86 56 49 57 50 58 65 60
REMARK SMILES IDX 87 61 52 62 35 63 36 64 45 65 37 66 38 67 44 68 46 69 39 70
REMARK SMILES IDX 40 71 41 72 42 73 43 74 69 75 70 76 79 77 71 78 72 79 78 80
REMARK SMILES IDX 80 81 73 82 74 83 75 84 76 85 77 86 53 87 54 88 63 89 55 90
REMARK SMILES IDX 56 91 62 92 64 93 57 94 58 95 59 96 60 97 61 98
REMARK H PARENT 19 4 14 21 14 22 14 23 23 29 85 48 51 59
REMARK Flexibility Score: inf
ROOT
ATOM      1  C   UNL     1       4.518  -3.859   3.107  1.00  0.00     0.220 C 
ATOM      2  O   UNL     1       5.127  -4.477   3.983  1.00  0.00    -0.275 OA
ATOM      3  N   UNL     1       5.257  -3.135   2.223  1.00  0.00    -0.356 N 
ATOM      4  H   UNL     1       6.223  -3.153   2.408  1.00  0.00     0.163 HD
ENDROOT
BRANCH   1   5
ATOM      5  C   UNL     1       3.004  -3.878   3.064  1.00  0.00     0.106 C 
BRANCH   5   6
ATOM      6  C   UNL     1       2.385  -3.029   4.185  1.00  0.00     0.085 C 
BRANCH   6   7
ATOM      7  C   UNL     1       2.546  -1.524   3.956  1.00  0.00     0.271 C 
BRANCH   7   8
ATOM      8  C   UNL     1       2.154  -0.686   5.196  1.00  0.00     0.281 C 
ATOM      9  O   UNL     1       1.112  -0.967   5.799  1.00  0.00    -0.268 OA
BRANCH   8  10
ATOM     10  N   UNL     1       2.873   0.477   5.458  1.00  0.00    -0.332 N 
BRANCH  10  11
ATOM     11  C   UNL     1       2.159   1.554   6.144  1.00  0.00     0.116 C 
ATOM     12  C   UNL     1       1.192   2.243   5.181  1.00  0.00     0.027 C 
ENDBRANCH  10  11
BRANCH  10  13
ATOM     13  C   UNL     1       4.208   0.809   4.936  1.00  0.00     0.175 C 
BRANCH  13  14
ATOM     14  C   UNL     1       5.372   0.130   5.646  1.00  0.00     0.060 A 
ATOM     15  C   UNL     1       5.895  -1.079   5.189  1.00  0.00     0.026 A 
ATOM     16  N   UNL     1       5.938   0.778   6.692  1.00  0.00    -0.259 NA
ATOM     17  C   UNL     1       7.019  -1.634   5.794  1.00  0.00     0.004 A 
ATOM     18  C   UNL     1       7.029   0.218   7.271  1.00  0.00     0.111 A 
ATOM     19  C   UNL     1       7.605  -0.970   6.856  1.00  0.00     0.020 A 
ENDBRANCH  13  14
ENDBRANCH  10  13
ENDBRANCH   8  10
ENDBRANCH   7   8
BRANCH   7  20
ATOM     20  N   UNL     1       1.717  -1.048   2.823  1.00  0.00    -0.347 N 
ATOM     21  H   UNL     1       0.731  -1.187   3.042  1.00  0.00     0.345 HD
ATOM     22  H   UNL     1       1.956  -1.575   1.983  1.00  0.00     0.345 HD
ATOM     23  H   UNL     1       1.895  -0.057   2.665  1.00  0.00     0.345 HD
ENDBRANCH   7  20
ENDBRANCH   6   7
ENDBRANCH   5   6
ENDBRANCH   1   5
BRANCH   3  24
ATOM     24  C   UNL     1       4.899  -2.338   1.057  1.00  0.00     0.117 C 
BRANCH  24  25
ATOM     25  C   UNL     1       5.032  -0.821   1.249  1.00  0.00     0.042 C 
BRANCH  25  26
ATOM     26  C   UNL     1       6.372  -0.316   1.801  1.00  0.00     0.118 C 
BRANCH  26  27
ATOM     27  N   UNL     1       7.202   0.262   0.768  1.00  0.00    -0.352 N 
ATOM     28  C   UNL     1       7.825   1.484   0.697  1.00  0.00     0.251 C 
ATOM     29  H   UNL     1       7.345  -0.317  -0.015  1.00  0.00     0.163 HD
ATOM     30  O   UNL     1       8.295   1.813  -0.394  1.00  0.00    -0.269 OA
BRANCH  28  31
ATOM     31  C   UNL     1       7.960   2.417   1.854  1.00  0.00     0.039 A 
ATOM     32  C   UNL     1       7.990   3.789   1.565  1.00  0.00     0.014 A 
ATOM     33  C   UNL     1       8.204   2.006   3.170  1.00  0.00     0.014 A 
ATOM     34  C   UNL     1       8.289   4.728   2.559  1.00  0.00     0.010 A 
ATOM     35  C   UNL     1       8.459   2.955   4.180  1.00  0.00     0.010 A 
ATOM     36  C   UNL     1       8.544   4.325   3.879  1.00  0.00    -0.014 A 
BRANCH  36  37
ATOM     37  C   UNL     1       8.956   5.350   4.887  1.00  0.00     0.031 A 
ATOM     38  C   UNL     1      10.376   5.409   5.399  1.00  0.00     0.074 A 
ATOM     39  C   UNL     1       8.079   6.291   5.295  1.00  0.00     0.049 A 
ATOM     40  N   UNL     1      10.950   6.321   6.147  1.00  0.00    -0.248 NA
ATOM     41  C   UNL     1      11.264   4.297   5.031  1.00  0.00     0.031 C 
ATOM     42  C   UNL     1       6.668   6.348   4.914  1.00  0.00     0.029 A 
ATOM     43  N   UNL     1       8.251   7.391   6.102  1.00  0.00    -0.354 N 
ATOM     44  C   UNL     1      12.263   5.900   6.330  1.00  0.00     0.074 A 
ATOM     45  C   UNL     1      12.386   4.623   5.658  1.00  0.00     0.031 C 
ATOM     46  C   UNL     1       6.110   7.442   5.459  1.00  0.00     0.029 A 
ATOM     47  C   UNL     1       7.118   8.161   6.236  1.00  0.00     0.049 A 
ATOM     48  H   UNL     1       9.104   7.608   6.542  1.00  0.00     0.167 HD
ATOM     49  C   UNL     1      13.281   6.523   6.976  1.00  0.00     0.037 A 
ATOM     50  C   UNL     1       6.913   9.322   6.891  1.00  0.00     0.037 A 
ATOM     51  C   UNL     1      13.173   7.798   7.641  1.00  0.00     0.049 A 
ATOM     52  C   UNL     1       8.060  10.004   7.590  1.00  0.00     0.074 A 
ATOM     53  C   UNL     1      14.164   8.519   8.288  1.00  0.00     0.029 A 
ATOM     54  N   UNL     1      12.009   8.542   7.751  1.00  0.00    -0.354 N 
ATOM     55  N   UNL     1       9.311   9.624   7.687  1.00  0.00    -0.248 NA
ATOM     56  C   UNL     1       7.769  11.287   8.248  1.00  0.00     0.031 C 
ATOM     57  C   UNL     1      13.591   9.681   8.820  1.00  0.00     0.029 A 
ATOM     58  C   UNL     1      12.253   9.706   8.465  1.00  0.00     0.049 A 
ATOM     59  H   UNL     1      11.136   8.283   7.377  1.00  0.00     0.167 HD
ATOM     60  C   UNL     1       9.963  10.637   8.386  1.00  0.00     0.074 A 
ATOM     61  C   UNL     1       8.970  11.649   8.679  1.00  0.00     0.031 C 
ATOM     62  C   UNL     1      11.268  10.719   8.748  1.00  0.00     0.037 A 
BRANCH  49  63
ATOM     63  C   UNL     1      14.620   5.834   6.992  1.00  0.00     0.058 A 
ATOM     64  C   UNL     1      15.416   5.749   5.839  1.00  0.00     0.135 A 
ATOM     65  C   UNL     1      15.133   5.291   8.182  1.00  0.00     0.135 A 
ATOM     66  F   UNL     1      14.972   6.243   4.673  1.00  0.00    -0.206 F 
ATOM     67  C   UNL     1      16.659   5.122   5.856  1.00  0.00     0.059 A 
ATOM     68  C   UNL     1      16.384   4.682   8.228  1.00  0.00     0.059 A 
ATOM     69  F   UNL     1      14.417   5.350   9.316  1.00  0.00    -0.206 F 
ATOM     70  C   UNL     1      17.133   4.588   7.056  1.00  0.00     0.060 A 
BRANCH  70  71
ATOM     71  S   UNL     1      18.743   3.771   7.061  1.00  0.00     0.124 S 
ATOM     72  O   UNL     1      18.430   2.510   6.394  1.00  0.00    -0.237 OA
ATOM     73  O   UNL     1      19.571   4.701   6.301  1.00  0.00    -0.237 OA
ATOM     74  O   UNL     1      19.066   3.665   8.481  1.00  0.00    -0.744 OA
ENDBRANCH  70  71
ENDBRANCH  49  63
BRANCH  50  75
ATOM     75  C   UNL     1       5.562   9.946   6.882  1.00  0.00     0.058 A 
ATOM     76  C   UNL     1       5.308  11.117   6.152  1.00  0.00     0.135 A 
ATOM     77  C   UNL     1       4.500   9.383   7.606  1.00  0.00     0.135 A 
ATOM     78  F   UNL     1       6.295  11.698   5.453  1.00  0.00    -0.206 F 
ATOM     79  C   UNL     1       4.054  11.718   6.152  1.00  0.00     0.059 A 
ATOM     80  C   UNL     1       3.231   9.952   7.602  1.00  0.00     0.059 A 
ATOM     81  F   UNL     1       4.689   8.256   8.310  1.00  0.00    -0.206 F 
ATOM     82  C   UNL     1       3.020  11.126   6.880  1.00  0.00     0.060 A 
BRANCH  82  83
ATOM     83  S   UNL     1       1.381  11.884   6.835  1.00  0.00     0.124 S 
ATOM     84  O   UNL     1       1.564  13.032   7.715  1.00  0.00    -0.237 OA
ATOM     85  O   UNL     1       1.220  12.185   5.416  1.00  0.00    -0.237 OA
ATOM     86  O   UNL     1       0.511  10.828   7.345  1.00  0.00    -0.744 OA
ENDBRANCH  82  83
ENDBRANCH  50  75
BRANCH  62  87
ATOM     87  C   UNL     1      11.713  11.968   9.461  1.00  0.00     0.058 A 
ATOM     88  C   UNL     1      11.345  12.238  10.788  1.00  0.00     0.135 A 
ATOM     89  C   UNL     1      12.537  12.902   8.810  1.00  0.00     0.135 A 
ATOM     90  F   UNL     1      10.558  11.382  11.458  1.00  0.00    -0.206 F 
ATOM     91  C   UNL     1      11.745  13.407  11.432  1.00  0.00     0.059 A 
ATOM     92  C   UNL     1      12.970  14.064   9.442  1.00  0.00     0.059 A 
ATOM     93  F   UNL     1      12.932  12.688   7.544  1.00  0.00    -0.206 F 
ATOM     94  C   UNL     1      12.552  14.317  10.748  1.00  0.00     0.060 A 
BRANCH  94  95
ATOM     95  S   UNL     1      13.066  15.831  11.590  1.00  0.00     0.124 S 
ATOM     96  O   UNL     1      11.852  16.636  11.513  1.00  0.00    -0.237 OA
ATOM     97  O   UNL     1      13.422  15.347  12.920  1.00  0.00    -0.237 OA
ATOM     98  O   UNL     1      14.186  16.304  10.782  1.00  0.00    -0.744 OA
ENDBRANCH  94  95
ENDBRANCH  62  87
ENDBRANCH  36  37
ENDBRANCH  28  31
ENDBRANCH  26  27
ENDBRANCH  25  26
ENDBRANCH  24  25
ENDBRANCH   3  24
TORSDOF 21
