REMARK SMILES NC(=O)[C@@H]1CCC[N@H+]1[C@H](C(=O)NCCCNC(=O)c1ccc(-c2c3nc(c(-c4c(F)cc(S(=O)(=O)[O-])cc4F)c4ccc([nH]4)c(-c4c(F)cc(S(=O)(=O)[O-])cc4F)c4nc(c(-c5c(F)cc(S(=O)(=O)[O-])cc5F)c5ccc2[nH]5)C=C4)C=C3)cc1)c1c[nH]c2cc(NC(=O)c3ccccc3)ccc12
REMARK SMILES IDX 14 1 13 2 12 3 10 4 11 5 9 7 8 8 4 9 5 10 6 11 7 12 2 14
REMARK SMILES IDX 1 15 3 18 85 19 86 20 102 21 87 22 88 23 101 24 89 26 100 27
REMARK SMILES IDX 90 28 91 29 92 30 93 32 94 33 95 34 99 35 96 36 98 37 97 38
REMARK SMILES IDX 15 39 16 40 17 41 18 43 19 44 20 45 84 46 21 47 83 48 22 49
REMARK SMILES IDX 23 50 24 51 77 52 25 53 82 54 76 55 78 56 26 57 81 58 75 59
REMARK SMILES IDX 74 60 27 62 61 63 40 64 60 65 41 66 44 67 59 68 79 69 42 70
REMARK SMILES IDX 43 71 58 73 80 74 45 75 28 76 29 77 38 78 30 79 31 80 37 81
REMARK SMILES IDX 39 82 32 83 33 84 34 85 35 86 36 87 62 88 63 89 72 90 64 91
REMARK SMILES IDX 65 92 71 93 73 94 66 95 67 96 68 97 69 98 70 99 46 100
REMARK SMILES IDX 47 101 56 102 48 103 49 104 55 105 57 106 50 107 51 108
REMARK SMILES IDX 52 109 53 110 54 111
REMARK H PARENT 12 6 8 13 1 16 1 17 87 25 91 31 16 42 78 61 44 72
REMARK Flexibility Score: inf
ROOT
ATOM      1  C   UNL     1       1.761   7.597   0.518  1.00  0.00     0.042 C 
ENDROOT
BRANCH   1   2
ATOM      2  C   UNL     1       1.176   6.349  -0.188  1.00  0.00     0.118 C 
BRANCH   2   3
ATOM      3  N   UNL     1       0.991   5.161   0.660  1.00  0.00    -0.351 N 
ATOM      4  C   UNL     1       0.028   4.405   1.264  1.00  0.00     0.283 C 
ATOM      5  O   UNL     1       0.548   3.319   1.594  1.00  0.00    -0.268 OA
ATOM      6  H   UNL     1       1.873   4.776   0.865  1.00  0.00     0.163 HD
BRANCH   4   7
ATOM      7  C   UNL     1      -1.567   4.606   1.488  1.00  0.00     0.308 C 
BRANCH   7   8
ATOM      8  N   UNL     1      -2.096   3.421   2.239  1.00  0.00    -0.311 N 
ATOM      9  C   UNL     1      -1.887   3.347   3.709  1.00  0.00     0.275 C 
ATOM     10  C   UNL     1      -3.252   3.016   4.320  1.00  0.00     0.081 C 
ATOM     11  C   UNL     1      -4.247   3.348   3.229  1.00  0.00     0.068 C 
ATOM     12  C   UNL     1      -3.478   3.046   1.960  1.00  0.00     0.264 C 
ATOM     13  H   UNL     1      -1.458   2.742   1.823  1.00  0.00     0.349 HD
BRANCH   9  14
ATOM     14  C   UNL     1      -0.832   2.304   4.102  1.00  0.00     0.275 C 
ATOM     15  N   UNL     1       0.435   2.799   4.212  1.00  0.00    -0.365 N 
ATOM     16  H   UNL     1       1.177   2.201   4.460  1.00  0.00     0.159 HD
ATOM     17  H   UNL     1       0.607   3.754   4.044  1.00  0.00     0.159 HD
ATOM     18  O   UNL     1      -1.059   1.122   4.367  1.00  0.00    -0.268 OA
ENDBRANCH   9  14
ENDBRANCH   7   8
BRANCH   7  19
ATOM     19  C   UNL     1      -2.044   5.953   2.098  1.00  0.00     0.044 A 
ATOM     20  C   UNL     1      -2.025   7.092   1.302  1.00  0.00     0.094 A 
ATOM     21  C   UNL     1      -1.674   6.514   3.359  1.00  0.00     0.009 A 
ATOM     22  N   UNL     1      -0.910   7.750   1.805  1.00  0.00    -0.361 N 
ATOM     23  C   UNL     1      -0.518   7.156   2.993  1.00  0.00     0.048 A 
ATOM     24  C   UNL     1      -2.122   6.868   4.641  1.00  0.00     0.013 A 
ATOM     25  H   UNL     1      -0.466   8.520   1.382  1.00  0.00     0.166 HD
ATOM     26  C   UNL     1       0.564   7.250   3.862  1.00  0.00     0.052 A 
ATOM     27  C   UNL     1      -1.111   7.228   5.568  1.00  0.00     0.027 A 
ATOM     28  C   UNL     1       0.247   7.184   5.211  1.00  0.00     0.043 A 
BRANCH  28  29
ATOM     29  N   UNL     1       1.237   7.277   6.204  1.00  0.00    -0.322 N 
ATOM     30  C   UNL     1       2.531   6.789   6.257  1.00  0.00     0.255 C 
ATOM     31  H   UNL     1       0.960   7.777   7.005  1.00  0.00     0.170 HD
ATOM     32  O   UNL     1       3.283   7.120   7.172  1.00  0.00    -0.269 OA
BRANCH  30  33
ATOM     33  C   UNL     1       3.034   5.760   5.317  1.00  0.00     0.040 A 
ATOM     34  C   UNL     1       3.065   4.416   5.700  1.00  0.00     0.014 A 
ATOM     35  C   UNL     1       3.655   6.136   4.128  1.00  0.00     0.014 A 
ATOM     36  C   UNL     1       3.612   3.456   4.839  1.00  0.00     0.001 A 
ATOM     37  C   UNL     1       4.160   5.178   3.246  1.00  0.00     0.001 A 
ATOM     38  C   UNL     1       4.120   3.832   3.595  1.00  0.00     0.000 A 
ENDBRANCH  30  33
ENDBRANCH  28  29
ENDBRANCH   7  19
ENDBRANCH   4   7
ENDBRANCH   2   3
ENDBRANCH   1   2
BRANCH   1  39
ATOM     39  C   UNL     1       3.261   7.799   0.750  1.00  0.00     0.118 C 
BRANCH  39  40
ATOM     40  N   UNL     1       3.744   9.077   0.229  1.00  0.00    -0.352 N 
ATOM     41  C   UNL     1       3.967  10.326   0.775  1.00  0.00     0.251 C 
ATOM     42  H   UNL     1       3.960   9.039  -0.731  1.00  0.00     0.163 HD
ATOM     43  O   UNL     1       4.273  11.225  -0.011  1.00  0.00    -0.269 OA
BRANCH  41  44
ATOM     44  C   UNL     1       3.832  10.671   2.223  1.00  0.00     0.039 A 
ATOM     45  C   UNL     1       3.396  11.963   2.555  1.00  0.00     0.014 A 
ATOM     46  C   UNL     1       4.230   9.836   3.264  1.00  0.00     0.014 A 
ATOM     47  C   UNL     1       3.315  12.383   3.894  1.00  0.00     0.010 A 
ATOM     48  C   UNL     1       4.058  10.220   4.611  1.00  0.00     0.010 A 
ATOM     49  C   UNL     1       3.619  11.510   4.952  1.00  0.00    -0.014 A 
BRANCH  49  50
ATOM     50  C   UNL     1       3.527  11.982   6.375  1.00  0.00     0.031 A 
ATOM     51  C   UNL     1       4.748  12.024   7.271  1.00  0.00     0.074 A 
ATOM     52  C   UNL     1       2.348  12.412   6.878  1.00  0.00     0.049 A 
ATOM     53  N   UNL     1       4.869  12.506   8.486  1.00  0.00    -0.248 NA
ATOM     54  C   UNL     1       5.990  11.443   6.742  1.00  0.00     0.031 C 
ATOM     55  C   UNL     1       1.068  12.387   6.167  1.00  0.00     0.029 A 
ATOM     56  N   UNL     1       2.032  12.973   8.096  1.00  0.00    -0.354 N 
ATOM     57  C   UNL     1       6.189  12.277   8.864  1.00  0.00     0.074 A 
ATOM     58  C   UNL     1       6.814  11.563   7.773  1.00  0.00     0.031 C 
ATOM     59  C   UNL     1       0.122  12.950   6.938  1.00  0.00     0.029 A 
ATOM     60  C   UNL     1       0.713  13.351   8.213  1.00  0.00     0.049 A 
ATOM     61  H   UNL     1       2.691  13.091   8.819  1.00  0.00     0.167 HD
ATOM     62  C   UNL     1       6.840  12.648   9.996  1.00  0.00     0.037 A 
ATOM     63  C   UNL     1       0.049  13.962   9.217  1.00  0.00     0.037 A 
ATOM     64  C   UNL     1       6.237  13.375  11.083  1.00  0.00     0.049 A 
ATOM     65  C   UNL     1       0.789  14.370  10.466  1.00  0.00     0.074 A 
ATOM     66  C   UNL     1       6.837  13.847  12.239  1.00  0.00     0.029 A 
ATOM     67  N   UNL     1       4.899  13.726  11.159  1.00  0.00    -0.354 N 
ATOM     68  N   UNL     1       2.060  14.226  10.755  1.00  0.00    -0.248 NA
ATOM     69  C   UNL     1       0.007  15.034  11.520  1.00  0.00     0.031 C 
ATOM     70  C   UNL     1       5.852  14.442  13.035  1.00  0.00     0.029 A 
ATOM     71  C   UNL     1       4.649  14.388  12.351  1.00  0.00     0.049 A 
ATOM     72  H   UNL     1       4.225  13.534  10.467  1.00  0.00     0.167 HD
ATOM     73  C   UNL     1       2.233  14.802  12.011  1.00  0.00     0.074 A 
ATOM     74  C   UNL     1       0.941  15.311  12.419  1.00  0.00     0.031 C 
ATOM     75  C   UNL     1       3.362  14.899  12.755  1.00  0.00     0.037 A 
BRANCH  62  76
ATOM     76  C   UNL     1       8.298  12.282  10.115  1.00  0.00     0.058 A 
ATOM     77  C   UNL     1       9.279  12.900   9.323  1.00  0.00     0.135 A 
ATOM     78  C   UNL     1       8.726  11.334  11.060  1.00  0.00     0.135 A 
ATOM     79  F   UNL     1       8.928  13.808   8.398  1.00  0.00    -0.206 F 
ATOM     80  C   UNL     1      10.625  12.566   9.435  1.00  0.00     0.059 A 
ATOM     81  C   UNL     1      10.071  11.005  11.210  1.00  0.00     0.059 A 
ATOM     82  F   UNL     1       7.834  10.719  11.852  1.00  0.00    -0.206 F 
ATOM     83  C   UNL     1      11.011  11.615  10.381  1.00  0.00     0.060 A 
BRANCH  83  84
ATOM     84  S   UNL     1      12.762  11.193  10.511  1.00  0.00     0.124 S 
ATOM     85  O   UNL     1      12.965  10.413   9.294  1.00  0.00    -0.237 OA
ATOM     86  O   UNL     1      13.400  12.505  10.535  1.00  0.00    -0.237 OA
ATOM     87  O   UNL     1      12.840  10.439  11.759  1.00  0.00    -0.744 OA
ENDBRANCH  83  84
ENDBRANCH  62  76
BRANCH  63  88
ATOM     88  C   UNL     1      -1.406  14.255   9.078  1.00  0.00     0.058 A 
ATOM     89  C   UNL     1      -1.874  15.571   8.945  1.00  0.00     0.135 A 
ATOM     90  C   UNL     1      -2.357  13.223   9.072  1.00  0.00     0.135 A 
ATOM     91  F   UNL     1      -1.007  16.596   8.957  1.00  0.00    -0.206 F 
ATOM     92  C   UNL     1      -3.231  15.856   8.825  1.00  0.00     0.059 A 
ATOM     93  C   UNL     1      -3.717  13.480   8.927  1.00  0.00     0.059 A 
ATOM     94  F   UNL     1      -1.963  11.944   9.183  1.00  0.00    -0.206 F 
ATOM     95  C   UNL     1      -4.146  14.802   8.812  1.00  0.00     0.060 A 
BRANCH  95  96
ATOM     96  S   UNL     1      -5.900  15.175   8.596  1.00  0.00     0.124 S 
ATOM     97  O   UNL     1      -6.245  15.738   9.896  1.00  0.00    -0.237 OA
ATOM     98  O   UNL     1      -5.877  16.113   7.478  1.00  0.00    -0.237 OA
ATOM     99  O   UNL     1      -6.484  13.871   8.296  1.00  0.00    -0.744 OA
ENDBRANCH  95  96
ENDBRANCH  63  88
BRANCH  75 100
ATOM    100  C   UNL     1       3.272  15.607  14.081  1.00  0.00     0.058 A 
ATOM    101  C   UNL     1       2.622  15.031  15.185  1.00  0.00     0.135 A 
ATOM    102  C   UNL     1       3.893  16.853  14.267  1.00  0.00     0.135 A 
ATOM    103  F   UNL     1       2.006  13.844  15.063  1.00  0.00    -0.206 F 
ATOM    104  C   UNL     1       2.573  15.675  16.418  1.00  0.00     0.059 A 
ATOM    105  C   UNL     1       3.881  17.502  15.499  1.00  0.00     0.059 A 
ATOM    106  F   UNL     1       4.538  17.445  13.249  1.00  0.00    -0.206 F 
ATOM    107  C   UNL     1       3.207  16.910  16.566  1.00  0.00     0.060 A 
BRANCH 107 108
ATOM    108  S   UNL     1       3.164  17.719  18.180  1.00  0.00     0.124 S 
ATOM    109  O   UNL     1       1.783  18.184  18.240  1.00  0.00    -0.237 OA
ATOM    110  O   UNL     1       3.505  16.627  19.087  1.00  0.00    -0.237 OA
ATOM    111  O   UNL     1       4.175  18.766  18.063  1.00  0.00    -0.744 OA
ENDBRANCH 107 108
ENDBRANCH  75 100
ENDBRANCH  49  50
ENDBRANCH  41  44
ENDBRANCH  39  40
ENDBRANCH   1  39
TORSDOF 18
