REMARK SMILES C[C@@H](CCC(=O)Nc1ccccn1)C(=O)NCCCNC(=O)c1ccc(-c2c3nc(c(-c4c(F)cc(S(=O)(=O)[O-])cc4F)c4ccc([nH]4)c(-c4c(F)cc(S(=O)(=O)[O-])cc4F)c4nc(c(-c5c(F)cc(S(=O)(=O)[O-])cc5F)c5ccc2[nH]5)C=C4)C=C3)cc1
REMARK SMILES IDX 17 1 16 2 14 3 15 4 2 6 1 7 3 8 4 9 5 10 6 11 7 12 8 14 9 15
REMARK SMILES IDX 13 16 10 17 12 18 11 19 18 20 19 21 20 22 21 23 22 25 23 26
REMARK SMILES IDX 24 27 88 28 25 29 87 30 26 31 27 32 28 33 81 34 29 35 86 36
REMARK SMILES IDX 80 37 82 38 30 39 85 40 79 41 78 42 31 44 65 45 44 46 64 47
REMARK SMILES IDX 45 48 48 49 63 50 83 51 46 52 47 53 62 55 84 56 49 57 32 58
REMARK SMILES IDX 33 59 42 60 34 61 35 62 41 63 43 64 36 65 37 66 38 67 39 68
REMARK SMILES IDX 40 69 66 70 67 71 76 72 68 73 69 74 75 75 77 76 70 77 71 78
REMARK SMILES IDX 72 79 73 80 74 81 50 82 51 83 60 84 52 85 53 86 59 87 61 88
REMARK SMILES IDX 54 89 55 90 56 91 57 92 58 93
REMARK H PARENT 16 5 7 13 20 24 82 43 48 54
REMARK Flexibility Score: inf
ROOT
ATOM      1  C   UNL     1      -2.229  -1.499   1.582  1.00  0.00     0.117 C 
ENDROOT
BRANCH   1   2
ATOM      2  N   UNL     1      -1.948  -1.785   0.171  1.00  0.00    -0.356 N 
ATOM      3  C   UNL     1      -1.011  -2.403  -0.581  1.00  0.00     0.222 C 
ATOM      4  O   UNL     1      -1.296  -2.450  -1.789  1.00  0.00    -0.275 OA
ATOM      5  H   UNL     1      -2.657  -1.414  -0.402  1.00  0.00     0.163 HD
BRANCH   3   6
ATOM      6  C   UNL     1       0.322  -3.045  -0.143  1.00  0.00     0.076 C 
ATOM      7  C   UNL     1       1.491  -2.671  -1.091  1.00  0.00     0.018 C 
BRANCH   6   8
ATOM      8  C   UNL     1       0.770  -3.066   1.315  1.00  0.00     0.023 C 
BRANCH   8   9
ATOM      9  C   UNL     1       1.631  -1.898   1.805  1.00  0.00     0.101 C 
BRANCH   9  10
ATOM     10  C   UNL     1       0.914  -0.753   2.469  1.00  0.00     0.225 C 
ATOM     11  O   UNL     1       0.498  -0.926   3.624  1.00  0.00    -0.275 OA
ATOM     12  N   UNL     1       0.782   0.488   1.953  1.00  0.00    -0.311 N 
ATOM     13  H   UNL     1       0.696   1.140   2.685  1.00  0.00     0.171 HD
BRANCH  12  14
ATOM     14  C   UNL     1       0.728   1.151   0.731  1.00  0.00     0.132 A 
ATOM     15  C   UNL     1       0.545   0.593  -0.516  1.00  0.00     0.047 A 
ATOM     16  N   UNL     1       0.689   2.487   0.896  1.00  0.00    -0.239 NA
ATOM     17  C   UNL     1       0.347   1.415  -1.633  1.00  0.00     0.005 A 
ATOM     18  C   UNL     1       0.504   3.274  -0.189  1.00  0.00     0.113 A 
ATOM     19  C   UNL     1       0.333   2.790  -1.470  1.00  0.00     0.020 A 
ENDBRANCH  12  14
ENDBRANCH   9  10
ENDBRANCH   8   9
ENDBRANCH   6   8
ENDBRANCH   3   6
ENDBRANCH   1   2
BRANCH   1  20
ATOM     20  C   UNL     1      -2.445   0.004   1.838  1.00  0.00     0.042 C 
BRANCH  20  21
ATOM     21  C   UNL     1      -3.801   0.420   2.414  1.00  0.00     0.118 C 
BRANCH  21  22
ATOM     22  N   UNL     1      -4.092  -0.154   3.718  1.00  0.00    -0.352 N 
ATOM     23  C   UNL     1      -4.432   0.408   4.927  1.00  0.00     0.251 C 
ATOM     24  H   UNL     1      -4.033  -1.137   3.740  1.00  0.00     0.163 HD
ATOM     25  O   UNL     1      -4.559  -0.345   5.893  1.00  0.00    -0.269 OA
BRANCH  23  26
ATOM     26  C   UNL     1      -4.637   1.869   5.123  1.00  0.00     0.039 A 
ATOM     27  C   UNL     1      -4.288   2.425   6.364  1.00  0.00     0.014 A 
ATOM     28  C   UNL     1      -5.233   2.690   4.166  1.00  0.00     0.014 A 
ATOM     29  C   UNL     1      -4.484   3.790   6.620  1.00  0.00     0.010 A 
ATOM     30  C   UNL     1      -5.354   4.067   4.392  1.00  0.00     0.010 A 
ATOM     31  C   UNL     1      -4.988   4.636   5.622  1.00  0.00    -0.014 A 
BRANCH  31  32
ATOM     32  C   UNL     1      -5.162   6.104   5.845  1.00  0.00     0.031 A 
ATOM     33  C   UNL     1      -6.527   6.736   5.706  1.00  0.00     0.074 A 
ATOM     34  C   UNL     1      -4.090   6.886   6.088  1.00  0.00     0.049 A 
ATOM     35  N   UNL     1      -6.860   8.002   5.695  1.00  0.00    -0.248 NA
ATOM     36  C   UNL     1      -7.662   5.820   5.511  1.00  0.00     0.031 C 
ATOM     37  C   UNL     1      -2.707   6.417   6.200  1.00  0.00     0.029 A 
ATOM     38  N   UNL     1      -3.990   8.245   6.270  1.00  0.00    -0.354 N 
ATOM     39  C   UNL     1      -8.228   8.036   5.440  1.00  0.00     0.074 A 
ATOM     40  C   UNL     1      -8.653   6.664   5.264  1.00  0.00     0.031 C 
ATOM     41  C   UNL     1      -1.903   7.464   6.451  1.00  0.00     0.029 A 
ATOM     42  C   UNL     1      -2.702   8.684   6.479  1.00  0.00     0.049 A 
ATOM     43  H   UNL     1      -4.767   8.849   6.252  1.00  0.00     0.167 HD
ATOM     44  C   UNL     1      -9.059   9.106   5.380  1.00  0.00     0.037 A 
ATOM     45  C   UNL     1      -2.216   9.928   6.664  1.00  0.00     0.037 A 
ATOM     46  C   UNL     1      -8.644  10.462   5.631  1.00  0.00     0.049 A 
ATOM     47  C   UNL     1      -3.166  11.095   6.663  1.00  0.00     0.074 A 
ATOM     48  C   UNL     1      -9.419  11.608   5.672  1.00  0.00     0.029 A 
ATOM     49  N   UNL     1      -7.341  10.852   5.907  1.00  0.00    -0.354 N 
ATOM     50  N   UNL     1      -4.461  11.102   6.453  1.00  0.00    -0.248 NA
ATOM     51  C   UNL     1      -2.594  12.422   6.930  1.00  0.00     0.031 C 
ATOM     52  C   UNL     1      -8.582  12.694   5.952  1.00  0.00     0.029 A 
ATOM     53  C   UNL     1      -7.290  12.220   6.119  1.00  0.00     0.049 A 
ATOM     54  H   UNL     1      -6.566  10.246   5.946  1.00  0.00     0.167 HD
ATOM     55  C   UNL     1      -4.862  12.427   6.585  1.00  0.00     0.074 A 
ATOM     56  C   UNL     1      -3.674  13.192   6.906  1.00  0.00     0.031 C 
ATOM     57  C   UNL     1      -6.100  12.962   6.452  1.00  0.00     0.037 A 
BRANCH  44  58
ATOM     58  C   UNL     1     -10.505   8.851   5.042  1.00  0.00     0.058 A 
ATOM     59  C   UNL     1     -11.369   8.199   5.937  1.00  0.00     0.135 A 
ATOM     60  C   UNL     1     -11.042   9.282   3.817  1.00  0.00     0.135 A 
ATOM     61  F   UNL     1     -10.909   7.758   7.119  1.00  0.00    -0.206 F 
ATOM     62  C   UNL     1     -12.697   7.942   5.613  1.00  0.00     0.059 A 
ATOM     63  C   UNL     1     -12.377   9.062   3.484  1.00  0.00     0.059 A 
ATOM     64  F   UNL     1     -10.267   9.918   2.925  1.00  0.00    -0.206 F 
ATOM     65  C   UNL     1     -13.191   8.372   4.381  1.00  0.00     0.060 A 
BRANCH  65  66
ATOM     66  S   UNL     1     -14.913   8.018   3.969  1.00  0.00     0.124 S 
ATOM     67  O   UNL     1     -14.847   6.596   3.644  1.00  0.00    -0.237 OA
ATOM     68  O   UNL     1     -15.608   8.352   5.208  1.00  0.00    -0.237 OA
ATOM     69  O   UNL     1     -15.183   8.907   2.843  1.00  0.00    -0.744 OA
ENDBRANCH  65  66
ENDBRANCH  44  58
BRANCH  45  70
ATOM     70  C   UNL     1      -0.761  10.131   6.903  1.00  0.00     0.058 A 
ATOM     71  C   UNL     1      -0.286  10.481   8.177  1.00  0.00     0.135 A 
ATOM     72  C   UNL     1       0.184   9.962   5.879  1.00  0.00     0.135 A 
ATOM     73  F   UNL     1      -1.150  10.663   9.187  1.00  0.00    -0.206 F 
ATOM     74  C   UNL     1       1.070  10.669   8.425  1.00  0.00     0.059 A 
ATOM     75  C   UNL     1       1.548  10.121   6.108  1.00  0.00     0.059 A 
ATOM     76  F   UNL     1      -0.216   9.613   4.647  1.00  0.00    -0.206 F 
ATOM     77  C   UNL     1       1.981  10.484   7.383  1.00  0.00     0.060 A 
BRANCH  77  78
ATOM     78  S   UNL     1       3.743  10.678   7.730  1.00  0.00     0.124 S 
ATOM     79  O   UNL     1       3.867  12.128   7.820  1.00  0.00    -0.237 OA
ATOM     80  O   UNL     1       3.895   9.944   8.982  1.00  0.00    -0.237 OA
ATOM     81  O   UNL     1       4.382  10.060   6.570  1.00  0.00    -0.744 OA
ENDBRANCH  77  78
ENDBRANCH  45  70
BRANCH  57  82
ATOM     82  C   UNL     1      -6.243  14.439   6.687  1.00  0.00     0.058 A 
ATOM     83  C   UNL     1      -5.806  15.380   5.742  1.00  0.00     0.135 A 
ATOM     84  C   UNL     1      -6.876  14.915   7.847  1.00  0.00     0.135 A 
ATOM     85  F   UNL     1      -5.190  14.975   4.621  1.00  0.00    -0.206 F 
ATOM     86  C   UNL     1      -5.975  16.745   5.948  1.00  0.00     0.059 A 
ATOM     87  C   UNL     1      -7.076  16.275   8.062  1.00  0.00     0.059 A 
ATOM     88  F   UNL     1      -7.321  14.055   8.776  1.00  0.00    -0.206 F 
ATOM     89  C   UNL     1      -6.613  17.183   7.110  1.00  0.00     0.060 A 
BRANCH  89  90
ATOM     90  S   UNL     1      -6.862  18.955   7.347  1.00  0.00     0.124 S 
ATOM     91  O   UNL     1      -5.523  19.392   7.728  1.00  0.00    -0.237 OA
ATOM     92  O   UNL     1      -7.319  19.387   6.030  1.00  0.00    -0.237 OA
ATOM     93  O   UNL     1      -7.868  19.018   8.403  1.00  0.00    -0.744 OA
ENDBRANCH  89  90
ENDBRANCH  57  82
ENDBRANCH  31  32
ENDBRANCH  23  26
ENDBRANCH  21  22
ENDBRANCH  20  21
ENDBRANCH   1  20
TORSDOF 17
