REMARK SMILES C[C@H](Cc1ccc2c(c1)OCCCO2)C(=O)NCCCNC(=O)c1ccc(-c2c3nc(c(-c4c(F)cc(S(=O)(=O)[O-])cc4F)c4ccc([nH]4)c(-c4c(F)cc(S(=O)(=O)[O-])cc4F)c4nc(c(-c5c(F)cc(S(=O)(=O)[O-])cc5F)c5ccc2[nH]5)C=C4)C=C3)cc1
REMARK SMILES IDX 18 1 17 2 15 3 16 4 2 6 1 7 3 8 4 9 5 10 9 11 6 12 8 13 7 14
REMARK SMILES IDX 10 15 11 16 14 18 13 19 12 20 19 22 20 23 21 24 22 25 23 27
REMARK SMILES IDX 24 28 25 29 89 30 26 31 88 32 27 33 28 34 29 35 82 36 30 37
REMARK SMILES IDX 87 38 81 39 83 40 31 41 86 42 80 43 79 44 32 46 66 47 45 48
REMARK SMILES IDX 65 49 46 50 49 51 64 52 84 53 47 54 48 55 63 57 85 58 50 59
REMARK SMILES IDX 33 60 34 61 43 62 35 63 36 64 42 65 44 66 37 67 38 68 39 69
REMARK SMILES IDX 40 70 41 71 67 72 68 73 77 74 69 75 70 76 76 77 78 78 71 79
REMARK SMILES IDX 72 80 73 81 74 82 75 83 51 84 52 85 61 86 53 87 54 88 60 89
REMARK SMILES IDX 62 90 55 91 56 92 57 93 58 94 59 95
REMARK H PARENT 17 5 21 26 83 45 49 56
REMARK Flexibility Score: 90.00
ROOT
ATOM      1  C   UNL     1      -1.099   0.480   2.361  1.00  0.00     0.117 C 
ENDROOT
BRANCH   1   2
ATOM      2  N   UNL     1      -1.609  -0.432   1.351  1.00  0.00    -0.356 N 
ATOM      3  C   UNL     1      -0.982  -1.294   0.511  1.00  0.00     0.223 C 
ATOM      4  O   UNL     1      -1.687  -1.921  -0.284  1.00  0.00    -0.275 OA
ATOM      5  H   UNL     1      -2.589  -0.422   1.260  1.00  0.00     0.163 HD
BRANCH   3   6
ATOM      6  C   UNL     1       0.517  -1.531   0.556  1.00  0.00     0.079 C 
ATOM      7  C   UNL     1       0.921  -2.189   1.879  1.00  0.00     0.018 C 
BRANCH   6   8
ATOM      8  C   UNL     1       1.321  -0.284   0.143  1.00  0.00     0.048 C 
BRANCH   8   9
ATOM      9  C   UNL     1       2.775  -0.627  -0.087  1.00  0.00    -0.043 A 
ATOM     10  C   UNL     1       3.202  -1.146  -1.318  1.00  0.00     0.008 A 
ATOM     11  C   UNL     1       3.680  -0.553   0.979  1.00  0.00     0.054 A 
ATOM     12  C   UNL     1       4.496  -1.652  -1.458  1.00  0.00     0.051 A 
ATOM     13  C   UNL     1       4.945  -1.117   0.854  1.00  0.00     0.161 A 
ATOM     14  C   UNL     1       5.346  -1.684  -0.356  1.00  0.00     0.161 A 
BRANCH  13  15
ATOM     15  O   UNL     1       5.751  -1.105   1.959  1.00  0.00    -0.490 OA
BRANCH  15  16
ATOM     16  C   UNL     1       5.916  -2.430   2.468  1.00  0.00     0.233 CG0
ATOM     17  G   UNL     1       7.018  -3.183   1.733  1.00  0.00     0.000 G0
ENDBRANCH  15  16
ENDBRANCH  13  15
BRANCH  14  18
ATOM     18  O   UNL     1       6.568  -2.282  -0.508  1.00  0.00    -0.490 OA
BRANCH  18  19
ATOM     19  C   UNL     1       6.645  -3.471   0.284  1.00  0.00     0.233 C 
BRANCH  19  20
ATOM     20  C   UNL     1       7.018  -3.183   1.733  1.00  0.00     0.083 CG0
ATOM     21  G   UNL     1       5.916  -2.430   2.468  1.00  0.00     0.000 G0
ENDBRANCH  19  20
ENDBRANCH  18  19
ENDBRANCH  14  18
ENDBRANCH   8   9
ENDBRANCH   6   8
ENDBRANCH   3   6
ENDBRANCH   1   2
BRANCH   1  22
ATOM     22  C   UNL     1      -1.293   1.935   1.960  1.00  0.00     0.042 C 
BRANCH  22  23
ATOM     23  C   UNL     1      -2.755   2.351   1.854  1.00  0.00     0.118 C 
BRANCH  23  24
ATOM     24  N   UNL     1      -3.444   2.347   3.140  1.00  0.00    -0.352 N 
ATOM     25  C   UNL     1      -4.088   3.378   3.785  1.00  0.00     0.251 C 
ATOM     26  H   UNL     1      -3.447   1.484   3.614  1.00  0.00     0.163 HD
ATOM     27  O   UNL     1      -4.487   3.232   4.936  1.00  0.00    -0.269 OA
BRANCH  25  28
ATOM     28  C   UNL     1      -4.259   4.670   3.090  1.00  0.00     0.039 A 
ATOM     29  C   UNL     1      -4.743   4.705   1.780  1.00  0.00     0.014 A 
ATOM     30  C   UNL     1      -3.868   5.847   3.732  1.00  0.00     0.014 A 
ATOM     31  C   UNL     1      -4.659   5.885   1.051  1.00  0.00     0.010 A 
ATOM     32  C   UNL     1      -3.863   7.050   3.020  1.00  0.00     0.010 A 
ATOM     33  C   UNL     1      -4.202   7.066   1.657  1.00  0.00    -0.014 A 
BRANCH  33  34
ATOM     34  C   UNL     1      -4.046   8.296   0.840  1.00  0.00     0.031 A 
ATOM     35  C   UNL     1      -2.679   8.884   0.601  1.00  0.00     0.074 A 
ATOM     36  C   UNL     1      -5.128   8.848   0.260  1.00  0.00     0.049 A 
ATOM     37  N   UNL     1      -2.351   9.970  -0.052  1.00  0.00    -0.248 NA
ATOM     38  C   UNL     1      -1.530   8.160   1.169  1.00  0.00     0.031 C 
ATOM     39  C   UNL     1      -6.500   8.351   0.389  1.00  0.00     0.029 A 
ATOM     40  N   UNL     1      -5.244   9.931  -0.573  1.00  0.00    -0.354 N 
ATOM     41  C   UNL     1      -0.968  10.074   0.048  1.00  0.00     0.074 A 
ATOM     42  C   UNL     1      -0.517   8.950   0.840  1.00  0.00     0.031 C 
ATOM     43  C   UNL     1      -7.310   9.095  -0.379  1.00  0.00     0.029 A 
ATOM     44  C   UNL     1      -6.529  10.158  -1.002  1.00  0.00     0.049 A 
ATOM     45  H   UNL     1      -4.479  10.491  -0.839  1.00  0.00     0.167 HD
ATOM     46  C   UNL     1      -0.149  11.016  -0.478  1.00  0.00     0.037 A 
ATOM     47  C   UNL     1      -7.029  11.126  -1.793  1.00  0.00     0.037 A 
ATOM     48  C   UNL     1      -0.598  12.117  -1.290  1.00  0.00     0.049 A 
ATOM     49  C   UNL     1      -6.106  12.177  -2.337  1.00  0.00     0.074 A 
ATOM     50  C   UNL     1       0.153  13.128  -1.866  1.00  0.00     0.029 A 
ATOM     51  N   UNL     1      -1.917  12.345  -1.655  1.00  0.00    -0.354 N 
ATOM     52  N   UNL     1      -4.808  12.289  -2.186  1.00  0.00    -0.248 NA
ATOM     53  C   UNL     1      -6.716  13.242  -3.141  1.00  0.00     0.031 C 
ATOM     54  C   UNL     1      -0.715  13.981  -2.557  1.00  0.00     0.029 A 
ATOM     55  C   UNL     1      -2.003  13.483  -2.440  1.00  0.00     0.049 A 
ATOM     56  H   UNL     1      -2.680  11.781  -1.393  1.00  0.00     0.167 HD
ATOM     57  C   UNL     1      -4.445  13.440  -2.875  1.00  0.00     0.074 A 
ATOM     58  C   UNL     1      -5.658  13.973  -3.463  1.00  0.00     0.031 C 
ATOM     59  C   UNL     1      -3.221  14.007  -3.002  1.00  0.00     0.037 A 
BRANCH  46  60
ATOM     60  C   UNL     1       1.320  10.908  -0.180  1.00  0.00     0.058 A 
ATOM     61  C   UNL     1       2.133   9.957  -0.816  1.00  0.00     0.135 A 
ATOM     62  C   UNL     1       1.931  11.793   0.723  1.00  0.00     0.135 A 
ATOM     63  F   UNL     1       1.596   9.074  -1.673  1.00  0.00    -0.206 F 
ATOM     64  C   UNL     1       3.497   9.876  -0.555  1.00  0.00     0.059 A 
ATOM     65  C   UNL     1       3.297  11.743   0.985  1.00  0.00     0.059 A 
ATOM     66  F   UNL     1       1.198  12.720   1.361  1.00  0.00    -0.206 F 
ATOM     67  C   UNL     1       4.070  10.773   0.349  1.00  0.00     0.060 A 
BRANCH  67  68
ATOM     68  S   UNL     1       5.843  10.659   0.675  1.00  0.00     0.124 S 
ATOM     69  O   UNL     1       5.908   9.459   1.504  1.00  0.00    -0.237 OA
ATOM     70  O   UNL     1       6.400  10.533  -0.668  1.00  0.00    -0.237 OA
ATOM     71  O   UNL     1       6.143  11.912   1.361  1.00  0.00    -0.744 OA
ENDBRANCH  67  68
ENDBRANCH  46  60
BRANCH  47  72
ATOM     72  C   UNL     1      -8.480  11.143  -2.102  1.00  0.00     0.058 A 
ATOM     73  C   UNL     1      -8.949  10.793  -3.376  1.00  0.00     0.135 A 
ATOM     74  C   UNL     1      -9.428  11.466  -1.118  1.00  0.00     0.135 A 
ATOM     75  F   UNL     1      -8.079  10.485  -4.349  1.00  0.00    -0.206 F 
ATOM     76  C   UNL     1     -10.309  10.758  -3.664  1.00  0.00     0.059 A 
ATOM     77  C   UNL     1     -10.793  11.417  -1.376  1.00  0.00     0.059 A 
ATOM     78  F   UNL     1      -9.026  11.794   0.120  1.00  0.00    -0.206 F 
ATOM     79  C   UNL     1     -11.223  11.065  -2.655  1.00  0.00     0.060 A 
BRANCH  79  80
ATOM     80  S   UNL     1     -12.989  10.940  -3.015  1.00  0.00     0.124 S 
ATOM     81  O   UNL     1     -13.215  12.150  -3.797  1.00  0.00    -0.237 OA
ATOM     82  O   UNL     1     -13.065   9.681  -3.750  1.00  0.00    -0.237 OA
ATOM     83  O   UNL     1     -13.599  10.919  -1.689  1.00  0.00    -0.744 OA
ENDBRANCH  79  80
ENDBRANCH  47  72
BRANCH  59  84
ATOM     84  C   UNL     1      -3.139  15.271  -3.808  1.00  0.00     0.058 A 
ATOM     85  C   UNL     1      -3.578  16.497  -3.285  1.00  0.00     0.135 A 
ATOM     86  C   UNL     1      -2.599  15.261  -5.103  1.00  0.00     0.135 A 
ATOM     87  F   UNL     1      -4.109  16.555  -2.053  1.00  0.00    -0.206 F 
ATOM     88  C   UNL     1      -3.508  17.669  -4.030  1.00  0.00     0.059 A 
ATOM     89  C   UNL     1      -2.501  16.424  -5.858  1.00  0.00     0.059 A 
ATOM     90  F   UNL     1      -2.159  14.113  -5.643  1.00  0.00    -0.206 F 
ATOM     91  C   UNL     1      -2.972  17.621  -5.318  1.00  0.00     0.060 A 
BRANCH  91  92
ATOM     92  S   UNL     1      -2.876  19.150  -6.274  1.00  0.00     0.124 S 
ATOM     93  O   UNL     1      -4.262  19.317  -6.698  1.00  0.00    -0.237 OA
ATOM     94  O   UNL     1      -2.396  20.110  -5.285  1.00  0.00    -0.237 OA
ATOM     95  O   UNL     1      -1.928  18.826  -7.336  1.00  0.00    -0.744 OA
ENDBRANCH  91  92
ENDBRANCH  59  84
ENDBRANCH  33  34
ENDBRANCH  25  28
ENDBRANCH  23  24
ENDBRANCH  22  23
ENDBRANCH   1  22
TORSDOF 15
