REMARK SMILES COCCCN1C(=O)C[C@@H](Sc2ncccc2C(=O)NCCCNC(=O)c2ccc(-c3c4nc(c(-c5c(F)cc(S(=O)(=O)[O-])cc5F)c5ccc([nH]5)c(-c5c(F)cc(S(=O)(=O)[O-])cc5F)c5nc(c(-c6c(F)cc(S(=O)(=O)[O-])cc6F)c6ccc3[nH]6)C=C5)C=C4)cc2)C1=O
REMARK SMILES IDX 18 1 19 2 20 3 17 5 12 6 13 7 14 8 16 9 15 10 11 11 10 12
REMARK SMILES IDX 6 13 7 14 93 15 8 16 9 17 94 18 5 19 4 20 3 21 2 22 1 23
REMARK SMILES IDX 21 24 22 25 23 26 24 27 25 28 26 30 27 31 28 32 92 33 29 34
REMARK SMILES IDX 91 35 30 36 31 37 32 38 85 39 33 40 90 41 84 42 86 43 34 44
REMARK SMILES IDX 89 45 83 46 82 47 35 49 69 50 48 51 68 52 49 53 52 54 67 55
REMARK SMILES IDX 87 56 50 57 51 58 66 60 88 61 53 62 36 63 37 64 46 65 38 66
REMARK SMILES IDX 39 67 45 68 47 69 40 70 41 71 42 72 43 73 44 74 70 75 71 76
REMARK SMILES IDX 80 77 72 78 73 79 79 80 81 81 74 82 75 83 76 84 77 85 78 86
REMARK SMILES IDX 54 87 55 88 64 89 56 90 57 91 63 92 65 93 58 94 59 95 60 96
REMARK SMILES IDX 61 97 62 98
REMARK H PARENT 20 4 24 29 86 48 52 59
REMARK Flexibility Score: inf
ROOT
ATOM      1  C   UNL     1       5.920   3.176  -2.318  1.00  0.00     0.254 C 
ATOM      2  O   UNL     1       6.391   3.931  -1.473  1.00  0.00    -0.269 OA
ATOM      3  N   UNL     1       6.525   3.183  -3.553  1.00  0.00    -0.352 N 
ATOM      4  H   UNL     1       7.395   3.643  -3.558  1.00  0.00     0.163 HD
ENDROOT
BRANCH   1   5
ATOM      5  C   UNL     1       4.797   2.255  -1.992  1.00  0.00     0.072 A 
ATOM      6  C   UNL     1       4.719   1.585  -0.760  1.00  0.00     0.109 A 
ATOM      7  N   UNL     1       3.845   0.561  -0.558  1.00  0.00    -0.249 NA
ATOM      8  C   UNL     1       3.009   0.230  -1.566  1.00  0.00     0.112 A 
ATOM      9  C   UNL     1       3.797   1.986  -2.936  1.00  0.00     0.018 A 
ATOM     10  C   UNL     1       2.907   0.941  -2.739  1.00  0.00     0.021 A 
BRANCH   6  11
ATOM     11  S   UNL     1       5.790   1.914   0.635  1.00  0.00    -0.092 SA
BRANCH  11  12
ATOM     12  C   UNL     1       4.805   1.442   2.092  1.00  0.00     0.152 C 
ATOM     13  N   UNL     1       2.515   1.052   2.382  1.00  0.00    -0.282 N 
ATOM     14  C   UNL     1       3.108  -0.180   2.438  1.00  0.00     0.230 C 
ATOM     15  C   UNL     1       3.429   2.054   2.187  1.00  0.00     0.243 C 
ATOM     16  O   UNL     1       2.544  -1.245   2.652  1.00  0.00    -0.274 OA
ATOM     17  C   UNL     1       4.591  -0.049   2.259  1.00  0.00     0.125 C 
ATOM     18  O   UNL     1       3.184   3.254   2.182  1.00  0.00    -0.273 OA
BRANCH  13  19
ATOM     19  C   UNL     1       1.102   1.246   2.688  1.00  0.00     0.131 C 
BRANCH  19  20
ATOM     20  C   UNL     1       0.324   2.247   1.827  1.00  0.00     0.050 C 
BRANCH  20  21
ATOM     21  C   UNL     1       0.526   2.134   0.319  1.00  0.00     0.161 C 
BRANCH  21  22
ATOM     22  O   UNL     1      -0.282   1.152  -0.326  1.00  0.00    -0.385 OA
ATOM     23  C   UNL     1      -0.045  -0.189   0.065  1.00  0.00     0.194 C 
ENDBRANCH  21  22
ENDBRANCH  20  21
ENDBRANCH  19  20
ENDBRANCH  13  19
ENDBRANCH  11  12
ENDBRANCH   6  11
ENDBRANCH   1   5
BRANCH   3  24
ATOM     24  C   UNL     1       6.148   2.651  -4.854  1.00  0.00     0.118 C 
BRANCH  24  25
ATOM     25  C   UNL     1       5.469   3.742  -5.685  1.00  0.00     0.042 C 
BRANCH  25  26
ATOM     26  C   UNL     1       6.435   4.844  -6.116  1.00  0.00     0.118 C 
BRANCH  26  27
ATOM     27  N   UNL     1       7.417   4.352  -7.072  1.00  0.00    -0.352 N 
ATOM     28  C   UNL     1       7.663   4.765  -8.357  1.00  0.00     0.251 C 
ATOM     29  H   UNL     1       7.987   3.617  -6.750  1.00  0.00     0.163 HD
ATOM     30  O   UNL     1       8.341   4.061  -9.100  1.00  0.00    -0.269 OA
BRANCH  28  31
ATOM     31  C   UNL     1       7.110   6.047  -8.840  1.00  0.00     0.039 A 
ATOM     32  C   UNL     1       6.589   6.118 -10.134  1.00  0.00     0.014 A 
ATOM     33  C   UNL     1       7.135   7.185  -8.028  1.00  0.00     0.014 A 
ATOM     34  C   UNL     1       6.046   7.320 -10.595  1.00  0.00     0.010 A 
ATOM     35  C   UNL     1       6.525   8.357  -8.460  1.00  0.00     0.010 A 
ATOM     36  C   UNL     1       5.983   8.441  -9.751  1.00  0.00    -0.014 A 
BRANCH  36  37
ATOM     37  C   UNL     1       5.375   9.718 -10.202  1.00  0.00     0.031 A 
ATOM     38  C   UNL     1       6.222  10.959 -10.293  1.00  0.00     0.074 A 
ATOM     39  C   UNL     1       4.054   9.771 -10.467  1.00  0.00     0.049 A 
ATOM     40  N   UNL     1       5.862  12.187 -10.565  1.00  0.00    -0.248 NA
ATOM     41  C   UNL     1       7.661  10.805 -10.017  1.00  0.00     0.031 C 
ATOM     42  C   UNL     1       3.126   8.641 -10.380  1.00  0.00     0.029 A 
ATOM     43  N   UNL     1       3.259  10.821 -10.853  1.00  0.00    -0.354 N 
ATOM     44  C   UNL     1       7.022  12.949 -10.486  1.00  0.00     0.074 A 
ATOM     45  C   UNL     1       8.087  12.058 -10.081  1.00  0.00     0.031 C 
ATOM     46  C   UNL     1       1.895   9.053 -10.723  1.00  0.00     0.029 A 
ATOM     47  C   UNL     1       1.934  10.483 -11.008  1.00  0.00     0.049 A 
ATOM     48  H   UNL     1       3.604  11.730 -11.005  1.00  0.00     0.167 HD
ATOM     49  C   UNL     1       7.190  14.265 -10.756  1.00  0.00     0.037 A 
ATOM     50  C   UNL     1       0.871  11.245 -11.331  1.00  0.00     0.037 A 
ATOM     51  C   UNL     1       6.127  15.139 -11.180  1.00  0.00     0.049 A 
ATOM     52  C   UNL     1       1.081  12.714 -11.595  1.00  0.00     0.074 A 
ATOM     53  C   UNL     1       6.197  16.481 -11.508  1.00  0.00     0.029 A 
ATOM     54  N   UNL     1       4.804  14.755 -11.342  1.00  0.00    -0.354 N 
ATOM     55  N   UNL     1       2.194  13.408 -11.559  1.00  0.00    -0.248 NA
ATOM     56  C   UNL     1      -0.107  13.503 -11.950  1.00  0.00     0.031 C 
ATOM     57  C   UNL     1       4.909  16.920 -11.827  1.00  0.00     0.029 A 
ATOM     58  C   UNL     1       4.046  15.838 -11.753  1.00  0.00     0.049 A 
ATOM     59  H   UNL     1       4.455  13.848 -11.188  1.00  0.00     0.167 HD
ATOM     60  C   UNL     1       1.846  14.704 -11.926  1.00  0.00     0.074 A 
ATOM     61  C   UNL     1       0.422  14.695 -12.187  1.00  0.00     0.031 C 
ATOM     62  C   UNL     1       2.633  15.802 -12.037  1.00  0.00     0.037 A 
BRANCH  49  63
ATOM     63  C   UNL     1       8.574  14.840 -10.623  1.00  0.00     0.058 A 
ATOM     64  C   UNL     1       9.596  14.505 -11.527  1.00  0.00     0.135 A 
ATOM     65  C   UNL     1       8.869  15.780  -9.623  1.00  0.00     0.135 A 
ATOM     66  F   UNL     1       9.375  13.598 -12.492  1.00  0.00    -0.206 F 
ATOM     67  C   UNL     1      10.863  15.069 -11.435  1.00  0.00     0.059 A 
ATOM     68  C   UNL     1      10.122  16.380  -9.530  1.00  0.00     0.059 A 
ATOM     69  F   UNL     1       7.931  16.135  -8.730  1.00  0.00    -0.206 F 
ATOM     70  C   UNL     1      11.115  16.011 -10.437  1.00  0.00     0.060 A 
BRANCH  70  71
ATOM     71  S   UNL     1      12.757  16.757 -10.355  1.00  0.00     0.124 S 
ATOM     72  O   UNL     1      13.564  15.636  -9.885  1.00  0.00    -0.237 OA
ATOM     73  O   UNL     1      12.982  17.163 -11.739  1.00  0.00    -0.237 OA
ATOM     74  O   UNL     1      12.588  17.851  -9.404  1.00  0.00    -0.744 OA
ENDBRANCH  70  71
ENDBRANCH  49  63
BRANCH  50  75
ATOM     75  C   UNL     1      -0.487  10.644 -11.434  1.00  0.00     0.058 A 
ATOM     76  C   UNL     1      -1.149  10.564 -12.669  1.00  0.00     0.135 A 
ATOM     77  C   UNL     1      -1.163  10.163 -10.302  1.00  0.00     0.135 A 
ATOM     78  F   UNL     1      -0.547  11.011 -13.782  1.00  0.00    -0.206 F 
ATOM     79  C   UNL     1      -2.444  10.068 -12.774  1.00  0.00     0.059 A 
ATOM     80  C   UNL     1      -2.447   9.633 -10.385  1.00  0.00     0.059 A 
ATOM     81  F   UNL     1      -0.569  10.195  -9.099  1.00  0.00    -0.206 F 
ATOM     82  C   UNL     1      -3.087   9.610 -11.623  1.00  0.00     0.060 A 
BRANCH  82  83
ATOM     83  S   UNL     1      -4.768   8.965 -11.769  1.00  0.00     0.124 S 
ATOM     84  O   UNL     1      -5.532  10.187 -11.988  1.00  0.00    -0.237 OA
ATOM     85  O   UNL     1      -4.654   8.068 -12.915  1.00  0.00    -0.237 OA
ATOM     86  O   UNL     1      -4.986   8.305 -10.486  1.00  0.00    -0.744 OA
ENDBRANCH  82  83
ENDBRANCH  50  75
BRANCH  62  87
ATOM     87  C   UNL     1       1.990  17.073 -12.520  1.00  0.00     0.058 A 
ATOM     88  C   UNL     1       1.115  17.815 -11.713  1.00  0.00     0.135 A 
ATOM     89  C   UNL     1       2.307  17.585 -13.790  1.00  0.00     0.135 A 
ATOM     90  F   UNL     1       0.774  17.367 -10.495  1.00  0.00    -0.206 F 
ATOM     91  C   UNL     1       0.560  19.012 -12.155  1.00  0.00     0.059 A 
ATOM     92  C   UNL     1       1.788  18.794 -14.239  1.00  0.00     0.059 A 
ATOM     93  F   UNL     1       3.147  16.918 -14.598  1.00  0.00    -0.206 F 
ATOM     94  C   UNL     1       0.907  19.495 -13.418  1.00  0.00     0.060 A 
BRANCH  94  95
ATOM     95  S   UNL     1       0.215  21.072 -13.960  1.00  0.00     0.124 S 
ATOM     96  O   UNL     1      -1.173  20.709 -14.226  1.00  0.00    -0.237 OA
ATOM     97  O   UNL     1       0.435  21.925 -12.796  1.00  0.00    -0.237 OA
ATOM     98  O   UNL     1       1.012  21.408 -15.136  1.00  0.00    -0.744 OA
ENDBRANCH  94  95
ENDBRANCH  62  87
ENDBRANCH  36  37
ENDBRANCH  28  31
ENDBRANCH  26  27
ENDBRANCH  25  26
ENDBRANCH  24  25
ENDBRANCH   3  24
TORSDOF 19
