REMARK SMILES C[C@@H](C(=O)NCCCNC(=O)c1ccc(-c2c3nc(c(-c4c(F)cc(S(=O)(=O)[O-])cc4F)c4ccc([nH]4)c(-c4c(F)cc(S(=O)(=O)[O-])cc4F)c4nc(c(-c5c(F)cc(S(=O)(=O)[O-])cc5F)c5ccc2[nH]5)C=C4)C=C3)cc1)c1ccc(C[C@H]2CCC[C@H]2O)cc1-c1ccc(O)cc1
REMARK SMILES IDX 6 1 5 2 3 3 4 4 2 6 1 7 78 8 79 9 90 10 80 11 89 12 81 13
REMARK SMILES IDX 91 14 92 15 97 16 93 17 96 18 94 19 95 20 82 22 83 23 84 24
REMARK SMILES IDX 87 25 85 26 86 27 88 28 7 30 8 31 9 32 10 33 11 35 12 36
REMARK SMILES IDX 13 37 77 38 14 39 76 40 15 41 16 42 17 43 70 44 18 45 75 46
REMARK SMILES IDX 69 47 71 48 19 49 74 50 68 51 67 52 20 54 54 55 33 56 53 57
REMARK SMILES IDX 34 58 37 59 52 60 72 61 35 62 36 63 51 65 73 66 38 67 21 68
REMARK SMILES IDX 22 69 31 70 23 71 24 72 30 73 32 74 25 75 26 76 27 77 28 78
REMARK SMILES IDX 29 79 55 80 56 81 65 82 57 83 58 84 64 85 66 86 59 87 60 88
REMARK SMILES IDX 61 89 62 90 63 91 39 92 40 93 49 94 41 95 42 96 48 97 50 98
REMARK SMILES IDX 43 99 44 100 45 101 46 102 47 103
REMARK H PARENT 5 5 95 21 88 29 9 34 71 53 37 64
REMARK Flexibility Score: inf
ROOT
ATOM      1  C   UNL     1       3.681   0.081  -1.893  1.00  0.00     0.117 C 
ENDROOT
BRANCH   1   2
ATOM      2  N   UNL     1       2.671  -0.722  -2.552  1.00  0.00    -0.356 N 
ATOM      3  C   UNL     1       1.313  -0.641  -2.543  1.00  0.00     0.227 C 
ATOM      4  O   UNL     1       0.747  -1.237  -3.464  1.00  0.00    -0.274 OA
ATOM      5  H   UNL     1       3.031  -1.454  -3.103  1.00  0.00     0.163 HD
BRANCH   3   6
ATOM      6  C   UNL     1       0.568   0.281  -1.569  1.00  0.00     0.106 C 
ATOM      7  C   UNL     1       0.987   0.324  -0.094  1.00  0.00     0.023 C 
BRANCH   6   8
ATOM      8  C   UNL     1      -0.959   0.145  -1.611  1.00  0.00    -0.028 A 
ATOM      9  C   UNL     1      -1.676   1.328  -1.875  1.00  0.00     0.005 A 
ATOM     10  C   UNL     1      -1.677  -1.049  -1.328  1.00  0.00    -0.014 A 
ATOM     11  C   UNL     1      -3.062   1.365  -1.793  1.00  0.00     0.004 A 
ATOM     12  C   UNL     1      -3.079  -0.959  -1.179  1.00  0.00     0.012 A 
ATOM     13  C   UNL     1      -3.773   0.248  -1.364  1.00  0.00    -0.047 A 
BRANCH  10  14
ATOM     14  C   UNL     1      -1.061  -2.395  -1.293  1.00  0.00    -0.018 A 
ATOM     15  C   UNL     1      -1.226  -3.245  -2.405  1.00  0.00     0.012 A 
ATOM     16  C   UNL     1      -0.295  -2.875  -0.221  1.00  0.00     0.012 A 
ATOM     17  C   UNL     1      -0.590  -4.486  -2.477  1.00  0.00     0.047 A 
ATOM     18  C   UNL     1       0.363  -4.111  -0.295  1.00  0.00     0.047 A 
ATOM     19  C   UNL     1       0.221  -4.899  -1.431  1.00  0.00     0.115 A 
BRANCH  19  20
ATOM     20  O   UNL     1       0.868  -6.091  -1.563  1.00  0.00    -0.508 OA
ATOM     21  H   UNL     1       0.754  -6.603  -2.340  1.00  0.00     0.293 HD
ENDBRANCH  19  20
ENDBRANCH  10  14
BRANCH  13  22
ATOM     22  C   UNL     1      -5.255   0.350  -1.105  1.00  0.00     0.041 C 
BRANCH  22  23
ATOM     23  C   UNL     1      -5.697   0.888   0.270  1.00  0.00     0.022 C 
ATOM     24  C   UNL     1      -5.115   0.163   1.494  1.00  0.00     0.007 C 
ATOM     25  C   UNL     1      -5.505   2.382   0.577  1.00  0.00     0.117 C 
ATOM     26  C   UNL     1      -5.075   1.200   2.622  1.00  0.00     0.003 C 
ATOM     27  C   UNL     1      -5.768   2.446   2.078  1.00  0.00     0.032 C 
BRANCH  25  28
ATOM     28  O   UNL     1      -4.203   2.886   0.336  1.00  0.00    -0.393 OA
ATOM     29  H   UNL     1      -3.562   2.399   0.875  1.00  0.00     0.210 HD
ENDBRANCH  25  28
ENDBRANCH  22  23
ENDBRANCH  13  22
ENDBRANCH   6   8
ENDBRANCH   3   6
ENDBRANCH   1   2
BRANCH   1  30
ATOM     30  C   UNL     1       4.489  -0.723  -0.877  1.00  0.00     0.042 C 
BRANCH  30  31
ATOM     31  C   UNL     1       5.170  -1.964  -1.448  1.00  0.00     0.118 C 
BRANCH  31  32
ATOM     32  N   UNL     1       6.065  -1.656  -2.551  1.00  0.00    -0.352 N 
ATOM     33  C   UNL     1       7.405  -1.896  -2.709  1.00  0.00     0.251 C 
ATOM     34  H   UNL     1       5.637  -1.199  -3.312  1.00  0.00     0.163 HD
ATOM     35  O   UNL     1       7.994  -1.372  -3.650  1.00  0.00    -0.269 OA
BRANCH  33  36
ATOM     36  C   UNL     1       8.148  -2.757  -1.760  1.00  0.00     0.039 A 
ATOM     37  C   UNL     1       9.453  -2.392  -1.418  1.00  0.00     0.014 A 
ATOM     38  C   UNL     1       7.602  -3.940  -1.252  1.00  0.00     0.014 A 
ATOM     39  C   UNL     1      10.188  -3.182  -0.533  1.00  0.00     0.010 A 
ATOM     40  C   UNL     1       8.311  -4.690  -0.312  1.00  0.00     0.010 A 
ATOM     41  C   UNL     1       9.614  -4.323   0.050  1.00  0.00    -0.014 A 
BRANCH  41  42
ATOM     42  C   UNL     1      10.376  -5.123   1.044  1.00  0.00     0.031 A 
ATOM     43  C   UNL     1      10.787  -6.539   0.741  1.00  0.00     0.074 A 
ATOM     44  C   UNL     1      10.678  -4.574   2.236  1.00  0.00     0.049 A 
ATOM     45  N   UNL     1      11.477  -7.372   1.478  1.00  0.00    -0.248 NA
ATOM     46  C   UNL     1      10.347  -7.101  -0.545  1.00  0.00     0.031 C 
ATOM     47  C   UNL     1      10.279  -3.233   2.674  1.00  0.00     0.029 A 
ATOM     48  N   UNL     1      11.393  -5.069   3.297  1.00  0.00    -0.354 N 
ATOM     49  C   UNL     1      11.549  -8.555   0.751  1.00  0.00     0.074 A 
ATOM     50  C   UNL     1      10.786  -8.349  -0.462  1.00  0.00     0.031 C 
ATOM     51  C   UNL     1      10.784  -3.001   3.896  1.00  0.00     0.029 A 
ATOM     52  C   UNL     1      11.520  -4.180   4.339  1.00  0.00     0.049 A 
ATOM     53  H   UNL     1      11.778  -5.975   3.312  1.00  0.00     0.167 HD
ATOM     54  C   UNL     1      12.210  -9.698   1.054  1.00  0.00     0.037 A 
ATOM     55  C   UNL     1      12.166  -4.298   5.515  1.00  0.00     0.037 A 
ATOM     56  C   UNL     1      12.989  -9.889   2.251  1.00  0.00     0.049 A 
ATOM     57  C   UNL     1      12.922  -5.562   5.812  1.00  0.00     0.074 A 
ATOM     58  C   UNL     1      13.745 -10.988   2.621  1.00  0.00     0.029 A 
ATOM     59  N   UNL     1      13.112  -8.959   3.272  1.00  0.00    -0.354 N 
ATOM     60  N   UNL     1      13.037  -6.645   5.080  1.00  0.00    -0.248 NA
ATOM     61  C   UNL     1      13.646  -5.616   7.089  1.00  0.00     0.031 C 
ATOM     62  C   UNL     1      14.298 -10.735   3.882  1.00  0.00     0.029 A 
ATOM     63  C   UNL     1      13.918  -9.463   4.280  1.00  0.00     0.049 A 
ATOM     64  H   UNL     1      12.688  -8.070   3.280  1.00  0.00     0.167 HD
ATOM     65  C   UNL     1      13.859  -7.503   5.801  1.00  0.00     0.074 A 
ATOM     66  C   UNL     1      14.230  -6.804   7.015  1.00  0.00     0.031 C 
ATOM     67  C   UNL     1      14.269  -8.758   5.487  1.00  0.00     0.037 A 
BRANCH  54  68
ATOM     68  C   UNL     1      12.130 -10.830   0.065  1.00  0.00     0.058 A 
ATOM     69  C   UNL     1      12.789 -10.771  -1.173  1.00  0.00     0.135 A 
ATOM     70  C   UNL     1      11.414 -11.998   0.370  1.00  0.00     0.135 A 
ATOM     71  F   UNL     1      13.477  -9.672  -1.522  1.00  0.00    -0.206 F 
ATOM     72  C   UNL     1      12.716 -11.817  -2.087  1.00  0.00     0.059 A 
ATOM     73  C   UNL     1      11.349 -13.068  -0.519  1.00  0.00     0.059 A 
ATOM     74  F   UNL     1      10.765 -12.108   1.540  1.00  0.00    -0.206 F 
ATOM     75  C   UNL     1      11.991 -12.961  -1.752  1.00  0.00     0.060 A 
BRANCH  75  76
ATOM     76  S   UNL     1      11.907 -14.312  -2.947  1.00  0.00     0.124 S 
ATOM     77  O   UNL     1      10.967 -13.775  -3.926  1.00  0.00    -0.237 OA
ATOM     78  O   UNL     1      13.292 -14.423  -3.393  1.00  0.00    -0.237 OA
ATOM     79  O   UNL     1      11.415 -15.435  -2.155  1.00  0.00    -0.744 OA
ENDBRANCH  75  76
ENDBRANCH  54  68
BRANCH  55  80
ATOM     80  C   UNL     1      12.158  -3.167   6.478  1.00  0.00     0.058 A 
ATOM     81  C   UNL     1      13.307  -2.392   6.690  1.00  0.00     0.135 A 
ATOM     82  C   UNL     1      10.996  -2.824   7.187  1.00  0.00     0.135 A 
ATOM     83  F   UNL     1      14.443  -2.684   6.037  1.00  0.00    -0.206 F 
ATOM     84  C   UNL     1      13.312  -1.324   7.581  1.00  0.00     0.059 A 
ATOM     85  C   UNL     1      10.970  -1.747   8.067  1.00  0.00     0.059 A 
ATOM     86  F   UNL     1       9.866  -3.523   7.004  1.00  0.00    -0.206 F 
ATOM     87  C   UNL     1      12.136  -1.008   8.264  1.00  0.00     0.060 A 
BRANCH  87  88
ATOM     88  S   UNL     1      12.132   0.416   9.375  1.00  0.00     0.124 S 
ATOM     89  O   UNL     1      12.841  -0.114  10.533  1.00  0.00    -0.237 OA
ATOM     90  O   UNL     1      12.846   1.420   8.592  1.00  0.00    -0.237 OA
ATOM     91  O   UNL     1      10.710   0.682   9.570  1.00  0.00    -0.744 OA
ENDBRANCH  87  88
ENDBRANCH  55  80
BRANCH  67  92
ATOM     92  C   UNL     1      15.173  -9.444   6.472  1.00  0.00     0.058 A 
ATOM     93  C   UNL     1      14.691  -9.926   7.699  1.00  0.00     0.135 A 
ATOM     94  C   UNL     1      16.534  -9.632   6.182  1.00  0.00     0.135 A 
ATOM     95  F   UNL     1      13.398  -9.767   8.026  1.00  0.00    -0.206 F 
ATOM     96  C   UNL     1      15.534 -10.536   8.622  1.00  0.00     0.059 A 
ATOM     97  C   UNL     1      17.390 -10.262   7.079  1.00  0.00     0.059 A 
ATOM     98  F   UNL     1      17.043  -9.200   5.017  1.00  0.00    -0.206 F 
ATOM     99  C   UNL     1      16.884 -10.694   8.305  1.00  0.00     0.060 A 
BRANCH  99 100
ATOM    100  S   UNL     1      17.972 -11.485   9.509  1.00  0.00     0.124 S 
ATOM    101  O   UNL     1      18.185 -10.403  10.465  1.00  0.00    -0.237 OA
ATOM    102  O   UNL     1      17.159 -12.600   9.984  1.00  0.00    -0.237 OA
ATOM    103  O   UNL     1      19.138 -11.861   8.715  1.00  0.00    -0.744 OA
ENDBRANCH  99 100
ENDBRANCH  67  92
ENDBRANCH  41  42
ENDBRANCH  33  36
ENDBRANCH  31  32
ENDBRANCH  30  31
ENDBRANCH   1  30
TORSDOF 19
