REMARK SMILES Cc1ccc(C)c(-n2nc(C)c(/C=C(/C#N)C(=O)NCCCNC(=O)c3ccc(-c4c5nc(c(-c6c(F)cc(S(=O)(=O)[O-])cc6F)c6ccc([nH]6)c(-c6c(F)cc(S(=O)(=O)[O-])cc6F)c6nc(c(-c7c(F)cc(S(=O)(=O)[O-])cc7F)c7ccc4[nH]7)C=C6)C=C5)cc3)c2Cl)c1
REMARK SMILES IDX 21 1 20 2 19 3 17 4 18 5 14 7 13 8 12 9 8 10 9 11 92 12
REMARK SMILES IDX 10 13 93 14 11 15 7 16 1 17 2 18 3 19 94 20 4 21 5 22 6 23
REMARK SMILES IDX 15 24 16 25 22 26 23 27 24 28 25 30 26 31 27 32 91 33 28 34
REMARK SMILES IDX 90 35 29 36 30 37 31 38 84 39 32 40 89 41 83 42 85 43 33 44
REMARK SMILES IDX 88 45 82 46 81 47 34 49 68 50 47 51 67 52 48 53 51 54 66 55
REMARK SMILES IDX 86 56 49 57 50 58 65 60 87 61 52 62 35 63 36 64 45 65 37 66
REMARK SMILES IDX 38 67 44 68 46 69 39 70 40 71 41 72 42 73 43 74 69 75 70 76
REMARK SMILES IDX 79 77 71 78 72 79 78 80 80 81 73 82 74 83 75 84 76 85 77 86
REMARK SMILES IDX 53 87 54 88 63 89 55 90 56 91 62 92 64 93 57 94 58 95 59 96
REMARK SMILES IDX 60 97 61 98
REMARK H PARENT 19 6 23 29 85 48 51 59
REMARK Flexibility Score: inf
ROOT
ATOM      1  C   UNL     1      -5.383   9.992  -1.529  1.00  0.00     0.042 C 
ENDROOT
BRANCH   1   2
ATOM      2  C   UNL     1      -4.607   9.382  -0.338  1.00  0.00     0.118 C 
BRANCH   2   3
ATOM      3  N   UNL     1      -4.878   7.945  -0.151  1.00  0.00    -0.351 N 
ATOM      4  C   UNL     1      -4.305   6.795  -0.641  1.00  0.00     0.261 C 
ATOM      5  O   UNL     1      -4.914   5.744  -0.466  1.00  0.00    -0.268 OA
ATOM      6  H   UNL     1      -5.632   7.771   0.457  1.00  0.00     0.163 HD
BRANCH   4   7
ATOM      7  C   UNL     1      -3.024   6.816  -1.421  1.00  0.00     0.117 C 
ATOM      8  C   UNL     1      -2.057   5.887  -1.391  1.00  0.00     0.038 C 
BRANCH   8   9
ATOM      9  C   UNL     1      -1.944   4.673  -0.622  1.00  0.00     0.036 A 
ATOM     10  N   UNL     1      -1.367   2.562  -0.146  1.00  0.00    -0.221 N 
ATOM     11  N   UNL     1      -2.108   2.966   0.907  1.00  0.00    -0.171 NA
ATOM     12  C   UNL     1      -1.204   3.588  -1.050  1.00  0.00     0.140 A 
ATOM     13  C   UNL     1      -2.451   4.234   0.641  1.00  0.00     0.069 A 
ATOM     14  Cl  UNL     1      -0.323   3.349  -2.502  1.00  0.00    -0.061 Cl
ATOM     15  C   UNL     1      -3.252   4.920   1.690  1.00  0.00     0.069 C 
BRANCH  10  16
ATOM     16  C   UNL     1      -0.730   1.299  -0.096  1.00  0.00     0.069 A 
ATOM     17  C   UNL     1       2.861   0.016  -0.022  1.00  0.00     0.044 C 
ATOM     18  C   UNL     1       1.363   0.054  -0.027  1.00  0.00    -0.049 A 
ATOM     19  C   UNL     1       0.630  -1.130   0.086  1.00  0.00     0.004 A 
ATOM     20  C   UNL     1       0.676   1.268  -0.131  1.00  0.00     0.032 A 
ATOM     21  C   UNL     1      -0.766  -1.100   0.125  1.00  0.00     0.006 A 
ATOM     22  C   UNL     1      -1.471   0.113   0.046  1.00  0.00    -0.025 A 
ATOM     23  C   UNL     1      -2.975   0.036   0.066  1.00  0.00     0.047 C 
ENDBRANCH  10  16
ENDBRANCH   8   9
BRANCH   7  24
ATOM     24  C   UNL     1      -3.058   7.979  -2.401  1.00  0.00     0.105 C 
ATOM     25  N   UNL     1      -3.086   8.943  -3.213  1.00  0.00    -0.192 NA
ENDBRANCH   7  24
ENDBRANCH   4   7
ENDBRANCH   2   3
ENDBRANCH   1   2
BRANCH   1  26
ATOM     26  C   UNL     1      -6.794  10.536  -1.284  1.00  0.00     0.118 C 
BRANCH  26  27
ATOM     27  N   UNL     1      -6.815  11.691  -0.378  1.00  0.00    -0.352 N 
ATOM     28  C   UNL     1      -7.458  11.973   0.823  1.00  0.00     0.251 C 
ATOM     29  H   UNL     1      -6.248  12.432  -0.690  1.00  0.00     0.163 HD
ATOM     30  O   UNL     1      -7.476  13.121   1.226  1.00  0.00    -0.269 OA
BRANCH  28  31
ATOM     31  C   UNL     1      -8.123  10.904   1.609  1.00  0.00     0.039 A 
ATOM     32  C   UNL     1      -8.973  11.144   2.693  1.00  0.00     0.014 A 
ATOM     33  C   UNL     1      -7.887   9.598   1.255  1.00  0.00     0.014 A 
ATOM     34  C   UNL     1      -9.465  10.044   3.409  1.00  0.00     0.010 A 
ATOM     35  C   UNL     1      -8.745   8.620   1.624  1.00  0.00     0.010 A 
ATOM     36  C   UNL     1      -9.284   8.766   2.874  1.00  0.00    -0.014 A 
BRANCH  36  37
ATOM     37  C   UNL     1      -9.648   7.515   3.514  1.00  0.00     0.031 A 
ATOM     38  C   UNL     1     -11.091   7.225   3.454  1.00  0.00     0.074 A 
ATOM     39  C   UNL     1      -8.761   6.520   3.753  1.00  0.00     0.049 A 
ATOM     40  N   UNL     1     -11.951   7.325   4.408  1.00  0.00    -0.248 NA
ATOM     41  C   UNL     1     -11.682   6.981   2.128  1.00  0.00     0.031 C 
ATOM     42  C   UNL     1      -7.332   6.452   3.412  1.00  0.00     0.029 A 
ATOM     43  N   UNL     1      -9.001   5.276   4.248  1.00  0.00    -0.354 N 
ATOM     44  C   UNL     1     -13.151   6.909   3.849  1.00  0.00     0.074 A 
ATOM     45  C   UNL     1     -12.982   7.001   2.424  1.00  0.00     0.031 C 
ATOM     46  C   UNL     1      -6.906   5.171   3.516  1.00  0.00     0.029 A 
ATOM     47  C   UNL     1      -7.984   4.351   4.042  1.00  0.00     0.049 A 
ATOM     48  H   UNL     1      -9.835   5.047   4.719  1.00  0.00     0.167 HD
ATOM     49  C   UNL     1     -14.082   6.234   4.578  1.00  0.00     0.037 A 
ATOM     50  C   UNL     1      -8.069   3.006   4.226  1.00  0.00     0.037 A 
ATOM     51  C   UNL     1     -13.760   6.250   5.986  1.00  0.00     0.049 A 
ATOM     52  C   UNL     1      -9.258   2.767   5.099  1.00  0.00     0.074 A 
ATOM     53  C   UNL     1     -13.470   7.251   6.897  1.00  0.00     0.029 A 
ATOM     54  N   UNL     1     -13.273   5.090   6.548  1.00  0.00    -0.354 N 
ATOM     55  N   UNL     1      -9.346   3.153   6.345  1.00  0.00    -0.248 NA
ATOM     56  C   UNL     1     -10.535   2.514   4.443  1.00  0.00     0.031 C 
ATOM     57  C   UNL     1     -12.393   6.736   7.678  1.00  0.00     0.029 A 
ATOM     58  C   UNL     1     -12.145   5.429   7.255  1.00  0.00     0.049 A 
ATOM     59  H   UNL     1     -13.661   4.190   6.460  1.00  0.00     0.167 HD
ATOM     60  C   UNL     1     -10.654   3.595   6.496  1.00  0.00     0.074 A 
ATOM     61  C   UNL     1     -11.361   3.091   5.320  1.00  0.00     0.031 C 
ATOM     62  C   UNL     1     -10.984   4.573   7.394  1.00  0.00     0.037 A 
BRANCH  49  63
ATOM     63  C   UNL     1     -15.076   5.264   3.990  1.00  0.00     0.058 A 
ATOM     64  C   UNL     1     -16.173   4.856   4.771  1.00  0.00     0.135 A 
ATOM     65  C   UNL     1     -14.879   4.544   2.789  1.00  0.00     0.135 A 
ATOM     66  F   UNL     1     -16.439   5.457   5.941  1.00  0.00    -0.206 F 
ATOM     67  C   UNL     1     -16.981   3.777   4.413  1.00  0.00     0.059 A 
ATOM     68  C   UNL     1     -15.713   3.513   2.379  1.00  0.00     0.059 A 
ATOM     69  F   UNL     1     -13.810   4.730   2.005  1.00  0.00    -0.206 F 
ATOM     70  C   UNL     1     -16.734   3.106   3.219  1.00  0.00     0.060 A 
BRANCH  70  71
ATOM     71  S   UNL     1     -17.703   1.648   2.804  1.00  0.00     0.124 S 
ATOM     72  O   UNL     1     -17.175   0.675   3.754  1.00  0.00    -0.237 OA
ATOM     73  O   UNL     1     -19.066   2.108   3.049  1.00  0.00    -0.237 OA
ATOM     74  O   UNL     1     -17.369   1.412   1.403  1.00  0.00    -0.744 OA
ENDBRANCH  70  71
ENDBRANCH  49  63
BRANCH  50  75
ATOM     75  C   UNL     1      -7.411   1.917   3.443  1.00  0.00     0.058 A 
ATOM     76  C   UNL     1      -7.472   0.575   3.864  1.00  0.00     0.135 A 
ATOM     77  C   UNL     1      -6.937   2.122   2.130  1.00  0.00     0.135 A 
ATOM     78  F   UNL     1      -7.928   0.273   5.090  1.00  0.00    -0.206 F 
ATOM     79  C   UNL     1      -7.141  -0.495   3.021  1.00  0.00     0.059 A 
ATOM     80  C   UNL     1      -6.583   1.075   1.278  1.00  0.00     0.059 A 
ATOM     81  F   UNL     1      -6.898   3.349   1.590  1.00  0.00    -0.206 F 
ATOM     82  C   UNL     1      -6.718  -0.235   1.718  1.00  0.00     0.060 A 
BRANCH  82  83
ATOM     83  S   UNL     1      -6.481  -1.610   0.565  1.00  0.00     0.124 S 
ATOM     84  O   UNL     1      -5.309  -2.280   1.118  1.00  0.00    -0.237 OA
ATOM     85  O   UNL     1      -7.742  -2.333   0.683  1.00  0.00    -0.237 OA
ATOM     86  O   UNL     1      -6.267  -0.946  -0.719  1.00  0.00    -0.744 OA
ENDBRANCH  82  83
ENDBRANCH  50  75
BRANCH  62  87
ATOM     87  C   UNL     1      -9.979   4.969   8.450  1.00  0.00     0.058 A 
ATOM     88  C   UNL     1      -8.701   5.493   8.183  1.00  0.00     0.135 A 
ATOM     89  C   UNL     1     -10.396   4.976   9.792  1.00  0.00     0.135 A 
ATOM     90  F   UNL     1      -8.261   5.636   6.926  1.00  0.00    -0.206 F 
ATOM     91  C   UNL     1      -7.865   5.958   9.200  1.00  0.00     0.059 A 
ATOM     92  C   UNL     1      -9.594   5.467  10.819  1.00  0.00     0.059 A 
ATOM     93  F   UNL     1     -11.629   4.549  10.115  1.00  0.00    -0.206 F 
ATOM     94  C   UNL     1      -8.321   5.944  10.517  1.00  0.00     0.060 A 
BRANCH  94  95
ATOM     95  S   UNL     1      -7.269   6.624  11.818  1.00  0.00     0.124 S 
ATOM     96  O   UNL     1      -6.232   5.606  11.937  1.00  0.00    -0.237 OA
ATOM     97  O   UNL     1      -6.843   7.900  11.250  1.00  0.00    -0.237 OA
ATOM     98  O   UNL     1      -8.171   6.734  12.963  1.00  0.00    -0.744 OA
ENDBRANCH  94  95
ENDBRANCH  62  87
ENDBRANCH  36  37
ENDBRANCH  28  31
ENDBRANCH  26  27
ENDBRANCH   1  26
TORSDOF 16
