REMARK SMILES CC1=C(C(=O)NCCCNC(=O)c2ccc(-c3c4nc(c(-c5c(F)cc(S(=O)(=O)[O-])cc5F)c5ccc([nH]5)c(-c5c(F)cc(S(=O)(=O)[O-])cc5F)c5nc(c(-c6c(F)cc(S(=O)(=O)[O-])cc6F)c6ccc3[nH]6)C=C5)C=C4)cc2)N2C(=O)[C@@H](NC(=O)c3ccn(C)n3)[C@H]2SC1
REMARK SMILES IDX 8 1 7 2 6 3 4 4 5 5 3 7 1 8 2 9 94 10 79 11 93 12 80 13
REMARK SMILES IDX 92 14 81 15 82 16 83 17 84 18 85 20 86 21 87 22 91 23 88 24
REMARK SMILES IDX 89 25 90 26 9 27 10 28 11 29 12 31 13 32 14 33 78 34 15 35
REMARK SMILES IDX 77 36 16 37 17 38 18 39 71 40 19 41 76 42 70 43 72 44 20 45
REMARK SMILES IDX 75 46 69 47 68 48 21 50 55 51 34 52 54 53 35 54 38 55 53 56
REMARK SMILES IDX 73 57 36 58 37 59 52 61 74 62 39 63 22 64 23 65 32 66 24 67
REMARK SMILES IDX 25 68 31 69 33 70 26 71 27 72 28 73 29 74 30 75 56 76 57 77
REMARK SMILES IDX 66 78 58 79 59 80 65 81 67 82 60 83 61 84 62 85 63 86 64 87
REMARK SMILES IDX 40 88 41 89 50 90 42 91 43 92 49 93 51 94 44 95 45 96 46 97
REMARK SMILES IDX 47 98 48 99
REMARK H PARENT 6 6 83 19 10 30 72 49 38 60
REMARK Flexibility Score: inf
ROOT
ATOM      1  C   UNL     1       3.103  -3.831   2.234  1.00  0.00     0.042 C 
ENDROOT
BRANCH   1   2
ATOM      2  C   UNL     1       2.732  -3.064   0.985  1.00  0.00     0.118 C 
BRANCH   2   3
ATOM      3  N   UNL     1       1.463  -3.396   0.372  1.00  0.00    -0.351 N 
ATOM      4  C   UNL     1       0.624  -2.594  -0.351  1.00  0.00     0.268 C 
ATOM      5  O   UNL     1      -0.276  -3.118  -1.010  1.00  0.00    -0.268 OA
ATOM      6  H   UNL     1       1.163  -4.326   0.492  1.00  0.00     0.163 HD
BRANCH   4   7
ATOM      7  C   UNL     1       0.747  -1.089  -0.307  1.00  0.00     0.110 C 
ATOM      8  C   UNL     1       3.163  -0.883  -1.055  1.00  0.00     0.043 C 
ATOM      9  C   UNL     1       1.872  -0.350  -0.488  1.00  0.00    -0.034 C 
ATOM     10  C   UNL     1       1.962   1.147  -0.176  1.00  0.00     0.104 C 
ATOM     11  N   UNL     1      -0.430  -0.410  -0.253  1.00  0.00    -0.290 N 
ATOM     12  S   UNL     1       0.390   1.974   0.259  1.00  0.00    -0.129 SA
ATOM     13  C   UNL     1      -1.731  -0.593   0.038  1.00  0.00     0.253 C 
ATOM     14  C   UNL     1      -0.553   0.904  -0.841  1.00  0.00     0.181 C 
ATOM     15  O   UNL     1      -2.356  -1.463   0.599  1.00  0.00    -0.272 OA
ATOM     16  C   UNL     1      -2.074   0.742  -0.682  1.00  0.00     0.206 C 
BRANCH  16  17
ATOM     17  N   UNL     1      -2.818   1.797   0.038  1.00  0.00    -0.336 N 
ATOM     18  C   UNL     1      -3.826   2.590  -0.482  1.00  0.00     0.272 C 
ATOM     19  H   UNL     1      -2.574   1.950   0.979  1.00  0.00     0.164 HD
ATOM     20  O   UNL     1      -4.221   3.559   0.163  1.00  0.00    -0.267 OA
BRANCH  18  21
ATOM     21  C   UNL     1      -4.364   2.235  -1.808  1.00  0.00     0.150 A 
ATOM     22  C   UNL     1      -4.875   0.973  -2.229  1.00  0.00     0.056 A 
ATOM     23  N   UNL     1      -4.383   3.113  -2.830  1.00  0.00    -0.168 NA
ATOM     24  C   UNL     1      -5.156   1.115  -3.566  1.00  0.00     0.109 A 
ATOM     25  N   UNL     1      -4.888   2.417  -3.863  1.00  0.00    -0.275 N 
ATOM     26  C   UNL     1      -5.074   3.052  -5.145  1.00  0.00     0.173 C 
ENDBRANCH  18  21
ENDBRANCH  16  17
ENDBRANCH   4   7
ENDBRANCH   2   3
ENDBRANCH   1   2
BRANCH   1  27
ATOM     27  C   UNL     1       3.233  -5.332   2.058  1.00  0.00     0.118 C 
BRANCH  27  28
ATOM     28  N   UNL     1       4.292  -5.741   1.139  1.00  0.00    -0.352 N 
ATOM     29  C   UNL     1       5.514  -6.338   1.360  1.00  0.00     0.251 C 
ATOM     30  H   UNL     1       4.098  -5.557   0.192  1.00  0.00     0.163 HD
ATOM     31  O   UNL     1       6.285  -6.487   0.415  1.00  0.00    -0.269 OA
BRANCH  29  32
ATOM     32  C   UNL     1       5.927  -6.754   2.721  1.00  0.00     0.039 A 
ATOM     33  C   UNL     1       7.256  -6.581   3.118  1.00  0.00     0.014 A 
ATOM     34  C   UNL     1       5.012  -7.300   3.619  1.00  0.00     0.014 A 
ATOM     35  C   UNL     1       7.629  -6.854   4.438  1.00  0.00     0.010 A 
ATOM     36  C   UNL     1       5.345  -7.423   4.962  1.00  0.00     0.010 A 
ATOM     37  C   UNL     1       6.662  -7.218   5.390  1.00  0.00    -0.014 A 
BRANCH  37  38
ATOM     38  C   UNL     1       7.005  -7.411   6.825  1.00  0.00     0.031 A 
ATOM     39  C   UNL     1       6.719  -8.729   7.502  1.00  0.00     0.074 A 
ATOM     40  C   UNL     1       7.513  -6.384   7.536  1.00  0.00     0.049 A 
ATOM     41  N   UNL     1       6.893  -9.070   8.753  1.00  0.00    -0.248 NA
ATOM     42  C   UNL     1       6.123  -9.793   6.674  1.00  0.00     0.031 C 
ATOM     43  C   UNL     1       7.774  -5.039   7.017  1.00  0.00     0.029 A 
ATOM     44  N   UNL     1       7.900  -6.307   8.851  1.00  0.00    -0.354 N 
ATOM     45  C   UNL     1       6.420 -10.373   8.860  1.00  0.00     0.074 A 
ATOM     46  C   UNL     1       5.876 -10.734   7.571  1.00  0.00     0.031 C 
ATOM     47  C   UNL     1       8.318  -4.287   7.987  1.00  0.00     0.029 A 
ATOM     48  C   UNL     1       8.400  -5.076   9.211  1.00  0.00     0.049 A 
ATOM     49  H   UNL     1       7.827  -7.062   9.479  1.00  0.00     0.167 HD
ATOM     50  C   UNL     1       6.466 -11.210   9.924  1.00  0.00     0.037 A 
ATOM     51  C   UNL     1       8.868  -4.631  10.394  1.00  0.00     0.037 A 
ATOM     52  C   UNL     1       7.031 -10.854  11.199  1.00  0.00     0.049 A 
ATOM     53  C   UNL     1       8.903  -5.577  11.565  1.00  0.00     0.074 A 
ATOM     54  C   UNL     1       7.178 -11.643  12.325  1.00  0.00     0.029 A 
ATOM     55  N   UNL     1       7.540  -9.603  11.518  1.00  0.00    -0.354 N 
ATOM     56  N   UNL     1       8.517  -6.830  11.627  1.00  0.00    -0.248 NA
ATOM     57  C   UNL     1       9.447  -5.052  12.825  1.00  0.00     0.031 C 
ATOM     58  C   UNL     1       7.721 -10.853  13.344  1.00  0.00     0.029 A 
ATOM     59  C   UNL     1       7.978  -9.591  12.832  1.00  0.00     0.049 A 
ATOM     60  H   UNL     1       7.583  -8.836  10.901  1.00  0.00     0.167 HD
ATOM     61  C   UNL     1       8.801  -7.252  12.921  1.00  0.00     0.074 A 
ATOM     62  C   UNL     1       9.406  -6.125  13.602  1.00  0.00     0.031 C 
ATOM     63  C   UNL     1       8.583  -8.462  13.495  1.00  0.00     0.037 A 
BRANCH  50  64
ATOM     64  C   UNL     1       5.898 -12.595   9.751  1.00  0.00     0.058 A 
ATOM     65  C   UNL     1       6.498 -13.541   8.902  1.00  0.00     0.135 A 
ATOM     66  C   UNL     1       4.757 -12.995  10.466  1.00  0.00     0.135 A 
ATOM     67  F   UNL     1       7.580 -13.211   8.179  1.00  0.00    -0.206 F 
ATOM     68  C   UNL     1       5.971 -14.818   8.744  1.00  0.00     0.059 A 
ATOM     69  C   UNL     1       4.233 -14.280  10.351  1.00  0.00     0.059 A 
ATOM     70  F   UNL     1       4.139 -12.134  11.290  1.00  0.00    -0.206 F 
ATOM     71  C   UNL     1       4.839 -15.180   9.476  1.00  0.00     0.060 A 
BRANCH  71  72
ATOM     72  S   UNL     1       4.178 -16.846   9.268  1.00  0.00     0.124 S 
ATOM     73  O   UNL     1       3.634 -16.776   7.915  1.00  0.00    -0.237 OA
ATOM     74  O   UNL     1       5.369 -17.674   9.430  1.00  0.00    -0.237 OA
ATOM     75  O   UNL     1       3.189 -16.957  10.336  1.00  0.00    -0.744 OA
ENDBRANCH  71  72
ENDBRANCH  50  64
BRANCH  51  76
ATOM     76  C   UNL     1       9.368  -3.234  10.523  1.00  0.00     0.058 A 
ATOM     77  C   UNL     1      10.730  -2.969  10.735  1.00  0.00     0.135 A 
ATOM     78  C   UNL     1       8.499  -2.136  10.430  1.00  0.00     0.135 A 
ATOM     79  F   UNL     1      11.602  -3.984  10.838  1.00  0.00    -0.206 F 
ATOM     80  C   UNL     1      11.210  -1.670  10.871  1.00  0.00     0.059 A 
ATOM     81  C   UNL     1       8.959  -0.826  10.531  1.00  0.00     0.059 A 
ATOM     82  F   UNL     1       7.190  -2.330  10.210  1.00  0.00    -0.206 F 
ATOM     83  C   UNL     1      10.316  -0.604  10.763  1.00  0.00     0.060 A 
BRANCH  83  84
ATOM     84  S   UNL     1      10.957   1.079  10.892  1.00  0.00     0.124 S 
ATOM     85  O   UNL     1      11.301   1.156  12.307  1.00  0.00    -0.237 OA
ATOM     86  O   UNL     1      12.082   1.048   9.962  1.00  0.00    -0.237 OA
ATOM     87  O   UNL     1       9.828   1.902  10.471  1.00  0.00    -0.744 OA
ENDBRANCH  83  84
ENDBRANCH  51  76
BRANCH  63  88
ATOM     88  C   UNL     1       9.040  -8.647  14.917  1.00  0.00     0.058 A 
ATOM     89  C   UNL     1       8.411  -8.000  15.992  1.00  0.00     0.135 A 
ATOM     90  C   UNL     1      10.104  -9.518  15.210  1.00  0.00     0.135 A 
ATOM     91  F   UNL     1       7.392  -7.154  15.769  1.00  0.00    -0.206 F 
ATOM     92  C   UNL     1       8.843  -8.179  17.302  1.00  0.00     0.059 A 
ATOM     93  C   UNL     1      10.528  -9.741  16.515  1.00  0.00     0.059 A 
ATOM     94  F   UNL     1      10.733 -10.175  14.222  1.00  0.00    -0.206 F 
ATOM     95  C   UNL     1       9.903  -9.053  17.553  1.00  0.00     0.060 A 
BRANCH  95  96
ATOM     96  S   UNL     1      10.442  -9.287  19.259  1.00  0.00     0.124 S 
ATOM     97  O   UNL     1      11.092  -8.011  19.540  1.00  0.00    -0.237 OA
ATOM     98  O   UNL     1       9.181  -9.523  19.955  1.00  0.00    -0.237 OA
ATOM     99  O   UNL     1      11.333 -10.441  19.179  1.00  0.00    -0.744 OA
ENDBRANCH  95  96
ENDBRANCH  63  88
ENDBRANCH  37  38
ENDBRANCH  29  32
ENDBRANCH  27  28
ENDBRANCH   1  27
TORSDOF 15
