REMARK SMILES Cc1coc2c(C)c3oc(=O)c(CC(=O)NCC(=O)N[C@H](C(=O)NCCCNC(=O)c4ccc(-c5c6nc(c(-c7c(F)cc(S(=O)(=O)[O-])cc7F)c7ccc([nH]7)c(-c7c(F)cc(S(=O)(=O)[O-])cc7F)c7nc(c(-c8c(F)cc(S(=O)(=O)[O-])cc8F)c8ccc5[nH]8)C=C7)C=C6)cc4)C(C)C)c(C)c3cc12
REMARK SMILES IDX 25 1 24 2 22 3 23 4 21 6 20 7 18 8 19 9 17 11 16 12 14 13
REMARK SMILES IDX 15 14 13 16 12 17 1 18 2 19 3 20 104 21 4 22 5 23 103 24
REMARK SMILES IDX 6 25 102 26 7 27 8 28 100 29 9 30 101 31 10 32 11 33 97 34
REMARK SMILES IDX 98 35 99 36 26 37 27 38 28 39 29 40 30 42 31 43 32 44 96 45
REMARK SMILES IDX 33 46 95 47 34 48 35 49 36 50 89 51 37 52 94 53 88 54 90 55
REMARK SMILES IDX 38 56 93 57 87 58 86 59 39 61 73 62 52 63 72 64 53 65 56 66
REMARK SMILES IDX 71 67 91 68 54 69 55 70 70 72 92 73 57 74 40 75 41 76 50 77
REMARK SMILES IDX 42 78 43 79 49 80 51 81 44 82 45 83 46 84 47 85 48 86 74 87
REMARK SMILES IDX 75 88 84 89 76 90 77 91 83 92 85 93 78 94 79 95 80 96 81 97
REMARK SMILES IDX 82 98 58 99 59 100 68 101 60 102 61 103 67 104 69 105 62 106
REMARK SMILES IDX 63 107 64 108 65 109 66 110
REMARK H PARENT 24 5 20 10 16 15 28 41 90 60 56 71
REMARK Flexibility Score: inf
ROOT
ATOM      1  C   UNL     1      -5.355   1.450  -0.596  1.00  0.00     0.117 C 
ENDROOT
BRANCH   1   2
ATOM      2  N   UNL     1      -5.638   1.931  -1.917  1.00  0.00    -0.354 N 
ATOM      3  C   UNL     1      -4.868   2.853  -2.547  1.00  0.00     0.242 C 
ATOM      4  O   UNL     1      -5.342   3.469  -3.504  1.00  0.00    -0.273 OA
ATOM      5  H   UNL     1      -6.426   1.576  -2.388  1.00  0.00     0.163 HD
BRANCH   3   6
ATOM      6  C   UNL     1      -3.371   2.950  -2.183  1.00  0.00     0.173 C 
BRANCH   6   7
ATOM      7  N   UNL     1      -2.726   2.574  -0.865  1.00  0.00    -0.343 N 
ATOM      8  C   UNL     1      -1.782   1.631  -0.481  1.00  0.00     0.240 C 
ATOM      9  O   UNL     1      -1.537   1.663   0.739  1.00  0.00    -0.273 OA
ATOM     10  H   UNL     1      -3.049   3.120  -0.113  1.00  0.00     0.164 HD
BRANCH   8  11
ATOM     11  C   UNL     1      -0.798   0.632  -1.423  1.00  0.00     0.216 C 
BRANCH  11  12
ATOM     12  N   UNL     1      -0.887  -0.067  -2.803  1.00  0.00    -0.347 N 
ATOM     13  C   UNL     1      -0.620  -0.035  -4.147  1.00  0.00     0.225 C 
ATOM     14  O   UNL     1      -0.998  -1.107  -4.674  1.00  0.00    -0.275 OA
ATOM     15  H   UNL     1      -1.345  -0.923  -2.640  1.00  0.00     0.164 HD
BRANCH  13  16
ATOM     16  C   UNL     1       0.109   0.999  -5.203  1.00  0.00     0.143 C 
BRANCH  16  17
ATOM     17  C   UNL     1      -0.035   2.544  -5.494  1.00  0.00     0.051 A 
ATOM     18  C   UNL     1      -4.843   7.732  -6.267  1.00  0.00     0.048 C 
ATOM     19  C   UNL     1      -3.522   7.804  -5.594  1.00  0.00    -0.005 A 
ATOM     20  C   UNL     1      -3.007   8.892  -4.917  1.00  0.00     0.199 A 
ATOM     21  C   UNL     1      -2.505   6.795  -5.535  1.00  0.00     0.024 A 
ATOM     22  O   UNL     1      -1.794   8.601  -4.385  1.00  0.00    -0.464 OA
ATOM     23  C   UNL     1      -1.482   7.328  -4.764  1.00  0.00     0.140 A 
ATOM     24  C   UNL     1      -2.354   5.473  -6.024  1.00  0.00     0.024 A 
ATOM     25  C   UNL     1      -0.314   6.645  -4.418  1.00  0.00     0.036 A 
ATOM     26  C   UNL     1      -1.153   4.749  -5.811  1.00  0.00     0.022 A 
ATOM     27  C   UNL     1       0.674   7.213  -3.449  1.00  0.00     0.052 C 
ATOM     28  C   UNL     1      -0.171   5.374  -5.031  1.00  0.00     0.145 A 
ATOM     29  C   UNL     1      -0.993   3.278  -6.145  1.00  0.00    -0.029 A 
ATOM     30  O   UNL     1       1.010   4.663  -4.734  1.00  0.00    -0.422 OA
ATOM     31  C   UNL     1      -2.076   2.743  -7.053  1.00  0.00     0.046 C 
ATOM     32  C   UNL     1       1.155   3.308  -4.980  1.00  0.00     0.340 A 
ATOM     33  O   UNL     1       2.222   2.750  -4.743  1.00  0.00    -0.246 OA
ENDBRANCH  16  17
ENDBRANCH  13  16
ENDBRANCH  11  12
ENDBRANCH   8  11
ENDBRANCH   6   7
BRANCH   6  34
ATOM     34  C   UNL     1      -2.592   2.132  -3.149  1.00  0.00     0.015 C 
ATOM     35  C   UNL     1      -3.216   1.560  -4.416  1.00  0.00     0.010 C 
ATOM     36  C   UNL     1      -1.243   2.870  -3.074  1.00  0.00     0.010 C 
ENDBRANCH   6  34
ENDBRANCH   3   6
ENDBRANCH   1   2
BRANCH   1  37
ATOM     37  C   UNL     1      -5.340   2.629   0.393  1.00  0.00     0.042 C 
BRANCH  37  38
ATOM     38  C   UNL     1      -6.729   2.944   0.880  1.00  0.00     0.118 C 
BRANCH  38  39
ATOM     39  N   UNL     1      -7.208   1.808   1.641  1.00  0.00    -0.352 N 
ATOM     40  C   UNL     1      -8.489   1.370   1.864  1.00  0.00     0.251 C 
ATOM     41  H   UNL     1      -6.505   1.266   2.064  1.00  0.00     0.163 HD
ATOM     42  O   UNL     1      -8.710   0.509   2.680  1.00  0.00    -0.269 OA
BRANCH  40  43
ATOM     43  C   UNL     1      -9.575   2.016   1.112  1.00  0.00     0.039 A 
ATOM     44  C   UNL     1     -10.659   2.515   1.831  1.00  0.00     0.014 A 
ATOM     45  C   UNL     1      -9.466   2.189  -0.269  1.00  0.00     0.014 A 
ATOM     46  C   UNL     1     -11.613   3.257   1.157  1.00  0.00     0.010 A 
ATOM     47  C   UNL     1     -10.350   3.024  -0.913  1.00  0.00     0.010 A 
ATOM     48  C   UNL     1     -11.438   3.532  -0.208  1.00  0.00    -0.014 A 
BRANCH  48  49
ATOM     49  C   UNL     1     -12.340   4.478  -0.852  1.00  0.00     0.031 A 
ATOM     50  C   UNL     1     -12.423   5.799  -0.170  1.00  0.00     0.074 A 
ATOM     51  C   UNL     1     -12.920   4.247  -2.046  1.00  0.00     0.049 A 
ATOM     52  N   UNL     1     -13.415   6.276   0.506  1.00  0.00    -0.248 NA
ATOM     53  C   UNL     1     -11.198   6.611  -0.074  1.00  0.00     0.031 C 
ATOM     54  C   UNL     1     -12.686   3.129  -2.965  1.00  0.00     0.029 A 
ATOM     55  N   UNL     1     -13.786   5.031  -2.740  1.00  0.00    -0.354 N 
ATOM     56  C   UNL     1     -13.027   7.552   0.905  1.00  0.00     0.074 A 
ATOM     57  C   UNL     1     -11.604   7.614   0.708  1.00  0.00     0.031 C 
ATOM     58  C   UNL     1     -13.206   3.425  -4.176  1.00  0.00     0.029 A 
ATOM     59  C   UNL     1     -13.949   4.667  -4.071  1.00  0.00     0.049 A 
ATOM     60  H   UNL     1     -14.258   5.794  -2.335  1.00  0.00     0.167 HD
ATOM     61  C   UNL     1     -13.950   8.532   1.119  1.00  0.00     0.037 A 
ATOM     62  C   UNL     1     -14.619   5.357  -5.026  1.00  0.00     0.037 A 
ATOM     63  C   UNL     1     -15.273   7.971   1.242  1.00  0.00     0.049 A 
ATOM     64  C   UNL     1     -15.572   6.249  -4.314  1.00  0.00     0.074 A 
ATOM     65  C   UNL     1     -15.875   7.077   2.105  1.00  0.00     0.029 A 
ATOM     66  N   UNL     1     -16.082   8.038   0.134  1.00  0.00    -0.354 N 
ATOM     67  N   UNL     1     -16.571   5.816  -3.590  1.00  0.00    -0.248 NA
ATOM     68  C   UNL     1     -15.155   7.615  -4.038  1.00  0.00     0.031 C 
ATOM     69  C   UNL     1     -16.763   6.317   1.290  1.00  0.00     0.029 A 
ATOM     70  C   UNL     1     -16.711   6.829  -0.009  1.00  0.00     0.049 A 
ATOM     71  H   UNL     1     -16.192   8.819  -0.455  1.00  0.00     0.167 HD
ATOM     72  C   UNL     1     -16.620   6.674  -2.500  1.00  0.00     0.074 A 
ATOM     73  C   UNL     1     -15.802   7.820  -2.887  1.00  0.00     0.031 C 
ATOM     74  C   UNL     1     -17.084   6.249  -1.286  1.00  0.00     0.037 A 
BRANCH  61  75
ATOM     75  C   UNL     1     -13.733  10.001   0.822  1.00  0.00     0.058 A 
ATOM     76  C   UNL     1     -14.738  10.929   1.175  1.00  0.00     0.135 A 
ATOM     77  C   UNL     1     -12.733  10.497  -0.044  1.00  0.00     0.135 A 
ATOM     78  F   UNL     1     -15.743  10.572   1.992  1.00  0.00    -0.206 F 
ATOM     79  C   UNL     1     -14.792  12.217   0.639  1.00  0.00     0.059 A 
ATOM     80  C   UNL     1     -12.738  11.793  -0.545  1.00  0.00     0.059 A 
ATOM     81  F   UNL     1     -11.755   9.726  -0.530  1.00  0.00    -0.206 F 
ATOM     82  C   UNL     1     -13.794  12.633  -0.235  1.00  0.00     0.060 A 
BRANCH  82  83
ATOM     83  S   UNL     1     -13.914  14.252  -1.013  1.00  0.00     0.124 S 
ATOM     84  O   UNL     1     -15.072  14.071  -1.881  1.00  0.00    -0.237 OA
ATOM     85  O   UNL     1     -14.105  15.126   0.140  1.00  0.00    -0.237 OA
ATOM     86  O   UNL     1     -12.630  14.392  -1.693  1.00  0.00    -0.744 OA
ENDBRANCH  82  83
ENDBRANCH  61  75
BRANCH  62  87
ATOM     87  C   UNL     1     -14.232   5.529  -6.453  1.00  0.00     0.058 A 
ATOM     88  C   UNL     1     -15.110   6.111  -7.384  1.00  0.00     0.135 A 
ATOM     89  C   UNL     1     -12.896   5.371  -6.880  1.00  0.00     0.135 A 
ATOM     90  F   UNL     1     -16.395   6.321  -7.059  1.00  0.00    -0.206 F 
ATOM     91  C   UNL     1     -14.681   6.553  -8.643  1.00  0.00     0.059 A 
ATOM     92  C   UNL     1     -12.449   5.791  -8.132  1.00  0.00     0.059 A 
ATOM     93  F   UNL     1     -11.956   4.883  -6.058  1.00  0.00    -0.206 F 
ATOM     94  C   UNL     1     -13.341   6.407  -8.999  1.00  0.00     0.060 A 
BRANCH  94  95
ATOM     95  S   UNL     1     -12.745   7.120 -10.551  1.00  0.00     0.124 S 
ATOM     96  O   UNL     1     -13.438   6.308 -11.544  1.00  0.00    -0.237 OA
ATOM     97  O   UNL     1     -13.185   8.507 -10.439  1.00  0.00    -0.237 OA
ATOM     98  O   UNL     1     -11.299   6.922 -10.483  1.00  0.00    -0.744 OA
ENDBRANCH  94  95
ENDBRANCH  62  87
BRANCH  74  99
ATOM     99  C   UNL     1     -17.860   4.957  -1.218  1.00  0.00     0.058 A 
ATOM    100  C   UNL     1     -17.315   3.683  -1.458  1.00  0.00     0.135 A 
ATOM    101  C   UNL     1     -19.158   5.006  -0.685  1.00  0.00     0.135 A 
ATOM    102  F   UNL     1     -16.053   3.541  -1.885  1.00  0.00    -0.206 F 
ATOM    103  C   UNL     1     -18.031   2.514  -1.187  1.00  0.00     0.059 A 
ATOM    104  C   UNL     1     -19.877   3.855  -0.378  1.00  0.00     0.059 A 
ATOM    105  F   UNL     1     -19.715   6.191  -0.383  1.00  0.00    -0.206 F 
ATOM    106  C   UNL     1     -19.308   2.610  -0.632  1.00  0.00     0.060 A 
BRANCH 106 107
ATOM    107  S   UNL     1     -20.182   1.099  -0.167  1.00  0.00     0.124 S 
ATOM    108  O   UNL     1     -20.486   0.506  -1.465  1.00  0.00    -0.237 OA
ATOM    109  O   UNL     1     -19.188   0.393   0.636  1.00  0.00    -0.237 OA
ATOM    110  O   UNL     1     -21.338   1.589   0.581  1.00  0.00    -0.744 OA
ENDBRANCH 106 107
ENDBRANCH  74  99
ENDBRANCH  48  49
ENDBRANCH  40  43
ENDBRANCH  38  39
ENDBRANCH  37  38
ENDBRANCH   1  37
TORSDOF 19
