REMARK SMILES C[C@@H](Oc1ccc2c(c1)OCO2)C(=O)N1CCn2nc(C(=O)NCCCNC(=O)c3ccc(-c4c5nc(c(-c6c(F)cc(S(=O)(=O)[O-])cc6F)c6ccc([nH]6)c(-c6c(F)cc(S(=O)(=O)[O-])cc6F)c6nc(c(-c7c(F)cc(S(=O)(=O)[O-])cc7F)c7ccc4[nH]7)C=C6)C=C5)cc3)cc2C1
REMARK SMILES IDX 24 1 23 2 21 3 22 4 20 6 15 7 16 8 98 9 17 10 97 11 18 12
REMARK SMILES IDX 96 13 19 14 13 15 14 16 2 17 1 18 3 19 4 20 5 21 9 22 6 23
REMARK SMILES IDX 8 24 7 25 10 26 12 27 11 28 25 29 26 30 27 31 28 32 29 34
REMARK SMILES IDX 30 35 31 36 95 37 32 38 94 39 33 40 34 41 35 42 88 43 36 44
REMARK SMILES IDX 93 45 87 46 89 47 37 48 92 49 86 50 85 51 38 53 72 54 51 55
REMARK SMILES IDX 71 56 52 57 55 58 70 59 90 60 53 61 54 62 69 64 91 65 56 66
REMARK SMILES IDX 39 67 40 68 49 69 41 70 42 71 48 72 50 73 43 74 44 75 45 76
REMARK SMILES IDX 46 77 47 78 73 79 74 80 83 81 75 82 76 83 82 84 84 85 77 86
REMARK SMILES IDX 78 87 79 88 80 89 81 90 57 91 58 92 67 93 59 94 60 95 66 96
REMARK SMILES IDX 68 97 61 98 62 99 63 100 64 101 65 102
REMARK H PARENT 23 5 27 33 89 52 55 63
REMARK Flexibility Score: inf
ROOT
ATOM      1  C   UNL     1      -6.911   5.421  -0.320  1.00  0.00     0.118 C 
ENDROOT
BRANCH   1   2
ATOM      2  N   UNL     1      -6.570   5.660  -1.712  1.00  0.00    -0.351 N 
ATOM      3  C   UNL     1      -5.592   5.109  -2.517  1.00  0.00     0.271 C 
ATOM      4  O   UNL     1      -5.643   5.394  -3.715  1.00  0.00    -0.267 OA
ATOM      5  H   UNL     1      -7.135   6.331  -2.160  1.00  0.00     0.163 HD
BRANCH   3   6
ATOM      6  C   UNL     1      -4.572   4.198  -1.955  1.00  0.00     0.150 A 
ATOM      7  N   UNL     1      -1.576   1.408   0.114  1.00  0.00    -0.332 N 
ATOM      8  C   UNL     1      -1.145   1.309  -1.293  1.00  0.00     0.143 C 
ATOM      9  C   UNL     1      -2.810   2.076   0.474  1.00  0.00     0.175 C 
ATOM     10  C   UNL     1      -2.129   1.716  -2.390  1.00  0.00     0.166 C 
ATOM     11  C   UNL     1      -3.347   2.904  -0.610  1.00  0.00     0.059 A 
ATOM     12  N   UNL     1      -3.083   2.678  -1.915  1.00  0.00    -0.265 N 
ATOM     13  C   UNL     1      -4.186   3.987  -0.603  1.00  0.00     0.061 A 
ATOM     14  N   UNL     1      -3.847   3.384  -2.755  1.00  0.00    -0.167 NA
BRANCH   7  15
ATOM     15  C   UNL     1      -0.843   0.940   1.206  1.00  0.00     0.263 C 
ATOM     16  O   UNL     1      -1.389   0.726   2.294  1.00  0.00    -0.271 OA
BRANCH  15  17
ATOM     17  C   UNL     1       0.677   0.763   1.075  1.00  0.00     0.259 C 
ATOM     18  C   UNL     1       1.039  -0.425   0.193  1.00  0.00     0.064 C 
BRANCH  17  19
ATOM     19  O   UNL     1       1.156   2.025   0.585  1.00  0.00    -0.481 OA
BRANCH  19  20
ATOM     20  C   UNL     1       2.477   2.261   0.828  1.00  0.00     0.124 A 
ATOM     21  C   UNL     1       3.440   1.702  -0.026  1.00  0.00     0.050 A 
ATOM     22  C   UNL     1       2.833   3.194   1.804  1.00  0.00     0.097 A 
ATOM     23  C   UNL     1       4.787   2.027   0.117  1.00  0.00     0.054 A 
ATOM     24  C   UNL     1       4.172   3.511   1.911  1.00  0.00     0.169 A 
ATOM     25  C   UNL     1       5.121   2.939   1.093  1.00  0.00     0.166 A 
ATOM     26  O   UNL     1       4.718   4.410   2.775  1.00  0.00    -0.453 OA
ATOM     27  O   UNL     1       6.375   3.398   1.343  1.00  0.00    -0.454 OA
ATOM     28  C   UNL     1       6.105   4.364   2.379  1.00  0.00     0.468 C 
ENDBRANCH  19  20
ENDBRANCH  17  19
ENDBRANCH  15  17
ENDBRANCH   7  15
ENDBRANCH   3   6
ENDBRANCH   1   2
BRANCH   1  29
ATOM     29  C   UNL     1      -6.206   6.389   0.641  1.00  0.00     0.042 C 
BRANCH  29  30
ATOM     30  C   UNL     1      -6.902   7.734   0.721  1.00  0.00     0.118 C 
BRANCH  30  31
ATOM     31  N   UNL     1      -8.216   7.648   1.366  1.00  0.00    -0.352 N 
ATOM     32  C   UNL     1      -9.196   8.624   1.476  1.00  0.00     0.251 C 
ATOM     33  H   UNL     1      -8.433   6.779   1.776  1.00  0.00     0.163 HD
ATOM     34  O   UNL     1     -10.056   8.544   2.336  1.00  0.00    -0.269 OA
BRANCH  32  35
ATOM     35  C   UNL     1      -9.160   9.758   0.534  1.00  0.00     0.039 A 
ATOM     36  C   UNL     1      -9.472  11.061   0.922  1.00  0.00     0.014 A 
ATOM     37  C   UNL     1      -8.728   9.491  -0.759  1.00  0.00     0.014 A 
ATOM     38  C   UNL     1      -9.252  12.091   0.009  1.00  0.00     0.010 A 
ATOM     39  C   UNL     1      -8.263  10.512  -1.536  1.00  0.00     0.010 A 
ATOM     40  C   UNL     1      -8.610  11.810  -1.213  1.00  0.00    -0.014 A 
BRANCH  40  41
ATOM     41  C   UNL     1      -8.201  12.867  -2.129  1.00  0.00     0.031 A 
ATOM     42  C   UNL     1      -7.498  13.986  -1.457  1.00  0.00     0.074 A 
ATOM     43  C   UNL     1      -8.291  12.790  -3.477  1.00  0.00     0.049 A 
ATOM     44  N   UNL     1      -8.000  15.135  -1.152  1.00  0.00    -0.248 NA
ATOM     45  C   UNL     1      -6.173  13.740  -0.866  1.00  0.00     0.031 C 
ATOM     46  C   UNL     1      -8.682  11.653  -4.322  1.00  0.00     0.029 A 
ATOM     47  N   UNL     1      -7.974  13.736  -4.402  1.00  0.00    -0.354 N 
ATOM     48  C   UNL     1      -6.965  15.856  -0.573  1.00  0.00     0.074 A 
ATOM     49  C   UNL     1      -5.958  14.890  -0.221  1.00  0.00     0.031 C 
ATOM     50  C   UNL     1      -8.361  11.904  -5.611  1.00  0.00     0.029 A 
ATOM     51  C   UNL     1      -7.921  13.281  -5.717  1.00  0.00     0.049 A 
ATOM     52  H   UNL     1      -7.796  14.673  -4.159  1.00  0.00     0.167 HD
ATOM     53  C   UNL     1      -6.926  17.213  -0.684  1.00  0.00     0.037 A 
ATOM     54  C   UNL     1      -7.556  13.995  -6.815  1.00  0.00     0.037 A 
ATOM     55  C   UNL     1      -8.206  17.730  -1.114  1.00  0.00     0.049 A 
ATOM     56  C   UNL     1      -7.745  15.428  -6.466  1.00  0.00     0.074 A 
ATOM     57  C   UNL     1      -9.494  17.657  -0.615  1.00  0.00     0.029 A 
ATOM     58  N   UNL     1      -8.341  18.073  -2.440  1.00  0.00    -0.354 N 
ATOM     59  N   UNL     1      -8.913  15.965  -6.232  1.00  0.00    -0.248 NA
ATOM     60  C   UNL     1      -6.609  16.130  -5.889  1.00  0.00     0.031 C 
ATOM     61  C   UNL     1     -10.322  17.462  -1.760  1.00  0.00     0.029 A 
ATOM     62  C   UNL     1      -9.513  17.521  -2.896  1.00  0.00     0.049 A 
ATOM     63  H   UNL     1      -7.712  18.616  -2.966  1.00  0.00     0.167 HD
ATOM     64  C   UNL     1      -8.710  16.791  -5.136  1.00  0.00     0.074 A 
ATOM     65  C   UNL     1      -7.256  16.906  -5.014  1.00  0.00     0.031 C 
ATOM     66  C   UNL     1      -9.719  17.069  -4.257  1.00  0.00     0.037 A 
BRANCH  53  67
ATOM     67  C   UNL     1      -5.654  18.020  -0.790  1.00  0.00     0.058 A 
ATOM     68  C   UNL     1      -5.735  19.427  -0.768  1.00  0.00     0.135 A 
ATOM     69  C   UNL     1      -4.407  17.488  -1.188  1.00  0.00     0.135 A 
ATOM     70  F   UNL     1      -6.873  20.042  -0.411  1.00  0.00    -0.206 F 
ATOM     71  C   UNL     1      -4.682  20.242  -1.185  1.00  0.00     0.059 A 
ATOM     72  C   UNL     1      -3.328  18.283  -1.555  1.00  0.00     0.059 A 
ATOM     73  F   UNL     1      -4.196  16.176  -1.335  1.00  0.00    -0.206 F 
ATOM     74  C   UNL     1      -3.486  19.657  -1.589  1.00  0.00     0.060 A 
BRANCH  74  75
ATOM     75  S   UNL     1      -2.157  20.700  -2.208  1.00  0.00     0.124 S 
ATOM     76  O   UNL     1      -2.727  21.184  -3.460  1.00  0.00    -0.237 OA
ATOM     77  O   UNL     1      -2.027  21.685  -1.139  1.00  0.00    -0.237 OA
ATOM     78  O   UNL     1      -1.037  19.774  -2.338  1.00  0.00    -0.744 OA
ENDBRANCH  74  75
ENDBRANCH  53  67
BRANCH  54  79
ATOM     79  C   UNL     1      -6.726  13.553  -7.972  1.00  0.00     0.058 A 
ATOM     80  C   UNL     1      -6.571  14.365  -9.113  1.00  0.00     0.135 A 
ATOM     81  C   UNL     1      -5.829  12.472  -7.860  1.00  0.00     0.135 A 
ATOM     82  F   UNL     1      -7.370  15.427  -9.297  1.00  0.00    -0.206 F 
ATOM     83  C   UNL     1      -5.550  14.156 -10.050  1.00  0.00     0.059 A 
ATOM     84  C   UNL     1      -4.808  12.241  -8.784  1.00  0.00     0.059 A 
ATOM     85  F   UNL     1      -5.858  11.660  -6.793  1.00  0.00    -0.206 F 
ATOM     86  C   UNL     1      -4.655  13.103  -9.863  1.00  0.00     0.060 A 
BRANCH  86  87
ATOM     87  S   UNL     1      -3.224  12.941 -10.960  1.00  0.00     0.124 S 
ATOM     88  O   UNL     1      -3.846  12.522 -12.211  1.00  0.00    -0.237 OA
ATOM     89  O   UNL     1      -2.668  14.290 -10.947  1.00  0.00    -0.237 OA
ATOM     90  O   UNL     1      -2.403  11.928 -10.301  1.00  0.00    -0.744 OA
ENDBRANCH  86  87
ENDBRANCH  54  79
BRANCH  66  91
ATOM     91  C   UNL     1     -11.134  16.708  -4.645  1.00  0.00     0.058 A 
ATOM     92  C   UNL     1     -11.604  15.400  -4.870  1.00  0.00     0.135 A 
ATOM     93  C   UNL     1     -12.094  17.732  -4.638  1.00  0.00     0.135 A 
ATOM     94  F   UNL     1     -10.778  14.347  -4.798  1.00  0.00    -0.206 F 
ATOM     95  C   UNL     1     -12.955  15.131  -5.114  1.00  0.00     0.059 A 
ATOM     96  C   UNL     1     -13.448  17.484  -4.846  1.00  0.00     0.059 A 
ATOM     97  F   UNL     1     -11.725  18.996  -4.374  1.00  0.00    -0.206 F 
ATOM     98  C   UNL     1     -13.871  16.182  -5.098  1.00  0.00     0.060 A 
BRANCH  98  99
ATOM     99  S   UNL     1     -15.626  15.834  -5.349  1.00  0.00     0.124 S 
ATOM    100  O   UNL     1     -15.668  15.469  -6.761  1.00  0.00    -0.237 OA
ATOM    101  O   UNL     1     -15.874  14.748  -4.406  1.00  0.00    -0.237 OA
ATOM    102  O   UNL     1     -16.277  17.098  -5.014  1.00  0.00    -0.744 OA
ENDBRANCH  98  99
ENDBRANCH  66  91
ENDBRANCH  40  41
ENDBRANCH  32  35
ENDBRANCH  30  31
ENDBRANCH  29  30
ENDBRANCH   1  29
TORSDOF 17
