REMARK SMILES CCCCn1c(C[N@H+]2C[C@H]3C(=O)NC[C@@]3(C(=O)NCCCNC(=O)c3ccc(-c4c5nc(c(-c6c(F)cc(S(=O)(=O)[O-])cc6F)c6ccc([nH]6)c(-c6c(F)cc(S(=O)(=O)[O-])cc6F)c6nc(c(-c7c(F)cc(S(=O)(=O)[O-])cc7F)c7ccc4[nH]7)C=C6)C=C5)cc3)C2)nc2ccccc21
REMARK SMILES IDX 19 1 18 2 16 3 17 4 15 6 8 7 9 8 91 9 10 11 11 12 14 13
REMARK SMILES IDX 12 14 13 15 7 17 6 18 5 19 98 20 92 21 93 22 97 23 94 24
REMARK SMILES IDX 96 25 95 26 4 27 3 28 2 29 1 30 20 31 21 32 22 33 23 34
REMARK SMILES IDX 24 36 25 37 26 38 90 39 27 40 89 41 28 42 29 43 30 44 83 45
REMARK SMILES IDX 31 46 88 47 82 48 84 49 32 50 87 51 81 52 80 53 33 55 67 56
REMARK SMILES IDX 46 57 66 58 47 59 50 60 65 61 85 62 48 63 49 64 64 66 86 67
REMARK SMILES IDX 51 68 34 69 35 70 44 71 36 72 37 73 43 74 45 75 38 76 39 77
REMARK SMILES IDX 40 78 41 79 42 80 68 81 69 82 78 83 70 84 71 85 77 86 79 87
REMARK SMILES IDX 72 88 73 89 74 90 75 91 76 92 52 93 53 94 62 95 54 96 55 97
REMARK SMILES IDX 61 98 63 99 56 100 57 101 58 102 59 103 60 104
REMARK H PARENT 18 5 8 10 13 16 22 35 84 54 50 65
REMARK Flexibility Score: inf
ROOT
ATOM      1  C   UNL     1      -4.874  -0.459  -1.041  1.00  0.00     0.117 C 
ENDROOT
BRANCH   1   2
ATOM      2  N   UNL     1      -5.552  -0.524   0.254  1.00  0.00    -0.355 N 
ATOM      3  C   UNL     1      -5.211   0.092   1.449  1.00  0.00     0.234 C 
ATOM      4  O   UNL     1      -5.845  -0.228   2.458  1.00  0.00    -0.274 OA
ATOM      5  H   UNL     1      -6.363  -1.081   0.280  1.00  0.00     0.163 HD
BRANCH   3   6
ATOM      6  C   UNL     1      -4.045   1.154   1.440  1.00  0.00     0.132 C 
ATOM      7  N   UNL     1      -1.738   0.371   1.565  1.00  0.00    -0.327 N 
ATOM      8  C   UNL     1      -1.703   1.603   2.343  1.00  0.00     0.277 C 
ATOM      9  C   UNL     1      -3.127  -0.070   1.750  1.00  0.00     0.282 C 
ATOM     10  H   UNL     1      -1.036  -0.298   1.881  1.00  0.00     0.348 HD
ATOM     11  C   UNL     1      -3.180   1.935   2.546  1.00  0.00     0.156 C 
ATOM     12  C   UNL     1      -3.377   3.405   2.328  1.00  0.00     0.230 C 
ATOM     13  C   UNL     1      -5.192   2.219   1.601  1.00  0.00     0.139 C 
ATOM     14  O   UNL     1      -2.668   4.325   2.684  1.00  0.00    -0.275 OA
ATOM     15  N   UNL     1      -4.602   3.515   1.743  1.00  0.00    -0.354 N 
ATOM     16  H   UNL     1      -5.019   4.360   1.459  1.00  0.00     0.163 HD
BRANCH   7  17
ATOM     17  C   UNL     1      -1.370   0.516   0.132  1.00  0.00     0.339 C 
BRANCH  17  18
ATOM     18  C   UNL     1      -1.702   1.812  -0.555  1.00  0.00     0.165 A 
ATOM     19  N   UNL     1      -0.780   2.679  -1.118  1.00  0.00    -0.323 N 
ATOM     20  C   UNL     1      -1.493   3.725  -1.690  1.00  0.00     0.068 A 
ATOM     21  N   UNL     1      -2.931   2.253  -0.747  1.00  0.00    -0.227 NA
ATOM     22  C   UNL     1      -2.825   3.414  -1.447  1.00  0.00     0.089 A 
ATOM     23  C   UNL     1      -1.135   4.870  -2.415  1.00  0.00     0.028 A 
ATOM     24  C   UNL     1      -3.853   4.239  -1.926  1.00  0.00     0.030 A 
ATOM     25  C   UNL     1      -2.173   5.686  -2.895  1.00  0.00     0.002 A 
ATOM     26  C   UNL     1      -3.513   5.378  -2.658  1.00  0.00     0.002 A 
BRANCH  19  27
ATOM     27  C   UNL     1       0.642   2.426  -1.318  1.00  0.00     0.124 C 
BRANCH  27  28
ATOM     28  C   UNL     1       1.572   2.625  -0.110  1.00  0.00     0.022 C 
BRANCH  28  29
ATOM     29  C   UNL     1       1.815   1.440   0.839  1.00  0.00    -0.002 C 
ATOM     30  C   UNL     1       2.209   0.112   0.196  1.00  0.00     0.004 C 
ENDBRANCH  28  29
ENDBRANCH  27  28
ENDBRANCH  19  27
ENDBRANCH  17  18
ENDBRANCH   7  17
ENDBRANCH   3   6
ENDBRANCH   1   2
BRANCH   1  31
ATOM     31  C   UNL     1      -4.074  -1.729  -1.377  1.00  0.00     0.042 C 
BRANCH  31  32
ATOM     32  C   UNL     1      -4.893  -2.828  -2.045  1.00  0.00     0.118 C 
BRANCH  32  33
ATOM     33  N   UNL     1      -5.361  -2.451  -3.362  1.00  0.00    -0.352 N 
ATOM     34  C   UNL     1      -4.820  -2.447  -4.619  1.00  0.00     0.251 C 
ATOM     35  H   UNL     1      -6.287  -2.119  -3.351  1.00  0.00     0.163 HD
ATOM     36  O   UNL     1      -5.578  -2.052  -5.511  1.00  0.00    -0.269 OA
BRANCH  34  37
ATOM     37  C   UNL     1      -3.432  -2.864  -4.988  1.00  0.00     0.039 A 
ATOM     38  C   UNL     1      -2.433  -3.299  -4.115  1.00  0.00     0.014 A 
ATOM     39  C   UNL     1      -3.120  -2.792  -6.361  1.00  0.00     0.014 A 
ATOM     40  C   UNL     1      -1.159  -3.629  -4.595  1.00  0.00     0.010 A 
ATOM     41  C   UNL     1      -1.856  -3.131  -6.844  1.00  0.00     0.010 A 
ATOM     42  C   UNL     1      -0.861  -3.533  -5.958  1.00  0.00    -0.014 A 
BRANCH  42  43
ATOM     43  C   UNL     1       0.476  -3.931  -6.417  1.00  0.00     0.031 A 
ATOM     44  C   UNL     1       0.862  -5.364  -6.224  1.00  0.00     0.074 A 
ATOM     45  C   UNL     1       1.294  -3.139  -7.141  1.00  0.00     0.049 A 
ATOM     46  N   UNL     1       1.877  -5.855  -5.584  1.00  0.00    -0.248 NA
ATOM     47  C   UNL     1      -0.025  -6.383  -6.801  1.00  0.00     0.031 C 
ATOM     48  C   UNL     1       0.998  -1.829  -7.725  1.00  0.00     0.029 A 
ATOM     49  N   UNL     1       2.558  -3.402  -7.591  1.00  0.00    -0.354 N 
ATOM     50  C   UNL     1       1.863  -7.232  -5.821  1.00  0.00     0.074 A 
ATOM     51  C   UNL     1       0.615  -7.510  -6.486  1.00  0.00     0.031 C 
ATOM     52  C   UNL     1       1.970  -1.506  -8.607  1.00  0.00     0.029 A 
ATOM     53  C   UNL     1       3.015  -2.513  -8.552  1.00  0.00     0.049 A 
ATOM     54  H   UNL     1       3.097  -4.157  -7.261  1.00  0.00     0.167 HD
ATOM     55  C   UNL     1       2.944  -8.033  -5.597  1.00  0.00     0.037 A 
ATOM     56  C   UNL     1       4.147  -2.620  -9.290  1.00  0.00     0.037 A 
ATOM     57  C   UNL     1       3.899  -7.410  -4.719  1.00  0.00     0.049 A 
ATOM     58  C   UNL     1       5.078  -3.519  -8.563  1.00  0.00     0.074 A 
ATOM     59  C   UNL     1       3.876  -6.947  -3.418  1.00  0.00     0.029 A 
ATOM     60  N   UNL     1       5.063  -6.926  -5.261  1.00  0.00    -0.354 N 
ATOM     61  N   UNL     1       5.639  -3.235  -7.419  1.00  0.00    -0.248 NA
ATOM     62  C   UNL     1       5.145  -4.918  -8.956  1.00  0.00     0.031 C 
ATOM     63  C   UNL     1       4.773  -5.839  -3.397  1.00  0.00     0.029 A 
ATOM     64  C   UNL     1       5.290  -5.701  -4.687  1.00  0.00     0.049 A 
ATOM     65  H   UNL     1       5.627  -7.372  -5.932  1.00  0.00     0.167 HD
ATOM     66  C   UNL     1       5.778  -4.454  -6.774  1.00  0.00     0.074 A 
ATOM     67  C   UNL     1       5.583  -5.456  -7.816  1.00  0.00     0.031 C 
ATOM     68  C   UNL     1       5.767  -4.543  -5.411  1.00  0.00     0.037 A 
BRANCH  55  69
ATOM     69  C   UNL     1       3.284  -9.280  -6.391  1.00  0.00     0.058 A 
ATOM     70  C   UNL     1       4.332 -10.123  -5.960  1.00  0.00     0.135 A 
ATOM     71  C   UNL     1       2.813  -9.525  -7.700  1.00  0.00     0.135 A 
ATOM     72  F   UNL     1       4.865  -9.985  -4.735  1.00  0.00    -0.206 F 
ATOM     73  C   UNL     1       4.923 -11.076  -6.794  1.00  0.00     0.059 A 
ATOM     74  C   UNL     1       3.351 -10.507  -8.529  1.00  0.00     0.059 A 
ATOM     75  F   UNL     1       1.875  -8.760  -8.272  1.00  0.00    -0.206 F 
ATOM     76  C   UNL     1       4.439 -11.242  -8.087  1.00  0.00     0.060 A 
BRANCH  76  77
ATOM     77  S   UNL     1       5.295 -12.356  -9.217  1.00  0.00     0.124 S 
ATOM     78  O   UNL     1       6.525 -11.616  -9.474  1.00  0.00    -0.237 OA
ATOM     79  O   UNL     1       5.432 -13.565  -8.412  1.00  0.00    -0.237 OA
ATOM     80  O   UNL     1       4.373 -12.462 -10.345  1.00  0.00    -0.744 OA
ENDBRANCH  76  77
ENDBRANCH  55  69
BRANCH  56  81
ATOM     81  C   UNL     1       4.367  -2.194 -10.697  1.00  0.00     0.058 A 
ATOM     82  C   UNL     1       5.658  -2.135 -11.253  1.00  0.00     0.135 A 
ATOM     83  C   UNL     1       3.296  -2.083 -11.607  1.00  0.00     0.135 A 
ATOM     84  F   UNL     1       6.739  -2.261 -10.468  1.00  0.00    -0.206 F 
ATOM     85  C   UNL     1       5.872  -2.014 -12.631  1.00  0.00     0.059 A 
ATOM     86  C   UNL     1       3.484  -1.944 -12.981  1.00  0.00     0.059 A 
ATOM     87  F   UNL     1       2.023  -2.200 -11.200  1.00  0.00    -0.206 F 
ATOM     88  C   UNL     1       4.776  -1.937 -13.489  1.00  0.00     0.060 A 
BRANCH  88  89
ATOM     89  S   UNL     1       5.043  -1.945 -15.277  1.00  0.00     0.124 S 
ATOM     90  O   UNL     1       5.703  -0.661 -15.489  1.00  0.00    -0.237 OA
ATOM     91  O   UNL     1       5.877  -3.128 -15.456  1.00  0.00    -0.237 OA
ATOM     92  O   UNL     1       3.692  -2.049 -15.822  1.00  0.00    -0.744 OA
ENDBRANCH  88  89
ENDBRANCH  56  81
BRANCH  68  93
ATOM     93  C   UNL     1       5.951  -3.279  -4.613  1.00  0.00     0.058 A 
ATOM     94  C   UNL     1       5.020  -2.227  -4.606  1.00  0.00     0.135 A 
ATOM     95  C   UNL     1       7.012  -3.203  -3.697  1.00  0.00     0.135 A 
ATOM     96  F   UNL     1       3.919  -2.277  -5.366  1.00  0.00    -0.206 F 
ATOM     97  C   UNL     1       5.159  -1.128  -3.759  1.00  0.00     0.059 A 
ATOM     98  C   UNL     1       7.152  -2.129  -2.819  1.00  0.00     0.059 A 
ATOM     99  F   UNL     1       7.896  -4.210  -3.605  1.00  0.00    -0.206 F 
ATOM    100  C   UNL     1       6.229  -1.085  -2.868  1.00  0.00     0.060 A 
BRANCH 100 101
ATOM    101  S   UNL     1       6.348   0.283  -1.695  1.00  0.00     0.124 S 
ATOM    102  O   UNL     1       7.101   1.274  -2.455  1.00  0.00    -0.237 OA
ATOM    103  O   UNL     1       4.950   0.621  -1.440  1.00  0.00    -0.237 OA
ATOM    104  O   UNL     1       7.052  -0.311  -0.561  1.00  0.00    -0.744 OA
ENDBRANCH 100 101
ENDBRANCH  68  93
ENDBRANCH  42  43
ENDBRANCH  34  37
ENDBRANCH  32  33
ENDBRANCH  31  32
ENDBRANCH   1  31
TORSDOF 18
