REMARK SMILES CCC[C@@H](C[NH2+]C(C)C)C(=O)NCCCNC(=O)c1ccc(-c2c3nc(c(-c4c(F)cc(S(=O)(=O)[O-])cc4F)c4ccc([nH]4)c(-c4c(F)cc(S(=O)(=O)[O-])cc4F)c4nc(c(-c5c(F)cc(S(=O)(=O)[O-])cc5F)c5ccc2[nH]5)C=C4)C=C3)cc1
REMARK SMILES IDX 14 1 13 2 12 3 10 4 11 5 4 7 3 8 2 9 1 10 5 11 6 12 7 15
REMARK SMILES IDX 8 16 9 17 15 18 16 19 17 20 18 22 19 23 20 24 84 25 21 26
REMARK SMILES IDX 83 27 22 28 23 29 24 30 77 31 25 32 82 33 76 34 78 35 26 36
REMARK SMILES IDX 81 37 75 38 74 39 27 41 61 42 40 43 60 44 41 45 44 46 59 47
REMARK SMILES IDX 79 48 42 49 43 50 58 52 80 53 45 54 28 55 29 56 38 57 30 58
REMARK SMILES IDX 31 59 37 60 39 61 32 62 33 63 34 64 35 65 36 66 62 67 63 68
REMARK SMILES IDX 72 69 64 70 65 71 71 72 73 73 66 74 67 75 68 76 69 77 70 78
REMARK SMILES IDX 46 79 47 80 56 81 48 82 49 83 55 84 57 85 50 86 51 87 52 88
REMARK SMILES IDX 53 89 54 90
REMARK H PARENT 12 6 6 13 6 14 16 21 78 40 44 51
REMARK Flexibility Score: inf
ROOT
ATOM      1  C   UNL     1       0.690   6.228  -0.518  1.00  0.00     0.042 C 
ENDROOT
BRANCH   1   2
ATOM      2  C   UNL     1      -0.087   5.241  -1.359  1.00  0.00     0.117 C 
BRANCH   2   3
ATOM      3  N   UNL     1       0.705   4.605  -2.393  1.00  0.00    -0.356 N 
ATOM      4  C   UNL     1       0.845   3.284  -2.686  1.00  0.00     0.228 C 
ATOM      5  O   UNL     1       1.466   2.994  -3.713  1.00  0.00    -0.275 OA
ATOM      6  H   UNL     1       1.216   5.219  -2.967  1.00  0.00     0.163 HD
BRANCH   4   7
ATOM      7  C   UNL     1       0.282   2.176  -1.791  1.00  0.00     0.133 C 
BRANCH   7   8
ATOM      8  C   UNL     1       0.938   2.190  -0.395  1.00  0.00     0.019 C 
BRANCH   8   9
ATOM      9  C   UNL     1       0.503   1.077   0.558  1.00  0.00    -0.002 C 
ATOM     10  C   UNL     1       0.933  -0.305   0.104  1.00  0.00     0.004 C 
ENDBRANCH   8   9
ENDBRANCH   7   8
BRANCH   7  11
ATOM     11  C   UNL     1      -1.261   2.067  -1.886  1.00  0.00     0.274 C 
BRANCH  11  12
ATOM     12  N   UNL     1      -1.985   2.979  -1.011  1.00  0.00    -0.344 N 
ATOM     13  H   UNL     1      -1.572   3.905  -1.117  1.00  0.00     0.346 HD
ATOM     14  H   UNL     1      -1.898   2.583  -0.075  1.00  0.00     0.346 HD
BRANCH  12  15
ATOM     15  C   UNL     1      -3.417   3.102  -1.248  1.00  0.00     0.176 C 
ATOM     16  C   UNL     1      -4.181   2.115  -0.372  1.00  0.00     0.075 C 
ATOM     17  C   UNL     1      -3.811   4.540  -0.896  1.00  0.00     0.075 C 
ENDBRANCH  12  15
ENDBRANCH  11  12
ENDBRANCH   7  11
ENDBRANCH   4   7
ENDBRANCH   2   3
ENDBRANCH   1   2
BRANCH   1  18
ATOM     18  C   UNL     1       1.045   7.492  -1.267  1.00  0.00     0.118 C 
BRANCH  18  19
ATOM     19  N   UNL     1      -0.133   8.256  -1.666  1.00  0.00    -0.352 N 
ATOM     20  C   UNL     1      -0.569   9.491  -1.253  1.00  0.00     0.251 C 
ATOM     21  H   UNL     1      -0.704   7.817  -2.337  1.00  0.00     0.163 HD
ATOM     22  O   UNL     1      -1.698   9.870  -1.559  1.00  0.00    -0.269 OA
BRANCH  20  23
ATOM     23  C   UNL     1       0.306  10.347  -0.426  1.00  0.00     0.039 A 
ATOM     24  C   UNL     1      -0.250  11.114   0.599  1.00  0.00     0.014 A 
ATOM     25  C   UNL     1       1.681  10.390  -0.660  1.00  0.00     0.014 A 
ATOM     26  C   UNL     1       0.585  11.872   1.423  1.00  0.00     0.010 A 
ATOM     27  C   UNL     1       2.518  11.025   0.244  1.00  0.00     0.010 A 
ATOM     28  C   UNL     1       1.980  11.805   1.274  1.00  0.00    -0.014 A 
BRANCH  28  29
ATOM     29  C   UNL     1       2.899  12.590   2.136  1.00  0.00     0.031 A 
ATOM     30  C   UNL     1       3.839  13.586   1.501  1.00  0.00     0.074 A 
ATOM     31  C   UNL     1       2.934  12.366   3.465  1.00  0.00     0.049 A 
ATOM     32  N   UNL     1       4.776  14.307   2.059  1.00  0.00    -0.248 NA
ATOM     33  C   UNL     1       3.744  13.766   0.040  1.00  0.00     0.031 C 
ATOM     34  C   UNL     1       2.120  11.381   4.183  1.00  0.00     0.029 A 
ATOM     35  N   UNL     1       3.694  12.944   4.450  1.00  0.00    -0.354 N 
ATOM     36  C   UNL     1       5.392  14.996   1.020  1.00  0.00     0.074 A 
ATOM     37  C   UNL     1       4.770  14.564  -0.209  1.00  0.00     0.031 C 
ATOM     38  C   UNL     1       2.404  11.445   5.494  1.00  0.00     0.029 A 
ATOM     39  C   UNL     1       3.448  12.441   5.707  1.00  0.00     0.049 A 
ATOM     40  H   UNL     1       4.354  13.652   4.274  1.00  0.00     0.167 HD
ATOM     41  C   UNL     1       6.368  15.931   1.087  1.00  0.00     0.037 A 
ATOM     42  C   UNL     1       4.008  12.747   6.894  1.00  0.00     0.037 A 
ATOM     43  C   UNL     1       6.938  16.401   2.320  1.00  0.00     0.049 A 
ATOM     44  C   UNL     1       5.065  13.819   6.942  1.00  0.00     0.074 A 
ATOM     45  C   UNL     1       7.873  17.403   2.506  1.00  0.00     0.029 A 
ATOM     46  N   UNL     1       6.622  15.907   3.577  1.00  0.00    -0.354 N 
ATOM     47  N   UNL     1       5.581  14.515   5.955  1.00  0.00    -0.248 NA
ATOM     48  C   UNL     1       5.607  14.161   8.264  1.00  0.00     0.031 C 
ATOM     49  C   UNL     1       8.161  17.481   3.871  1.00  0.00     0.029 A 
ATOM     50  C   UNL     1       7.356  16.573   4.541  1.00  0.00     0.049 A 
ATOM     51  H   UNL     1       5.972  15.190   3.756  1.00  0.00     0.167 HD
ATOM     52  C   UNL     1       6.473  15.405   6.544  1.00  0.00     0.074 A 
ATOM     53  C   UNL     1       6.419  15.166   7.971  1.00  0.00     0.031 C 
ATOM     54  C   UNL     1       7.265  16.338   5.960  1.00  0.00     0.037 A 
BRANCH  41  55
ATOM     55  C   UNL     1       6.871  16.529  -0.198  1.00  0.00     0.058 A 
ATOM     56  C   UNL     1       6.086  17.403  -0.966  1.00  0.00     0.135 A 
ATOM     57  C   UNL     1       8.188  16.288  -0.623  1.00  0.00     0.135 A 
ATOM     58  F   UNL     1       4.812  17.650  -0.621  1.00  0.00    -0.206 F 
ATOM     59  C   UNL     1       6.587  18.015  -2.110  1.00  0.00     0.059 A 
ATOM     60  C   UNL     1       8.720  16.913  -1.746  1.00  0.00     0.059 A 
ATOM     61  F   UNL     1       8.979  15.453   0.069  1.00  0.00    -0.206 F 
ATOM     62  C   UNL     1       7.909  17.773  -2.485  1.00  0.00     0.060 A 
BRANCH  62  63
ATOM     63  S   UNL     1       8.562  18.629  -3.934  1.00  0.00     0.124 S 
ATOM     64  O   UNL     1       7.849  17.956  -5.016  1.00  0.00    -0.237 OA
ATOM     65  O   UNL     1       8.169  20.011  -3.681  1.00  0.00    -0.237 OA
ATOM     66  O   UNL     1       9.996  18.365  -3.869  1.00  0.00    -0.744 OA
ENDBRANCH  62  63
ENDBRANCH  41  55
BRANCH  42  67
ATOM     67  C   UNL     1       3.580  12.046   8.136  1.00  0.00     0.058 A 
ATOM     68  C   UNL     1       2.908  12.729   9.162  1.00  0.00     0.135 A 
ATOM     69  C   UNL     1       3.865  10.687   8.339  1.00  0.00     0.135 A 
ATOM     70  F   UNL     1       2.610  14.030   9.018  1.00  0.00    -0.206 F 
ATOM     71  C   UNL     1       2.578  12.106  10.361  1.00  0.00     0.059 A 
ATOM     72  C   UNL     1       3.516  10.032   9.517  1.00  0.00     0.059 A 
ATOM     73  F   UNL     1       4.483   9.978   7.382  1.00  0.00    -0.206 F 
ATOM     74  C   UNL     1       2.893  10.757  10.531  1.00  0.00     0.060 A 
BRANCH  74  75
ATOM     75  S   UNL     1       2.467   9.957  12.093  1.00  0.00     0.124 S 
ATOM     76  O   UNL     1       3.453  10.537  12.998  1.00  0.00    -0.237 OA
ATOM     77  O   UNL     1       1.087  10.386  12.292  1.00  0.00    -0.237 OA
ATOM     78  O   UNL     1       2.638   8.537  11.799  1.00  0.00    -0.744 OA
ENDBRANCH  74  75
ENDBRANCH  42  67
BRANCH  54  79
ATOM     79  C   UNL     1       8.081  17.221   6.863  1.00  0.00     0.058 A 
ATOM     80  C   UNL     1       9.186  16.738   7.579  1.00  0.00     0.135 A 
ATOM     81  C   UNL     1       7.772  18.588   6.974  1.00  0.00     0.135 A 
ATOM     82  F   UNL     1       9.523  15.440   7.509  1.00  0.00    -0.206 F 
ATOM     83  C   UNL     1       9.934  17.570   8.405  1.00  0.00     0.059 A 
ATOM     84  C   UNL     1       8.528  19.445   7.765  1.00  0.00     0.059 A 
ATOM     85  F   UNL     1       6.735  19.105   6.296  1.00  0.00    -0.206 F 
ATOM     86  C   UNL     1       9.596  18.922   8.492  1.00  0.00     0.060 A 
BRANCH  86  87
ATOM     87  S   UNL     1      10.584  19.995   9.555  1.00  0.00     0.124 S 
ATOM     88  O   UNL     1      10.146  19.574  10.882  1.00  0.00    -0.237 OA
ATOM     89  O   UNL     1      11.948  19.626   9.190  1.00  0.00    -0.237 OA
ATOM     90  O   UNL     1      10.175  21.339   9.157  1.00  0.00    -0.744 OA
ENDBRANCH  86  87
ENDBRANCH  54  79
ENDBRANCH  28  29
ENDBRANCH  20  23
ENDBRANCH  18  19
ENDBRANCH   1  18
TORSDOF 18
