REMARK SMILES O=C(NCCCNC(=O)c1cc(N2CCN(c3ccc(F)cc3)CC2)ccc1NC(=O)C1CCCC1)c1ccc(-c2c3nc(c(-c4c(F)cc(S(=O)(=O)[O-])cc4F)c4ccc([nH]4)c(-c4c(F)cc(S(=O)(=O)[O-])cc4F)c4nc(c(-c5c(F)cc(S(=O)(=O)[O-])cc5F)c5ccc2[nH]5)C=C4)C=C3)cc1
REMARK SMILES IDX 4 1 3 2 1 3 2 4 37 6 38 7 102 8 39 9 101 10 40 11 41 12
REMARK SMILES IDX 42 13 95 14 43 15 100 16 94 17 96 18 44 19 99 20 93 21 92 22
REMARK SMILES IDX 45 24 79 25 58 26 78 27 59 28 62 29 77 30 97 31 60 32 61 33
REMARK SMILES IDX 76 35 98 36 63 37 46 38 47 39 56 40 48 41 49 42 55 43 57 44
REMARK SMILES IDX 50 45 51 46 52 47 53 48 54 49 80 50 81 51 90 52 82 53 83 54
REMARK SMILES IDX 89 55 91 56 84 57 85 58 86 59 87 60 88 61 64 62 65 63 74 64
REMARK SMILES IDX 66 65 67 66 73 67 75 68 68 69 69 70 70 71 71 72 72 73 5 74
REMARK SMILES IDX 6 75 7 76 8 77 9 79 10 80 11 81 28 82 12 83 27 84 26 85
REMARK SMILES IDX 29 86 30 87 31 89 32 90 33 91 36 92 34 93 35 94 13 95 14 96
REMARK SMILES IDX 25 97 15 98 24 99 16 100 17 101 18 102 23 103 19 104 22 105
REMARK SMILES IDX 20 106 21 107
REMARK H PARENT 3 5 96 23 62 34 7 78 29 88
REMARK Flexibility Score: inf
ROOT
ATOM      1  C   UNL     1       4.721   0.577   1.103  1.00  0.00     0.118 C 
ENDROOT
BRANCH   1   2
ATOM      2  N   UNL     1       3.275   0.466   0.964  1.00  0.00    -0.352 N 
ATOM      3  O   UNL     1       1.307   0.091  -0.063  1.00  0.00    -0.269 OA
ATOM      4  C   UNL     1       2.523  -0.046  -0.069  1.00  0.00     0.251 C 
ATOM      5  H   UNL     1       2.756   0.810   1.726  1.00  0.00     0.163 HD
BRANCH   4   6
ATOM      6  C   UNL     1       3.188  -0.740  -1.194  1.00  0.00     0.039 A 
ATOM      7  C   UNL     1       4.218  -1.652  -0.960  1.00  0.00     0.014 A 
ATOM      8  C   UNL     1       2.758  -0.491  -2.500  1.00  0.00     0.014 A 
ATOM      9  C   UNL     1       4.923  -2.190  -2.028  1.00  0.00     0.010 A 
ATOM     10  C   UNL     1       3.397  -1.119  -3.573  1.00  0.00     0.010 A 
ATOM     11  C   UNL     1       4.498  -1.959  -3.345  1.00  0.00    -0.014 A 
BRANCH  11  12
ATOM     12  C   UNL     1       5.143  -2.706  -4.453  1.00  0.00     0.031 A 
ATOM     13  C   UNL     1       5.890  -1.997  -5.546  1.00  0.00     0.074 A 
ATOM     14  C   UNL     1       5.032  -4.050  -4.455  1.00  0.00     0.049 A 
ATOM     15  N   UNL     1       6.476  -2.507  -6.599  1.00  0.00    -0.248 NA
ATOM     16  C   UNL     1       5.990  -0.532  -5.456  1.00  0.00     0.031 C 
ATOM     17  C   UNL     1       4.308  -4.836  -3.450  1.00  0.00     0.029 A 
ATOM     18  N   UNL     1       5.520  -4.995  -5.320  1.00  0.00    -0.354 N 
ATOM     19  C   UNL     1       6.987  -1.430  -7.312  1.00  0.00     0.074 A 
ATOM     20  C   UNL     1       6.639  -0.234  -6.576  1.00  0.00     0.031 C 
ATOM     21  C   UNL     1       4.419  -6.139  -3.741  1.00  0.00     0.029 A 
ATOM     22  C   UNL     1       5.155  -6.279  -4.990  1.00  0.00     0.049 A 
ATOM     23  H   UNL     1       6.077  -4.775  -6.101  1.00  0.00     0.167 HD
ATOM     24  C   UNL     1       7.682  -1.448  -8.475  1.00  0.00     0.037 A 
ATOM     25  C   UNL     1       5.349  -7.440  -5.641  1.00  0.00     0.037 A 
ATOM     26  C   UNL     1       8.044  -2.654  -9.178  1.00  0.00     0.049 A 
ATOM     27  C   UNL     1       6.100  -7.422  -6.941  1.00  0.00     0.074 A 
ATOM     28  C   UNL     1       8.822  -2.782 -10.315  1.00  0.00     0.029 A 
ATOM     29  N   UNL     1       7.640  -3.933  -8.823  1.00  0.00    -0.354 N 
ATOM     30  N   UNL     1       6.642  -6.401  -7.560  1.00  0.00    -0.248 NA
ATOM     31  C   UNL     1       6.256  -8.705  -7.636  1.00  0.00     0.031 C 
ATOM     32  C   UNL     1       8.840  -4.131 -10.682  1.00  0.00     0.029 A 
ATOM     33  C   UNL     1       8.115  -4.851  -9.746  1.00  0.00     0.049 A 
ATOM     34  H   UNL     1       7.097  -4.155  -8.033  1.00  0.00     0.167 HD
ATOM     35  C   UNL     1       7.207  -6.919  -8.717  1.00  0.00     0.074 A 
ATOM     36  C   UNL     1       6.965  -8.348  -8.698  1.00  0.00     0.031 C 
ATOM     37  C   UNL     1       7.860  -6.269  -9.711  1.00  0.00     0.037 A 
BRANCH  24  38
ATOM     38  C   UNL     1       8.089  -0.137  -9.088  1.00  0.00     0.058 A 
ATOM     39  C   UNL     1       9.140   0.633  -8.567  1.00  0.00     0.135 A 
ATOM     40  C   UNL     1       7.483   0.304 -10.277  1.00  0.00     0.135 A 
ATOM     41  F   UNL     1       9.747   0.266  -7.427  1.00  0.00    -0.206 F 
ATOM     42  C   UNL     1       9.573   1.795  -9.200  1.00  0.00     0.059 A 
ATOM     43  C   UNL     1       7.913   1.451 -10.938  1.00  0.00     0.059 A 
ATOM     44  F   UNL     1       6.472  -0.395 -10.818  1.00  0.00    -0.206 F 
ATOM     45  C   UNL     1       8.957   2.192 -10.389  1.00  0.00     0.060 A 
BRANCH  45  46
ATOM     46  S   UNL     1       9.560   3.680 -11.217  1.00  0.00     0.124 S 
ATOM     47  O   UNL     1       9.079   4.727 -10.321  1.00  0.00    -0.237 OA
ATOM     48  O   UNL     1      11.004   3.469 -11.225  1.00  0.00    -0.237 OA
ATOM     49  O   UNL     1       8.914   3.629 -12.525  1.00  0.00    -0.744 OA
ENDBRANCH  45  46
ENDBRANCH  24  38
BRANCH  25  50
ATOM     50  C   UNL     1       4.774  -8.698  -5.099  1.00  0.00     0.058 A 
ATOM     51  C   UNL     1       5.595  -9.722  -4.607  1.00  0.00     0.135 A 
ATOM     52  C   UNL     1       3.383  -8.894  -5.053  1.00  0.00     0.135 A 
ATOM     53  F   UNL     1       6.929  -9.582  -4.631  1.00  0.00    -0.206 F 
ATOM     54  C   UNL     1       5.060 -10.906  -4.111  1.00  0.00     0.059 A 
ATOM     55  C   UNL     1       2.825 -10.056  -4.534  1.00  0.00     0.059 A 
ATOM     56  F   UNL     1       2.553  -7.935  -5.493  1.00  0.00    -0.206 F 
ATOM     57  C   UNL     1       3.673 -11.064  -4.080  1.00  0.00     0.060 A 
BRANCH  57  58
ATOM     58  S   UNL     1       2.986 -12.594  -3.414  1.00  0.00     0.124 S 
ATOM     59  O   UNL     1       3.245 -13.528  -4.503  1.00  0.00    -0.237 OA
ATOM     60  O   UNL     1       3.779 -12.787  -2.204  1.00  0.00    -0.237 OA
ATOM     61  O   UNL     1       1.583 -12.261  -3.187  1.00  0.00    -0.744 OA
ENDBRANCH  57  58
ENDBRANCH  25  50
BRANCH  37  62
ATOM     62  C   UNL     1       8.364  -7.097 -10.858  1.00  0.00     0.058 A 
ATOM     63  C   UNL     1       7.489  -7.606 -11.829  1.00  0.00     0.135 A 
ATOM     64  C   UNL     1       9.738  -7.331 -11.021  1.00  0.00     0.135 A 
ATOM     65  F   UNL     1       6.164  -7.422 -11.709  1.00  0.00    -0.206 F 
ATOM     66  C   UNL     1       7.958  -8.327 -12.921  1.00  0.00     0.059 A 
ATOM     67  C   UNL     1      10.232  -8.026 -12.119  1.00  0.00     0.059 A 
ATOM     68  F   UNL     1      10.616  -6.860 -10.121  1.00  0.00    -0.206 F 
ATOM     69  C   UNL     1       9.333  -8.525 -13.061  1.00  0.00     0.060 A 
BRANCH  69  70
ATOM     70  S   UNL     1       9.934  -9.411 -14.515  1.00  0.00     0.124 S 
ATOM     71  O   UNL     1       9.552 -10.784 -14.202  1.00  0.00    -0.237 OA
ATOM     72  O   UNL     1       9.188  -8.776 -15.597  1.00  0.00    -0.237 OA
ATOM     73  O   UNL     1      11.368  -9.141 -14.508  1.00  0.00    -0.744 OA
ENDBRANCH  69  70
ENDBRANCH  37  62
ENDBRANCH  11  12
ENDBRANCH   4   6
ENDBRANCH   1   2
BRANCH   1  74
ATOM     74  C   UNL     1       5.218   2.014   1.070  1.00  0.00     0.042 C 
BRANCH  74  75
ATOM     75  C   UNL     1       4.738   2.863   2.233  1.00  0.00     0.118 C 
BRANCH  75  76
ATOM     76  N   UNL     1       5.140   2.322   3.525  1.00  0.00    -0.352 N 
ATOM     77  C   UNL     1       5.884   2.876   4.532  1.00  0.00     0.253 C 
ATOM     78  H   UNL     1       4.824   1.407   3.703  1.00  0.00     0.163 HD
ATOM     79  O   UNL     1       6.261   2.159   5.457  1.00  0.00    -0.269 OA
BRANCH  77  80
ATOM     80  C   UNL     1       6.219   4.318   4.557  1.00  0.00     0.065 A 
ATOM     81  C   UNL     1       7.559   4.635   4.883  1.00  0.00     0.042 A 
ATOM     82  C   UNL     1       5.254   5.335   4.402  1.00  0.00     0.054 A 
ATOM     83  C   UNL     1       7.963   5.955   5.091  1.00  0.00     0.038 A 
ATOM     84  C   UNL     1       5.681   6.644   4.606  1.00  0.00     0.029 A 
ATOM     85  C   UNL     1       7.005   6.948   4.914  1.00  0.00     0.028 A 
BRANCH  82  86
ATOM     86  N   UNL     1       3.907   5.016   4.100  1.00  0.00    -0.325 N 
ATOM     87  C   UNL     1       2.918   5.699   3.436  1.00  0.00     0.227 C 
ATOM     88  H   UNL     1       3.626   4.132   4.430  1.00  0.00     0.169 HD
ATOM     89  O   UNL     1       1.854   5.114   3.219  1.00  0.00    -0.274 OA
BRANCH  87  90
ATOM     90  C   UNL     1       3.142   7.119   2.970  1.00  0.00     0.079 C 
ATOM     91  C   UNL     1       2.455   7.565   1.685  1.00  0.00     0.013 C 
ATOM     92  C   UNL     1       2.544   8.107   3.971  1.00  0.00     0.013 C 
ATOM     93  C   UNL     1       2.652   9.082   1.749  1.00  0.00     0.001 C 
ATOM     94  C   UNL     1       2.606   9.440   3.239  1.00  0.00     0.001 C 
ENDBRANCH  87  90
ENDBRANCH  82  86
BRANCH  83  95
ATOM     95  N   UNL     1       9.214   6.259   5.578  1.00  0.00    -0.368 N 
ATOM     96  C   UNL     1      10.437   6.066   4.776  1.00  0.00     0.138 C 
ATOM     97  C   UNL     1       9.333   7.198   6.705  1.00  0.00     0.138 C 
ATOM     98  C   UNL     1      11.078   7.427   4.363  1.00  0.00     0.138 C 
ATOM     99  C   UNL     1       9.888   8.554   6.235  1.00  0.00     0.138 C 
ATOM    100  N   UNL     1      11.148   8.370   5.502  1.00  0.00    -0.368 N 
BRANCH 100 101
ATOM    101  C   UNL     1      12.354   8.695   6.087  1.00  0.00     0.037 A 
ATOM    102  C   UNL     1      13.362   9.312   5.333  1.00  0.00     0.029 A 
ATOM    103  C   UNL     1      12.604   8.477   7.452  1.00  0.00     0.029 A 
ATOM    104  C   UNL     1      14.562   9.723   5.923  1.00  0.00     0.041 A 
ATOM    105  C   UNL     1      13.806   8.868   8.046  1.00  0.00     0.041 A 
ATOM    106  C   UNL     1      14.772   9.496   7.276  1.00  0.00     0.123 A 
ATOM    107  F   UNL     1      15.916   9.893   7.847  1.00  0.00    -0.207 F 
ENDBRANCH 100 101
ENDBRANCH  83  95
ENDBRANCH  77  80
ENDBRANCH  75  76
ENDBRANCH  74  75
ENDBRANCH   1  74
TORSDOF 17
