REMARK SMILES CC(C)[C@H](CO)Nc1ccc(C(F)(F)F)cc1C(=O)NCCCNC(=O)c1ccc(-c2c3nc(c(-c4c(F)cc(S(=O)(=O)[O-])cc4F)c4ccc([nH]4)c(-c4c(F)cc(S(=O)(=O)[O-])cc4F)c4nc(c(-c5c(F)cc(S(=O)(=O)[O-])cc5F)c5ccc2[nH]5)C=C4)C=C3)cc1
REMARK SMILES IDX 21 1 20 2 18 3 19 4 17 6 8 7 9 8 10 9 16 10 11 11 7 12 4 14
REMARK SMILES IDX 2 15 1 16 3 17 5 18 6 19 12 21 13 22 14 23 15 24 22 25 23 26
REMARK SMILES IDX 24 27 25 28 26 30 27 31 28 32 92 33 29 34 91 35 30 36 31 37
REMARK SMILES IDX 32 38 85 39 33 40 90 41 84 42 86 43 34 44 89 45 83 46 82 47
REMARK SMILES IDX 35 49 69 50 48 51 68 52 49 53 52 54 67 55 87 56 50 57 51 58
REMARK SMILES IDX 66 60 88 61 53 62 36 63 37 64 46 65 38 66 39 67 45 68 47 69
REMARK SMILES IDX 40 70 41 71 42 72 43 73 44 74 70 75 71 76 80 77 72 78 73 79
REMARK SMILES IDX 79 80 81 81 74 82 75 83 76 84 77 85 78 86 54 87 55 88 64 89
REMARK SMILES IDX 56 90 57 91 63 92 65 93 58 94 59 95 60 96 61 97 62 98
REMARK H PARENT 20 5 7 13 6 20 24 29 86 48 52 59
REMARK Flexibility Score: inf
ROOT
ATOM      1  C   UNL     1      -2.748  -0.860  -3.346  1.00  0.00     0.118 C 
ENDROOT
BRANCH   1   2
ATOM      2  N   UNL     1      -3.704  -0.539  -2.299  1.00  0.00    -0.352 N 
ATOM      3  C   UNL     1      -4.079  -1.292  -1.206  1.00  0.00     0.253 C 
ATOM      4  O   UNL     1      -5.010  -0.914  -0.494  1.00  0.00    -0.269 OA
ATOM      5  H   UNL     1      -4.145   0.337  -2.381  1.00  0.00     0.163 HD
BRANCH   3   6
ATOM      6  C   UNL     1      -3.455  -2.605  -0.923  1.00  0.00     0.063 A 
ATOM      7  C   UNL     1      -2.070  -2.808  -0.798  1.00  0.00     0.047 A 
ATOM      8  C   UNL     1      -1.620  -4.136  -0.744  1.00  0.00     0.027 A 
ATOM      9  C   UNL     1      -2.515  -5.218  -0.726  1.00  0.00     0.015 A 
ATOM     10  C   UNL     1      -4.357  -3.683  -0.819  1.00  0.00     0.029 A 
ATOM     11  C   UNL     1      -3.898  -5.000  -0.713  1.00  0.00     0.056 A 
BRANCH   7  12
ATOM     12  N   UNL     1      -1.148  -1.771  -0.821  1.00  0.00    -0.379 N 
ATOM     13  H   UNL     1      -0.902  -1.395  -1.697  1.00  0.00     0.160 HD
BRANCH  12  14
ATOM     14  C   UNL     1      -0.509  -1.193   0.378  1.00  0.00     0.107 C 
BRANCH  14  15
ATOM     15  C   UNL     1      -0.771   0.348   0.427  1.00  0.00     0.007 C 
ATOM     16  C   UNL     1      -2.254   0.703   0.579  1.00  0.00     0.009 C 
ATOM     17  C   UNL     1      -0.007   1.088   1.529  1.00  0.00     0.009 C 
ENDBRANCH  14  15
BRANCH  14  18
ATOM     18  C   UNL     1       1.009  -1.518   0.222  1.00  0.00     0.181 C 
BRANCH  18  19
ATOM     19  O   UNL     1       1.385  -1.410  -1.163  1.00  0.00    -0.394 OA
ATOM     20  H   UNL     1       0.866  -2.038  -1.689  1.00  0.00     0.210 HD
ENDBRANCH  18  19
ENDBRANCH  14  18
ENDBRANCH  12  14
ENDBRANCH   7  12
BRANCH  11  21
ATOM     21  C   UNL     1      -4.879  -6.144  -0.645  1.00  0.00     0.416 C 
ATOM     22  F   UNL     1      -5.406  -6.456  -1.861  1.00  0.00    -0.166 F 
ATOM     23  F   UNL     1      -4.330  -7.299  -0.171  1.00  0.00    -0.166 F 
ATOM     24  F   UNL     1      -5.942  -5.885   0.168  1.00  0.00    -0.166 F 
ENDBRANCH  11  21
ENDBRANCH   3   6
ENDBRANCH   1   2
BRANCH   1  25
ATOM     25  C   UNL     1      -2.365   0.322  -4.225  1.00  0.00     0.042 C 
BRANCH  25  26
ATOM     26  C   UNL     1      -1.654   1.487  -3.537  1.00  0.00     0.118 C 
BRANCH  26  27
ATOM     27  N   UNL     1      -0.337   1.216  -2.969  1.00  0.00    -0.352 N 
ATOM     28  C   UNL     1       0.709   2.099  -2.728  1.00  0.00     0.251 C 
ATOM     29  H   UNL     1      -0.167   0.278  -2.722  1.00  0.00     0.163 HD
ATOM     30  O   UNL     1       1.679   1.755  -2.072  1.00  0.00    -0.269 OA
BRANCH  28  31
ATOM     31  C   UNL     1       0.697   3.429  -3.394  1.00  0.00     0.039 A 
ATOM     32  C   UNL     1       1.781   3.734  -4.223  1.00  0.00     0.014 A 
ATOM     33  C   UNL     1      -0.437   4.241  -3.394  1.00  0.00     0.014 A 
ATOM     34  C   UNL     1       1.631   4.700  -5.218  1.00  0.00     0.010 A 
ATOM     35  C   UNL     1      -0.620   5.140  -4.441  1.00  0.00     0.010 A 
ATOM     36  C   UNL     1       0.380   5.303  -5.413  1.00  0.00    -0.014 A 
BRANCH  36  37
ATOM     37  C   UNL     1       0.029   5.913  -6.723  1.00  0.00     0.031 A 
ATOM     38  C   UNL     1      -0.363   7.355  -6.826  1.00  0.00     0.074 A 
ATOM     39  C   UNL     1      -0.060   5.107  -7.804  1.00  0.00     0.049 A 
ATOM     40  N   UNL     1      -0.795   8.015  -7.868  1.00  0.00    -0.248 NA
ATOM     41  C   UNL     1      -0.286   8.151  -5.593  1.00  0.00     0.031 C 
ATOM     42  C   UNL     1       0.227   3.667  -7.814  1.00  0.00     0.029 A 
ATOM     43  N   UNL     1      -0.428   5.370  -9.100  1.00  0.00    -0.354 N 
ATOM     44  C   UNL     1      -1.062   9.300  -7.417  1.00  0.00     0.074 A 
ATOM     45  C   UNL     1      -0.773   9.316  -5.997  1.00  0.00     0.031 C 
ATOM     46  C   UNL     1       0.061   3.188  -9.055  1.00  0.00     0.029 A 
ATOM     47  C   UNL     1      -0.393   4.267  -9.923  1.00  0.00     0.049 A 
ATOM     48  H   UNL     1      -0.692   6.266  -9.413  1.00  0.00     0.167 HD
ATOM     49  C   UNL     1      -1.495  10.370  -8.126  1.00  0.00     0.037 A 
ATOM     50  C   UNL     1      -0.702   4.132 -11.227  1.00  0.00     0.037 A 
ATOM     51  C   UNL     1      -1.759  10.349  -9.541  1.00  0.00     0.049 A 
ATOM     52  C   UNL     1      -1.189   5.332 -11.987  1.00  0.00     0.074 A 
ATOM     53  C   UNL     1      -2.114  11.401 -10.366  1.00  0.00     0.029 A 
ATOM     54  N   UNL     1      -1.710   9.214 -10.339  1.00  0.00    -0.354 N 
ATOM     55  N   UNL     1      -1.351   6.562 -11.562  1.00  0.00    -0.248 NA
ATOM     56  C   UNL     1      -1.548   5.127 -13.397  1.00  0.00     0.031 C 
ATOM     57  C   UNL     1      -2.318  10.896 -11.655  1.00  0.00     0.029 A 
ATOM     58  C   UNL     1      -2.059   9.535 -11.640  1.00  0.00     0.049 A 
ATOM     59  H   UNL     1      -1.465   8.314 -10.025  1.00  0.00     0.167 HD
ATOM     60  C   UNL     1      -1.813   7.282 -12.655  1.00  0.00     0.074 A 
ATOM     61  C   UNL     1      -1.898   6.353 -13.764  1.00  0.00     0.031 C 
ATOM     62  C   UNL     1      -2.138   8.596 -12.732  1.00  0.00     0.037 A 
BRANCH  49  63
ATOM     63  C   UNL     1      -1.713  11.650  -7.372  1.00  0.00     0.058 A 
ATOM     64  C   UNL     1      -0.637  12.412  -6.889  1.00  0.00     0.135 A 
ATOM     65  C   UNL     1      -3.013  12.122  -7.128  1.00  0.00     0.135 A 
ATOM     66  F   UNL     1       0.625  11.997  -7.085  1.00  0.00    -0.206 F 
ATOM     67  C   UNL     1      -0.841  13.574  -6.154  1.00  0.00     0.059 A 
ATOM     68  C   UNL     1      -3.240  13.296  -6.415  1.00  0.00     0.059 A 
ATOM     69  F   UNL     1      -4.076  11.433  -7.569  1.00  0.00    -0.206 F 
ATOM     70  C   UNL     1      -2.148  14.002  -5.913  1.00  0.00     0.060 A 
BRANCH  70  71
ATOM     71  S   UNL     1      -2.401  15.494  -4.929  1.00  0.00     0.124 S 
ATOM     72  O   UNL     1      -2.148  14.996  -3.580  1.00  0.00    -0.237 OA
ATOM     73  O   UNL     1      -1.392  16.402  -5.467  1.00  0.00    -0.237 OA
ATOM     74  O   UNL     1      -3.784  15.859  -5.215  1.00  0.00    -0.744 OA
ENDBRANCH  70  71
ENDBRANCH  49  63
BRANCH  50  75
ATOM     75  C   UNL     1      -0.538   2.816 -11.900  1.00  0.00     0.058 A 
ATOM     76  C   UNL     1       0.508   2.608 -12.811  1.00  0.00     0.135 A 
ATOM     77  C   UNL     1      -1.397   1.739 -11.634  1.00  0.00     0.135 A 
ATOM     78  F   UNL     1       1.352   3.610 -13.102  1.00  0.00    -0.206 F 
ATOM     79  C   UNL     1       0.695   1.382 -13.440  1.00  0.00     0.059 A 
ATOM     80  C   UNL     1      -1.220   0.497 -12.236  1.00  0.00     0.059 A 
ATOM     81  F   UNL     1      -2.404   1.883 -10.758  1.00  0.00    -0.206 F 
ATOM     82  C   UNL     1      -0.174   0.330 -13.143  1.00  0.00     0.060 A 
BRANCH  82  83
ATOM     83  S   UNL     1       0.113  -1.276 -13.920  1.00  0.00     0.124 S 
ATOM     84  O   UNL     1      -0.361  -1.034 -15.278  1.00  0.00    -0.237 OA
ATOM     85  O   UNL     1       1.555  -1.439 -13.767  1.00  0.00    -0.237 OA
ATOM     86  O   UNL     1      -0.701  -2.185 -13.118  1.00  0.00    -0.744 OA
ENDBRANCH  82  83
ENDBRANCH  50  75
BRANCH  62  87
ATOM     87  C   UNL     1      -2.604   9.114 -14.062  1.00  0.00     0.058 A 
ATOM     88  C   UNL     1      -3.904   8.865 -14.527  1.00  0.00     0.135 A 
ATOM     89  C   UNL     1      -1.769   9.928 -14.842  1.00  0.00     0.135 A 
ATOM     90  F   UNL     1      -4.735   8.080 -13.822  1.00  0.00    -0.206 F 
ATOM     91  C   UNL     1      -4.362   9.407 -15.723  1.00  0.00     0.059 A 
ATOM     92  C   UNL     1      -2.212  10.497 -16.031  1.00  0.00     0.059 A 
ATOM     93  F   UNL     1      -0.518  10.198 -14.437  1.00  0.00    -0.206 F 
ATOM     94  C   UNL     1      -3.510  10.228 -16.465  1.00  0.00     0.060 A 
BRANCH  94  95
ATOM     95  S   UNL     1      -4.137  10.983 -17.980  1.00  0.00     0.124 S 
ATOM     96  O   UNL     1      -4.105   9.856 -18.906  1.00  0.00    -0.237 OA
ATOM     97  O   UNL     1      -5.465  11.436 -17.579  1.00  0.00    -0.237 OA
ATOM     98  O   UNL     1      -3.175  12.047 -18.251  1.00  0.00    -0.744 OA
ENDBRANCH  94  95
ENDBRANCH  62  87
ENDBRANCH  36  37
ENDBRANCH  28  31
ENDBRANCH  26  27
ENDBRANCH  25  26
ENDBRANCH   1  25
TORSDOF 19
