REMARK SMILES O=C(Cn1nc(-c2ccc(Br)cc2)ccc1=O)N[C@H](C(=O)NCCCNC(=O)c1ccc(-c2c3nc(c(-c4c(F)cc(S(=O)(=O)[O-])cc4F)c4ccc([nH]4)c(-c4c(F)cc(S(=O)(=O)[O-])cc4F)c4nc(c(-c5c(F)cc(S(=O)(=O)[O-])cc5F)c5ccc2[nH]5)C=C4)C=C3)cc1)c1ccccc1
REMARK SMILES IDX 23 1 22 2 20 3 21 4 19 6 18 7 1 8 2 9 3 11 4 12 5 13 16 14
REMARK SMILES IDX 6 15 15 16 17 17 14 18 7 19 8 20 13 21 9 22 12 23 10 24
REMARK SMILES IDX 11 25 95 26 96 27 100 28 97 29 99 30 98 31 24 32 25 33 26 34
REMARK SMILES IDX 27 35 28 37 29 38 30 39 94 40 31 41 93 42 32 43 33 44 34 45
REMARK SMILES IDX 87 46 35 47 92 48 86 49 88 50 36 51 91 52 85 53 84 54 37 56
REMARK SMILES IDX 71 57 50 58 70 59 51 60 54 61 69 62 89 63 52 64 53 65 68 67
REMARK SMILES IDX 90 68 55 69 38 70 39 71 48 72 40 73 41 74 47 75 49 76 42 77
REMARK SMILES IDX 43 78 44 79 45 80 46 81 72 82 73 83 82 84 74 85 75 86 81 87
REMARK SMILES IDX 83 88 76 89 77 90 78 91 79 92 80 93 56 94 57 95 66 96 58 97
REMARK SMILES IDX 59 98 65 99 67 100 60 101 61 102 62 103 63 104 64 105
REMARK H PARENT 22 5 18 10 26 36 88 55 54 66
REMARK Flexibility Score: inf
ROOT
ATOM      1  C   UNL     1       1.350  -1.625   0.058  1.00  0.00     0.117 C 
ENDROOT
BRANCH   1   2
ATOM      2  N   UNL     1       2.547  -0.808   0.164  1.00  0.00    -0.354 N 
ATOM      3  C   UNL     1       3.184  -0.320   1.272  1.00  0.00     0.247 C 
ATOM      4  O   UNL     1       4.280   0.221   1.093  1.00  0.00    -0.272 OA
ATOM      5  H   UNL     1       2.965  -0.570  -0.695  1.00  0.00     0.163 HD
BRANCH   3   6
ATOM      6  C   UNL     1       2.640  -0.637   2.680  1.00  0.00     0.202 C 
BRANCH   6   7
ATOM      7  N   UNL     1       3.350  -1.845   3.089  1.00  0.00    -0.339 N 
ATOM      8  O   UNL     1       1.716  -2.562   4.506  1.00  0.00    -0.273 OA
ATOM      9  C   UNL     1       2.855  -2.680   4.062  1.00  0.00     0.242 C 
ATOM     10  H   UNL     1       4.207  -2.067   2.658  1.00  0.00     0.164 HD
BRANCH   9  11
ATOM     11  C   UNL     1       3.865  -3.713   4.561  1.00  0.00     0.248 C 
BRANCH  11  12
ATOM     12  N   UNL     1       3.255  -5.027   4.552  1.00  0.00    -0.220 N 
ATOM     13  N   UNL     1       2.478  -5.330   5.640  1.00  0.00    -0.169 NA
ATOM     14  C   UNL     1       3.350  -5.816   3.419  1.00  0.00     0.267 A 
ATOM     15  C   UNL     1       1.795  -6.426   5.599  1.00  0.00     0.091 A 
ATOM     16  C   UNL     1       2.612  -7.098   3.460  1.00  0.00     0.075 A 
ATOM     17  O   UNL     1       3.994  -5.523   2.414  1.00  0.00    -0.268 OA
ATOM     18  C   UNL     1       1.848  -7.416   4.508  1.00  0.00     0.036 A 
BRANCH  15  19
ATOM     19  C   UNL     1       0.848  -6.693   6.694  1.00  0.00     0.002 A 
ATOM     20  C   UNL     1      -0.195  -5.780   6.894  1.00  0.00     0.011 A 
ATOM     21  C   UNL     1       1.022  -7.782   7.549  1.00  0.00     0.011 A 
ATOM     22  C   UNL     1      -1.086  -5.969   7.949  1.00  0.00     0.016 A 
ATOM     23  C   UNL     1       0.136  -7.960   8.614  1.00  0.00     0.016 A 
ATOM     24  C   UNL     1      -0.914  -7.056   8.806  1.00  0.00     0.018 A 
ATOM     25  Br  UNL     1      -2.102  -7.298  10.256  1.00  0.00    -0.051 Br
ENDBRANCH  15  19
ENDBRANCH  11  12
ENDBRANCH   9  11
ENDBRANCH   6   7
BRANCH   6  26
ATOM     26  C   UNL     1       2.853   0.509   3.667  1.00  0.00    -0.016 A 
ATOM     27  C   UNL     1       1.988   1.615   3.637  1.00  0.00     0.006 A 
ATOM     28  C   UNL     1       3.873   0.491   4.638  1.00  0.00     0.006 A 
ATOM     29  C   UNL     1       2.124   2.652   4.564  1.00  0.00     0.000 A 
ATOM     30  C   UNL     1       3.998   1.521   5.571  1.00  0.00     0.000 A 
ATOM     31  C   UNL     1       3.121   2.600   5.536  1.00  0.00     0.000 A 
ENDBRANCH   6  26
ENDBRANCH   3   6
ENDBRANCH   1   2
BRANCH   1  32
ATOM     32  C   UNL     1       0.182  -0.853  -0.546  1.00  0.00     0.042 C 
BRANCH  32  33
ATOM     33  C   UNL     1       0.433  -0.327  -1.958  1.00  0.00     0.118 C 
BRANCH  33  34
ATOM     34  N   UNL     1       0.609  -1.377  -2.953  1.00  0.00    -0.352 N 
ATOM     35  C   UNL     1       0.006  -1.535  -4.182  1.00  0.00     0.251 C 
ATOM     36  H   UNL     1       1.256  -2.079  -2.710  1.00  0.00     0.163 HD
ATOM     37  O   UNL     1       0.215  -2.549  -4.837  1.00  0.00    -0.269 OA
BRANCH  35  38
ATOM     38  C   UNL     1      -0.926  -0.501  -4.688  1.00  0.00     0.039 A 
ATOM     39  C   UNL     1      -0.609   0.855  -4.607  1.00  0.00     0.014 A 
ATOM     40  C   UNL     1      -2.154  -0.902  -5.225  1.00  0.00     0.014 A 
ATOM     41  C   UNL     1      -1.585   1.808  -4.883  1.00  0.00     0.010 A 
ATOM     42  C   UNL     1      -3.104   0.061  -5.579  1.00  0.00     0.010 A 
ATOM     43  C   UNL     1      -2.851   1.422  -5.352  1.00  0.00    -0.014 A 
BRANCH  43  44
ATOM     44  C   UNL     1      -3.899   2.456  -5.564  1.00  0.00     0.031 A 
ATOM     45  C   UNL     1      -5.147   2.470  -4.718  1.00  0.00     0.074 A 
ATOM     46  C   UNL     1      -3.703   3.421  -6.483  1.00  0.00     0.049 A 
ATOM     47  N   UNL     1      -6.144   3.318  -4.735  1.00  0.00    -0.248 NA
ATOM     48  C   UNL     1      -5.300   1.391  -3.730  1.00  0.00     0.031 C 
ATOM     49  C   UNL     1      -2.541   3.515  -7.367  1.00  0.00     0.029 A 
ATOM     50  N   UNL     1      -4.462   4.515  -6.811  1.00  0.00    -0.354 N 
ATOM     51  C   UNL     1      -7.051   2.863  -3.784  1.00  0.00     0.074 A 
ATOM     52  C   UNL     1      -6.497   1.649  -3.224  1.00  0.00     0.031 C 
ATOM     53  C   UNL     1      -2.640   4.631  -8.104  1.00  0.00     0.029 A 
ATOM     54  C   UNL     1      -3.894   5.305  -7.782  1.00  0.00     0.049 A 
ATOM     55  H   UNL     1      -5.329   4.716  -6.391  1.00  0.00     0.167 HD
ATOM     56  C   UNL     1      -8.230   3.412  -3.404  1.00  0.00     0.037 A 
ATOM     57  C   UNL     1      -4.333   6.441  -8.357  1.00  0.00     0.037 A 
ATOM     58  C   UNL     1      -8.763   4.638  -3.937  1.00  0.00     0.049 A 
ATOM     59  C   UNL     1      -5.644   7.030  -7.923  1.00  0.00     0.074 A 
ATOM     60  C   UNL     1      -9.922   5.302  -3.572  1.00  0.00     0.029 A 
ATOM     61  N   UNL     1      -8.177   5.386  -4.947  1.00  0.00    -0.354 N 
ATOM     62  N   UNL     1      -6.473   6.599  -7.003  1.00  0.00    -0.248 NA
ATOM     63  C   UNL     1      -6.083   8.253  -8.609  1.00  0.00     0.031 C 
ATOM     64  C   UNL     1     -10.057   6.430  -4.390  1.00  0.00     0.029 A 
ATOM     65  C   UNL     1      -8.962   6.490  -5.238  1.00  0.00     0.049 A 
ATOM     66  H   UNL     1      -7.327   5.165  -5.393  1.00  0.00     0.167 HD
ATOM     67  C   UNL     1      -7.535   7.496  -7.000  1.00  0.00     0.074 A 
ATOM     68  C   UNL     1      -7.232   8.506  -7.994  1.00  0.00     0.031 C 
ATOM     69  C   UNL     1      -8.659   7.478  -6.243  1.00  0.00     0.037 A 
BRANCH  56  70
ATOM     70  C   UNL     1      -9.037   2.680  -2.367  1.00  0.00     0.058 A 
ATOM     71  C   UNL     1      -8.662   2.664  -1.015  1.00  0.00     0.135 A 
ATOM     72  C   UNL     1     -10.219   2.013  -2.728  1.00  0.00     0.135 A 
ATOM     73  F   UNL     1      -7.534   3.273  -0.618  1.00  0.00    -0.206 F 
ATOM     74  C   UNL     1      -9.417   1.988  -0.060  1.00  0.00     0.059 A 
ATOM     75  C   UNL     1     -11.001   1.349  -1.786  1.00  0.00     0.059 A 
ATOM     76  F   UNL     1     -10.622   1.998  -4.008  1.00  0.00    -0.206 F 
ATOM     77  C   UNL     1     -10.582   1.330  -0.457  1.00  0.00     0.060 A 
BRANCH  77  78
ATOM     78  S   UNL     1     -11.544   0.449   0.792  1.00  0.00     0.124 S 
ATOM     79  O   UNL     1     -10.701  -0.718   1.036  1.00  0.00    -0.237 OA
ATOM     80  O   UNL     1     -11.609   1.420   1.880  1.00  0.00    -0.237 OA
ATOM     81  O   UNL     1     -12.810   0.179   0.120  1.00  0.00    -0.744 OA
ENDBRANCH  77  78
ENDBRANCH  56  70
BRANCH  57  82
ATOM     82  C   UNL     1      -3.502   7.085  -9.405  1.00  0.00     0.058 A 
ATOM     83  C   UNL     1      -2.770   8.249  -9.132  1.00  0.00     0.135 A 
ATOM     84  C   UNL     1      -3.356   6.499 -10.672  1.00  0.00     0.135 A 
ATOM     85  F   UNL     1      -2.885   8.848  -7.937  1.00  0.00    -0.206 F 
ATOM     86  C   UNL     1      -1.907   8.801 -10.072  1.00  0.00     0.059 A 
ATOM     87  C   UNL     1      -2.484   7.020 -11.621  1.00  0.00     0.059 A 
ATOM     88  F   UNL     1      -4.027   5.376 -10.973  1.00  0.00    -0.206 F 
ATOM     89  C   UNL     1      -1.761   8.171 -11.310  1.00  0.00     0.060 A 
BRANCH  89  90
ATOM     90  S   UNL     1      -0.554   8.830 -12.480  1.00  0.00     0.124 S 
ATOM     91  O   UNL     1      -1.231  10.030 -12.957  1.00  0.00    -0.237 OA
ATOM     92  O   UNL     1       0.611   9.049 -11.628  1.00  0.00    -0.237 OA
ATOM     93  O   UNL     1      -0.411   7.754 -13.457  1.00  0.00    -0.744 OA
ENDBRANCH  89  90
ENDBRANCH  57  82
BRANCH  69  94
ATOM     94  C   UNL     1      -9.659   8.576  -6.466  1.00  0.00     0.058 A 
ATOM     95  C   UNL     1     -10.503   8.575  -7.588  1.00  0.00     0.135 A 
ATOM     96  C   UNL     1      -9.823   9.601  -5.520  1.00  0.00     0.135 A 
ATOM     97  F   UNL     1     -10.381   7.621  -8.524  1.00  0.00    -0.206 F 
ATOM     98  C   UNL     1     -11.468   9.560  -7.770  1.00  0.00     0.059 A 
ATOM     99  C   UNL     1     -10.796  10.584  -5.672  1.00  0.00     0.059 A 
ATOM    100  F   UNL     1      -9.046   9.641  -4.426  1.00  0.00    -0.206 F 
ATOM    101  C   UNL     1     -11.609  10.559  -6.805  1.00  0.00     0.060 A 
BRANCH 101 102
ATOM    102  S   UNL     1     -12.896  11.805  -7.032  1.00  0.00     0.124 S 
ATOM    103  O   UNL     1     -12.322  12.631  -8.089  1.00  0.00    -0.237 OA
ATOM    104  O   UNL     1     -14.050  10.997  -7.415  1.00  0.00    -0.237 OA
ATOM    105  O   UNL     1     -12.990  12.439  -5.720  1.00  0.00    -0.744 OA
ENDBRANCH 101 102
ENDBRANCH  69  94
ENDBRANCH  43  44
ENDBRANCH  35  38
ENDBRANCH  33  34
ENDBRANCH  32  33
ENDBRANCH   1  32
TORSDOF 18
