REMARK SMILES O=C(C[NH2+]C1CCCC1)N[C@@H]1CCCCC[C@H]1C(=O)NCCCNC(=O)c1ccc(-c2c3nc(c(-c4c(F)cc(S(=O)(=O)[O-])cc4F)c4ccc([nH]4)c(-c4c(F)cc(S(=O)(=O)[O-])cc4F)c4nc(c(-c5c(F)cc(S(=O)(=O)[O-])cc5F)c5ccc2[nH]5)C=C4)C=C3)cc1
REMARK SMILES IDX 21 1 20 2 18 3 19 4 17 6 11 7 10 9 1 10 2 11 3 13 4 14 5 17
REMARK SMILES IDX 6 18 9 19 7 20 8 21 16 22 15 23 14 24 13 25 12 26 22 28
REMARK SMILES IDX 23 29 24 30 25 31 26 33 27 34 28 35 92 36 29 37 91 38 30 39
REMARK SMILES IDX 31 40 32 41 85 42 33 43 90 44 84 45 86 46 34 47 89 48 83 49
REMARK SMILES IDX 82 50 35 52 69 53 48 54 68 55 49 56 52 57 67 58 87 59 50 60
REMARK SMILES IDX 51 61 66 63 88 64 53 65 36 66 37 67 46 68 38 69 39 70 45 71
REMARK SMILES IDX 47 72 40 73 41 74 42 75 43 76 44 77 70 78 71 79 80 80 72 81
REMARK SMILES IDX 73 82 79 83 81 84 74 85 75 86 76 87 77 88 78 89 54 90 55 91
REMARK SMILES IDX 64 92 56 93 57 94 63 95 65 96 58 97 59 98 60 99 61 100
REMARK SMILES IDX 62 101
REMARK H PARENT 20 5 10 12 4 15 4 16 24 32 86 51 52 62
REMARK Flexibility Score: 100.00
ROOT
ATOM      1  C   UNL     1       0.116   4.306  -3.304  1.00  0.00     0.117 C 
ENDROOT
BRANCH   1   2
ATOM      2  N   UNL     1       0.288   3.002  -3.876  1.00  0.00    -0.356 N 
ATOM      3  C   UNL     1       0.404   1.788  -3.284  1.00  0.00     0.225 C 
ATOM      4  O   UNL     1       0.390   0.825  -4.064  1.00  0.00    -0.275 OA
ATOM      5  H   UNL     1       0.329   2.985  -4.859  1.00  0.00     0.163 HD
BRANCH   3   6
ATOM      6  C   UNL     1       0.589   1.544  -1.770  1.00  0.00     0.101 C 
BRANCH   6   7
ATOM      7  C   UNL     1       2.019   1.835  -1.250  1.00  0.00     0.094 CG0
ATOM      8  G   UNL     1       2.176   2.783  -0.046  1.00  0.00     0.000 G0
BRANCH   7   9
ATOM      9  N   UNL     1       2.741   0.604  -0.844  1.00  0.00    -0.348 N 
ATOM     10  O   UNL     1       1.070  -0.386   0.413  1.00  0.00    -0.268 OA
ATOM     11  C   UNL     1       2.251  -0.283   0.095  1.00  0.00     0.275 C 
ATOM     12  H   UNL     1       3.610   0.409  -1.265  1.00  0.00     0.163 HD
BRANCH  11  13
ATOM     13  C   UNL     1       3.307  -1.079   0.840  1.00  0.00     0.362 C 
BRANCH  13  14
ATOM     14  N   UNL     1       4.105  -1.903  -0.078  1.00  0.00    -0.336 N 
ATOM     15  H   UNL     1       4.780  -1.314  -0.567  1.00  0.00     0.346 HD
ATOM     16  H   UNL     1       3.494  -2.349  -0.762  1.00  0.00     0.346 HD
BRANCH  14  17
ATOM     17  C   UNL     1       4.812  -2.922   0.695  1.00  0.00     0.182 C 
ATOM     18  C   UNL     1       4.475  -4.343   0.253  1.00  0.00     0.065 C 
ATOM     19  C   UNL     1       6.321  -2.867   0.495  1.00  0.00     0.065 C 
ATOM     20  C   UNL     1       5.581  -5.167   0.898  1.00  0.00     0.006 C 
ATOM     21  C   UNL     1       6.799  -4.241   0.966  1.00  0.00     0.006 C 
ENDBRANCH  14  17
ENDBRANCH  13  14
ENDBRANCH  11  13
ENDBRANCH   7   9
ENDBRANCH   6   7
BRANCH   6  22
ATOM     22  C   UNL     1      -0.587   1.844  -0.823  1.00  0.00     0.015 C 
BRANCH  22  23
ATOM     23  C   UNL     1      -0.988   3.253  -0.415  1.00  0.00     0.001 C 
BRANCH  23  24
ATOM     24  C   UNL     1       0.035   4.142   0.299  1.00  0.00     0.000 C 
BRANCH  24  25
ATOM     25  C   UNL     1       1.504   4.134  -0.116  1.00  0.00     0.002 C 
BRANCH  25  26
ATOM     26  C   UNL     1       2.176   2.783  -0.046  1.00  0.00     0.026 CG0
ATOM     27  G   UNL     1       2.019   1.835  -1.250  1.00  0.00     0.000 G0
ENDBRANCH  25  26
ENDBRANCH  24  25
ENDBRANCH  23  24
ENDBRANCH  22  23
ENDBRANCH   6  22
ENDBRANCH   3   6
ENDBRANCH   1   2
BRANCH   1  28
ATOM     28  C   UNL     1       1.213   5.288  -3.655  1.00  0.00     0.042 C 
BRANCH  28  29
ATOM     29  C   UNL     1       0.762   6.294  -4.691  1.00  0.00     0.118 C 
BRANCH  29  30
ATOM     30  N   UNL     1      -0.258   7.205  -4.166  1.00  0.00    -0.352 N 
ATOM     31  C   UNL     1      -0.202   8.546  -3.866  1.00  0.00     0.251 C 
ATOM     32  H   UNL     1      -1.133   6.786  -3.999  1.00  0.00     0.163 HD
ATOM     33  O   UNL     1      -1.121   9.058  -3.226  1.00  0.00    -0.269 OA
BRANCH  31  34
ATOM     34  C   UNL     1       0.958   9.362  -4.283  1.00  0.00     0.039 A 
ATOM     35  C   UNL     1       1.401  10.412  -3.475  1.00  0.00     0.014 A 
ATOM     36  C   UNL     1       1.614   9.090  -5.481  1.00  0.00     0.014 A 
ATOM     37  C   UNL     1       2.547  11.127  -3.837  1.00  0.00     0.010 A 
ATOM     38  C   UNL     1       2.835   9.684  -5.752  1.00  0.00     0.010 A 
ATOM     39  C   UNL     1       3.300  10.736  -4.955  1.00  0.00    -0.014 A 
BRANCH  39  40
ATOM     40  C   UNL     1       4.543  11.435  -5.369  1.00  0.00     0.031 A 
ATOM     41  C   UNL     1       4.637  12.008  -6.763  1.00  0.00     0.074 A 
ATOM     42  C   UNL     1       5.607  11.469  -4.543  1.00  0.00     0.049 A 
ATOM     43  N   UNL     1       5.671  12.515  -7.381  1.00  0.00    -0.248 NA
ATOM     44  C   UNL     1       3.416  11.958  -7.589  1.00  0.00     0.031 C 
ATOM     45  C   UNL     1       5.657  10.896  -3.195  1.00  0.00     0.029 A 
ATOM     46  N   UNL     1       6.861  11.997  -4.721  1.00  0.00    -0.354 N 
ATOM     47  C   UNL     1       5.233  12.808  -8.669  1.00  0.00     0.074 A 
ATOM     48  C   UNL     1       3.867  12.352  -8.769  1.00  0.00     0.031 C 
ATOM     49  C   UNL     1       6.864  11.133  -2.658  1.00  0.00     0.029 A 
ATOM     50  C   UNL     1       7.692  11.827  -3.639  1.00  0.00     0.049 A 
ATOM     51  H   UNL     1       7.139  12.455  -5.547  1.00  0.00     0.167 HD
ATOM     52  C   UNL     1       5.896  13.437  -9.666  1.00  0.00     0.037 A 
ATOM     53  C   UNL     1       8.980  12.182  -3.463  1.00  0.00     0.037 A 
ATOM     54  C   UNL     1       7.238  13.938  -9.535  1.00  0.00     0.049 A 
ATOM     55  C   UNL     1       9.693  12.895  -4.581  1.00  0.00     0.074 A 
ATOM     56  C   UNL     1       7.983  14.651 -10.455  1.00  0.00     0.029 A 
ATOM     57  N   UNL     1       8.030  13.785  -8.406  1.00  0.00    -0.354 N 
ATOM     58  N   UNL     1       9.245  13.218  -5.772  1.00  0.00    -0.248 NA
ATOM     59  C   UNL     1      11.083  13.299  -4.333  1.00  0.00     0.031 C 
ATOM     60  C   UNL     1       9.244  14.889  -9.900  1.00  0.00     0.029 A 
ATOM     61  C   UNL     1       9.263  14.377  -8.612  1.00  0.00     0.049 A 
ATOM     62  H   UNL     1       7.755  13.325  -7.580  1.00  0.00     0.167 HD
ATOM     63  C   UNL     1      10.285  13.893  -6.400  1.00  0.00     0.074 A 
ATOM     64  C   UNL     1      11.381  13.941  -5.454  1.00  0.00     0.031 C 
ATOM     65  C   UNL     1      10.331  14.428  -7.646  1.00  0.00     0.037 A 
BRANCH  52  66
ATOM     66  C   UNL     1       5.177  13.639 -10.973  1.00  0.00     0.058 A 
ATOM     67  C   UNL     1       4.080  14.510 -11.087  1.00  0.00     0.135 A 
ATOM     68  C   UNL     1       5.611  12.982 -12.136  1.00  0.00     0.135 A 
ATOM     69  F   UNL     1       3.608  15.149 -10.004  1.00  0.00    -0.206 F 
ATOM     70  C   UNL     1       3.423  14.701 -12.297  1.00  0.00     0.059 A 
ATOM     71  C   UNL     1       4.990  13.185 -13.366  1.00  0.00     0.059 A 
ATOM     72  F   UNL     1       6.650  12.135 -12.087  1.00  0.00    -0.206 F 
ATOM     73  C   UNL     1       3.888  14.037 -13.433  1.00  0.00     0.060 A 
BRANCH  73  74
ATOM     74  S   UNL     1       3.037  14.316 -15.000  1.00  0.00     0.124 S 
ATOM     75  O   UNL     1       1.779  13.609 -14.777  1.00  0.00    -0.237 OA
ATOM     76  O   UNL     1       2.946  15.771 -15.048  1.00  0.00    -0.237 OA
ATOM     77  O   UNL     1       3.929  13.712 -15.984  1.00  0.00    -0.744 OA
ENDBRANCH  73  74
ENDBRANCH  52  66
BRANCH  53  78
ATOM     78  C   UNL     1       9.668  11.895  -2.175  1.00  0.00     0.058 A 
ATOM     79  C   UNL     1      10.033  12.933  -1.305  1.00  0.00     0.135 A 
ATOM     80  C   UNL     1       9.970  10.581  -1.783  1.00  0.00     0.135 A 
ATOM     81  F   UNL     1       9.769  14.207  -1.633  1.00  0.00    -0.206 F 
ATOM     82  C   UNL     1      10.697  12.684  -0.107  1.00  0.00     0.059 A 
ATOM     83  C   UNL     1      10.606  10.304  -0.577  1.00  0.00     0.059 A 
ATOM     84  F   UNL     1       9.624   9.548  -2.567  1.00  0.00    -0.206 F 
ATOM     85  C   UNL     1      10.979  11.364   0.248  1.00  0.00     0.060 A 
BRANCH  85  86
ATOM     86  S   UNL     1      11.812  11.051   1.819  1.00  0.00     0.124 S 
ATOM     87  O   UNL     1      13.161  11.525   1.536  1.00  0.00    -0.237 OA
ATOM     88  O   UNL     1      11.030  11.862   2.747  1.00  0.00    -0.237 OA
ATOM     89  O   UNL     1      11.673   9.607   1.990  1.00  0.00    -0.744 OA
ENDBRANCH  85  86
ENDBRANCH  53  78
BRANCH  65  90
ATOM     90  C   UNL     1      11.584  15.157  -8.043  1.00  0.00     0.058 A 
ATOM     91  C   UNL     1      12.780  14.478  -8.320  1.00  0.00     0.135 A 
ATOM     92  C   UNL     1      11.563  16.551  -8.217  1.00  0.00     0.135 A 
ATOM     93  F   UNL     1      12.854  13.147  -8.164  1.00  0.00    -0.206 F 
ATOM     94  C   UNL     1      13.919  15.159  -8.736  1.00  0.00     0.059 A 
ATOM     95  C   UNL     1      12.680  17.247  -8.664  1.00  0.00     0.059 A 
ATOM     96  F   UNL     1      10.439  17.246  -7.978  1.00  0.00    -0.206 F 
ATOM     97  C   UNL     1      13.857  16.543  -8.911  1.00  0.00     0.060 A 
BRANCH  97  98
ATOM     98  S   UNL     1      15.330  17.406  -9.495  1.00  0.00     0.124 S 
ATOM     99  O   UNL     1      16.189  17.353  -8.317  1.00  0.00    -0.237 OA
ATOM    100  O   UNL     1      15.748  16.578 -10.623  1.00  0.00    -0.237 OA
ATOM    101  O   UNL     1      14.830  18.731  -9.849  1.00  0.00    -0.744 OA
ENDBRANCH  97  98
ENDBRANCH  65  90
ENDBRANCH  39  40
ENDBRANCH  31  34
ENDBRANCH  29  30
ENDBRANCH  28  29
ENDBRANCH   1  28
TORSDOF 17
