REMARK SMILES CCc1cc(S(F)(F)(F)(F)F)cc2c1O[C@@H](C(F)(F)F)C(C(=O)NCCCNC(=O)c1ccc(-c3c4nc(c(-c5c(F)cc(S(=O)(=O)[O-])cc5F)c5ccc([nH]5)c(-c5c(F)cc(S(=O)(=O)[O-])cc5F)c5nc(c(-c6c(F)cc(S(=O)(=O)[O-])cc6F)c6ccc3[nH]6)C=C5)C=C4)cc1)=C2
REMARK SMILES IDX 27 1 26 2 25 3 24 4 22 5 23 6 21 8 3 9 4 10 14 11 5 12 13 13
REMARK SMILES IDX 15 14 12 15 97 16 16 17 2 18 1 19 6 20 7 21 8 22 9 23 10 24
REMARK SMILES IDX 11 25 17 26 18 27 19 28 20 29 28 30 29 31 30 33 31 34 32 35
REMARK SMILES IDX 96 36 33 37 95 38 34 39 35 40 36 41 89 42 37 43 94 44 88 45
REMARK SMILES IDX 90 46 38 47 93 48 87 49 86 50 39 52 73 53 52 54 72 55 53 56
REMARK SMILES IDX 56 57 71 58 91 59 54 60 55 61 70 63 92 64 57 65 40 66 41 67
REMARK SMILES IDX 50 68 42 69 43 70 49 71 51 72 44 73 45 74 46 75 47 76 48 77
REMARK SMILES IDX 74 78 75 79 84 80 76 81 77 82 83 83 85 84 78 85 79 86 80 87
REMARK SMILES IDX 81 88 82 89 58 90 59 91 68 92 60 93 61 94 67 95 69 96 62 97
REMARK SMILES IDX 63 98 64 99 65 100 66 101
REMARK H PARENT 24 7 28 32 90 51 56 62
REMARK Flexibility Score: inf
ROOT
ATOM      1  C   UNL     1       0.747   9.781  -5.066  1.00  0.00     0.118 C 
ENDROOT
BRANCH   1   2
ATOM      2  C   UNL     1       0.715   8.274  -4.867  1.00  0.00     0.042 C 
BRANCH   2   3
ATOM      3  C   UNL     1       1.400   7.922  -3.557  1.00  0.00     0.118 C 
BRANCH   3   4
ATOM      4  N   UNL     1       0.697   8.577  -2.445  1.00  0.00    -0.352 N 
ATOM      5  C   UNL     1       0.102   7.767  -1.372  1.00  0.00     0.251 C 
ATOM      6  O   UNL     1      -0.505   8.334  -0.410  1.00  0.00    -0.270 OA
ATOM      7  H   UNL     1       0.624   9.559  -2.419  1.00  0.00     0.163 HD
BRANCH   5   8
ATOM      8  C   UNL     1       0.214   6.252  -1.412  1.00  0.00     0.067 C 
ATOM      9  C   UNL     1       0.911   2.139  -1.193  1.00  0.00    -0.004 A 
ATOM     10  C   UNL     1       1.388   1.460  -2.299  1.00  0.00     0.032 A 
ATOM     11  C   UNL     1       0.741   3.500  -1.276  1.00  0.00     0.131 A 
ATOM     12  C   UNL     1       1.693   2.126  -3.457  1.00  0.00     0.108 A 
ATOM     13  C   UNL     1       1.021   4.203  -2.434  1.00  0.00     0.019 A 
ATOM     14  O   UNL     1       0.375   4.174  -0.138  1.00  0.00    -0.475 OA
ATOM     15  C   UNL     1       1.504   3.491  -3.526  1.00  0.00     0.036 A 
ATOM     16  C   UNL     1       0.846   5.645  -2.410  1.00  0.00     0.025 C 
ATOM     17  C   UNL     1      -0.395   5.397  -0.309  1.00  0.00     0.314 C 
BRANCH   9  18
ATOM     18  C   UNL     1       0.404   1.419   0.046  1.00  0.00     0.036 C 
ATOM     19  C   UNL     1       0.911  -0.014   0.043  1.00  0.00     0.009 C 
ENDBRANCH   9  18
BRANCH  12  20
ATOM     20  S   UNL     1       2.340   1.222  -4.886  1.00  0.00     0.310 S 
ATOM     21  F   UNL     1       3.820   0.974  -4.372  1.00  0.00    -0.094 F 
ATOM     22  F   UNL     1       2.864   2.555  -5.542  1.00  0.00    -0.094 F 
ATOM     23  F   UNL     1       2.713   0.415  -6.161  1.00  0.00    -0.094 F 
ATOM     24  F   UNL     1       1.940  -0.123  -4.161  1.00  0.00    -0.094 F 
ATOM     25  F   UNL     1       2.061   2.010  -3.544  1.00  0.00    -0.094 F 
ENDBRANCH  12  20
BRANCH  17  26
ATOM     26  C   UNL     1      -0.378   6.181   0.993  1.00  0.00     0.429 C 
ATOM     27  F   UNL     1      -1.084   7.299   0.846  1.00  0.00    -0.167 F 
ATOM     28  F   UNL     1      -0.913   5.443   1.962  1.00  0.00    -0.167 F 
ATOM     29  F   UNL     1       0.877   6.487   1.310  1.00  0.00    -0.167 F 
ENDBRANCH  17  26
ENDBRANCH   5   8
ENDBRANCH   3   4
ENDBRANCH   2   3
ENDBRANCH   1   2
BRANCH   1  30
ATOM     30  N   UNL     1       2.142  10.241  -5.103  1.00  0.00    -0.352 N 
ATOM     31  C   UNL     1       2.659  10.926  -6.297  1.00  0.00     0.251 C 
ATOM     32  H   UNL     1       2.731  10.091  -4.328  1.00  0.00     0.163 HD
ATOM     33  O   UNL     1       3.865  11.324  -6.329  1.00  0.00    -0.269 OA
BRANCH  31  34
ATOM     34  C   UNL     1       1.750  11.157  -7.493  1.00  0.00     0.039 A 
ATOM     35  C   UNL     1       2.222  10.875  -8.764  1.00  0.00     0.014 A 
ATOM     36  C   UNL     1       0.516  11.609  -7.301  1.00  0.00     0.014 A 
ATOM     37  C   UNL     1       1.405  11.378  -9.804  1.00  0.00     0.010 A 
ATOM     38  C   UNL     1      -0.276  11.954  -8.369  1.00  0.00     0.010 A 
ATOM     39  C   UNL     1       0.149  11.757  -9.653  1.00  0.00    -0.014 A 
BRANCH  39  40
ATOM     40  C   UNL     1      -0.774  11.963 -10.843  1.00  0.00     0.031 A 
ATOM     41  C   UNL     1      -1.329  13.230 -11.033  1.00  0.00     0.074 A 
ATOM     42  C   UNL     1      -1.024  10.878 -11.665  1.00  0.00     0.049 A 
ATOM     43  N   UNL     1      -2.140  13.624 -12.016  1.00  0.00    -0.248 NA
ATOM     44  C   UNL     1      -1.092  14.376 -10.142  1.00  0.00     0.031 C 
ATOM     45  C   UNL     1      -0.461   9.599 -11.485  1.00  0.00     0.029 A 
ATOM     46  N   UNL     1      -1.837  10.828 -12.775  1.00  0.00    -0.354 N 
ATOM     47  C   UNL     1      -2.446  14.915 -11.872  1.00  0.00     0.074 A 
ATOM     48  C   UNL     1      -1.782  15.415 -10.661  1.00  0.00     0.031 C 
ATOM     49  C   UNL     1      -0.937   8.787 -12.465  1.00  0.00     0.029 A 
ATOM     50  C   UNL     1      -1.805   9.544 -13.275  1.00  0.00     0.049 A 
ATOM     51  H   UNL     1      -2.353  11.579 -13.147  1.00  0.00     0.167 HD
ATOM     52  C   UNL     1      -3.252  15.694 -12.703  1.00  0.00     0.037 A 
ATOM     53  C   UNL     1      -2.488   9.043 -14.372  1.00  0.00     0.037 A 
ATOM     54  C   UNL     1      -3.901  15.204 -13.825  1.00  0.00     0.049 A 
ATOM     55  C   UNL     1      -3.341   9.809 -15.170  1.00  0.00     0.074 A 
ATOM     56  C   UNL     1      -4.711  15.978 -14.678  1.00  0.00     0.029 A 
ATOM     57  N   UNL     1      -3.888  13.915 -14.310  1.00  0.00    -0.354 N 
ATOM     58  N   UNL     1      -3.616  11.109 -15.048  1.00  0.00    -0.248 NA
ATOM     59  C   UNL     1      -4.094   9.281 -16.315  1.00  0.00     0.031 C 
ATOM     60  C   UNL     1      -5.187  15.165 -15.659  1.00  0.00     0.029 A 
ATOM     61  C   UNL     1      -4.684  13.870 -15.434  1.00  0.00     0.049 A 
ATOM     62  H   UNL     1      -3.395  13.156 -13.921  1.00  0.00     0.167 HD
ATOM     63  C   UNL     1      -4.460  11.492 -16.008  1.00  0.00     0.074 A 
ATOM     64  C   UNL     1      -4.786  10.320 -16.832  1.00  0.00     0.031 C 
ATOM     65  C   UNL     1      -4.969  12.773 -16.232  1.00  0.00     0.037 A 
BRANCH  52  66
ATOM     66  C   UNL     1      -3.429  17.164 -12.358  1.00  0.00     0.058 A 
ATOM     67  C   UNL     1      -2.322  17.989 -12.250  1.00  0.00     0.135 A 
ATOM     68  C   UNL     1      -4.652  17.618 -12.113  1.00  0.00     0.135 A 
ATOM     69  F   UNL     1      -1.123  17.660 -12.722  1.00  0.00    -0.206 F 
ATOM     70  C   UNL     1      -2.582  19.215 -11.591  1.00  0.00     0.059 A 
ATOM     71  C   UNL     1      -4.841  18.877 -11.596  1.00  0.00     0.059 A 
ATOM     72  F   UNL     1      -5.705  16.846 -12.370  1.00  0.00    -0.206 F 
ATOM     73  C   UNL     1      -3.786  19.725 -11.408  1.00  0.00     0.060 A 
BRANCH  73  74
ATOM     74  S   UNL     1      -4.025  21.455 -10.932  1.00  0.00     0.124 S 
ATOM     75  O   UNL     1      -3.332  21.717  -9.593  1.00  0.00    -0.237 OA
ATOM     76  O   UNL     1      -3.424  22.367 -12.005  1.00  0.00    -0.237 OA
ATOM     77  O   UNL     1      -5.698  21.778 -10.782  1.00  0.00    -0.744 OA
ENDBRANCH  73  74
ENDBRANCH  52  66
BRANCH  53  78
ATOM     78  C   UNL     1      -2.298   7.577 -14.726  1.00  0.00     0.058 A 
ATOM     79  C   UNL     1      -1.762   7.298 -15.972  1.00  0.00     0.135 A 
ATOM     80  C   UNL     1      -2.610   6.605 -13.877  1.00  0.00     0.135 A 
ATOM     81  F   UNL     1      -1.204   8.225 -16.746  1.00  0.00    -0.206 F 
ATOM     82  C   UNL     1      -1.860   5.937 -16.347  1.00  0.00     0.059 A 
ATOM     83  C   UNL     1      -2.553   5.290 -14.268  1.00  0.00     0.059 A 
ATOM     84  F   UNL     1      -2.981   6.908 -12.636  1.00  0.00    -0.206 F 
ATOM     85  C   UNL     1      -2.089   4.944 -15.507  1.00  0.00     0.060 A 
BRANCH  85  86
ATOM     86  S   UNL     1      -1.804   3.218 -15.971  1.00  0.00     0.124 S 
ATOM     87  O   UNL     1      -2.681   2.861 -17.174  1.00  0.00    -0.237 OA
ATOM     88  O   UNL     1      -0.331   3.025 -16.339  1.00  0.00    -0.237 OA
ATOM     89  O   UNL     1      -2.200   2.201 -14.655  1.00  0.00    -0.744 OA
ENDBRANCH  85  86
ENDBRANCH  53  78
BRANCH  65  90
ATOM     90  C   UNL     1      -5.891  12.976 -17.422  1.00  0.00     0.058 A 
ATOM     91  C   UNL     1      -7.081  12.269 -17.485  1.00  0.00     0.135 A 
ATOM     92  C   UNL     1      -5.550  13.836 -18.375  1.00  0.00     0.135 A 
ATOM     93  F   UNL     1      -7.582  11.599 -16.451  1.00  0.00    -0.206 F 
ATOM     94  C   UNL     1      -7.715  12.326 -18.748  1.00  0.00     0.059 A 
ATOM     95  C   UNL     1      -6.294  13.936 -19.526  1.00  0.00     0.059 A 
ATOM     96  F   UNL     1      -4.479  14.608 -18.213  1.00  0.00    -0.206 F 
ATOM     97  C   UNL     1      -7.449  13.223 -19.680  1.00  0.00     0.060 A 
BRANCH  97  98
ATOM     98  S   UNL     1      -8.556  13.493 -21.087  1.00  0.00     0.124 S 
ATOM     99  O   UNL     1      -8.691  12.194 -21.887  1.00  0.00    -0.237 OA
ATOM    100  O   UNL     1      -9.933  13.924 -20.578  1.00  0.00    -0.237 OA
ATOM    101  O   UNL     1      -7.911  14.717 -22.093  1.00  0.00    -0.744 OA
ENDBRANCH  97  98
ENDBRANCH  65  90
ENDBRANCH  39  40
ENDBRANCH  31  34
ENDBRANCH   1  30
TORSDOF 16
