REMARK SMILES CC(C)Cc1cc2c(cc1Cl)C=C(C(=O)NCCCNC(=O)c1ccc(-c3c4nc(c(-c5c(F)cc(S(=O)(=O)[O-])cc5F)c5ccc([nH]5)c(-c5c(F)cc(S(=O)(=O)[O-])cc5F)c5nc(c(-c6c(F)cc(S(=O)(=O)[O-])cc6F)c6ccc3[nH]6)C=C5)C=C4)cc1)[C@@H](C(F)(F)F)O2
REMARK SMILES IDX 18 1 17 2 16 3 14 4 15 5 13 7 5 8 6 9 10 10 7 11 9 12 11 13
REMARK SMILES IDX 8 14 94 15 12 16 89 17 4 18 2 19 1 20 3 21 90 22 91 23 92 24
REMARK SMILES IDX 93 25 19 26 20 27 21 28 22 30 23 31 24 32 88 33 25 34 87 35
REMARK SMILES IDX 26 36 27 37 28 38 81 39 29 40 86 41 80 42 82 43 30 44 85 45
REMARK SMILES IDX 79 46 78 47 31 49 65 50 44 51 64 52 45 53 48 54 63 55 83 56
REMARK SMILES IDX 46 57 47 58 62 60 84 61 49 62 32 63 33 64 42 65 34 66 35 67
REMARK SMILES IDX 41 68 43 69 36 70 37 71 38 72 39 73 40 74 66 75 67 76 76 77
REMARK SMILES IDX 68 78 69 79 75 80 77 81 70 82 71 83 72 84 73 85 74 86 50 87
REMARK SMILES IDX 51 88 60 89 52 90 53 91 59 92 61 93 54 94 55 95 56 96 57 97
REMARK SMILES IDX 58 98
REMARK H PARENT 16 6 20 29 82 48 48 59
REMARK Flexibility Score: inf
ROOT
ATOM      1  C   UNL     1      -6.650   5.805   3.411  1.00  0.00     0.042 C 
ENDROOT
BRANCH   1   2
ATOM      2  C   UNL     1      -6.615   5.858   1.891  1.00  0.00     0.118 C 
BRANCH   2   3
ATOM      3  N   UNL     1      -5.457   6.590   1.401  1.00  0.00    -0.352 N 
ATOM      4  C   UNL     1      -4.280   6.305   0.801  1.00  0.00     0.251 C 
ATOM      5  O   UNL     1      -3.570   7.286   0.552  1.00  0.00    -0.270 OA
ATOM      6  H   UNL     1      -5.560   7.559   1.545  1.00  0.00     0.163 HD
BRANCH   4   7
ATOM      7  C   UNL     1      -3.809   4.942   0.427  1.00  0.00     0.067 C 
ATOM      8  C   UNL     1      -1.109   1.039  -1.308  1.00  0.00    -0.025 A 
ATOM      9  C   UNL     1      -2.181   1.176  -0.406  1.00  0.00     0.052 A 
ATOM     10  C   UNL     1      -0.573   2.206  -1.878  1.00  0.00     0.045 A 
ATOM     11  C   UNL     1      -2.687   2.434  -0.086  1.00  0.00     0.128 A 
ATOM     12  C   UNL     1      -1.045   3.471  -1.503  1.00  0.00     0.032 A 
ATOM     13  Cl  UNL     1       0.653   2.163  -3.095  1.00  0.00    -0.084 Cl
ATOM     14  C   UNL     1      -2.104   3.587  -0.604  1.00  0.00     0.019 A 
ATOM     15  O   UNL     1      -3.756   2.480   0.765  1.00  0.00    -0.475 OA
ATOM     16  C   UNL     1      -2.609   4.887  -0.181  1.00  0.00     0.025 C 
ATOM     17  C   UNL     1      -4.586   3.674   0.650  1.00  0.00     0.314 C 
BRANCH   8  18
ATOM     18  C   UNL     1      -0.629  -0.361  -1.631  1.00  0.00     0.040 C 
BRANCH  18  19
ATOM     19  C   UNL     1       0.834  -0.693  -1.263  1.00  0.00    -0.013 C 
ATOM     20  C   UNL     1       1.182  -0.349   0.186  1.00  0.00     0.008 C 
ATOM     21  C   UNL     1       1.102  -2.179  -1.521  1.00  0.00     0.008 C 
ENDBRANCH  18  19
ENDBRANCH   8  18
BRANCH  17  22
ATOM     22  C   UNL     1      -5.669   3.459  -0.428  1.00  0.00     0.429 C 
ATOM     23  F   UNL     1      -6.581   2.546  -0.016  1.00  0.00    -0.167 F 
ATOM     24  F   UNL     1      -6.358   4.593  -0.704  1.00  0.00    -0.167 F 
ATOM     25  F   UNL     1      -5.162   3.023  -1.604  1.00  0.00    -0.167 F 
ENDBRANCH  17  22
ENDBRANCH   4   7
ENDBRANCH   2   3
ENDBRANCH   1   2
BRANCH   1  26
ATOM     26  C   UNL     1      -7.052   7.136   4.034  1.00  0.00     0.118 C 
BRANCH  26  27
ATOM     27  N   UNL     1      -8.441   7.486   3.744  1.00  0.00    -0.352 N 
ATOM     28  C   UNL     1      -9.538   7.532   4.572  1.00  0.00     0.251 C 
ATOM     29  H   UNL     1      -8.620   7.728   2.807  1.00  0.00     0.163 HD
ATOM     30  O   UNL     1     -10.662   7.631   4.088  1.00  0.00    -0.269 OA
BRANCH  28  31
ATOM     31  C   UNL     1      -9.362   7.443   6.037  1.00  0.00     0.039 A 
ATOM     32  C   UNL     1      -8.321   8.130   6.659  1.00  0.00     0.014 A 
ATOM     33  C   UNL     1     -10.237   6.661   6.796  1.00  0.00     0.014 A 
ATOM     34  C   UNL     1      -8.027   7.870   7.989  1.00  0.00     0.010 A 
ATOM     35  C   UNL     1     -10.006   6.492   8.165  1.00  0.00     0.010 A 
ATOM     36  C   UNL     1      -8.865   7.050   8.762  1.00  0.00    -0.014 A 
BRANCH  36  37
ATOM     37  C   UNL     1      -8.506   6.799  10.183  1.00  0.00     0.031 A 
ATOM     38  C   UNL     1      -8.175   5.410  10.662  1.00  0.00     0.074 A 
ATOM     39  C   UNL     1      -8.386   7.851  11.018  1.00  0.00     0.049 A 
ATOM     40  N   UNL     1      -7.782   5.023  11.850  1.00  0.00    -0.248 NA
ATOM     41  C   UNL     1      -8.306   4.311   9.692  1.00  0.00     0.031 C 
ATOM     42  C   UNL     1      -8.672   9.243  10.661  1.00  0.00     0.029 A 
ATOM     43  N   UNL     1      -7.949   7.926  12.315  1.00  0.00    -0.354 N 
ATOM     44  C   UNL     1      -7.643   3.642  11.777  1.00  0.00     0.074 A 
ATOM     45  C   UNL     1      -8.018   3.252  10.435  1.00  0.00     0.031 C 
ATOM     46  C   UNL     1      -8.321  10.040  11.680  1.00  0.00     0.029 A 
ATOM     47  C   UNL     1      -7.859   9.214  12.789  1.00  0.00     0.049 A 
ATOM     48  H   UNL     1      -7.721   7.135  12.855  1.00  0.00     0.167 HD
ATOM     49  C   UNL     1      -7.228   2.781  12.736  1.00  0.00     0.037 A 
ATOM     50  C   UNL     1      -7.455   9.682  13.986  1.00  0.00     0.037 A 
ATOM     51  C   UNL     1      -6.823   3.182  14.059  1.00  0.00     0.049 A 
ATOM     52  C   UNL     1      -7.021   8.706  15.039  1.00  0.00     0.074 A 
ATOM     53  C   UNL     1      -6.371   2.387  15.098  1.00  0.00     0.029 A 
ATOM     54  N   UNL     1      -6.815   4.489  14.524  1.00  0.00    -0.354 N 
ATOM     55  N   UNL     1      -6.910   7.402  14.953  1.00  0.00    -0.248 NA
ATOM     56  C   UNL     1      -6.680   9.258  16.356  1.00  0.00     0.031 C 
ATOM     57  C   UNL     1      -6.122   3.210  16.202  1.00  0.00     0.029 A 
ATOM     58  C   UNL     1      -6.383   4.522  15.839  1.00  0.00     0.049 A 
ATOM     59  H   UNL     1      -7.078   5.277  13.996  1.00  0.00     0.167 HD
ATOM     60  C   UNL     1      -6.488   6.976  16.205  1.00  0.00     0.074 A 
ATOM     61  C   UNL     1      -6.340   8.163  17.023  1.00  0.00     0.031 C 
ATOM     62  C   UNL     1      -6.253   5.714  16.639  1.00  0.00     0.037 A 
BRANCH  49  63
ATOM     63  C   UNL     1      -7.199   1.316  12.399  1.00  0.00     0.058 A 
ATOM     64  C   UNL     1      -6.217   0.772  11.556  1.00  0.00     0.135 A 
ATOM     65  C   UNL     1      -8.140   0.437  12.960  1.00  0.00     0.135 A 
ATOM     66  F   UNL     1      -5.304   1.569  10.979  1.00  0.00    -0.206 F 
ATOM     67  C   UNL     1      -6.182  -0.588  11.263  1.00  0.00     0.059 A 
ATOM     68  C   UNL     1      -8.110  -0.931  12.699  1.00  0.00     0.059 A 
ATOM     69  F   UNL     1      -9.101   0.904  13.772  1.00  0.00    -0.206 F 
ATOM     70  C   UNL     1      -7.134  -1.432  11.839  1.00  0.00     0.060 A 
BRANCH  70  71
ATOM     71  S   UNL     1      -7.074  -3.193  11.447  1.00  0.00     0.124 S 
ATOM     72  O   UNL     1      -7.543  -3.200  10.065  1.00  0.00    -0.237 OA
ATOM     73  O   UNL     1      -5.661  -3.507  11.637  1.00  0.00    -0.237 OA
ATOM     74  O   UNL     1      -7.982  -3.791  12.421  1.00  0.00    -0.744 OA
ENDBRANCH  70  71
ENDBRANCH  49  63
BRANCH  50  75
ATOM     75  C   UNL     1      -7.450  11.147  14.234  1.00  0.00     0.058 A 
ATOM     76  C   UNL     1      -6.245  11.858  14.326  1.00  0.00     0.135 A 
ATOM     77  C   UNL     1      -8.648  11.873  14.322  1.00  0.00     0.135 A 
ATOM     78  F   UNL     1      -5.074  11.207  14.254  1.00  0.00    -0.206 F 
ATOM     79  C   UNL     1      -6.228  13.240  14.487  1.00  0.00     0.059 A 
ATOM     80  C   UNL     1      -8.656  13.257  14.458  1.00  0.00     0.059 A 
ATOM     81  F   UNL     1      -9.827  11.238  14.225  1.00  0.00    -0.206 F 
ATOM     82  C   UNL     1      -7.440  13.931  14.543  1.00  0.00     0.060 A 
BRANCH  82  83
ATOM     83  S   UNL     1      -7.406  15.733  14.665  1.00  0.00     0.124 S 
ATOM     84  O   UNL     1      -7.003  15.925  16.053  1.00  0.00    -0.237 OA
ATOM     85  O   UNL     1      -6.413  16.090  13.656  1.00  0.00    -0.237 OA
ATOM     86  O   UNL     1      -8.777  16.116  14.345  1.00  0.00    -0.744 OA
ENDBRANCH  82  83
ENDBRANCH  50  75
BRANCH  62  87
ATOM     87  C   UNL     1      -5.817   5.547  18.066  1.00  0.00     0.058 A 
ATOM     88  C   UNL     1      -6.733   5.653  19.123  1.00  0.00     0.135 A 
ATOM     89  C   UNL     1      -4.490   5.205  18.373  1.00  0.00     0.135 A 
ATOM     90  F   UNL     1      -8.010   5.987  18.879  1.00  0.00    -0.206 F 
ATOM     91  C   UNL     1      -6.347   5.433  20.440  1.00  0.00     0.059 A 
ATOM     92  C   UNL     1      -4.087   4.960  19.681  1.00  0.00     0.059 A 
ATOM     93  F   UNL     1      -3.579   5.085  17.395  1.00  0.00    -0.206 F 
ATOM     94  C   UNL     1      -5.023   5.081  20.709  1.00  0.00     0.060 A 
BRANCH  94  95
ATOM     95  S   UNL     1      -4.550   4.745  22.418  1.00  0.00     0.124 S 
ATOM     96  O   UNL     1      -4.538   6.087  22.990  1.00  0.00    -0.237 OA
ATOM     97  O   UNL     1      -5.628   3.872  22.873  1.00  0.00    -0.237 OA
ATOM     98  O   UNL     1      -3.245   4.104  22.290  1.00  0.00    -0.744 OA
ENDBRANCH  94  95
ENDBRANCH  62  87
ENDBRANCH  36  37
ENDBRANCH  28  31
ENDBRANCH  26  27
ENDBRANCH   1  26
TORSDOF 16
