REMARK SMILES O=C(NCCCNC(=O)[C@@H]1CC[C@@H](CNC(=O)c2cccc(O)c2)O1)c1ccc(-c2c3nc(c(-c4c(F)cc(S(=O)(=O)[O-])cc4F)c4ccc([nH]4)c(-c4c(F)cc(S(=O)(=O)[O-])cc4F)c4nc(c(-c5c(F)cc(S(=O)(=O)[O-])cc5F)c5ccc2[nH]5)C=C4)C=C3)cc1
REMARK SMILES IDX 5 1 4 2 3 3 1 4 2 5 26 7 27 8 91 9 28 10 90 11 29 12 30 13
REMARK SMILES IDX 31 14 84 15 32 16 89 17 83 18 85 19 33 20 88 21 82 22 81 23
REMARK SMILES IDX 34 25 68 26 47 27 67 28 48 29 51 30 66 31 86 32 49 33 50 34
REMARK SMILES IDX 65 36 87 37 52 38 35 39 36 40 45 41 37 42 38 43 44 44 46 45
REMARK SMILES IDX 39 46 40 47 41 48 42 49 43 50 69 51 70 52 79 53 71 54 72 55
REMARK SMILES IDX 78 56 80 57 73 58 74 59 75 60 76 61 77 62 53 63 54 64 63 65
REMARK SMILES IDX 55 66 56 67 62 68 64 69 57 70 58 71 59 72 60 73 61 74 6 75
REMARK SMILES IDX 7 76 8 77 9 79 10 80 11 81 25 82 12 83 13 84 14 85 15 86
REMARK SMILES IDX 16 87 17 89 18 90 19 91 24 92 20 93 22 94 21 95 23 96
REMARK H PARENT 3 6 85 24 51 35 7 78 15 88 23 97
REMARK Flexibility Score: inf
ROOT
ATOM      1  C   UNL     1       4.780  -2.750   0.385  1.00  0.00     0.042 C 
ENDROOT
BRANCH   1   2
ATOM      2  C   UNL     1       4.535  -1.418  -0.320  1.00  0.00     0.118 C 
BRANCH   2   3
ATOM      3  N   UNL     1       3.120  -1.092  -0.448  1.00  0.00    -0.352 N 
ATOM      4  O   UNL     1       1.190   0.004  -0.098  1.00  0.00    -0.269 OA
ATOM      5  C   UNL     1       2.416   0.004  -0.011  1.00  0.00     0.251 C 
ATOM      6  H   UNL     1       2.582  -1.766  -0.924  1.00  0.00     0.163 HD
BRANCH   5   7
ATOM      7  C   UNL     1       3.114   1.167   0.584  1.00  0.00     0.039 A 
ATOM      8  C   UNL     1       4.294   1.667   0.030  1.00  0.00     0.014 A 
ATOM      9  C   UNL     1       2.560   1.785   1.710  1.00  0.00     0.014 A 
ATOM     10  C   UNL     1       4.998   2.672   0.687  1.00  0.00     0.010 A 
ATOM     11  C   UNL     1       3.227   2.851   2.323  1.00  0.00     0.010 A 
ATOM     12  C   UNL     1       4.475   3.275   1.843  1.00  0.00    -0.014 A 
BRANCH  12  13
ATOM     13  C   UNL     1       5.244   4.354   2.519  1.00  0.00     0.031 A 
ATOM     14  C   UNL     1       5.790   4.161   3.910  1.00  0.00     0.074 A 
ATOM     15  C   UNL     1       5.483   5.504   1.858  1.00  0.00     0.049 A 
ATOM     16  N   UNL     1       6.525   4.973   4.628  1.00  0.00    -0.248 NA
ATOM     17  C   UNL     1       5.463   2.897   4.587  1.00  0.00     0.031 C 
ATOM     18  C   UNL     1       4.995   5.817   0.512  1.00  0.00     0.029 A 
ATOM     19  N   UNL     1       6.210   6.611   2.213  1.00  0.00    -0.354 N 
ATOM     20  C   UNL     1       6.728   4.333   5.845  1.00  0.00     0.074 A 
ATOM     21  C   UNL     1       6.017   3.074   5.779  1.00  0.00     0.031 C 
ATOM     22  C   UNL     1       5.479   7.010   0.136  1.00  0.00     0.029 A 
ATOM     23  C   UNL     1       6.268   7.569   1.229  1.00  0.00     0.049 A 
ATOM     24  H   UNL     1       6.648   6.710   3.089  1.00  0.00     0.167 HD
ATOM     25  C   UNL     1       7.447   4.752   6.916  1.00  0.00     0.037 A 
ATOM     26  C   UNL     1       6.886   8.765   1.206  1.00  0.00     0.037 A 
ATOM     27  C   UNL     1       8.172   5.996   6.969  1.00  0.00     0.049 A 
ATOM     28  C   UNL     1       7.678   9.206   2.404  1.00  0.00     0.074 A 
ATOM     29  C   UNL     1       8.966   6.488   7.991  1.00  0.00     0.029 A 
ATOM     30  N   UNL     1       8.190   6.947   5.959  1.00  0.00    -0.354 N 
ATOM     31  N   UNL     1       7.890   8.569   3.531  1.00  0.00    -0.248 NA
ATOM     32  C   UNL     1       8.316  10.526   2.327  1.00  0.00     0.031 C 
ATOM     33  C   UNL     1       9.431   7.754   7.616  1.00  0.00     0.029 A 
ATOM     34  C   UNL     1       8.965   8.031   6.340  1.00  0.00     0.049 A 
ATOM     35  H   UNL     1       7.720   6.865   5.098  1.00  0.00     0.167 HD
ATOM     36  C   UNL     1       8.709   9.399   4.287  1.00  0.00     0.074 A 
ATOM     37  C   UNL     1       8.959  10.580   3.486  1.00  0.00     0.031 C 
ATOM     38  C   UNL     1       9.212   9.198   5.530  1.00  0.00     0.037 A 
BRANCH  25  39
ATOM     39  C   UNL     1       7.466   3.863   8.131  1.00  0.00     0.058 A 
ATOM     40  C   UNL     1       8.170   2.648   8.151  1.00  0.00     0.135 A 
ATOM     41  C   UNL     1       6.787   4.243   9.300  1.00  0.00     0.135 A 
ATOM     42  F   UNL     1       8.826   2.229   7.057  1.00  0.00    -0.206 F 
ATOM     43  C   UNL     1       8.167   1.824   9.272  1.00  0.00     0.059 A 
ATOM     44  C   UNL     1       6.792   3.447  10.442  1.00  0.00     0.059 A 
ATOM     45  F   UNL     1       6.102   5.397   9.338  1.00  0.00    -0.206 F 
ATOM     46  C   UNL     1       7.469   2.229  10.411  1.00  0.00     0.060 A 
BRANCH  46  47
ATOM     47  S   UNL     1       7.453   1.138  11.850  1.00  0.00     0.124 S 
ATOM     48  O   UNL     1       6.522   0.101  11.416  1.00  0.00    -0.237 OA
ATOM     49  O   UNL     1       8.851   0.730  11.951  1.00  0.00    -0.237 OA
ATOM     50  O   UNL     1       6.976   2.001  12.926  1.00  0.00    -0.744 OA
ENDBRANCH  46  47
ENDBRANCH  25  39
BRANCH  26  51
ATOM     51  C   UNL     1       6.799   9.614  -0.010  1.00  0.00     0.058 A 
ATOM     52  C   UNL     1       7.912   9.791  -0.845  1.00  0.00     0.135 A 
ATOM     53  C   UNL     1       5.595  10.231  -0.383  1.00  0.00     0.135 A 
ATOM     54  F   UNL     1       9.086   9.224  -0.527  1.00  0.00    -0.206 F 
ATOM     55  C   UNL     1       7.838  10.557  -2.003  1.00  0.00     0.059 A 
ATOM     56  C   UNL     1       5.490  10.981  -1.549  1.00  0.00     0.059 A 
ATOM     57  F   UNL     1       4.498  10.077   0.374  1.00  0.00    -0.206 F 
ATOM     58  C   UNL     1       6.620  11.144  -2.350  1.00  0.00     0.060 A 
BRANCH  58  59
ATOM     59  S   UNL     1       6.516  12.081  -3.890  1.00  0.00     0.124 S 
ATOM     60  O   UNL     1       7.210  13.312  -3.531  1.00  0.00    -0.237 OA
ATOM     61  O   UNL     1       7.211  11.206  -4.829  1.00  0.00    -0.237 OA
ATOM     62  O   UNL     1       5.078  12.206  -4.109  1.00  0.00    -0.744 OA
ENDBRANCH  58  59
ENDBRANCH  26  51
BRANCH  38  63
ATOM     63  C   UNL     1      10.119  10.261   6.084  1.00  0.00     0.058 A 
ATOM     64  C   UNL     1       9.626  11.499   6.525  1.00  0.00     0.135 A 
ATOM     65  C   UNL     1      11.498  10.024   6.199  1.00  0.00     0.135 A 
ATOM     66  F   UNL     1       8.317  11.778   6.430  1.00  0.00    -0.206 F 
ATOM     67  C   UNL     1      10.474  12.477   7.035  1.00  0.00     0.059 A 
ATOM     68  C   UNL     1      12.361  10.978   6.729  1.00  0.00     0.059 A 
ATOM     69  F   UNL     1      12.019   8.852   5.801  1.00  0.00    -0.206 F 
ATOM     70  C   UNL     1      11.841  12.208   7.131  1.00  0.00     0.060 A 
BRANCH  70  71
ATOM     71  S   UNL     1      12.931  13.476   7.811  1.00  0.00     0.124 S 
ATOM     72  O   UNL     1      13.045  14.399   6.686  1.00  0.00    -0.237 OA
ATOM     73  O   UNL     1      12.171  13.964   8.957  1.00  0.00    -0.237 OA
ATOM     74  O   UNL     1      14.146  12.736   8.142  1.00  0.00    -0.744 OA
ENDBRANCH  70  71
ENDBRANCH  38  63
ENDBRANCH  12  13
ENDBRANCH   5   7
ENDBRANCH   2   3
ENDBRANCH   1   2
BRANCH   1  75
ATOM     75  C   UNL     1       4.266  -3.966  -0.379  1.00  0.00     0.117 C 
BRANCH  75  76
ATOM     76  N   UNL     1       4.936  -4.128  -1.657  1.00  0.00    -0.354 N 
ATOM     77  C   UNL     1       5.961  -4.976  -1.984  1.00  0.00     0.249 C 
ATOM     78  H   UNL     1       4.610  -3.553  -2.386  1.00  0.00     0.163 HD
ATOM     79  O   UNL     1       6.425  -4.916  -3.123  1.00  0.00    -0.272 OA
BRANCH  77  80
ATOM     80  C   UNL     1       6.478  -5.953  -0.916  1.00  0.00     0.207 C 
ATOM     81  C   UNL     1       7.732  -6.718  -1.326  1.00  0.00     0.045 C 
ATOM     82  O   UNL     1       5.463  -6.939  -0.639  1.00  0.00    -0.363 OA
ATOM     83  C   UNL     1       7.493  -8.097  -0.757  1.00  0.00     0.037 C 
ATOM     84  C   UNL     1       5.995  -8.241  -0.941  1.00  0.00     0.138 C 
BRANCH  84  85
ATOM     85  C   UNL     1       5.339  -9.267  -0.017  1.00  0.00     0.148 C 
BRANCH  85  86
ATOM     86  N   UNL     1       5.436 -10.635  -0.504  1.00  0.00    -0.349 N 
ATOM     87  C   UNL     1       6.065 -11.736   0.016  1.00  0.00     0.251 C 
ATOM     88  H   UNL     1       4.970 -10.797  -1.355  1.00  0.00     0.163 HD
ATOM     89  O   UNL     1       6.059 -12.788  -0.619  1.00  0.00    -0.269 OA
BRANCH  87  90
ATOM     90  C   UNL     1       6.779 -11.674   1.309  1.00  0.00     0.043 A 
ATOM     91  C   UNL     1       6.191 -11.142   2.462  1.00  0.00     0.014 A 
ATOM     92  C   UNL     1       8.060 -12.232   1.373  1.00  0.00     0.060 A 
ATOM     93  C   UNL     1       6.918 -11.088   3.653  1.00  0.00     0.005 A 
ATOM     94  C   UNL     1       8.765 -12.191   2.570  1.00  0.00     0.116 A 
ATOM     95  C   UNL     1       8.212 -11.608   3.707  1.00  0.00     0.046 A 
BRANCH  94  96
ATOM     96  O   UNL     1      10.013 -12.739   2.591  1.00  0.00    -0.508 OA
ATOM     97  H   UNL     1      10.517 -12.729   3.381  1.00  0.00     0.293 HD
ENDBRANCH  94  96
ENDBRANCH  87  90
ENDBRANCH  85  86
ENDBRANCH  84  85
ENDBRANCH  77  80
ENDBRANCH  75  76
ENDBRANCH   1  75
TORSDOF 17
