REMARK SMILES C[C@@H](C(=O)NCCCNC(=O)c1ccc(-c2c3nc(c(-c4c(F)cc(S(=O)(=O)[O-])cc4F)c4ccc([nH]4)c(-c4c(F)cc(S(=O)(=O)[O-])cc4F)c4nc(c(-c5c(F)cc(S(=O)(=O)[O-])cc5F)c5ccc2[nH]5)C=C4)C=C3)cc1)c1ccc(C[C@H]2CCCC2=O)cc1Br
REMARK SMILES IDX 7 1 6 2 5 3 3 4 4 5 2 7 1 8 78 9 79 10 90 11 80 12 89 13
REMARK SMILES IDX 91 14 81 15 82 16 83 17 84 18 87 19 85 20 86 21 88 22 8 23
REMARK SMILES IDX 9 24 10 25 11 27 12 28 13 29 77 30 14 31 76 32 15 33 16 34
REMARK SMILES IDX 17 35 70 36 18 37 75 38 69 39 71 40 19 41 74 42 68 43 67 44
REMARK SMILES IDX 20 46 54 47 33 48 53 49 34 50 37 51 52 52 72 53 35 54 36 55
REMARK SMILES IDX 51 57 73 58 38 59 21 60 22 61 31 62 23 63 24 64 30 65 32 66
REMARK SMILES IDX 25 67 26 68 27 69 28 70 29 71 55 72 56 73 65 74 57 75 58 76
REMARK SMILES IDX 64 77 66 78 59 79 60 80 61 81 62 82 63 83 39 84 40 85 49 86
REMARK SMILES IDX 41 87 42 88 48 89 50 90 43 91 44 92 45 93 46 94 47 95
REMARK H PARENT 5 6 9 26 71 45 37 56
REMARK Flexibility Score: inf
ROOT
ATOM      1  C   UNL     1       4.399   0.178   1.255  1.00  0.00     0.042 C 
ENDROOT
BRANCH   1   2
ATOM      2  C   UNL     1       3.539  -0.965   1.785  1.00  0.00     0.117 C 
BRANCH   2   3
ATOM      3  N   UNL     1       2.457  -0.472   2.613  1.00  0.00    -0.356 N 
ATOM      4  C   UNL     1       1.133  -0.312   2.326  1.00  0.00     0.227 C 
ATOM      5  O   UNL     1       0.437   0.205   3.203  1.00  0.00    -0.274 OA
ATOM      6  H   UNL     1       2.718  -0.213   3.526  1.00  0.00     0.163 HD
BRANCH   4   7
ATOM      7  C   UNL     1       0.569  -0.798   0.979  1.00  0.00     0.106 C 
ATOM      8  C   UNL     1       1.037   0.070  -0.197  1.00  0.00     0.023 C 
BRANCH   7   9
ATOM      9  C   UNL     1      -0.957  -0.876   1.022  1.00  0.00    -0.022 A 
ATOM     10  C   UNL     1      -1.698   0.319   0.931  1.00  0.00     0.006 A 
ATOM     11  C   UNL     1      -1.669  -2.072   1.204  1.00  0.00     0.022 A 
ATOM     12  C   UNL     1      -3.089   0.321   0.998  1.00  0.00     0.004 A 
ATOM     13  C   UNL     1      -3.069  -2.065   1.296  1.00  0.00     0.019 A 
ATOM     14  Br  UNL     1      -0.821  -3.768   1.355  1.00  0.00    -0.051 Br
ATOM     15  C   UNL     1      -3.789  -0.867   1.211  1.00  0.00    -0.046 A 
BRANCH  15  16
ATOM     16  C   UNL     1      -5.290  -0.850   1.370  1.00  0.00     0.047 C 
BRANCH  16  17
ATOM     17  C   UNL     1      -5.827  -0.296   2.695  1.00  0.00     0.060 C 
ATOM     18  C   UNL     1      -5.303  -0.954   3.974  1.00  0.00     0.012 C 
ATOM     19  C   UNL     1      -5.468   1.155   2.917  1.00  0.00     0.136 C 
ATOM     20  C   UNL     1      -4.181  -0.062   4.492  1.00  0.00     0.009 C 
ATOM     21  C   UNL     1      -4.567   1.359   4.106  1.00  0.00     0.076 C 
ATOM     22  O   UNL     1      -5.880   2.070   2.212  1.00  0.00    -0.299 OA
ENDBRANCH  16  17
ENDBRANCH  15  16
ENDBRANCH   7   9
ENDBRANCH   4   7
ENDBRANCH   2   3
ENDBRANCH   1   2
BRANCH   1  23
ATOM     23  C   UNL     1       5.143   0.942   2.345  1.00  0.00     0.118 C 
BRANCH  23  24
ATOM     24  N   UNL     1       6.133   0.118   3.025  1.00  0.00    -0.352 N 
ATOM     25  C   UNL     1       7.491   0.294   3.128  1.00  0.00     0.251 C 
ATOM     26  H   UNL     1       5.777  -0.680   3.476  1.00  0.00     0.163 HD
ATOM     27  O   UNL     1       8.191  -0.615   3.567  1.00  0.00    -0.269 OA
BRANCH  25  28
ATOM     28  C   UNL     1       8.105   1.567   2.696  1.00  0.00     0.039 A 
ATOM     29  C   UNL     1       9.284   1.538   1.946  1.00  0.00     0.014 A 
ATOM     30  C   UNL     1       7.520   2.789   3.038  1.00  0.00     0.014 A 
ATOM     31  C   UNL     1       9.842   2.733   1.487  1.00  0.00     0.010 A 
ATOM     32  C   UNL     1       8.028   3.969   2.510  1.00  0.00     0.010 A 
ATOM     33  C   UNL     1       9.200   3.956   1.738  1.00  0.00    -0.014 A 
BRANCH  33  34
ATOM     34  C   UNL     1       9.740   5.246   1.237  1.00  0.00     0.031 A 
ATOM     35  C   UNL     1      10.149   6.310   2.219  1.00  0.00     0.074 A 
ATOM     36  C   UNL     1       9.770   5.497  -0.086  1.00  0.00     0.049 A 
ATOM     37  N   UNL     1      10.495   7.551   2.000  1.00  0.00    -0.248 NA
ATOM     38  C   UNL     1      10.130   5.934   3.642  1.00  0.00     0.031 C 
ATOM     39  C   UNL     1       9.368   4.559  -1.136  1.00  0.00     0.029 A 
ATOM     40  N   UNL     1      10.132   6.629  -0.774  1.00  0.00    -0.354 N 
ATOM     41  C   UNL     1      10.709   8.111   3.254  1.00  0.00     0.074 A 
ATOM     42  C   UNL     1      10.399   7.089   4.230  1.00  0.00     0.031 C 
ATOM     43  C   UNL     1       9.512   5.151  -2.333  1.00  0.00     0.029 A 
ATOM     44  C   UNL     1       9.969   6.524  -2.135  1.00  0.00     0.049 A 
ATOM     45  H   UNL     1      10.475   7.440  -0.334  1.00  0.00     0.167 HD
ATOM     46  C   UNL     1      11.144   9.356   3.564  1.00  0.00     0.037 A 
ATOM     47  C   UNL     1      10.146   7.435  -3.112  1.00  0.00     0.037 A 
ATOM     48  C   UNL     1      11.467  10.358   2.583  1.00  0.00     0.049 A 
ATOM     49  C   UNL     1      10.619   8.817  -2.749  1.00  0.00     0.074 A 
ATOM     50  C   UNL     1      11.962  11.633   2.787  1.00  0.00     0.029 A 
ATOM     51  N   UNL     1      11.323  10.199   1.211  1.00  0.00    -0.354 N 
ATOM     52  N   UNL     1      10.864   9.318  -1.561  1.00  0.00    -0.248 NA
ATOM     53  C   UNL     1      10.848   9.756  -3.856  1.00  0.00     0.031 C 
ATOM     54  C   UNL     1      12.069  12.264   1.543  1.00  0.00     0.029 A 
ATOM     55  C   UNL     1      11.701  11.360   0.558  1.00  0.00     0.049 A 
ATOM     56  H   UNL     1      10.999   9.382   0.768  1.00  0.00     0.167 HD
ATOM     57  C   UNL     1      11.310  10.617  -1.779  1.00  0.00     0.074 A 
ATOM     58  C   UNL     1      11.300  10.825  -3.213  1.00  0.00     0.031 C 
ATOM     59  C   UNL     1      11.701  11.548  -0.873  1.00  0.00     0.037 A 
BRANCH  46  60
ATOM     60  C   UNL     1      11.278   9.700   5.024  1.00  0.00     0.058 A 
ATOM     61  C   UNL     1      12.242   9.088   5.844  1.00  0.00     0.135 A 
ATOM     62  C   UNL     1      10.431  10.653   5.613  1.00  0.00     0.135 A 
ATOM     63  F   UNL     1      13.070   8.161   5.339  1.00  0.00    -0.206 F 
ATOM     64  C   UNL     1      12.326   9.370   7.204  1.00  0.00     0.059 A 
ATOM     65  C   UNL     1      10.522  10.977   6.964  1.00  0.00     0.059 A 
ATOM     66  F   UNL     1       9.495  11.272   4.878  1.00  0.00    -0.206 F 
ATOM     67  C   UNL     1      11.456  10.312   7.756  1.00  0.00     0.060 A 
BRANCH  67  68
ATOM     68  S   UNL     1      11.559  10.644   9.527  1.00  0.00     0.124 S 
ATOM     69  O   UNL     1      10.976   9.427  10.084  1.00  0.00    -0.237 OA
ATOM     70  O   UNL     1      12.994  10.810   9.731  1.00  0.00    -0.237 OA
ATOM     71  O   UNL     1      10.760  11.854   9.693  1.00  0.00    -0.744 OA
ENDBRANCH  67  68
ENDBRANCH  46  60
BRANCH  47  72
ATOM     72  C   UNL     1       9.891   7.053  -4.527  1.00  0.00     0.058 A 
ATOM     73  C   UNL     1      10.950   6.885  -5.430  1.00  0.00     0.135 A 
ATOM     74  C   UNL     1       8.590   6.802  -4.992  1.00  0.00     0.135 A 
ATOM     75  F   UNL     1      12.211   7.121  -5.036  1.00  0.00    -0.206 F 
ATOM     76  C   UNL     1      10.732   6.483  -6.744  1.00  0.00     0.059 A 
ATOM     77  C   UNL     1       8.348   6.374  -6.293  1.00  0.00     0.059 A 
ATOM     78  F   UNL     1       7.543   6.932  -4.162  1.00  0.00    -0.206 F 
ATOM     79  C   UNL     1       9.427   6.220  -7.163  1.00  0.00     0.060 A 
BRANCH  79  80
ATOM     80  S   UNL     1       9.164   5.621  -8.847  1.00  0.00     0.124 S 
ATOM     81  O   UNL     1       9.450   6.816  -9.633  1.00  0.00    -0.237 OA
ATOM     82  O   UNL     1      10.144   4.543  -8.943  1.00  0.00    -0.237 OA
ATOM     83  O   UNL     1       7.769   5.190  -8.837  1.00  0.00    -0.744 OA
ENDBRANCH  79  80
ENDBRANCH  47  72
BRANCH  59  84
ATOM     84  C   UNL     1      12.209  12.864  -1.395  1.00  0.00     0.058 A 
ATOM     85  C   UNL     1      11.351  13.830  -1.943  1.00  0.00     0.135 A 
ATOM     86  C   UNL     1      13.569  13.194  -1.264  1.00  0.00     0.135 A 
ATOM     87  F   UNL     1      10.045  13.564  -2.098  1.00  0.00    -0.206 F 
ATOM     88  C   UNL     1      11.825  15.073  -2.352  1.00  0.00     0.059 A 
ATOM     89  C   UNL     1      14.059  14.440  -1.639  1.00  0.00     0.059 A 
ATOM     90  F   UNL     1      14.431  12.309  -0.739  1.00  0.00    -0.206 F 
ATOM     91  C   UNL     1      13.180  15.371  -2.188  1.00  0.00     0.060 A 
BRANCH  91  92
ATOM     92  S   UNL     1      13.770  17.009  -2.668  1.00  0.00     0.124 S 
ATOM     93  O   UNL     1      13.722  16.925  -4.123  1.00  0.00    -0.237 OA
ATOM     94  O   UNL     1      12.782  17.889  -2.050  1.00  0.00    -0.237 OA
ATOM     95  O   UNL     1      15.107  17.073  -2.086  1.00  0.00    -0.744 OA
ENDBRANCH  91  92
ENDBRANCH  59  84
ENDBRANCH  33  34
ENDBRANCH  25  28
ENDBRANCH  23  24
ENDBRANCH   1  23
TORSDOF 16
