REMARK SMILES Cc1ccc(NC(=O)N2CCCC[C@@H]2C(=O)NCCCNC(=O)c2ccc(-c3c4nc(c(-c5c(F)cc(S(=O)(=O)[O-])cc5F)c5ccc([nH]5)c(-c5c(F)cc(S(=O)(=O)[O-])cc5F)c5nc(c(-c6c(F)cc(S(=O)(=O)[O-])cc6F)c6ccc3[nH]6)C=C5)C=C4)cc2)cc1
REMARK SMILES IDX 19 1 18 2 17 3 15 4 16 5 14 7 9 8 10 9 11 10 13 11 12 12
REMARK SMILES IDX 7 13 6 14 8 16 5 17 1 18 2 19 3 20 91 21 4 22 90 23 20 24
REMARK SMILES IDX 21 25 22 26 23 28 24 29 25 30 89 31 26 32 88 33 27 34 28 35
REMARK SMILES IDX 29 36 82 37 30 38 87 39 81 40 83 41 31 42 86 43 80 44 79 45
REMARK SMILES IDX 32 47 66 48 45 49 65 50 46 51 49 52 64 53 84 54 47 55 48 56
REMARK SMILES IDX 63 58 85 59 50 60 33 61 34 62 43 63 35 64 36 65 42 66 44 67
REMARK SMILES IDX 37 68 38 69 39 70 40 71 41 72 67 73 68 74 77 75 69 76 70 77
REMARK SMILES IDX 76 78 78 79 71 80 72 81 73 82 74 83 75 84 51 85 52 86 61 87
REMARK SMILES IDX 53 88 54 89 60 90 62 91 55 92 56 93 57 94 58 95 59 96
REMARK H PARENT 17 6 6 15 21 27 83 46 49 57
REMARK Flexibility Score: inf
ROOT
ATOM      1  C   UNL     1      -5.574  -3.146   3.163  1.00  0.00     0.042 C 
ENDROOT
BRANCH   1   2
ATOM      2  C   UNL     1      -5.106  -2.072   2.186  1.00  0.00     0.117 C 
BRANCH   2   3
ATOM      3  N   UNL     1      -3.826  -1.495   2.573  1.00  0.00    -0.354 N 
ATOM      4  C   UNL     1      -2.557  -1.725   2.132  1.00  0.00     0.242 C 
ATOM      5  O   UNL     1      -1.639  -1.219   2.790  1.00  0.00    -0.273 OA
ATOM      6  H   UNL     1      -3.889  -0.815   3.282  1.00  0.00     0.163 HD
BRANCH   4   7
ATOM      7  C   UNL     1      -2.223  -2.728   0.995  1.00  0.00     0.176 C 
ATOM      8  N   UNL     1      -3.107  -2.660  -0.199  1.00  0.00    -0.313 N 
ATOM      9  C   UNL     1      -3.353  -3.867  -0.982  1.00  0.00     0.122 C 
ATOM     10  C   UNL     1      -3.374  -5.161  -0.190  1.00  0.00     0.022 C 
ATOM     11  C   UNL     1      -2.135  -4.115   1.662  1.00  0.00     0.035 C 
ATOM     12  C   UNL     1      -2.132  -5.264   0.673  1.00  0.00     0.004 C 
BRANCH   8  13
ATOM     13  C   UNL     1      -3.465  -1.473  -0.834  1.00  0.00     0.322 C 
ATOM     14  N   UNL     1      -2.810  -0.324  -0.515  1.00  0.00    -0.308 N 
ATOM     15  H   UNL     1      -3.375   0.433  -0.238  1.00  0.00     0.171 HD
ATOM     16  O   UNL     1      -4.417  -1.416  -1.616  1.00  0.00    -0.248 OA
BRANCH  14  17
ATOM     17  C   UNL     1      -1.424  -0.084  -0.531  1.00  0.00     0.042 A 
ATOM     18  C   UNL     1       2.809   0.548  -0.109  1.00  0.00     0.044 C 
ATOM     19  C   UNL     1       1.338   0.383  -0.349  1.00  0.00    -0.051 A 
ATOM     20  C   UNL     1       0.855  -0.740  -1.026  1.00  0.00     0.005 A 
ATOM     21  C   UNL     1       0.425   1.301   0.184  1.00  0.00     0.005 A 
ATOM     22  C   UNL     1      -0.519  -0.959  -1.137  1.00  0.00     0.026 A 
ATOM     23  C   UNL     1      -0.950   1.078   0.078  1.00  0.00     0.026 A 
ENDBRANCH  14  17
ENDBRANCH   8  13
ENDBRANCH   4   7
ENDBRANCH   2   3
ENDBRANCH   1   2
BRANCH   1  24
ATOM     24  C   UNL     1      -5.998  -2.572   4.509  1.00  0.00     0.118 C 
BRANCH  24  25
ATOM     25  N   UNL     1      -7.390  -2.846   4.829  1.00  0.00    -0.352 N 
ATOM     26  C   UNL     1      -8.017  -2.692   6.053  1.00  0.00     0.251 C 
ATOM     27  H   UNL     1      -7.949  -3.179   4.090  1.00  0.00     0.163 HD
ATOM     28  O   UNL     1      -9.088  -3.209   6.309  1.00  0.00    -0.269 OA
BRANCH  26  29
ATOM     29  C   UNL     1      -7.392  -1.735   6.989  1.00  0.00     0.039 A 
ATOM     30  C   UNL     1      -8.032  -0.501   7.154  1.00  0.00     0.014 A 
ATOM     31  C   UNL     1      -6.093  -1.940   7.442  1.00  0.00     0.014 A 
ATOM     32  C   UNL     1      -7.311   0.585   7.644  1.00  0.00     0.010 A 
ATOM     33  C   UNL     1      -5.356  -0.840   7.838  1.00  0.00     0.010 A 
ATOM     34  C   UNL     1      -5.951   0.430   7.910  1.00  0.00    -0.014 A 
BRANCH  34  35
ATOM     35  C   UNL     1      -5.049   1.543   8.199  1.00  0.00     0.031 A 
ATOM     36  C   UNL     1      -4.450   1.692   9.550  1.00  0.00     0.074 A 
ATOM     37  C   UNL     1      -4.681   2.405   7.225  1.00  0.00     0.049 A 
ATOM     38  N   UNL     1      -3.936   2.788  10.003  1.00  0.00    -0.248 NA
ATOM     39  C   UNL     1      -4.421   0.608  10.526  1.00  0.00     0.031 C 
ATOM     40  C   UNL     1      -3.530   3.304   7.248  1.00  0.00     0.029 A 
ATOM     41  N   UNL     1      -5.382   2.781   6.083  1.00  0.00    -0.354 N 
ATOM     42  C   UNL     1      -3.279   2.497  11.177  1.00  0.00     0.074 A 
ATOM     43  C   UNL     1      -3.651   1.134  11.483  1.00  0.00     0.031 C 
ATOM     44  C   UNL     1      -3.702   4.263   6.327  1.00  0.00     0.029 A 
ATOM     45  C   UNL     1      -5.036   4.108   5.779  1.00  0.00     0.049 A 
ATOM     46  H   UNL     1      -6.010   2.216   5.577  1.00  0.00     0.167 HD
ATOM     47  C   UNL     1      -2.392   3.393  11.699  1.00  0.00     0.037 A 
ATOM     48  C   UNL     1      -5.970   5.105   5.729  1.00  0.00     0.037 A 
ATOM     49  C   UNL     1      -2.337   4.617  10.905  1.00  0.00     0.049 A 
ATOM     50  C   UNL     1      -5.746   6.221   6.725  1.00  0.00     0.074 A 
ATOM     51  C   UNL     1      -1.477   5.051   9.909  1.00  0.00     0.029 A 
ATOM     52  N   UNL     1      -3.429   5.476  10.883  1.00  0.00    -0.354 N 
ATOM     53  N   UNL     1      -4.931   6.141   7.740  1.00  0.00    -0.248 NA
ATOM     54  C   UNL     1      -6.435   7.508   6.673  1.00  0.00     0.031 C 
ATOM     55  C   UNL     1      -2.070   6.162   9.264  1.00  0.00     0.029 A 
ATOM     56  C   UNL     1      -3.288   6.409   9.873  1.00  0.00     0.049 A 
ATOM     57  H   UNL     1      -4.194   5.428  11.500  1.00  0.00     0.167 HD
ATOM     58  C   UNL     1      -5.004   7.289   8.489  1.00  0.00     0.074 A 
ATOM     59  C   UNL     1      -5.931   8.129   7.756  1.00  0.00     0.031 C 
ATOM     60  C   UNL     1      -4.302   7.430   9.654  1.00  0.00     0.037 A 
BRANCH  47  61
ATOM     61  C   UNL     1      -1.368   3.032  12.757  1.00  0.00     0.058 A 
ATOM     62  C   UNL     1      -0.080   3.612  12.750  1.00  0.00     0.135 A 
ATOM     63  C   UNL     1      -1.576   2.078  13.771  1.00  0.00     0.135 A 
ATOM     64  F   UNL     1       0.238   4.611  11.917  1.00  0.00    -0.206 F 
ATOM     65  C   UNL     1       0.952   3.183  13.586  1.00  0.00     0.059 A 
ATOM     66  C   UNL     1      -0.545   1.590  14.582  1.00  0.00     0.059 A 
ATOM     67  F   UNL     1      -2.804   1.609  14.039  1.00  0.00    -0.206 F 
ATOM     68  C   UNL     1       0.725   2.139  14.470  1.00  0.00     0.060 A 
BRANCH  68  69
ATOM     69  S   UNL     1       2.104   1.515  15.448  1.00  0.00     0.124 S 
ATOM     70  O   UNL     1       3.125   1.281  14.431  1.00  0.00    -0.237 OA
ATOM     71  O   UNL     1       2.358   2.625  16.359  1.00  0.00    -0.237 OA
ATOM     72  O   UNL     1       1.562   0.307  16.066  1.00  0.00    -0.744 OA
ENDBRANCH  68  69
ENDBRANCH  47  61
BRANCH  48  73
ATOM     73  C   UNL     1      -7.287   4.644   5.218  1.00  0.00     0.058 A 
ATOM     74  C   UNL     1      -7.357   4.290   3.857  1.00  0.00     0.135 A 
ATOM     75  C   UNL     1      -8.245   4.097   6.084  1.00  0.00     0.135 A 
ATOM     76  F   UNL     1      -6.479   4.811   2.984  1.00  0.00    -0.206 F 
ATOM     77  C   UNL     1      -8.204   3.284   3.410  1.00  0.00     0.059 A 
ATOM     78  C   UNL     1      -9.112   3.091   5.653  1.00  0.00     0.059 A 
ATOM     79  F   UNL     1      -8.234   4.410   7.388  1.00  0.00    -0.206 F 
ATOM     80  C   UNL     1      -9.017   2.635   4.337  1.00  0.00     0.060 A 
BRANCH  80  81
ATOM     81  S   UNL     1      -9.784   1.074   3.839  1.00  0.00     0.124 S 
ATOM     82  O   UNL     1     -10.476   1.448   2.611  1.00  0.00    -0.237 OA
ATOM     83  O   UNL     1      -8.612   0.215   3.667  1.00  0.00    -0.237 OA
ATOM     84  O   UNL     1     -10.641   0.746   4.972  1.00  0.00    -0.744 OA
ENDBRANCH  80  81
ENDBRANCH  48  73
BRANCH  60  85
ATOM     85  C   UNL     1      -4.423   8.554  10.664  1.00  0.00     0.058 A 
ATOM     86  C   UNL     1      -5.582   9.320  10.869  1.00  0.00     0.135 A 
ATOM     87  C   UNL     1      -3.368   8.802  11.582  1.00  0.00     0.135 A 
ATOM     88  F   UNL     1      -6.691   9.115  10.146  1.00  0.00    -0.206 F 
ATOM     89  C   UNL     1      -5.672  10.297  11.866  1.00  0.00     0.059 A 
ATOM     90  C   UNL     1      -3.458   9.730  12.617  1.00  0.00     0.059 A 
ATOM     91  F   UNL     1      -2.207   8.133  11.514  1.00  0.00    -0.206 F 
ATOM     92  C   UNL     1      -4.607  10.493  12.739  1.00  0.00     0.060 A 
BRANCH  92  93
ATOM     93  S   UNL     1      -4.741  11.689  14.081  1.00  0.00     0.124 S 
ATOM     94  O   UNL     1      -4.135  12.873  13.479  1.00  0.00    -0.237 OA
ATOM     95  O   UNL     1      -6.181  11.767  14.308  1.00  0.00    -0.237 OA
ATOM     96  O   UNL     1      -3.979  11.064  15.157  1.00  0.00    -0.744 OA
ENDBRANCH  92  93
ENDBRANCH  60  85
ENDBRANCH  34  35
ENDBRANCH  26  29
ENDBRANCH  24  25
ENDBRANCH   1  24
TORSDOF 15
