REMARK SMILES O=C(NCCCNC(=O)[C@@H]1C=C[C@@H]([NH+]2CC3(CCOCC3)C2)C1)c1ccc(-c2c3nc(c(-c4c(F)cc(S(=O)(=O)[O-])cc4F)c4ccc([nH]4)c(-c4c(F)cc(S(=O)(=O)[O-])cc4F)c4nc(c(-c5c(F)cc(S(=O)(=O)[O-])cc5F)c5ccc2[nH]5)C=C4)C=C3)cc1
REMARK SMILES IDX 4 1 3 2 1 3 2 4 24 6 25 7 89 8 26 9 88 10 27 11 28 12 29 13
REMARK SMILES IDX 82 14 30 15 87 16 81 17 83 18 31 19 86 20 80 21 79 22 32 24
REMARK SMILES IDX 66 25 45 26 65 27 46 28 49 29 64 30 84 31 47 32 48 33 63 35
REMARK SMILES IDX 85 36 50 37 33 38 34 39 43 40 35 41 36 42 42 43 44 44 37 45
REMARK SMILES IDX 38 46 39 47 40 48 41 49 67 50 68 51 77 52 69 53 70 54 76 55
REMARK SMILES IDX 78 56 71 57 72 58 73 59 74 60 75 61 51 62 52 63 61 64 53 65
REMARK SMILES IDX 54 66 60 67 62 68 55 69 56 70 57 71 58 72 59 73 5 74 6 75
REMARK SMILES IDX 7 76 8 77 9 79 10 80 11 81 23 82 12 83 13 84 14 85 15 86
REMARK SMILES IDX 22 87 16 89 17 90 21 91 18 92 20 93 19 94
REMARK H PARENT 3 5 83 23 49 34 7 78 14 88
REMARK Flexibility Score: inf
ROOT
ATOM      1  C   UNL     1      10.030  -4.177   1.982  1.00  0.00     0.118 C 
ENDROOT
BRANCH   1   2
ATOM      2  N   UNL     1      10.339  -5.484   1.420  1.00  0.00    -0.352 N 
ATOM      3  O   UNL     1      10.968  -6.956  -0.153  1.00  0.00    -0.269 OA
ATOM      4  C   UNL     1      11.022  -5.808   0.276  1.00  0.00     0.251 C 
ATOM      5  H   UNL     1      10.008  -6.251   1.941  1.00  0.00     0.163 HD
BRANCH   4   6
ATOM      6  C   UNL     1      11.809  -4.781  -0.438  1.00  0.00     0.039 A 
ATOM      7  C   UNL     1      12.627  -3.887   0.261  1.00  0.00     0.014 A 
ATOM      8  C   UNL     1      11.764  -4.747  -1.834  1.00  0.00     0.014 A 
ATOM      9  C   UNL     1      13.306  -2.885  -0.426  1.00  0.00     0.010 A 
ATOM     10  C   UNL     1      12.505  -3.788  -2.526  1.00  0.00     0.010 A 
ATOM     11  C   UNL     1      13.263  -2.835  -1.826  1.00  0.00    -0.014 A 
BRANCH  11  12
ATOM     12  C   UNL     1      14.052  -1.820  -2.567  1.00  0.00     0.031 A 
ATOM     13  C   UNL     1      13.364  -0.775  -3.397  1.00  0.00     0.074 A 
ATOM     14  C   UNL     1      15.397  -1.875  -2.522  1.00  0.00     0.049 A 
ATOM     15  N   UNL     1      13.884   0.121  -4.194  1.00  0.00    -0.248 NA
ATOM     16  C   UNL     1      11.895  -0.741  -3.330  1.00  0.00     0.031 C 
ATOM     17  C   UNL     1      16.174  -2.847  -1.749  1.00  0.00     0.029 A 
ATOM     18  N   UNL     1      16.348  -1.113  -3.151  1.00  0.00    -0.354 N 
ATOM     19  C   UNL     1      12.810   0.809  -4.746  1.00  0.00     0.074 A 
ATOM     20  C   UNL     1      11.607   0.209  -4.209  1.00  0.00     0.031 C 
ATOM     21  C   UNL     1      17.480  -2.623  -1.950  1.00  0.00     0.029 A 
ATOM     22  C   UNL     1      17.633  -1.536  -2.912  1.00  0.00     0.049 A 
ATOM     23  H   UNL     1      16.131  -0.338  -3.719  1.00  0.00     0.167 HD
ATOM     24  C   UNL     1      12.831   1.845  -5.620  1.00  0.00     0.037 A 
ATOM     25  C   UNL     1      18.804  -1.127  -3.437  1.00  0.00     0.037 A 
ATOM     26  C   UNL     1      14.039   2.428  -6.145  1.00  0.00     0.049 A 
ATOM     27  C   UNL     1      18.805  -0.003  -4.431  1.00  0.00     0.074 A 
ATOM     28  C   UNL     1      14.171   3.501  -7.008  1.00  0.00     0.029 A 
ATOM     29  N   UNL     1      15.323   1.976  -5.870  1.00  0.00    -0.354 N 
ATOM     30  N   UNL     1      17.785   0.661  -4.920  1.00  0.00    -0.248 NA
ATOM     31  C   UNL     1      20.110   0.432  -4.946  1.00  0.00     0.031 C 
ATOM     32  C   UNL     1      15.530   3.663  -7.298  1.00  0.00     0.029 A 
ATOM     33  C   UNL     1      16.252   2.733  -6.566  1.00  0.00     0.049 A 
ATOM     34  H   UNL     1      15.542   1.228  -5.269  1.00  0.00     0.167 HD
ATOM     35  C   UNL     1      18.325   1.613  -5.776  1.00  0.00     0.074 A 
ATOM     36  C   UNL     1      19.762   1.436  -5.742  1.00  0.00     0.031 C 
ATOM     37  C   UNL     1      17.684   2.554  -6.513  1.00  0.00     0.037 A 
BRANCH  24  38
ATOM     38  C   UNL     1      11.505   2.381  -6.091  1.00  0.00     0.058 A 
ATOM     39  C   UNL     1      10.634   3.075  -5.235  1.00  0.00     0.135 A 
ATOM     40  C   UNL     1      11.097   2.195  -7.423  1.00  0.00     0.135 A 
ATOM     41  F   UNL     1      10.966   3.275  -3.949  1.00  0.00    -0.206 F 
ATOM     42  C   UNL     1       9.386   3.515  -5.666  1.00  0.00     0.059 A 
ATOM     43  C   UNL     1       9.867   2.655  -7.884  1.00  0.00     0.059 A 
ATOM     44  F   UNL     1      11.891   1.547  -8.289  1.00  0.00    -0.206 F 
ATOM     45  C   UNL     1       9.007   3.290  -6.990  1.00  0.00     0.060 A 
BRANCH  45  46
ATOM     46  S   UNL     1       7.364   3.818  -7.520  1.00  0.00     0.124 S 
ATOM     47  O   UNL     1       6.517   2.824  -6.868  1.00  0.00    -0.237 OA
ATOM     48  O   UNL     1       7.280   5.172  -6.981  1.00  0.00    -0.237 OA
ATOM     49  O   UNL     1       7.430   3.729  -8.975  1.00  0.00    -0.744 OA
ENDBRANCH  45  46
ENDBRANCH  24  38
BRANCH  25  50
ATOM     50  C   UNL     1      20.057  -1.807  -3.019  1.00  0.00     0.058 A 
ATOM     51  C   UNL     1      20.971  -1.179  -2.163  1.00  0.00     0.135 A 
ATOM     52  C   UNL     1      20.318  -3.135  -3.396  1.00  0.00     0.135 A 
ATOM     53  F   UNL     1      20.767   0.090  -1.779  1.00  0.00    -0.206 F 
ATOM     54  C   UNL     1      22.095  -1.845  -1.685  1.00  0.00     0.059 A 
ATOM     55  C   UNL     1      21.421  -3.830  -2.912  1.00  0.00     0.059 A 
ATOM     56  F   UNL     1      19.462  -3.786  -4.200  1.00  0.00    -0.206 F 
ATOM     57  C   UNL     1      22.303  -3.175  -2.055  1.00  0.00     0.060 A 
BRANCH  57  58
ATOM     58  S   UNL     1      23.711  -4.059  -1.347  1.00  0.00     0.124 S 
ATOM     59  O   UNL     1      24.830  -3.437  -2.046  1.00  0.00    -0.237 OA
ATOM     60  O   UNL     1      23.587  -3.740   0.072  1.00  0.00    -0.237 OA
ATOM     61  O   UNL     1      23.444  -5.451  -1.694  1.00  0.00    -0.744 OA
ENDBRANCH  57  58
ENDBRANCH  25  50
BRANCH  37  62
ATOM     62  C   UNL     1      18.524   3.511  -7.311  1.00  0.00     0.058 A 
ATOM     63  C   UNL     1      19.157   3.129  -8.503  1.00  0.00     0.135 A 
ATOM     64  C   UNL     1      18.608   4.860  -6.926  1.00  0.00     0.135 A 
ATOM     65  F   UNL     1      19.118   1.850  -8.909  1.00  0.00    -0.206 F 
ATOM     66  C   UNL     1      19.841   4.052  -9.289  1.00  0.00     0.059 A 
ATOM     67  C   UNL     1      19.264   5.804  -7.708  1.00  0.00     0.059 A 
ATOM     68  F   UNL     1      18.016   5.277  -5.795  1.00  0.00    -0.206 F 
ATOM     69  C   UNL     1      19.878   5.390  -8.889  1.00  0.00     0.060 A 
BRANCH  69  70
ATOM     70  S   UNL     1      20.694   6.592  -9.961  1.00  0.00     0.124 S 
ATOM     71  O   UNL     1      22.101   6.260  -9.759  1.00  0.00    -0.237 OA
ATOM     72  O   UNL     1      20.147   6.262 -11.273  1.00  0.00    -0.237 OA
ATOM     73  O   UNL     1      20.268   7.878  -9.416  1.00  0.00    -0.744 OA
ENDBRANCH  69  70
ENDBRANCH  37  62
ENDBRANCH  11  12
ENDBRANCH   4   6
ENDBRANCH   1   2
BRANCH   1  74
ATOM     74  C   UNL     1       8.529  -3.898   1.983  1.00  0.00     0.042 C 
BRANCH  74  75
ATOM     75  C   UNL     1       7.758  -4.827   2.916  1.00  0.00     0.117 C 
BRANCH  75  76
ATOM     76  N   UNL     1       8.161  -4.628   4.299  1.00  0.00    -0.356 N 
ATOM     77  C   UNL     1       7.769  -3.644   5.168  1.00  0.00     0.227 C 
ATOM     78  H   UNL     1       8.798  -5.287   4.658  1.00  0.00     0.163 HD
ATOM     79  O   UNL     1       8.351  -3.540   6.247  1.00  0.00    -0.274 OA
BRANCH  77  80
ATOM     80  C   UNL     1       6.541  -2.816   4.803  1.00  0.00     0.107 C 
ATOM     81  C   UNL     1       6.551  -1.365   5.141  1.00  0.00    -0.012 C 
ATOM     82  C   UNL     1       5.358  -3.368   5.600  1.00  0.00     0.087 C 
ATOM     83  C   UNL     1       5.565  -1.037   5.984  1.00  0.00     0.033 C 
ATOM     84  C   UNL     1       4.813  -2.234   6.489  1.00  0.00     0.208 C 
BRANCH  84  85
ATOM     85  N   UNL     1       3.366  -2.006   6.593  1.00  0.00    -0.328 N 
ATOM     86  C   UNL     1       2.677  -3.022   7.407  1.00  0.00     0.275 C 
ATOM     87  C   UNL     1       2.579  -2.358   5.407  1.00  0.00     0.275 C 
ATOM     88  H   UNL     1       3.383  -1.030   6.887  1.00  0.00     0.348 HD
ATOM     89  C   UNL     1       2.015  -3.623   6.135  1.00  0.00     0.073 C 
ATOM     90  C   UNL     1       0.480  -3.635   6.063  1.00  0.00     0.047 C 
ATOM     91  C   UNL     1       2.563  -5.000   5.724  1.00  0.00     0.047 C 
ATOM     92  C   UNL     1      -0.078  -4.834   6.814  1.00  0.00     0.161 C 
ATOM     93  C   UNL     1       1.855  -6.120   6.472  1.00  0.00     0.161 C 
ATOM     94  O   UNL     1       0.448  -6.045   6.272  1.00  0.00    -0.381 OA
ENDBRANCH  84  85
ENDBRANCH  77  80
ENDBRANCH  75  76
ENDBRANCH  74  75
ENDBRANCH   1  74
TORSDOF 14
