REMARK SMILES O=C(NCCCNC(=O)[C@@H]1CCCC[C@H]1C(=O)Nc1cccc(-c2nnc(-c3ccccc3)o2)c1)c1ccc(-c2c3nc(c(-c4c(F)cc(S(=O)(=O)[O-])cc4F)c4ccc([nH]4)c(-c4c(F)cc(S(=O)(=O)[O-])cc4F)c4nc(c(-c5c(F)cc(S(=O)(=O)[O-])cc5F)c5ccc2[nH]5)C=C4)C=C3)cc1
REMARK SMILES IDX 5 1 4 2 3 3 1 4 2 5 36 7 37 8 101 9 38 10 100 11 39 12 40 13
REMARK SMILES IDX 41 14 94 15 42 16 99 17 93 18 95 19 43 20 98 21 92 22 91 23
REMARK SMILES IDX 44 25 78 26 57 27 77 28 58 29 61 30 76 31 96 32 59 33 60 34
REMARK SMILES IDX 75 36 97 37 62 38 45 39 46 40 55 41 47 42 48 43 54 44 56 45
REMARK SMILES IDX 49 46 50 47 51 48 52 49 53 50 79 51 80 52 89 53 81 54 82 55
REMARK SMILES IDX 88 56 90 57 83 58 84 59 85 60 86 61 87 62 63 63 64 64 73 65
REMARK SMILES IDX 65 66 66 67 72 68 74 69 67 70 68 71 69 72 70 73 71 74 6 75
REMARK SMILES IDX 7 76 8 77 9 79 10 80 11 81 15 82 12 83 14 84 13 85 16 86
REMARK SMILES IDX 17 87 18 88 19 90 20 91 35 92 21 93 23 94 22 95 24 96 25 97
REMARK SMILES IDX 34 98 26 99 27 100 28 101 29 102 33 103 30 104 32 105 31 106
REMARK H PARENT 3 6 95 24 61 35 7 78 18 89
REMARK Flexibility Score: inf
ROOT
ATOM      1  C   UNL     1       4.386  -0.946  -2.290  1.00  0.00     0.042 C 
ENDROOT
BRANCH   1   2
ATOM      2  C   UNL     1       4.278   0.222  -1.319  1.00  0.00     0.118 C 
BRANCH   2   3
ATOM      3  N   UNL     1       2.885   0.491  -0.969  1.00  0.00    -0.352 N 
ATOM      4  O   UNL     1       0.970   0.160   0.168  1.00  0.00    -0.269 OA
ATOM      5  C   UNL     1       2.204   0.182   0.178  1.00  0.00     0.251 C 
ATOM      6  H   UNL     1       2.361   0.962  -1.657  1.00  0.00     0.163 HD
BRANCH   5   7
ATOM      7  C   UNL     1       2.949  -0.103   1.417  1.00  0.00     0.039 A 
ATOM      8  C   UNL     1       4.095   0.638   1.716  1.00  0.00     0.014 A 
ATOM      9  C   UNL     1       2.487  -1.075   2.307  1.00  0.00     0.014 A 
ATOM     10  C   UNL     1       4.860   0.309   2.822  1.00  0.00     0.010 A 
ATOM     11  C   UNL     1       3.197  -1.324   3.485  1.00  0.00     0.010 A 
ATOM     12  C   UNL     1       4.397  -0.643   3.741  1.00  0.00    -0.014 A 
BRANCH  12  13
ATOM     13  C   UNL     1       5.147  -0.823   5.006  1.00  0.00     0.031 A 
ATOM     14  C   UNL     1       5.798  -2.132   5.344  1.00  0.00     0.074 A 
ATOM     15  C   UNL     1       5.266   0.240   5.827  1.00  0.00     0.049 A 
ATOM     16  N   UNL     1       6.499  -2.449   6.401  1.00  0.00    -0.248 NA
ATOM     17  C   UNL     1       5.638  -3.230   4.378  1.00  0.00     0.031 C 
ATOM     18  C   UNL     1       4.663   1.558   5.588  1.00  0.00     0.029 A 
ATOM     19  N   UNL     1       5.944   0.400   7.005  1.00  0.00    -0.354 N 
ATOM     20  C   UNL     1       6.856  -3.781   6.238  1.00  0.00     0.074 A 
ATOM     21  C   UNL     1       6.264  -4.225   4.993  1.00  0.00     0.031 C 
ATOM     22  C   UNL     1       5.044   2.401   6.557  1.00  0.00     0.029 A 
ATOM     23  C   UNL     1       5.846   1.668   7.527  1.00  0.00     0.049 A 
ATOM     24  H   UNL     1       6.453  -0.324   7.437  1.00  0.00     0.167 HD
ATOM     25  C   UNL     1       7.616  -4.554   7.050  1.00  0.00     0.037 A 
ATOM     26  C   UNL     1       6.326   2.180   8.674  1.00  0.00     0.037 A 
ATOM     27  C   UNL     1       8.197  -4.089   8.285  1.00  0.00     0.049 A 
ATOM     28  C   UNL     1       7.127   1.287   9.575  1.00  0.00     0.074 A 
ATOM     29  C   UNL     1       8.988  -4.786   9.181  1.00  0.00     0.029 A 
ATOM     30  N   UNL     1       8.047  -2.808   8.801  1.00  0.00    -0.354 N 
ATOM     31  N   UNL     1       7.467   0.032   9.398  1.00  0.00    -0.248 NA
ATOM     32  C   UNL     1       7.606   1.873  10.832  1.00  0.00     0.031 C 
ATOM     33  C   UNL     1       9.277  -3.943  10.260  1.00  0.00     0.029 A 
ATOM     34  C   UNL     1       8.714  -2.701  10.011  1.00  0.00     0.049 A 
ATOM     35  H   UNL     1       7.541  -2.082   8.369  1.00  0.00     0.167 HD
ATOM     36  C   UNL     1       8.217  -0.317  10.513  1.00  0.00     0.074 A 
ATOM     37  C   UNL     1       8.298   0.866  11.346  1.00  0.00     0.031 C 
ATOM     38  C   UNL     1       8.785  -1.509  10.821  1.00  0.00     0.037 A 
BRANCH  25  39
ATOM     39  C   UNL     1       7.850  -5.984   6.642  1.00  0.00     0.058 A 
ATOM     40  C   UNL     1       8.669  -6.317   5.550  1.00  0.00     0.135 A 
ATOM     41  C   UNL     1       7.283  -7.039   7.376  1.00  0.00     0.135 A 
ATOM     42  F   UNL     1       9.224  -5.351   4.802  1.00  0.00    -0.206 F 
ATOM     43  C   UNL     1       8.896  -7.642   5.187  1.00  0.00     0.059 A 
ATOM     44  C   UNL     1       7.519  -8.371   7.048  1.00  0.00     0.059 A 
ATOM     45  F   UNL     1       6.490  -6.780   8.428  1.00  0.00    -0.206 F 
ATOM     46  C   UNL     1       8.317  -8.662   5.943  1.00  0.00     0.060 A 
BRANCH  46  47
ATOM     47  S   UNL     1       8.627 -10.374   5.460  1.00  0.00     0.124 S 
ATOM     48  O   UNL     1       7.845 -10.476   4.231  1.00  0.00    -0.237 OA
ATOM     49  O   UNL     1      10.076 -10.393   5.291  1.00  0.00    -0.237 OA
ATOM     50  O   UNL     1       8.120 -11.146   6.591  1.00  0.00    -0.744 OA
ENDBRANCH  46  47
ENDBRANCH  25  39
BRANCH  26  51
ATOM     51  C   UNL     1       6.037   3.594   9.036  1.00  0.00     0.058 A 
ATOM     52  C   UNL     1       7.057   4.554   9.089  1.00  0.00     0.135 A 
ATOM     53  C   UNL     1       4.728   4.015   9.321  1.00  0.00     0.135 A 
ATOM     54  F   UNL     1       8.325   4.202   8.824  1.00  0.00    -0.206 F 
ATOM     55  C   UNL     1       6.795   5.875   9.436  1.00  0.00     0.059 A 
ATOM     56  C   UNL     1       4.436   5.337   9.637  1.00  0.00     0.059 A 
ATOM     57  F   UNL     1       3.711   3.140   9.263  1.00  0.00    -0.206 F 
ATOM     58  C   UNL     1       5.480   6.256   9.709  1.00  0.00     0.060 A 
BRANCH  58  59
ATOM     59  S   UNL     1       5.146   7.979  10.134  1.00  0.00     0.124 S 
ATOM     60  O   UNL     1       5.684   8.055  11.487  1.00  0.00    -0.237 OA
ATOM     61  O   UNL     1       5.892   8.699   9.107  1.00  0.00    -0.237 OA
ATOM     62  O   UNL     1       3.693   8.075  10.025  1.00  0.00    -0.744 OA
ENDBRANCH  58  59
ENDBRANCH  26  51
BRANCH  38  63
ATOM     63  C   UNL     1       9.575  -1.577  12.098  1.00  0.00     0.058 A 
ATOM     64  C   UNL     1       8.951  -1.553  13.355  1.00  0.00     0.135 A 
ATOM     65  C   UNL     1      10.973  -1.698  12.061  1.00  0.00     0.135 A 
ATOM     66  F   UNL     1       7.617  -1.427  13.446  1.00  0.00    -0.206 F 
ATOM     67  C   UNL     1       9.689  -1.618  14.532  1.00  0.00     0.059 A 
ATOM     68  C   UNL     1      11.728  -1.797  13.224  1.00  0.00     0.059 A 
ATOM     69  F   UNL     1      11.618  -1.734  10.883  1.00  0.00    -0.206 F 
ATOM     70  C   UNL     1      11.077  -1.742  14.456  1.00  0.00     0.060 A 
BRANCH  70  71
ATOM     71  S   UNL     1      12.020  -1.856  15.990  1.00  0.00     0.124 S 
ATOM     72  O   UNL     1      11.950  -0.483  16.481  1.00  0.00    -0.237 OA
ATOM     73  O   UNL     1      11.259  -2.841  16.752  1.00  0.00    -0.237 OA
ATOM     74  O   UNL     1      13.339  -2.297  15.547  1.00  0.00    -0.744 OA
ENDBRANCH  70  71
ENDBRANCH  38  63
ENDBRANCH  12  13
ENDBRANCH   5   7
ENDBRANCH   2   3
ENDBRANCH   1   2
BRANCH   1  75
ATOM     75  C   UNL     1       3.741  -0.622  -3.628  1.00  0.00     0.117 C 
BRANCH  75  76
ATOM     76  N   UNL     1       4.580   0.255  -4.415  1.00  0.00    -0.356 N 
ATOM     77  C   UNL     1       5.609   0.046  -5.262  1.00  0.00     0.223 C 
ATOM     78  H   UNL     1       4.352   1.207  -4.309  1.00  0.00     0.163 HD
ATOM     79  O   UNL     1       6.144   1.080  -5.681  1.00  0.00    -0.275 OA
BRANCH  77  80
ATOM     80  C   UNL     1       6.051  -1.316  -5.815  1.00  0.00     0.091 C 
ATOM     81  C   UNL     1       5.397  -2.597  -5.302  1.00  0.00     0.014 C 
ATOM     82  C   UNL     1       7.595  -1.396  -5.876  1.00  0.00     0.091 C 
ATOM     83  C   UNL     1       5.926  -3.838  -6.007  1.00  0.00     0.001 C 
ATOM     84  C   UNL     1       8.145  -2.755  -6.358  1.00  0.00     0.014 C 
ATOM     85  C   UNL     1       7.418  -3.962  -5.782  1.00  0.00     0.001 C 
BRANCH  82  86
ATOM     86  C   UNL     1       8.369  -0.274  -6.624  1.00  0.00     0.228 C 
ATOM     87  O   UNL     1       9.255   0.343  -6.014  1.00  0.00    -0.274 OA
ATOM     88  N   UNL     1       8.297  -0.049  -7.979  1.00  0.00    -0.326 N 
ATOM     89  H   UNL     1       8.945   0.605  -8.327  1.00  0.00     0.169 HD
BRANCH  88  90
ATOM     90  C   UNL     1       7.447  -0.606  -8.938  1.00  0.00     0.041 A 
ATOM     91  C   UNL     1       7.998  -1.383  -9.955  1.00  0.00     0.026 A 
ATOM     92  C   UNL     1       6.067  -0.456  -8.854  1.00  0.00     0.040 A 
ATOM     93  C   UNL     1       7.162  -2.170 -10.747  1.00  0.00     0.003 A 
ATOM     94  C   UNL     1       5.226  -1.338  -9.541  1.00  0.00     0.041 A 
ATOM     95  C   UNL     1       5.787  -2.191 -10.500  1.00  0.00     0.014 A 
BRANCH  94  96
ATOM     96  C   UNL     1       3.871  -1.572  -9.062  1.00  0.00     0.248 A 
ATOM     97  N   UNL     1       3.335  -2.721  -8.702  1.00  0.00    -0.107 NA
ATOM     98  O   UNL     1       3.072  -0.496  -8.771  1.00  0.00    -0.416 OA
ATOM     99  N   UNL     1       2.132  -2.423  -8.105  1.00  0.00    -0.107 NA
ATOM    100  C   UNL     1       1.991  -1.116  -8.189  1.00  0.00     0.248 A 
BRANCH 100 101
ATOM    101  C   UNL     1       0.860  -0.295  -7.798  1.00  0.00     0.039 A 
ATOM    102  C   UNL     1       0.224  -0.505  -6.565  1.00  0.00     0.014 A 
ATOM    103  C   UNL     1       0.320   0.643  -8.688  1.00  0.00     0.014 A 
ATOM    104  C   UNL     1      -0.932   0.205  -6.232  1.00  0.00     0.001 A 
ATOM    105  C   UNL     1      -0.847   1.338  -8.362  1.00  0.00     0.001 A 
ATOM    106  C   UNL     1      -1.473   1.118  -7.136  1.00  0.00     0.000 A 
ENDBRANCH 100 101
ENDBRANCH  94  96
ENDBRANCH  88  90
ENDBRANCH  82  86
ENDBRANCH  77  80
ENDBRANCH  75  76
ENDBRANCH   1  75
TORSDOF 17
