REMARK SMILES COC(=O)c1ccccc1-c1ccc(/C=C(\C#N)C(=O)NCCCNC(=O)c2ccc(-c3c4nc(c(-c5c(F)cc(S(=O)(=O)[O-])cc5F)c5ccc([nH]5)c(-c5c(F)cc(S(=O)(=O)[O-])cc5F)c5nc(c(-c6c(F)cc(S(=O)(=O)[O-])cc6F)c6ccc3[nH]6)C=C5)C=C4)cc2)o1
REMARK SMILES IDX 22 1 21 2 19 3 20 4 16 6 15 7 14 8 11 9 12 10 94 11 13 12
REMARK SMILES IDX 10 13 5 14 6 15 7 16 9 17 8 18 3 19 4 20 2 21 1 22 17 23
REMARK SMILES IDX 18 24 23 25 24 26 25 27 26 28 27 30 28 31 29 32 93 33 30 34
REMARK SMILES IDX 92 35 31 36 32 37 33 38 86 39 34 40 91 41 85 42 87 43 35 44
REMARK SMILES IDX 90 45 84 46 83 47 36 49 70 50 49 51 69 52 50 53 53 54 68 55
REMARK SMILES IDX 88 56 51 57 52 58 67 60 89 61 54 62 37 63 38 64 47 65 39 66
REMARK SMILES IDX 40 67 46 68 48 69 41 70 42 71 43 72 44 73 45 74 71 75 72 76
REMARK SMILES IDX 81 77 73 78 74 79 80 80 82 81 75 82 76 83 77 84 78 85 79 86
REMARK SMILES IDX 55 87 56 88 65 89 57 90 58 91 64 92 66 93 59 94 60 95 61 96
REMARK SMILES IDX 62 97 63 98
REMARK H PARENT 21 5 25 29 87 48 53 59
REMARK Flexibility Score: inf
ROOT
ATOM      1  C   UNL     1      -4.701  -6.110  -2.562  1.00  0.00     0.118 C 
ENDROOT
BRANCH   1   2
ATOM      2  N   UNL     1      -5.052  -5.465  -1.306  1.00  0.00    -0.351 N 
ATOM      3  C   UNL     1      -4.729  -4.270  -0.746  1.00  0.00     0.262 C 
ATOM      4  O   UNL     1      -5.242  -4.030   0.351  1.00  0.00    -0.268 OA
ATOM      5  H   UNL     1      -5.650  -6.009  -0.744  1.00  0.00     0.163 HD
BRANCH   3   6
ATOM      6  C   UNL     1      -3.836  -3.263  -1.402  1.00  0.00     0.120 C 
ATOM      7  C   UNL     1      -3.863  -2.031  -0.847  1.00  0.00     0.072 C 
BRANCH   7   8
ATOM      8  C   UNL     1      -3.118  -0.924  -1.340  1.00  0.00     0.129 A 
ATOM      9  C   UNL     1      -1.761   0.231  -2.669  1.00  0.00     0.135 A 
ATOM     10  C   UNL     1      -2.086   1.077  -1.635  1.00  0.00     0.051 A 
ATOM     11  O   UNL     1      -2.415  -0.943  -2.517  1.00  0.00    -0.457 OA
ATOM     12  C   UNL     1      -2.951   0.341  -0.786  1.00  0.00     0.051 A 
BRANCH   9  13
ATOM     13  C   UNL     1      -0.856   0.284  -3.804  1.00  0.00     0.032 A 
ATOM     14  C   UNL     1       0.511   0.582  -3.664  1.00  0.00     0.071 A 
ATOM     15  C   UNL     1       1.336   0.685  -4.794  1.00  0.00     0.016 A 
ATOM     16  C   UNL     1       0.811   0.456  -6.066  1.00  0.00     0.001 A 
ATOM     17  C   UNL     1      -1.359   0.030  -5.091  1.00  0.00     0.013 A 
ATOM     18  C   UNL     1      -0.533   0.118  -6.213  1.00  0.00     0.001 A 
BRANCH  14  19
ATOM     19  C   UNL     1       1.136   0.815  -2.345  1.00  0.00     0.338 C 
ATOM     20  O   UNL     1       1.834   1.784  -2.093  1.00  0.00    -0.246 OA
BRANCH  19  21
ATOM     21  O   UNL     1       0.828  -0.203  -1.506  1.00  0.00    -0.465 OA
ATOM     22  C   UNL     1       1.245  -0.004  -0.157  1.00  0.00     0.282 C 
ENDBRANCH  19  21
ENDBRANCH  14  19
ENDBRANCH   9  13
ENDBRANCH   7   8
BRANCH   6  23
ATOM     23  C   UNL     1      -3.011  -3.592  -2.510  1.00  0.00     0.105 C 
ATOM     24  N   UNL     1      -2.359  -3.871  -3.433  1.00  0.00    -0.192 NA
ENDBRANCH   6  23
ENDBRANCH   3   6
ENDBRANCH   1   2
BRANCH   1  25
ATOM     25  C   UNL     1      -3.653  -7.199  -2.354  1.00  0.00     0.042 C 
BRANCH  25  26
ATOM     26  C   UNL     1      -4.243  -8.469  -1.744  1.00  0.00     0.118 C 
BRANCH  26  27
ATOM     27  N   UNL     1      -5.245  -9.078  -2.614  1.00  0.00    -0.352 N 
ATOM     28  C   UNL     1      -5.242 -10.286  -3.263  1.00  0.00     0.251 C 
ATOM     29  H   UNL     1      -6.053  -8.533  -2.759  1.00  0.00     0.163 HD
ATOM     30  O   UNL     1      -6.060 -10.492  -4.155  1.00  0.00    -0.269 OA
BRANCH  28  31
ATOM     31  C   UNL     1      -4.267 -11.328  -2.889  1.00  0.00     0.039 A 
ATOM     32  C   UNL     1      -3.688 -12.108  -3.893  1.00  0.00     0.014 A 
ATOM     33  C   UNL     1      -3.947 -11.556  -1.549  1.00  0.00     0.014 A 
ATOM     34  C   UNL     1      -2.741 -13.075  -3.553  1.00  0.00     0.010 A 
ATOM     35  C   UNL     1      -2.936 -12.452  -1.222  1.00  0.00     0.010 A 
ATOM     36  C   UNL     1      -2.328 -13.228  -2.219  1.00  0.00    -0.014 A 
BRANCH  36  37
ATOM     37  C   UNL     1      -1.259 -14.189  -1.849  1.00  0.00     0.031 A 
ATOM     38  C   UNL     1      -1.554 -15.323  -0.905  1.00  0.00     0.074 A 
ATOM     39  C   UNL     1      -0.009 -14.001  -2.317  1.00  0.00     0.049 A 
ATOM     40  N   UNL     1      -0.740 -16.224  -0.418  1.00  0.00    -0.248 NA
ATOM     41  C   UNL     1      -2.940 -15.447  -0.423  1.00  0.00     0.031 C 
ATOM     42  C   UNL     1       0.407 -12.910  -3.201  1.00  0.00     0.029 A 
ATOM     43  N   UNL     1       1.145 -14.714  -2.109  1.00  0.00    -0.354 N 
ATOM     44  C   UNL     1      -1.509 -17.013   0.429  1.00  0.00     0.074 A 
ATOM     45  C   UNL     1      -2.839 -16.447   0.441  1.00  0.00     0.031 C 
ATOM     46  C   UNL     1       1.712 -13.044  -3.484  1.00  0.00     0.029 A 
ATOM     47  C   UNL     1       2.240 -14.196  -2.761  1.00  0.00     0.049 A 
ATOM     48  H   UNL     1       1.185 -15.522  -1.547  1.00  0.00     0.167 HD
ATOM     49  C   UNL     1      -1.144 -18.122   1.116  1.00  0.00     0.037 A 
ATOM     50  C   UNL     1       3.527 -14.594  -2.763  1.00  0.00     0.037 A 
ATOM     51  C   UNL     1       0.184 -18.680   1.088  1.00  0.00     0.049 A 
ATOM     52  C   UNL     1       3.914 -15.811  -1.967  1.00  0.00     0.074 A 
ATOM     53  C   UNL     1       0.645 -19.828   1.708  1.00  0.00     0.029 A 
ATOM     54  N   UNL     1       1.265 -18.128   0.415  1.00  0.00    -0.354 N 
ATOM     55  N   UNL     1       3.159 -16.586  -1.224  1.00  0.00    -0.248 NA
ATOM     56  C   UNL     1       5.326 -16.212  -2.011  1.00  0.00     0.031 C 
ATOM     57  C   UNL     1       2.018 -19.932   1.468  1.00  0.00     0.029 A 
ATOM     58  C   UNL     1       2.399 -18.894   0.633  1.00  0.00     0.049 A 
ATOM     59  H   UNL     1       1.231 -17.313  -0.135  1.00  0.00     0.167 HD
ATOM     60  C   UNL     1       3.997 -17.585  -0.742  1.00  0.00     0.074 A 
ATOM     61  C   UNL     1       5.312 -17.323  -1.288  1.00  0.00     0.031 C 
ATOM     62  C   UNL     1       3.704 -18.626   0.077  1.00  0.00     0.037 A 
BRANCH  49  63
ATOM     63  C   UNL     1      -2.189 -18.802   1.960  1.00  0.00     0.058 A 
ATOM     64  C   UNL     1      -3.294 -19.455   1.390  1.00  0.00     0.135 A 
ATOM     65  C   UNL     1      -2.061 -18.840   3.359  1.00  0.00     0.135 A 
ATOM     66  F   UNL     1      -3.479 -19.440   0.060  1.00  0.00    -0.206 F 
ATOM     67  C   UNL     1      -4.248 -20.094   2.176  1.00  0.00     0.059 A 
ATOM     68  C   UNL     1      -2.984 -19.504   4.162  1.00  0.00     0.059 A 
ATOM     69  F   UNL     1      -1.026 -18.232   3.960  1.00  0.00    -0.206 F 
ATOM     70  C   UNL     1      -4.082 -20.117   3.561  1.00  0.00     0.060 A 
BRANCH  70  71
ATOM     71  S   UNL     1      -5.323 -20.963   4.562  1.00  0.00     0.124 S 
ATOM     72  O   UNL     1      -6.475 -20.080   4.406  1.00  0.00    -0.237 OA
ATOM     73  O   UNL     1      -5.424 -22.259   3.899  1.00  0.00    -0.237 OA
ATOM     74  O   UNL     1      -4.729 -20.987   5.894  1.00  0.00    -0.744 OA
ENDBRANCH  70  71
ENDBRANCH  49  63
BRANCH  50  75
ATOM     75  C   UNL     1       4.539 -13.840  -3.553  1.00  0.00     0.058 A 
ATOM     76  C   UNL     1       5.160 -14.414  -4.672  1.00  0.00     0.135 A 
ATOM     77  C   UNL     1       4.901 -12.528  -3.209  1.00  0.00     0.135 A 
ATOM     78  F   UNL     1       4.853 -15.667  -5.040  1.00  0.00    -0.206 F 
ATOM     79  C   UNL     1       6.119 -13.725  -5.409  1.00  0.00     0.059 A 
ATOM     80  C   UNL     1       5.832 -11.806  -3.949  1.00  0.00     0.059 A 
ATOM     81  F   UNL     1       4.327 -11.924  -2.156  1.00  0.00    -0.206 F 
ATOM     82  C   UNL     1       6.445 -12.419  -5.041  1.00  0.00     0.060 A 
BRANCH  82  83
ATOM     83  S   UNL     1       7.660 -11.521  -6.029  1.00  0.00     0.124 S 
ATOM     84  O   UNL     1       8.890 -12.234  -5.702  1.00  0.00    -0.237 OA
ATOM     85  O   UNL     1       7.151 -11.713  -7.384  1.00  0.00    -0.237 OA
ATOM     86  O   UNL     1       7.567 -10.156  -5.519  1.00  0.00    -0.744 OA
ENDBRANCH  82  83
ENDBRANCH  50  75
BRANCH  62  87
ATOM     87  C   UNL     1       4.812 -19.592   0.400  1.00  0.00     0.058 A 
ATOM     88  C   UNL     1       5.897 -19.236   1.217  1.00  0.00     0.135 A 
ATOM     89  C   UNL     1       4.757 -20.915  -0.072  1.00  0.00     0.135 A 
ATOM     90  F   UNL     1       6.005 -17.985   1.691  1.00  0.00    -0.206 F 
ATOM     91  C   UNL     1       6.900 -20.148   1.531  1.00  0.00     0.059 A 
ATOM     92  C   UNL     1       5.729 -21.853   0.261  1.00  0.00     0.059 A 
ATOM     93  F   UNL     1       3.737 -21.314  -0.849  1.00  0.00    -0.206 F 
ATOM     94  C   UNL     1       6.804 -21.456   1.053  1.00  0.00     0.060 A 
BRANCH  94  95
ATOM     95  S   UNL     1       8.093 -22.637   1.502  1.00  0.00     0.124 S 
ATOM     96  O   UNL     1       9.229 -22.139   0.734  1.00  0.00    -0.237 OA
ATOM     97  O   UNL     1       8.181 -22.464   2.949  1.00  0.00    -0.237 OA
ATOM     98  O   UNL     1       7.551 -23.919   1.061  1.00  0.00    -0.744 OA
ENDBRANCH  94  95
ENDBRANCH  62  87
ENDBRANCH  36  37
ENDBRANCH  28  31
ENDBRANCH  26  27
ENDBRANCH  25  26
ENDBRANCH   1  25
TORSDOF 18
