REMARK SMILES Cc1ccc(S(=O)(=O)n2cc(C(=O)C(=O)N[C@@H](Cc3c[nH]c4ccccc34)C(=O)NCC(=O)NCCCNC(=O)c3ccc(-c4c5nc(c(-c6c(F)cc(S(=O)(=O)[O-])cc6F)c6ccc([nH]6)c(-c6c(F)cc(S(=O)(=O)[O-])cc6F)c6nc(c(-c7c(F)cc(S(=O)(=O)[O-])cc7F)c7ccc4[nH]7)C=C6)C=C5)cc3)c3ccccc32)cc1
REMARK SMILES IDX 32 1 33 2 34 3 31 5 30 6 28 7 29 8 17 10 16 11 14 12 15 13
REMARK SMILES IDX 12 15 13 16 11 17 9 18 10 19 112 20 107 21 111 22 108 23
REMARK SMILES IDX 110 24 109 25 6 26 7 27 8 28 5 29 1 30 2 31 3 32 114 33 4 34
REMARK SMILES IDX 113 35 18 36 19 37 20 38 27 39 21 40 22 41 26 42 23 44 25 45
REMARK SMILES IDX 24 46 35 47 36 48 37 49 38 50 39 51 40 53 41 54 42 55 106 56
REMARK SMILES IDX 43 57 105 58 44 59 45 60 46 61 99 62 47 63 104 64 98 65
REMARK SMILES IDX 100 66 48 67 103 68 97 69 96 70 49 72 83 73 62 74 82 75
REMARK SMILES IDX 63 76 66 77 81 78 101 79 64 80 65 81 80 83 102 84 67 85
REMARK SMILES IDX 50 86 51 87 60 88 52 89 53 90 59 91 61 92 54 93 55 94 56 95
REMARK SMILES IDX 57 96 58 97 84 98 85 99 94 100 86 101 87 102 93 103 95 104
REMARK SMILES IDX 88 105 89 106 90 107 91 108 92 109 68 110 69 111 78 112
REMARK SMILES IDX 70 113 71 114 77 115 79 116 72 117 73 118 74 119 75 120
REMARK SMILES IDX 76 121
REMARK H PARENT 34 4 30 9 16 14 21 43 38 52 100 71 66 82
REMARK Flexibility Score: inf
ROOT
ATOM      1  C   UNL     1     -12.139   5.307  -2.391  1.00  0.00     0.239 C 
ATOM      2  O   UNL     1     -13.101   5.937  -2.831  1.00  0.00    -0.273 OA
ATOM      3  N   UNL     1     -10.872   5.625  -2.797  1.00  0.00    -0.355 N 
ATOM      4  H   UNL     1     -10.779   6.397  -3.400  1.00  0.00     0.163 HD
ENDROOT
BRANCH   1   5
ATOM      5  C   UNL     1     -12.316   4.188  -1.365  1.00  0.00     0.216 C 
BRANCH   5   6
ATOM      6  N   UNL     1     -12.164   2.823  -1.831  1.00  0.00    -0.345 N 
ATOM      7  C   UNL     1     -11.723   1.717  -1.166  1.00  0.00     0.243 C 
ATOM      8  O   UNL     1     -12.150   0.631  -1.581  1.00  0.00    -0.273 OA
ATOM      9  H   UNL     1     -12.419   2.671  -2.769  1.00  0.00     0.164 HD
BRANCH   7  10
ATOM     10  C   UNL     1     -10.880   1.755   0.145  1.00  0.00     0.176 C 
BRANCH  10  11
ATOM     11  N   UNL     1      -9.736   2.679   0.214  1.00  0.00    -0.337 N 
ATOM     12  C   UNL     1      -8.370   2.464   0.050  1.00  0.00     0.293 C 
ATOM     13  O   UNL     1      -7.591   3.265   0.549  1.00  0.00    -0.265 OA
ATOM     14  H   UNL     1      -9.980   3.612   0.412  1.00  0.00     0.164 HD
BRANCH  12  15
ATOM     15  C   UNL     1      -7.857   1.240  -0.729  1.00  0.00     0.252 C 
ATOM     16  O   UNL     1      -8.601   0.820  -1.618  1.00  0.00    -0.283 OA
BRANCH  15  17
ATOM     17  C   UNL     1      -6.687   0.454  -0.300  1.00  0.00     0.054 A 
ATOM     18  N   UNL     1      -4.710  -0.333   0.440  1.00  0.00    -0.240 N 
ATOM     19  C   UNL     1      -5.352   0.802  -0.035  1.00  0.00     0.117 A 
ATOM     20  C   UNL     1      -5.653  -1.364   0.563  1.00  0.00     0.065 A 
ATOM     21  C   UNL     1      -6.755  -0.969  -0.180  1.00  0.00     0.012 A 
ATOM     22  C   UNL     1      -5.535  -2.680   1.058  1.00  0.00     0.028 A 
ATOM     23  C   UNL     1      -7.675  -1.956  -0.598  1.00  0.00     0.011 A 
ATOM     24  C   UNL     1      -6.433  -3.643   0.603  1.00  0.00     0.002 A 
ATOM     25  C   UNL     1      -7.465  -3.294  -0.254  1.00  0.00     0.001 A 
BRANCH  18  26
ATOM     26  S   UNL     1      -3.119  -0.934   0.172  1.00  0.00     0.268 S 
ATOM     27  O   UNL     1      -3.279  -1.710  -1.051  1.00  0.00    -0.201 OA
ATOM     28  O   UNL     1      -2.845  -1.622   1.431  1.00  0.00    -0.201 OA
BRANCH  26  29
ATOM     29  C   UNL     1      -1.621  -0.057  -0.072  1.00  0.00     0.088 A 
ATOM     30  C   UNL     1       2.537   1.122  -0.095  1.00  0.00     0.044 C 
ATOM     31  C   UNL     1       1.082   0.754  -0.144  1.00  0.00    -0.051 A 
ATOM     32  C   UNL     1       0.766  -0.580  -0.360  1.00  0.00     0.005 A 
ATOM     33  C   UNL     1       0.033   1.678   0.068  1.00  0.00     0.005 A 
ATOM     34  C   UNL     1      -0.562  -0.969  -0.332  1.00  0.00     0.022 A 
ATOM     35  C   UNL     1      -1.329   1.282   0.110  1.00  0.00     0.022 A 
ENDBRANCH  26  29
ENDBRANCH  18  26
ENDBRANCH  15  17
ENDBRANCH  12  15
ENDBRANCH  10  11
BRANCH  10  36
ATOM     36  C   UNL     1     -11.780   1.833   1.424  1.00  0.00     0.072 C 
BRANCH  36  37
ATOM     37  C   UNL     1     -12.565   3.105   1.657  1.00  0.00    -0.020 A 
ATOM     38  C   UNL     1     -13.939   3.234   1.535  1.00  0.00     0.087 A 
ATOM     39  C   UNL     1     -12.068   4.419   1.974  1.00  0.00     0.003 A 
ATOM     40  N   UNL     1     -14.262   4.564   1.619  1.00  0.00    -0.361 N 
ATOM     41  C   UNL     1     -13.121   5.314   1.768  1.00  0.00     0.046 A 
ATOM     42  C   UNL     1     -10.796   4.955   2.269  1.00  0.00     0.010 A 
ATOM     43  H   UNL     1     -15.176   4.927   1.580  1.00  0.00     0.166 HD
ATOM     44  C   UNL     1     -12.937   6.701   1.693  1.00  0.00     0.026 A 
ATOM     45  C   UNL     1     -10.586   6.335   2.163  1.00  0.00     0.001 A 
ATOM     46  C   UNL     1     -11.638   7.190   1.850  1.00  0.00     0.002 A 
ENDBRANCH  36  37
ENDBRANCH  10  36
ENDBRANCH   7  10
ENDBRANCH   5   6
ENDBRANCH   1   5
BRANCH   3  47
ATOM     47  C   UNL     1      -9.648   4.933  -2.425  1.00  0.00     0.117 C 
BRANCH  47  48
ATOM     48  C   UNL     1      -9.440   3.686  -3.276  1.00  0.00     0.042 C 
BRANCH  48  49
ATOM     49  C   UNL     1      -8.572   3.972  -4.481  1.00  0.00     0.118 C 
BRANCH  49  50
ATOM     50  N   UNL     1      -7.277   3.303  -4.471  1.00  0.00    -0.352 N 
ATOM     51  C   UNL     1      -6.310   3.351  -5.465  1.00  0.00     0.251 C 
ATOM     52  H   UNL     1      -7.067   2.761  -3.677  1.00  0.00     0.163 HD
ATOM     53  O   UNL     1      -5.322   2.644  -5.485  1.00  0.00    -0.269 OA
BRANCH  51  54
ATOM     54  C   UNL     1      -6.457   4.458  -6.436  1.00  0.00     0.039 A 
ATOM     55  C   UNL     1      -5.633   5.565  -6.197  1.00  0.00     0.014 A 
ATOM     56  C   UNL     1      -7.643   4.567  -7.157  1.00  0.00     0.014 A 
ATOM     57  C   UNL     1      -6.122   6.833  -6.473  1.00  0.00     0.010 A 
ATOM     58  C   UNL     1      -8.171   5.832  -7.327  1.00  0.00     0.010 A 
ATOM     59  C   UNL     1      -7.435   6.957  -6.923  1.00  0.00    -0.014 A 
BRANCH  59  60
ATOM     60  C   UNL     1      -8.126   8.239  -6.963  1.00  0.00     0.031 A 
ATOM     61  C   UNL     1      -8.312   8.886  -8.278  1.00  0.00     0.074 A 
ATOM     62  C   UNL     1      -8.564   8.824  -5.826  1.00  0.00     0.049 A 
ATOM     63  N   UNL     1      -8.530  10.141  -8.465  1.00  0.00    -0.248 NA
ATOM     64  C   UNL     1      -8.177   8.135  -9.520  1.00  0.00     0.031 C 
ATOM     65  C   UNL     1      -9.420  10.001  -5.711  1.00  0.00     0.029 A 
ATOM     66  N   UNL     1      -8.100   8.598  -4.524  1.00  0.00    -0.354 N 
ATOM     67  C   UNL     1      -8.804  10.327  -9.803  1.00  0.00     0.074 A 
ATOM     68  C   UNL     1      -8.514   9.058 -10.421  1.00  0.00     0.031 C 
ATOM     69  C   UNL     1      -9.215  10.566  -4.511  1.00  0.00     0.029 A 
ATOM     70  C   UNL     1      -8.134   9.842  -3.864  1.00  0.00     0.049 A 
ATOM     71  H   UNL     1      -7.808   7.738  -4.144  1.00  0.00     0.167 HD
ATOM     72  C   UNL     1      -9.364  11.504 -10.208  1.00  0.00     0.037 A 
ATOM     73  C   UNL     1      -6.986  10.416  -3.400  1.00  0.00     0.037 A 
ATOM     74  C   UNL     1      -9.334  12.482  -9.118  1.00  0.00     0.049 A 
ATOM     75  C   UNL     1      -6.652  11.726  -4.085  1.00  0.00     0.074 A 
ATOM     76  C   UNL     1     -10.268  12.870  -8.171  1.00  0.00     0.029 A 
ATOM     77  N   UNL     1      -8.101  12.947  -8.659  1.00  0.00    -0.354 N 
ATOM     78  N   UNL     1      -7.176  12.119  -5.217  1.00  0.00    -0.248 NA
ATOM     79  C   UNL     1      -5.721  12.710  -3.537  1.00  0.00     0.031 C 
ATOM     80  C   UNL     1      -9.572  13.468  -7.086  1.00  0.00     0.029 A 
ATOM     81  C   UNL     1      -8.222  13.486  -7.390  1.00  0.00     0.049 A 
ATOM     82  H   UNL     1      -7.260  12.898  -9.169  1.00  0.00     0.167 HD
ATOM     83  C   UNL     1      -6.687  13.359  -5.551  1.00  0.00     0.074 A 
ATOM     84  C   UNL     1      -5.792  13.690  -4.456  1.00  0.00     0.031 C 
ATOM     85  C   UNL     1      -7.060  14.022  -6.689  1.00  0.00     0.037 A 
BRANCH  72  86
ATOM     86  C   UNL     1     -10.225  11.605 -11.459  1.00  0.00     0.058 A 
ATOM     87  C   UNL     1     -11.344  12.465 -11.499  1.00  0.00     0.135 A 
ATOM     88  C   UNL     1     -10.076  10.800 -12.607  1.00  0.00     0.135 A 
ATOM     89  F   UNL     1     -11.560  13.374 -10.538  1.00  0.00    -0.206 F 
ATOM     90  C   UNL     1     -12.301  12.427 -12.520  1.00  0.00     0.059 A 
ATOM     91  C   UNL     1     -11.051  10.692 -13.605  1.00  0.00     0.059 A 
ATOM     92  F   UNL     1      -8.945  10.127 -12.846  1.00  0.00    -0.206 F 
ATOM     93  C   UNL     1     -12.171  11.503 -13.548  1.00  0.00     0.060 A 
BRANCH  93  94
ATOM     94  S   UNL     1     -13.457  11.393 -14.807  1.00  0.00     0.124 S 
ATOM     95  O   UNL     1     -14.664  11.219 -14.004  1.00  0.00    -0.237 OA
ATOM     96  O   UNL     1     -13.325  12.677 -15.487  1.00  0.00    -0.237 OA
ATOM     97  O   UNL     1     -13.065  10.226 -15.593  1.00  0.00    -0.744 OA
ENDBRANCH  93  94
ENDBRANCH  72  86
BRANCH  73  98
ATOM     98  C   UNL     1      -6.041   9.433  -2.795  1.00  0.00     0.058 A 
ATOM     99  C   UNL     1      -6.438   8.802  -1.597  1.00  0.00     0.135 A 
ATOM    100  C   UNL     1      -5.025   8.811  -3.531  1.00  0.00     0.135 A 
ATOM    101  F   UNL     1      -7.392   9.362  -0.834  1.00  0.00    -0.206 F 
ATOM    102  C   UNL     1      -5.967   7.543  -1.224  1.00  0.00     0.059 A 
ATOM    103  C   UNL     1      -4.536   7.545  -3.176  1.00  0.00     0.059 A 
ATOM    104  F   UNL     1      -4.584   9.364  -4.671  1.00  0.00    -0.206 F 
ATOM    105  C   UNL     1      -5.065   6.892  -2.060  1.00  0.00     0.060 A 
BRANCH 105 106
ATOM    106  S   UNL     1      -4.684   5.151  -1.723  1.00  0.00     0.124 S 
ATOM    107  O   UNL     1      -4.351   5.164  -0.302  1.00  0.00    -0.237 OA
ATOM    108  O   UNL     1      -5.943   4.489  -2.068  1.00  0.00    -0.237 OA
ATOM    109  O   UNL     1      -3.562   4.875  -2.612  1.00  0.00    -0.744 OA
ENDBRANCH 105 106
ENDBRANCH  73  98
BRANCH  85 110
ATOM    110  C   UNL     1      -6.436  15.301  -7.212  1.00  0.00     0.058 A 
ATOM    111  C   UNL     1      -5.087  15.649  -7.035  1.00  0.00     0.135 A 
ATOM    112  C   UNL     1      -7.179  16.162  -8.059  1.00  0.00     0.135 A 
ATOM    113  F   UNL     1      -4.249  14.862  -6.344  1.00  0.00    -0.206 F 
ATOM    114  C   UNL     1      -4.527  16.798  -7.602  1.00  0.00     0.059 A 
ATOM    115  C   UNL     1      -6.626  17.279  -8.681  1.00  0.00     0.059 A 
ATOM    116  F   UNL     1      -8.475  15.938  -8.323  1.00  0.00    -0.206 F 
ATOM    117  C   UNL     1      -5.303  17.605  -8.429  1.00  0.00     0.060 A 
BRANCH 117 118
ATOM    118  S   UNL     1      -4.575  19.042  -9.238  1.00  0.00     0.124 S 
ATOM    119  O   UNL     1      -4.928  20.110  -8.308  1.00  0.00    -0.237 OA
ATOM    120  O   UNL     1      -3.157  18.702  -9.296  1.00  0.00    -0.237 OA
ATOM    121  O   UNL     1      -5.257  19.073 -10.528  1.00  0.00    -0.744 OA
ENDBRANCH 117 118
ENDBRANCH  85 110
ENDBRANCH  59  60
ENDBRANCH  51  54
ENDBRANCH  49  50
ENDBRANCH  48  49
ENDBRANCH  47  48
ENDBRANCH   3  47
TORSDOF 22
