REMARK SMILES CC(C)[NH2+][C@]1(C(=O)NCCCNC(=O)c2ccc(-c3c4nc(c(-c5c(F)cc(S(=O)(=O)[O-])cc5F)c5ccc([nH]5)c(-c5c(F)cc(S(=O)(=O)[O-])cc5F)c5nc(c(-c6c(F)cc(S(=O)(=O)[O-])cc6F)c6ccc3[nH]6)C=C5)C=C4)cc2)CCC[C@@H](Sc2nnnn2C)C1
REMARK SMILES IDX 10 1 9 2 8 3 6 4 7 5 5 7 81 8 92 9 82 10 84 11 83 12 4 13
REMARK SMILES IDX 2 16 1 17 3 18 85 19 86 20 87 21 90 22 88 23 89 24 91 25
REMARK SMILES IDX 11 26 12 27 13 28 14 30 15 31 16 32 80 33 17 34 79 35 18 36
REMARK SMILES IDX 19 37 20 38 73 39 21 40 78 41 72 42 74 43 22 44 77 45 71 46
REMARK SMILES IDX 70 47 23 49 57 50 36 51 56 52 37 53 40 54 55 55 75 56 38 57
REMARK SMILES IDX 39 58 54 60 76 61 41 62 24 63 25 64 34 65 26 66 27 67 33 68
REMARK SMILES IDX 35 69 28 70 29 71 30 72 31 73 32 74 58 75 59 76 68 77 60 78
REMARK SMILES IDX 61 79 67 80 69 81 62 82 63 83 64 84 65 85 66 86 42 87 43 88
REMARK SMILES IDX 52 89 44 90 45 91 51 92 53 93 46 94 47 95 48 96 49 97 50 98
REMARK H PARENT 8 6 4 14 4 15 12 29 74 48 40 59
REMARK Flexibility Score: inf
ROOT
ATOM      1  C   UNL     1      -0.176  -1.240   3.494  1.00  0.00     0.042 C 
ENDROOT
BRANCH   1   2
ATOM      2  C   UNL     1       0.603  -0.103   2.844  1.00  0.00     0.118 C 
BRANCH   2   3
ATOM      3  N   UNL     1       0.127   0.216   1.509  1.00  0.00    -0.351 N 
ATOM      4  C   UNL     1      -0.670   1.167   0.968  1.00  0.00     0.281 C 
ATOM      5  O   UNL     1      -0.793   1.088  -0.267  1.00  0.00    -0.268 OA
ATOM      6  H   UNL     1       0.468  -0.412   0.832  1.00  0.00     0.163 HD
BRANCH   4   7
ATOM      7  C   UNL     1      -1.442   2.291   1.743  1.00  0.00     0.176 C 
ATOM      8  C   UNL     1      -0.985   2.603   3.179  1.00  0.00     0.079 C 
ATOM      9  C   UNL     1      -1.139   3.553   0.874  1.00  0.00     0.094 C 
ATOM     10  C   UNL     1      -1.478   3.937   3.747  1.00  0.00     0.008 C 
ATOM     11  C   UNL     1      -1.604   4.890   1.447  1.00  0.00     0.061 C 
ATOM     12  C   UNL     1      -1.060   5.106   2.856  1.00  0.00     0.015 C 
BRANCH   7  13
ATOM     13  N   UNL     1      -2.913   2.067   1.653  1.00  0.00    -0.332 N 
ATOM     14  H   UNL     1      -3.370   2.812   2.180  1.00  0.00     0.347 HD
ATOM     15  H   UNL     1      -3.116   2.057   0.653  1.00  0.00     0.347 HD
BRANCH  13  16
ATOM     16  C   UNL     1      -3.432   0.786   2.158  1.00  0.00     0.176 C 
ATOM     17  C   UNL     1      -4.865   1.027   2.645  1.00  0.00     0.075 C 
ATOM     18  C   UNL     1      -3.474  -0.302   1.075  1.00  0.00     0.075 C 
ENDBRANCH  13  16
ENDBRANCH   7  13
BRANCH  11  19
ATOM     19  S   UNL     1      -1.194   6.264   0.296  1.00  0.00    -0.081 SA
BRANCH  19  20
ATOM     20  C   UNL     1       0.526   6.189   0.171  1.00  0.00     0.209 A 
ATOM     21  N   UNL     1       1.379   6.880   0.893  1.00  0.00    -0.102 NA
ATOM     22  N   UNL     1       1.229   5.450  -0.739  1.00  0.00    -0.224 N 
ATOM     23  N   UNL     1       2.628   6.542   0.429  1.00  0.00    -0.023 NA
ATOM     24  N   UNL     1       2.547   5.664  -0.562  1.00  0.00    -0.045 NA
ATOM     25  C   UNL     1       0.800   4.504  -1.732  1.00  0.00     0.179 C 
ENDBRANCH  19  20
ENDBRANCH  11  19
ENDBRANCH   4   7
ENDBRANCH   2   3
ENDBRANCH   1   2
BRANCH   1  26
ATOM     26  C   UNL     1      -0.013  -2.577   2.775  1.00  0.00     0.118 C 
BRANCH  26  27
ATOM     27  N   UNL     1       1.362  -3.058   2.814  1.00  0.00    -0.352 N 
ATOM     28  C   UNL     1       1.947  -4.020   3.601  1.00  0.00     0.251 C 
ATOM     29  H   UNL     1       1.969  -2.625   2.172  1.00  0.00     0.163 HD
ATOM     30  O   UNL     1       3.171  -4.081   3.663  1.00  0.00    -0.269 OA
BRANCH  28  31
ATOM     31  C   UNL     1       1.119  -4.968   4.378  1.00  0.00     0.039 A 
ATOM     32  C   UNL     1       1.496  -5.287   5.686  1.00  0.00     0.014 A 
ATOM     33  C   UNL     1      -0.003  -5.574   3.808  1.00  0.00     0.014 A 
ATOM     34  C   UNL     1       0.701  -6.149   6.447  1.00  0.00     0.010 A 
ATOM     35  C   UNL     1      -0.831  -6.376   4.588  1.00  0.00     0.010 A 
ATOM     36  C   UNL     1      -0.493  -6.665   5.918  1.00  0.00    -0.014 A 
BRANCH  36  37
ATOM     37  C   UNL     1      -1.427  -7.474   6.742  1.00  0.00     0.031 A 
ATOM     38  C   UNL     1      -1.719  -8.903   6.377  1.00  0.00     0.074 A 
ATOM     39  C   UNL     1      -2.088  -6.885   7.758  1.00  0.00     0.049 A 
ATOM     40  N   UNL     1      -2.605  -9.719   6.886  1.00  0.00    -0.248 NA
ATOM     41  C   UNL     1      -0.928  -9.482   5.279  1.00  0.00     0.031 C 
ATOM     42  C   UNL     1      -1.919  -5.493   8.183  1.00  0.00     0.029 A 
ATOM     43  N   UNL     1      -3.054  -7.373   8.603  1.00  0.00    -0.354 N 
ATOM     44  C   UNL     1      -2.493 -10.900   6.162  1.00  0.00     0.074 A 
ATOM     45  C   UNL     1      -1.478 -10.681   5.153  1.00  0.00     0.031 C 
ATOM     46  C   UNL     1      -2.747  -5.242   9.209  1.00  0.00     0.029 A 
ATOM     47  C   UNL     1      -3.537  -6.436   9.486  1.00  0.00     0.049 A 
ATOM     48  H   UNL     1      -3.370  -8.305   8.578  1.00  0.00     0.167 HD
ATOM     49  C   UNL     1      -3.163 -12.064   6.335  1.00  0.00     0.037 A 
ATOM     50  C   UNL     1      -4.524  -6.521  10.400  1.00  0.00     0.037 A 
ATOM     51  C   UNL     1      -4.153 -12.281   7.359  1.00  0.00     0.049 A 
ATOM     52  C   UNL     1      -5.271  -7.815  10.556  1.00  0.00     0.074 A 
ATOM     53  C   UNL     1      -4.832 -13.448   7.665  1.00  0.00     0.029 A 
ATOM     54  N   UNL     1      -4.611 -11.310   8.237  1.00  0.00    -0.354 N 
ATOM     55  N   UNL     1      -5.108  -8.942   9.905  1.00  0.00    -0.248 NA
ATOM     56  C   UNL     1      -6.340  -7.850  11.563  1.00  0.00     0.031 C 
ATOM     57  C   UNL     1      -5.732 -13.171   8.700  1.00  0.00     0.029 A 
ATOM     58  C   UNL     1      -5.586 -11.842   9.065  1.00  0.00     0.049 A 
ATOM     59  H   UNL     1      -4.290 -10.380   8.268  1.00  0.00     0.167 HD
ATOM     60  C   UNL     1      -6.046  -9.823  10.430  1.00  0.00     0.074 A 
ATOM     61  C   UNL     1      -6.762  -9.104  11.465  1.00  0.00     0.031 C 
ATOM     62  C   UNL     1      -6.294 -11.110  10.084  1.00  0.00     0.037 A 
BRANCH  49  63
ATOM     63  C   UNL     1      -2.849 -13.197   5.398  1.00  0.00     0.058 A 
ATOM     64  C   UNL     1      -1.636 -13.901   5.476  1.00  0.00     0.135 A 
ATOM     65  C   UNL     1      -3.786 -13.612   4.439  1.00  0.00     0.135 A 
ATOM     66  F   UNL     1      -0.700 -13.537   6.366  1.00  0.00    -0.206 F 
ATOM     67  C   UNL     1      -1.352 -14.957   4.616  1.00  0.00     0.059 A 
ATOM     68  C   UNL     1      -3.533 -14.682   3.585  1.00  0.00     0.059 A 
ATOM     69  F   UNL     1      -4.962 -12.975   4.322  1.00  0.00    -0.206 F 
ATOM     70  C   UNL     1      -2.306 -15.339   3.672  1.00  0.00     0.060 A 
BRANCH  70  71
ATOM     71  S   UNL     1      -1.922 -16.712   2.564  1.00  0.00     0.124 S 
ATOM     72  O   UNL     1      -0.968 -16.090   1.652  1.00  0.00    -0.237 OA
ATOM     73  O   UNL     1      -1.368 -17.706   3.478  1.00  0.00    -0.237 OA
ATOM     74  O   UNL     1      -3.217 -17.052   1.982  1.00  0.00    -0.744 OA
ENDBRANCH  70  71
ENDBRANCH  49  63
BRANCH  50  75
ATOM     75  C   UNL     1      -4.862  -5.337  11.232  1.00  0.00     0.058 A 
ATOM     76  C   UNL     1      -4.535  -5.300  12.595  1.00  0.00     0.135 A 
ATOM     77  C   UNL     1      -5.494  -4.212  10.678  1.00  0.00     0.135 A 
ATOM     78  F   UNL     1      -3.938  -6.354  13.170  1.00  0.00    -0.206 F 
ATOM     79  C   UNL     1      -4.828  -4.192  13.384  1.00  0.00     0.059 A 
ATOM     80  C   UNL     1      -5.777  -3.084  11.441  1.00  0.00     0.059 A 
ATOM     81  F   UNL     1      -5.812  -4.193   9.375  1.00  0.00    -0.206 F 
ATOM     82  C   UNL     1      -5.446  -3.087  12.796  1.00  0.00     0.060 A 
BRANCH  82  83
ATOM     83  S   UNL     1      -5.766  -1.629  13.813  1.00  0.00     0.124 S 
ATOM     84  O   UNL     1      -6.909  -2.069  14.604  1.00  0.00    -0.237 OA
ATOM     85  O   UNL     1      -4.508  -1.478  14.537  1.00  0.00    -0.237 OA
ATOM     86  O   UNL     1      -6.040  -0.588  12.827  1.00  0.00    -0.744 OA
ENDBRANCH  82  83
ENDBRANCH  50  75
BRANCH  62  87
ATOM     87  C   UNL     1      -7.385 -11.827  10.828  1.00  0.00     0.058 A 
ATOM     88  C   UNL     1      -8.738 -11.566  10.568  1.00  0.00     0.135 A 
ATOM     89  C   UNL     1      -7.075 -12.829  11.761  1.00  0.00     0.135 A 
ATOM     90  F   UNL     1      -9.086 -10.609   9.693  1.00  0.00    -0.206 F 
ATOM     91  C   UNL     1      -9.750 -12.269  11.213  1.00  0.00     0.059 A 
ATOM     92  C   UNL     1      -8.070 -13.561  12.401  1.00  0.00     0.059 A 
ATOM     93  F   UNL     1      -5.794 -13.120  12.040  1.00  0.00    -0.206 F 
ATOM     94  C   UNL     1      -9.405 -13.269  12.125  1.00  0.00     0.060 A 
BRANCH  94  95
ATOM     95  S   UNL     1     -10.727 -14.212  12.914  1.00  0.00     0.124 S 
ATOM     96  O   UNL     1     -11.242 -13.246  13.878  1.00  0.00    -0.237 OA
ATOM     97  O   UNL     1     -11.607 -14.518  11.790  1.00  0.00    -0.237 OA
ATOM     98  O   UNL     1     -10.030 -15.361  13.486  1.00  0.00    -0.744 OA
ENDBRANCH  94  95
ENDBRANCH  62  87
ENDBRANCH  36  37
ENDBRANCH  28  31
ENDBRANCH  26  27
ENDBRANCH   1  26
TORSDOF 17
