REMARK SMILES COc1cc(Cl)cc(/C=C/C(=O)NCCCNC(=O)c2ccc(-c3c4nc(c(-c5c(F)cc(S(=O)(=O)[O-])cc5F)c5ccc([nH]5)c(-c5c(F)cc(S(=O)(=O)[O-])cc5F)c5nc(c(-c6c(F)cc(S(=O)(=O)[O-])cc6F)c6ccc3[nH]6)C=C5)C=C4)cc2)c1OC
REMARK SMILES IDX 15 1 14 2 13 3 11 4 12 5 10 7 9 8 8 9 3 10 4 11 86 12 5 13
REMARK SMILES IDX 6 14 7 15 2 16 1 17 87 18 88 19 16 20 17 21 18 22 19 24
REMARK SMILES IDX 20 25 21 26 85 27 22 28 84 29 23 30 24 31 25 32 78 33 26 34
REMARK SMILES IDX 83 35 77 36 79 37 27 38 82 39 76 40 75 41 28 43 62 44 41 45
REMARK SMILES IDX 61 46 42 47 45 48 60 49 80 50 43 51 44 52 59 54 81 55 46 56
REMARK SMILES IDX 29 57 30 58 39 59 31 60 32 61 38 62 40 63 33 64 34 65 35 66
REMARK SMILES IDX 36 67 37 68 63 69 64 70 73 71 65 72 66 73 72 74 74 75 67 76
REMARK SMILES IDX 68 77 69 78 70 79 71 80 47 81 48 82 57 83 49 84 50 85 56 86
REMARK SMILES IDX 58 87 51 88 52 89 53 90 54 91 55 92
REMARK H PARENT 13 6 17 23 79 42 45 53
REMARK Flexibility Score: inf
ROOT
ATOM      1  C   UNL     1      -4.506   4.428   3.209  1.00  0.00     0.042 C 
ENDROOT
BRANCH   1   2
ATOM      2  C   UNL     1      -3.630   5.662   3.010  1.00  0.00     0.118 C 
BRANCH   2   3
ATOM      3  N   UNL     1      -3.084   6.141   4.270  1.00  0.00    -0.352 N 
ATOM      4  C   UNL     1      -1.809   6.111   4.740  1.00  0.00     0.244 C 
ATOM      5  O   UNL     1      -1.526   6.686   5.788  1.00  0.00    -0.270 OA
ATOM      6  H   UNL     1      -3.741   6.551   4.878  1.00  0.00     0.163 HD
BRANCH   4   7
ATOM      7  C   UNL     1      -0.732   5.477   3.950  1.00  0.00     0.072 C 
ATOM      8  C   UNL     1      -0.804   4.235   3.450  1.00  0.00     0.018 C 
BRANCH   8   9
ATOM      9  C   UNL     1       0.271   3.598   2.665  1.00  0.00     0.022 A 
ATOM     10  C   UNL     1       1.016   2.181   0.837  1.00  0.00     0.162 A 
ATOM     11  C   UNL     1       2.343   2.350   1.254  1.00  0.00     0.071 A 
ATOM     12  C   UNL     1      -0.034   2.825   1.515  1.00  0.00     0.168 A 
ATOM     13  C   UNL     1       2.627   3.109   2.382  1.00  0.00     0.045 A 
ATOM     14  Cl  UNL     1       4.257   3.290   2.903  1.00  0.00    -0.084 Cl
ATOM     15  C   UNL     1       1.603   3.718   3.096  1.00  0.00     0.032 A 
BRANCH  10  16
ATOM     16  O   UNL     1       0.796   1.426  -0.287  1.00  0.00    -0.493 OA
ATOM     17  C   UNL     1       1.074   0.044  -0.048  1.00  0.00     0.278 C 
ENDBRANCH  10  16
BRANCH  12  18
ATOM     18  O   UNL     1      -1.369   2.793   1.191  1.00  0.00    -0.492 OA
ATOM     19  C   UNL     1      -1.789   2.136   0.005  1.00  0.00     0.278 C 
ENDBRANCH  12  18
ENDBRANCH   8   9
ENDBRANCH   4   7
ENDBRANCH   2   3
ENDBRANCH   1   2
BRANCH   1  20
ATOM     20  C   UNL     1      -5.854   4.737   3.854  1.00  0.00     0.118 C 
BRANCH  20  21
ATOM     21  N   UNL     1      -6.720   5.503   2.971  1.00  0.00    -0.352 N 
ATOM     22  C   UNL     1      -7.988   5.231   2.522  1.00  0.00     0.251 C 
ATOM     23  H   UNL     1      -6.337   6.349   2.644  1.00  0.00     0.163 HD
ATOM     24  O   UNL     1      -8.452   5.900   1.603  1.00  0.00    -0.269 OA
BRANCH  22  25
ATOM     25  C   UNL     1      -8.793   4.145   3.128  1.00  0.00     0.039 A 
ATOM     26  C   UNL     1      -9.622   3.382   2.300  1.00  0.00     0.014 A 
ATOM     27  C   UNL     1      -8.790   3.920   4.507  1.00  0.00     0.014 A 
ATOM     28  C   UNL     1     -10.424   2.378   2.849  1.00  0.00     0.010 A 
ATOM     29  C   UNL     1      -9.531   2.870   5.044  1.00  0.00     0.010 A 
ATOM     30  C   UNL     1     -10.375   2.105   4.225  1.00  0.00    -0.014 A 
BRANCH  30  31
ATOM     31  C   UNL     1     -11.242   1.065   4.836  1.00  0.00     0.031 A 
ATOM     32  C   UNL     1     -12.312   1.464   5.817  1.00  0.00     0.074 A 
ATOM     33  C   UNL     1     -11.041  -0.234   4.544  1.00  0.00     0.049 A 
ATOM     34  N   UNL     1     -13.133   0.710   6.502  1.00  0.00    -0.248 NA
ATOM     35  C   UNL     1     -12.459   2.904   6.084  1.00  0.00     0.031 C 
ATOM     36  C   UNL     1     -10.018  -0.748   3.631  1.00  0.00     0.029 A 
ATOM     37  N   UNL     1     -11.689  -1.360   4.985  1.00  0.00    -0.354 N 
ATOM     38  C   UNL     1     -13.879   1.579   7.290  1.00  0.00     0.074 A 
ATOM     39  C   UNL     1     -13.371   2.911   7.043  1.00  0.00     0.031 C 
ATOM     40  C   UNL     1     -10.130  -2.084   3.554  1.00  0.00     0.029 A 
ATOM     41  C   UNL     1     -11.207  -2.524   4.436  1.00  0.00     0.049 A 
ATOM     42  H   UNL     1     -12.429  -1.336   5.634  1.00  0.00     0.167 HD
ATOM     43  C   UNL     1     -14.912   1.300   8.121  1.00  0.00     0.037 A 
ATOM     44  C   UNL     1     -11.595  -3.801   4.620  1.00  0.00     0.037 A 
ATOM     45  C   UNL     1     -15.426  -0.026   8.345  1.00  0.00     0.049 A 
ATOM     46  C   UNL     1     -12.740  -4.092   5.553  1.00  0.00     0.074 A 
ATOM     47  C   UNL     1     -16.485  -0.419   9.144  1.00  0.00     0.029 A 
ATOM     48  N   UNL     1     -14.917  -1.178   7.762  1.00  0.00    -0.354 N 
ATOM     49  N   UNL     1     -13.457  -3.255   6.265  1.00  0.00    -0.248 NA
ATOM     50  C   UNL     1     -13.133  -5.499   5.700  1.00  0.00     0.031 C 
ATOM     51  C   UNL     1     -16.597  -1.813   9.067  1.00  0.00     0.029 A 
ATOM     52  C   UNL     1     -15.635  -2.283   8.187  1.00  0.00     0.049 A 
ATOM     53  H   UNL     1     -14.156  -1.206   7.138  1.00  0.00     0.167 HD
ATOM     54  C   UNL     1     -14.411  -4.030   6.914  1.00  0.00     0.074 A 
ATOM     55  C   UNL     1     -14.178  -5.402   6.510  1.00  0.00     0.031 C 
ATOM     56  C   UNL     1     -15.396  -3.641   7.762  1.00  0.00     0.037 A 
BRANCH  43  57
ATOM     57  C   UNL     1     -15.542   2.459   8.846  1.00  0.00     0.058 A 
ATOM     58  C   UNL     1     -16.285   3.438   8.164  1.00  0.00     0.135 A 
ATOM     59  C   UNL     1     -15.384   2.611  10.233  1.00  0.00     0.135 A 
ATOM     60  F   UNL     1     -16.457   3.351   6.835  1.00  0.00    -0.206 F 
ATOM     61  C   UNL     1     -16.797   4.553   8.818  1.00  0.00     0.059 A 
ATOM     62  C   UNL     1     -15.915   3.703  10.914  1.00  0.00     0.059 A 
ATOM     63  F   UNL     1     -14.690   1.704  10.938  1.00  0.00    -0.206 F 
ATOM     64  C   UNL     1     -16.597   4.683  10.193  1.00  0.00     0.060 A 
BRANCH  64  65
ATOM     65  S   UNL     1     -17.225   6.157  11.023  1.00  0.00     0.124 S 
ATOM     66  O   UNL     1     -16.246   7.159  10.613  1.00  0.00    -0.237 OA
ATOM     67  O   UNL     1     -18.557   6.302  10.445  1.00  0.00    -0.237 OA
ATOM     68  O   UNL     1     -17.195   5.790  12.435  1.00  0.00    -0.744 OA
ENDBRANCH  64  65
ENDBRANCH  43  57
BRANCH  44  69
ATOM     69  C   UNL     1     -10.934  -4.891   3.856  1.00  0.00     0.058 A 
ATOM     70  C   UNL     1     -11.603  -5.531   2.803  1.00  0.00     0.135 A 
ATOM     71  C   UNL     1      -9.618  -5.290   4.134  1.00  0.00     0.135 A 
ATOM     72  F   UNL     1     -12.865  -5.186   2.504  1.00  0.00    -0.206 F 
ATOM     73  C   UNL     1     -10.996  -6.534   2.056  1.00  0.00     0.059 A 
ATOM     74  C   UNL     1      -8.981  -6.277   3.386  1.00  0.00     0.059 A 
ATOM     75  F   UNL     1      -8.928  -4.697   5.121  1.00  0.00    -0.206 F 
ATOM     76  C   UNL     1      -9.681  -6.897   2.352  1.00  0.00     0.060 A 
BRANCH  76  77
ATOM     77  S   UNL     1      -8.880  -8.153   1.330  1.00  0.00     0.124 S 
ATOM     78  O   UNL     1      -9.546  -9.368   1.783  1.00  0.00    -0.237 OA
ATOM     79  O   UNL     1      -9.212  -7.707  -0.020  1.00  0.00    -0.237 OA
ATOM     80  O   UNL     1      -7.471  -8.031   1.692  1.00  0.00    -0.744 OA
ENDBRANCH  76  77
ENDBRANCH  44  69
BRANCH  56  81
ATOM     81  C   UNL     1     -16.329  -4.705   8.269  1.00  0.00     0.058 A 
ATOM     82  C   UNL     1     -15.931  -5.644   9.232  1.00  0.00     0.135 A 
ATOM     83  C   UNL     1     -17.656  -4.756   7.811  1.00  0.00     0.135 A 
ATOM     84  F   UNL     1     -14.672  -5.642   9.698  1.00  0.00    -0.206 F 
ATOM     85  C   UNL     1     -16.809  -6.614   9.706  1.00  0.00     0.059 A 
ATOM     86  C   UNL     1     -18.558  -5.700   8.290  1.00  0.00     0.059 A 
ATOM     87  F   UNL     1     -18.091  -3.874   6.897  1.00  0.00    -0.206 F 
ATOM     88  C   UNL     1     -18.121  -6.634   9.228  1.00  0.00     0.060 A 
BRANCH  88  89
ATOM     89  S   UNL     1     -19.259  -7.880   9.870  1.00  0.00     0.124 S 
ATOM     90  O   UNL     1     -18.809  -9.078   9.169  1.00  0.00    -0.237 OA
ATOM     91  O   UNL     1     -18.988  -7.844  11.304  1.00  0.00    -0.237 OA
ATOM     92  O   UNL     1     -20.571  -7.376   9.475  1.00  0.00    -0.744 OA
ENDBRANCH  88  89
ENDBRANCH  56  81
ENDBRANCH  30  31
ENDBRANCH  22  25
ENDBRANCH  20  21
ENDBRANCH   1  20
TORSDOF 16
