REMARK SMILES COc1cccc(NC(=O)/C(C#N)=C\c2ccc(O[C@@H](C)C(=O)NCCCNC(=O)c3ccc(-c4c5nc(c(-c6c(F)cc(S(=O)(=O)[O-])cc6F)c6ccc([nH]6)c(-c6c(F)cc(S(=O)(=O)[O-])cc6F)c6nc(c(-c7c(F)cc(S(=O)(=O)[O-])cc7F)c7ccc4[nH]7)C=C6)C=C5)cc3)cc2)c1
REMARK SMILES IDX 22 1 23 2 24 3 20 5 21 6 19 7 18 8 15 9 16 10 98 11 17 12
REMARK SMILES IDX 97 13 14 14 11 15 9 16 8 17 10 19 7 20 3 21 4 22 99 23 5 24
REMARK SMILES IDX 6 25 2 26 1 27 12 28 13 29 25 30 26 31 27 32 28 33 29 34
REMARK SMILES IDX 30 36 31 37 32 38 96 39 33 40 95 41 34 42 35 43 36 44 89 45
REMARK SMILES IDX 37 46 94 47 88 48 90 49 38 50 93 51 87 52 86 53 39 55 73 56
REMARK SMILES IDX 52 57 72 58 53 59 56 60 71 61 91 62 54 63 55 64 70 66 92 67
REMARK SMILES IDX 57 68 40 69 41 70 50 71 42 72 43 73 49 74 51 75 44 76 45 77
REMARK SMILES IDX 46 78 47 79 48 80 74 81 75 82 84 83 76 84 77 85 83 86 85 87
REMARK SMILES IDX 78 88 79 89 80 90 81 91 82 92 58 93 59 94 68 95 60 96 61 97
REMARK SMILES IDX 67 98 69 99 62 100 63 101 64 102 65 103 66 104
REMARK H PARENT 24 4 8 18 28 35 90 54 56 65
REMARK Flexibility Score: inf
ROOT
ATOM      1  C   UNL     1      10.102   8.973  -3.657  1.00  0.00     0.260 C 
ATOM      2  O   UNL     1      10.904   9.689  -4.274  1.00  0.00    -0.271 OA
ATOM      3  N   UNL     1       9.373   8.132  -4.439  1.00  0.00    -0.353 N 
ATOM      4  H   UNL     1       9.645   8.148  -5.385  1.00  0.00     0.163 HD
ENDROOT
BRANCH   1   5
ATOM      5  C   UNL     1      10.072   9.034  -2.094  1.00  0.00     0.258 C 
ATOM      6  C   UNL     1      10.577   7.744  -1.438  1.00  0.00     0.064 C 
BRANCH   5   7
ATOM      7  O   UNL     1       9.081   9.759  -1.360  1.00  0.00    -0.481 OA
BRANCH   7   8
ATOM      8  C   UNL     1       7.805   9.304  -1.315  1.00  0.00     0.120 A 
ATOM      9  C   UNL     1       5.127   8.425  -1.581  1.00  0.00    -0.024 A 
ATOM     10  C   UNL     1       5.436   9.790  -1.613  1.00  0.00     0.012 A 
ATOM     11  C   UNL     1       6.179   7.551  -1.280  1.00  0.00     0.012 A 
ATOM     12  C   UNL     1       6.770  10.224  -1.491  1.00  0.00     0.047 A 
ATOM     13  C   UNL     1       7.480   7.989  -1.067  1.00  0.00     0.047 A 
BRANCH   9  14
ATOM     14  C   UNL     1       3.776   7.952  -1.977  1.00  0.00     0.033 C 
ATOM     15  C   UNL     1       3.260   6.726  -1.787  1.00  0.00     0.118 C 
BRANCH  15  16
ATOM     16  C   UNL     1       3.825   5.640  -0.812  1.00  0.00     0.266 C 
ATOM     17  N   UNL     1       3.631   4.296  -1.102  1.00  0.00    -0.321 N 
ATOM     18  H   UNL     1       4.398   3.833  -1.511  1.00  0.00     0.170 HD
ATOM     19  O   UNL     1       4.483   5.928   0.187  1.00  0.00    -0.268 OA
BRANCH  17  20
ATOM     20  C   UNL     1       2.467   3.495  -0.886  1.00  0.00     0.045 A 
ATOM     21  C   UNL     1       1.349   1.361  -1.160  1.00  0.00     0.120 A 
ATOM     22  C   UNL     1       0.123   1.925  -0.823  1.00  0.00     0.046 A 
ATOM     23  C   UNL     1       2.505   2.146  -1.258  1.00  0.00     0.072 A 
ATOM     24  C   UNL     1       0.102   3.227  -0.354  1.00  0.00     0.006 A 
ATOM     25  C   UNL     1       1.291   3.968  -0.297  1.00  0.00     0.026 A 
BRANCH  21  26
ATOM     26  O   UNL     1       1.428   0.013  -1.390  1.00  0.00    -0.497 OA
ATOM     27  C   UNL     1       1.313  -0.680  -0.140  1.00  0.00     0.278 C 
ENDBRANCH  21  26
ENDBRANCH  17  20
ENDBRANCH  15  16
BRANCH  15  28
ATOM     28  C   UNL     1       1.801   6.330  -1.944  1.00  0.00     0.105 C 
ATOM     29  N   UNL     1       0.591   6.000  -2.075  1.00  0.00    -0.192 NA
ENDBRANCH  15  28
ENDBRANCH   9  14
ENDBRANCH   7   8
ENDBRANCH   5   7
ENDBRANCH   1   5
BRANCH   3  30
ATOM     30  C   UNL     1       8.280   7.217  -4.174  1.00  0.00     0.118 C 
BRANCH  30  31
ATOM     31  C   UNL     1       6.925   7.870  -4.434  1.00  0.00     0.042 C 
BRANCH  31  32
ATOM     32  C   UNL     1       6.404   7.744  -5.858  1.00  0.00     0.118 C 
BRANCH  32  33
ATOM     33  N   UNL     1       5.769   6.446  -6.064  1.00  0.00    -0.352 N 
ATOM     34  C   UNL     1       4.446   6.066  -6.056  1.00  0.00     0.251 C 
ATOM     35  H   UNL     1       6.399   5.711  -6.241  1.00  0.00     0.163 HD
ATOM     36  O   UNL     1       4.197   4.873  -5.879  1.00  0.00    -0.269 OA
BRANCH  34  37
ATOM     37  C   UNL     1       3.325   7.028  -6.242  1.00  0.00     0.039 A 
ATOM     38  C   UNL     1       2.061   6.699  -5.729  1.00  0.00     0.014 A 
ATOM     39  C   UNL     1       3.457   8.198  -6.990  1.00  0.00     0.014 A 
ATOM     40  C   UNL     1       0.966   7.555  -5.921  1.00  0.00     0.010 A 
ATOM     41  C   UNL     1       2.392   9.095  -7.103  1.00  0.00     0.010 A 
ATOM     42  C   UNL     1       1.127   8.779  -6.587  1.00  0.00    -0.014 A 
BRANCH  42  43
ATOM     43  C   UNL     1      -0.004   9.729  -6.789  1.00  0.00     0.031 A 
ATOM     44  C   UNL     1      -0.434  10.112  -8.185  1.00  0.00     0.074 A 
ATOM     45  C   UNL     1      -0.592  10.312  -5.725  1.00  0.00     0.049 A 
ATOM     46  N   UNL     1      -1.295  11.021  -8.569  1.00  0.00    -0.248 NA
ATOM     47  C   UNL     1       0.215   9.400  -9.299  1.00  0.00     0.031 C 
ATOM     48  C   UNL     1      -0.252  10.060  -4.324  1.00  0.00     0.029 A 
ATOM     49  N   UNL     1      -1.590  11.255  -5.656  1.00  0.00    -0.354 N 
ATOM     50  C   UNL     1      -1.271  11.008  -9.960  1.00  0.00     0.074 A 
ATOM     51  C   UNL     1      -0.276  10.036 -10.354  1.00  0.00     0.031 C 
ATOM     52  C   UNL     1      -1.032  10.817  -3.536  1.00  0.00     0.029 A 
ATOM     53  C   UNL     1      -1.902  11.637  -4.372  1.00  0.00     0.049 A 
ATOM     54  H   UNL     1      -2.039  11.621  -6.452  1.00  0.00     0.167 HD
ATOM     55  C   UNL     1      -2.025  11.723 -10.831  1.00  0.00     0.037 A 
ATOM     56  C   UNL     1      -2.780  12.553  -3.918  1.00  0.00     0.037 A 
ATOM     57  C   UNL     1      -3.050  12.655 -10.436  1.00  0.00     0.049 A 
ATOM     58  C   UNL     1      -3.619  13.322  -4.903  1.00  0.00     0.074 A 
ATOM     59  C   UNL     1      -3.910  13.381 -11.242  1.00  0.00     0.029 A 
ATOM     60  N   UNL     1      -3.359  12.983  -9.125  1.00  0.00    -0.354 N 
ATOM     61  N   UNL     1      -3.611  13.264  -6.214  1.00  0.00    -0.248 NA
ATOM     62  C   UNL     1      -4.590  14.275  -4.349  1.00  0.00     0.031 C 
ATOM     63  C   UNL     1      -4.718  14.173 -10.419  1.00  0.00     0.029 A 
ATOM     64  C   UNL     1      -4.389  13.910  -9.099  1.00  0.00     0.049 A 
ATOM     65  H   UNL     1      -2.913  12.612  -8.329  1.00  0.00     0.167 HD
ATOM     66  C   UNL     1      -4.593  14.152  -6.639  1.00  0.00     0.074 A 
ATOM     67  C   UNL     1      -5.182  14.726  -5.447  1.00  0.00     0.031 C 
ATOM     68  C   UNL     1      -4.972  14.464  -7.903  1.00  0.00     0.037 A 
BRANCH  55  69
ATOM     69  C   UNL     1      -1.783  11.517 -12.303  1.00  0.00     0.058 A 
ATOM     70  C   UNL     1      -2.156  10.328 -12.951  1.00  0.00     0.135 A 
ATOM     71  C   UNL     1      -1.215  12.536 -13.085  1.00  0.00     0.135 A 
ATOM     72  F   UNL     1      -2.691   9.316 -12.251  1.00  0.00    -0.206 F 
ATOM     73  C   UNL     1      -1.948  10.145 -14.315  1.00  0.00     0.059 A 
ATOM     74  C   UNL     1      -1.023  12.385 -14.457  1.00  0.00     0.059 A 
ATOM     75  F   UNL     1      -0.842  13.694 -12.519  1.00  0.00    -0.206 F 
ATOM     76  C   UNL     1      -1.379  11.180 -15.059  1.00  0.00     0.060 A 
BRANCH  76  77
ATOM     77  S   UNL     1      -1.124  10.928 -16.829  1.00  0.00     0.124 S 
ATOM     78  O   UNL     1       0.016  10.018 -16.831  1.00  0.00    -0.237 OA
ATOM     79  O   UNL     1      -2.396  10.353 -17.251  1.00  0.00    -0.237 OA
ATOM     80  O   UNL     1      -0.852  12.274 -17.328  1.00  0.00    -0.744 OA
ENDBRANCH  76  77
ENDBRANCH  55  69
BRANCH  56  81
ATOM     81  C   UNL     1      -2.926  12.780  -2.455  1.00  0.00     0.058 A 
ATOM     82  C   UNL     1      -4.078  12.362  -1.772  1.00  0.00     0.135 A 
ATOM     83  C   UNL     1      -1.917  13.411  -1.710  1.00  0.00     0.135 A 
ATOM     84  F   UNL     1      -5.073  11.761  -2.442  1.00  0.00    -0.206 F 
ATOM     85  C   UNL     1      -4.234  12.576  -0.406  1.00  0.00     0.059 A 
ATOM     86  C   UNL     1      -2.040  13.614  -0.339  1.00  0.00     0.059 A 
ATOM     87  F   UNL     1      -0.788  13.813  -2.313  1.00  0.00    -0.206 F 
ATOM     88  C   UNL     1      -3.209  13.204   0.302  1.00  0.00     0.060 A 
BRANCH  88  89
ATOM     89  S   UNL     1      -3.402  13.441   2.082  1.00  0.00     0.124 S 
ATOM     90  O   UNL     1      -4.355  14.543   2.129  1.00  0.00    -0.237 OA
ATOM     91  O   UNL     1      -3.907  12.141   2.513  1.00  0.00    -0.237 OA
ATOM     92  O   UNL     1      -2.047  13.756   2.526  1.00  0.00    -0.744 OA
ENDBRANCH  88  89
ENDBRANCH  56  81
BRANCH  68  93
ATOM     93  C   UNL     1      -6.099  15.445  -8.065  1.00  0.00     0.058 A 
ATOM     94  C   UNL     1      -5.920  16.817  -7.832  1.00  0.00     0.135 A 
ATOM     95  C   UNL     1      -7.359  15.012  -8.507  1.00  0.00     0.135 A 
ATOM     96  F   UNL     1      -4.736  17.280  -7.402  1.00  0.00    -0.206 F 
ATOM     97  C   UNL     1      -6.958  17.725  -8.012  1.00  0.00     0.059 A 
ATOM     98  C   UNL     1      -8.405  15.906  -8.718  1.00  0.00     0.059 A 
ATOM     99  F   UNL     1      -7.580  13.711  -8.754  1.00  0.00    -0.206 F 
ATOM    100  C   UNL     1      -8.197  17.260  -8.456  1.00  0.00     0.060 A 
BRANCH 100 101
ATOM    101  S   UNL     1      -9.527  18.452  -8.720  1.00  0.00     0.124 S 
ATOM    102  O   UNL     1      -9.933  18.747  -7.350  1.00  0.00    -0.237 OA
ATOM    103  O   UNL     1      -8.844  19.533  -9.425  1.00  0.00    -0.237 OA
ATOM    104  O   UNL     1     -10.498  17.708  -9.517  1.00  0.00    -0.744 OA
ENDBRANCH 100 101
ENDBRANCH  68  93
ENDBRANCH  42  43
ENDBRANCH  34  37
ENDBRANCH  32  33
ENDBRANCH  31  32
ENDBRANCH  30  31
ENDBRANCH   3  30
TORSDOF 20
