REMARK SMILES Cc1ccc(NC(=O)C[C@H]2C(=O)NCCN2C(=O)CCC(=O)NCCCNC(=O)c2ccc(-c3c4nc(c(-c5c(F)cc(S(=O)(=O)[O-])cc5F)c5ccc([nH]5)c(-c5c(F)cc(S(=O)(=O)[O-])cc5F)c5nc(c(-c6c(F)cc(S(=O)(=O)[O-])cc6F)c6ccc3[nH]6)C=C5)C=C4)cc2)c(C)c1
REMARK SMILES IDX 21 1 22 2 23 3 20 5 19 6 17 7 18 8 16 9 10 10 11 11 12 12
REMARK SMILES IDX 13 13 15 14 14 15 9 17 7 18 6 19 8 21 5 22 1 23 2 24 3 25
REMARK SMILES IDX 98 26 4 27 96 28 97 29 24 30 25 31 26 32 27 33 28 34 29 36
REMARK SMILES IDX 30 37 31 38 95 39 32 40 94 41 33 42 34 43 35 44 88 45 36 46
REMARK SMILES IDX 93 47 87 48 89 49 37 50 92 51 86 52 85 53 38 55 72 56 51 57
REMARK SMILES IDX 71 58 52 59 55 60 70 61 90 62 53 63 54 64 69 66 91 67 56 68
REMARK SMILES IDX 39 69 40 70 49 71 41 72 42 73 48 74 50 75 43 76 44 77 45 78
REMARK SMILES IDX 46 79 47 80 73 81 74 82 83 83 75 84 76 85 82 86 84 87 77 88
REMARK SMILES IDX 78 89 79 90 80 91 81 92 57 93 58 94 67 95 59 96 60 97 66 98
REMARK SMILES IDX 68 99 61 100 62 101 63 102 64 103 65 104
REMARK H PARENT 23 4 13 16 6 20 27 35 89 54 55 65
REMARK Flexibility Score: inf
ROOT
ATOM      1  C   UNL     1      -2.839   1.310  -1.059  1.00  0.00     0.220 C 
ATOM      2  O   UNL     1      -1.934   0.535  -1.383  1.00  0.00    -0.275 OA
ATOM      3  N   UNL     1      -2.634   2.157  -0.012  1.00  0.00    -0.356 N 
ATOM      4  H   UNL     1      -1.761   1.996   0.413  1.00  0.00     0.163 HD
ENDROOT
BRANCH   1   5
ATOM      5  C   UNL     1      -4.160   1.219  -1.729  1.00  0.00     0.110 C 
BRANCH   5   6
ATOM      6  C   UNL     1      -5.035   0.316  -0.891  1.00  0.00     0.110 C 
BRANCH   6   7
ATOM      7  C   UNL     1      -5.450   1.075   0.323  1.00  0.00     0.223 C 
ATOM      8  O   UNL     1      -6.397   1.863   0.178  1.00  0.00    -0.275 OA
BRANCH   7   9
ATOM      9  N   UNL     1      -4.746   0.988   1.536  1.00  0.00    -0.328 N 
ATOM     10  C   UNL     1      -3.463   0.180   1.872  1.00  0.00     0.183 C 
ATOM     11  C   UNL     1      -3.759  -0.718   3.111  1.00  0.00     0.243 C 
ATOM     12  O   UNL     1      -3.084  -1.712   3.374  1.00  0.00    -0.273 OA
ATOM     13  N   UNL     1      -4.753  -0.366   3.979  1.00  0.00    -0.353 N 
ATOM     14  C   UNL     1      -5.593   1.536   2.609  1.00  0.00     0.141 C 
ATOM     15  C   UNL     1      -5.551   0.829   3.938  1.00  0.00     0.137 C 
ATOM     16  H   UNL     1      -4.944  -0.999   4.709  1.00  0.00     0.163 HD
BRANCH  10  17
ATOM     17  C   UNL     1      -1.784   0.549   1.834  1.00  0.00     0.135 C 
BRANCH  17  18
ATOM     18  C   UNL     1      -0.554   1.665   1.999  1.00  0.00     0.227 C 
ATOM     19  N   UNL     1       0.011   2.738   1.322  1.00  0.00    -0.326 N 
ATOM     20  H   UNL     1       0.946   2.830   1.616  1.00  0.00     0.169 HD
ATOM     21  O   UNL     1       0.169   1.448   3.004  1.00  0.00    -0.275 OA
BRANCH  19  22
ATOM     22  C   UNL     1      -0.258   3.766   0.352  1.00  0.00     0.044 A 
ATOM     23  C   UNL     1      -2.868   6.351  -1.791  1.00  0.00     0.044 C 
ATOM     24  C   UNL     1      -1.664   5.672  -1.188  1.00  0.00    -0.051 A 
ATOM     25  C   UNL     1      -1.234   5.994   0.100  1.00  0.00     0.005 A 
ATOM     26  C   UNL     1      -1.105   4.541  -1.791  1.00  0.00     0.009 A 
ATOM     27  C   UNL     1      -0.469   5.070   0.838  1.00  0.00     0.026 A 
ATOM     28  C   UNL     1      -0.365   3.596  -1.034  1.00  0.00    -0.027 A 
ATOM     29  C   UNL     1       0.322   2.485  -1.767  1.00  0.00     0.046 C 
ENDBRANCH  19  22
ENDBRANCH  17  18
ENDBRANCH  10  17
ENDBRANCH   7   9
ENDBRANCH   6   7
ENDBRANCH   5   6
ENDBRANCH   1   5
BRANCH   3  30
ATOM     30  C   UNL     1      -3.366   3.252   0.659  1.00  0.00     0.117 C 
BRANCH  30  31
ATOM     31  C   UNL     1      -3.059   3.765   2.142  1.00  0.00     0.042 C 
BRANCH  31  32
ATOM     32  C   UNL     1      -2.981   3.014   3.502  1.00  0.00     0.118 C 
BRANCH  32  33
ATOM     33  N   UNL     1      -1.755   3.230   4.283  1.00  0.00    -0.352 N 
ATOM     34  C   UNL     1      -1.545   3.215   5.655  1.00  0.00     0.251 C 
ATOM     35  H   UNL     1      -0.952   3.415   3.745  1.00  0.00     0.163 HD
ATOM     36  O   UNL     1      -0.445   3.435   6.114  1.00  0.00    -0.269 OA
BRANCH  34  37
ATOM     37  C   UNL     1      -2.686   2.981   6.572  1.00  0.00     0.039 A 
ATOM     38  C   UNL     1      -3.005   3.960   7.514  1.00  0.00     0.014 A 
ATOM     39  C   UNL     1      -3.432   1.808   6.512  1.00  0.00     0.014 A 
ATOM     40  C   UNL     1      -4.158   3.823   8.296  1.00  0.00     0.010 A 
ATOM     41  C   UNL     1      -4.618   1.702   7.251  1.00  0.00     0.010 A 
ATOM     42  C   UNL     1      -5.020   2.726   8.122  1.00  0.00    -0.014 A 
BRANCH  42  43
ATOM     43  C   UNL     1      -6.354   2.687   8.794  1.00  0.00     0.031 A 
ATOM     44  C   UNL     1      -6.719   1.586   9.756  1.00  0.00     0.074 A 
ATOM     45  C   UNL     1      -7.277   3.628   8.498  1.00  0.00     0.049 A 
ATOM     46  N   UNL     1      -7.826   1.420  10.438  1.00  0.00    -0.248 NA
ATOM     47  C   UNL     1      -5.727   0.520   9.957  1.00  0.00     0.031 C 
ATOM     48  C   UNL     1      -7.099   4.716   7.533  1.00  0.00     0.029 A 
ATOM     49  N   UNL     1      -8.548   3.830   8.986  1.00  0.00    -0.354 N 
ATOM     50  C   UNL     1      -7.668   0.231  11.140  1.00  0.00     0.074 A 
ATOM     51  C   UNL     1      -6.383  -0.314  10.750  1.00  0.00     0.031 C 
ATOM     52  C   UNL     1      -8.188   5.500   7.544  1.00  0.00     0.029 A 
ATOM     53  C   UNL     1      -9.160   4.958   8.489  1.00  0.00     0.049 A 
ATOM     54  H   UNL     1      -8.979   3.223   9.630  1.00  0.00     0.167 HD
ATOM     55  C   UNL     1      -8.495  -0.344  12.048  1.00  0.00     0.037 A 
ATOM     56  C   UNL     1     -10.358   5.510   8.771  1.00  0.00     0.037 A 
ATOM     57  C   UNL     1      -9.760   0.203  12.464  1.00  0.00     0.049 A 
ATOM     58  C   UNL     1     -11.257   4.863   9.789  1.00  0.00     0.074 A 
ATOM     59  C   UNL     1     -10.630  -0.272  13.431  1.00  0.00     0.029 A 
ATOM     60  N   UNL     1     -10.343   1.345  11.935  1.00  0.00    -0.354 N 
ATOM     61  N   UNL     1     -11.049   3.784  10.503  1.00  0.00    -0.248 NA
ATOM     62  C   UNL     1     -12.552   5.512  10.040  1.00  0.00     0.031 C 
ATOM     63  C   UNL     1     -11.754   0.561  13.461  1.00  0.00     0.029 A 
ATOM     64  C   UNL     1     -11.569   1.578  12.539  1.00  0.00     0.049 A 
ATOM     65  H   UNL     1      -9.944   1.909  11.233  1.00  0.00     0.167 HD
ATOM     66  C   UNL     1     -12.174   3.640  11.309  1.00  0.00     0.074 A 
ATOM     67  C   UNL     1     -13.057   4.745  10.998  1.00  0.00     0.031 C 
ATOM     68  C   UNL     1     -12.444   2.680  12.228  1.00  0.00     0.037 A 
BRANCH  55  69
ATOM     69  C   UNL     1      -8.042  -1.643  12.660  1.00  0.00     0.058 A 
ATOM     70  C   UNL     1      -6.963  -1.694  13.559  1.00  0.00     0.135 A 
ATOM     71  C   UNL     1      -8.684  -2.849  12.339  1.00  0.00     0.135 A 
ATOM     72  F   UNL     1      -6.309  -0.571  13.894  1.00  0.00    -0.206 F 
ATOM     73  C   UNL     1      -6.501  -2.901  14.072  1.00  0.00     0.059 A 
ATOM     74  C   UNL     1      -8.257  -4.066  12.864  1.00  0.00     0.059 A 
ATOM     75  F   UNL     1      -9.726  -2.857  11.493  1.00  0.00    -0.206 F 
ATOM     76  C   UNL     1      -7.147  -4.083  13.708  1.00  0.00     0.060 A 
BRANCH  76  77
ATOM     77  S   UNL     1      -6.507  -5.649  14.340  1.00  0.00     0.124 S 
ATOM     78  O   UNL     1      -5.342  -5.849  13.484  1.00  0.00    -0.237 OA
ATOM     79  O   UNL     1      -6.221  -5.333  15.736  1.00  0.00    -0.237 OA
ATOM     80  O   UNL     1      -7.613  -6.577  14.125  1.00  0.00    -0.744 OA
ENDBRANCH  76  77
ENDBRANCH  55  69
BRANCH  56  81
ATOM     81  C   UNL     1     -10.752   6.791   8.125  1.00  0.00     0.058 A 
ATOM     82  C   UNL     1     -10.757   7.987   8.858  1.00  0.00     0.135 A 
ATOM     83  C   UNL     1     -11.106   6.852   6.769  1.00  0.00     0.135 A 
ATOM     84  F   UNL     1     -10.435   7.976  10.160  1.00  0.00    -0.206 F 
ATOM     85  C   UNL     1     -11.101   9.200   8.272  1.00  0.00     0.059 A 
ATOM     86  C   UNL     1     -11.435   8.057   6.155  1.00  0.00     0.059 A 
ATOM     87  F   UNL     1     -11.104   5.737   6.022  1.00  0.00    -0.206 F 
ATOM     88  C   UNL     1     -11.434   9.226   6.917  1.00  0.00     0.060 A 
BRANCH  88  89
ATOM     89  S   UNL     1     -11.806  10.818   6.147  1.00  0.00     0.124 S 
ATOM     90  O   UNL     1     -13.137  11.095   6.675  1.00  0.00    -0.237 OA
ATOM     91  O   UNL     1     -10.728  11.662   6.654  1.00  0.00    -0.237 OA
ATOM     92  O   UNL     1     -11.740  10.521   4.719  1.00  0.00    -0.744 OA
ENDBRANCH  88  89
ENDBRANCH  56  81
BRANCH  68  93
ATOM     93  C   UNL     1     -13.739   2.790  12.986  1.00  0.00     0.058 A 
ATOM     94  C   UNL     1     -14.972   2.489  12.388  1.00  0.00     0.135 A 
ATOM     95  C   UNL     1     -13.740   3.154  14.343  1.00  0.00     0.135 A 
ATOM     96  F   UNL     1     -15.027   2.143  11.092  1.00  0.00    -0.206 F 
ATOM     97  C   UNL     1     -16.164   2.562  13.102  1.00  0.00     0.059 A 
ATOM     98  C   UNL     1     -14.918   3.212  15.082  1.00  0.00     0.059 A 
ATOM     99  F   UNL     1     -12.588   3.445  14.966  1.00  0.00    -0.206 F 
ATOM    100  C   UNL     1     -16.127   2.924  14.450  1.00  0.00     0.060 A 
BRANCH 100 101
ATOM    101  S   UNL     1     -17.676   2.979  15.378  1.00  0.00     0.124 S 
ATOM    102  O   UNL     1     -18.261   4.226  14.898  1.00  0.00    -0.237 OA
ATOM    103  O   UNL     1     -18.346   1.756  14.944  1.00  0.00    -0.237 OA
ATOM    104  O   UNL     1     -17.237   2.984  16.770  1.00  0.00    -0.744 OA
ENDBRANCH 100 101
ENDBRANCH  68  93
ENDBRANCH  42  43
ENDBRANCH  34  37
ENDBRANCH  32  33
ENDBRANCH  31  32
ENDBRANCH  30  31
ENDBRANCH   3  30
TORSDOF 19
