REMARK SMILES O=C(NCCCNC(=O)[C@@H](CCCCO)c1cccc(Cl)c1)c1ccc(-c2c3nc(c(-c4c(F)cc(S(=O)(=O)[O-])cc4F)c4ccc([nH]4)c(-c4c(F)cc(S(=O)(=O)[O-])cc4F)c4nc(c(-c5c(F)cc(S(=O)(=O)[O-])cc5F)c5ccc2[nH]5)C=C4)C=C3)cc1
REMARK SMILES IDX 6 1 5 2 4 3 3 4 1 5 2 6 23 8 24 9 88 10 25 11 87 12 26 13
REMARK SMILES IDX 27 14 28 15 81 16 29 17 86 18 80 19 82 20 30 21 85 22 79 23
REMARK SMILES IDX 78 24 31 26 65 27 44 28 64 29 45 30 48 31 63 32 83 33 46 34
REMARK SMILES IDX 47 35 62 37 84 38 49 39 32 40 33 41 42 42 34 43 35 44 41 45
REMARK SMILES IDX 43 46 36 47 37 48 38 49 39 50 40 51 66 52 67 53 76 54 68 55
REMARK SMILES IDX 69 56 75 57 77 58 70 59 71 60 72 61 73 62 74 63 50 64 51 65
REMARK SMILES IDX 60 66 52 67 53 68 59 69 61 70 54 71 55 72 56 73 57 74 58 75
REMARK SMILES IDX 7 76 8 77 9 79 10 80 11 81 12 82 13 83 14 84 15 85 16 87
REMARK SMILES IDX 17 88 22 89 18 90 20 91 19 92 21 93
REMARK H PARENT 3 7 82 25 48 36 7 78 15 86
REMARK Flexibility Score: inf
ROOT
ATOM      1  C   UNL     1       4.082   0.614  -3.743  1.00  0.00     0.117 C 
ENDROOT
BRANCH   1   2
ATOM      2  C   UNL     1       4.446   0.035  -2.386  1.00  0.00     0.042 C 
BRANCH   2   3
ATOM      3  C   UNL     1       4.115   0.964  -1.235  1.00  0.00     0.118 C 
BRANCH   3   4
ATOM      4  N   UNL     1       2.714   0.884  -0.851  1.00  0.00    -0.352 N 
ATOM      5  O   UNL     1       0.900   0.133   0.242  1.00  0.00    -0.269 OA
ATOM      6  C   UNL     1       2.124   0.271   0.230  1.00  0.00     0.251 C 
ATOM      7  H   UNL     1       2.091   1.340  -1.461  1.00  0.00     0.163 HD
BRANCH   6   8
ATOM      8  C   UNL     1       2.939  -0.236   1.359  1.00  0.00     0.039 A 
ATOM      9  C   UNL     1       4.072   0.452   1.790  1.00  0.00     0.014 A 
ATOM     10  C   UNL     1       2.546  -1.399   2.033  1.00  0.00     0.014 A 
ATOM     11  C   UNL     1       4.908  -0.109   2.744  1.00  0.00     0.010 A 
ATOM     12  C   UNL     1       3.313  -1.884   3.101  1.00  0.00     0.010 A 
ATOM     13  C   UNL     1       4.516  -1.255   3.452  1.00  0.00    -0.014 A 
BRANCH  13  14
ATOM     14  C   UNL     1       5.338  -1.685   4.616  1.00  0.00     0.031 A 
ATOM     15  C   UNL     1       5.977  -3.045   4.675  1.00  0.00     0.074 A 
ATOM     16  C   UNL     1       5.539  -0.796   5.613  1.00  0.00     0.049 A 
ATOM     17  N   UNL     1       6.737  -3.553   5.612  1.00  0.00    -0.248 NA
ATOM     18  C   UNL     1       5.728  -3.957   3.549  1.00  0.00     0.031 C 
ATOM     19  C   UNL     1       4.949   0.546   5.676  1.00  0.00     0.029 A 
ATOM     20  N   UNL     1       6.309  -0.865   6.745  1.00  0.00    -0.354 N 
ATOM     21  C   UNL     1       7.053  -4.841   5.196  1.00  0.00     0.074 A 
ATOM     22  C   UNL     1       6.369  -5.053   3.938  1.00  0.00     0.031 C 
ATOM     23  C   UNL     1       5.426   1.193   6.747  1.00  0.00     0.029 A 
ATOM     24  C   UNL     1       6.282   0.286   7.499  1.00  0.00     0.049 A 
ATOM     25  H   UNL     1       6.831  -1.661   6.996  1.00  0.00     0.167 HD
ATOM     26  C   UNL     1       7.851  -5.754   5.803  1.00  0.00     0.037 A 
ATOM     27  C   UNL     1       6.854   0.578   8.681  1.00  0.00     0.037 A 
ATOM     28  C   UNL     1       8.527  -5.529   7.058  1.00  0.00     0.049 A 
ATOM     29  C   UNL     1       7.703  -0.467   9.345  1.00  0.00     0.074 A 
ATOM     30  C   UNL     1       9.356  -6.390   7.756  1.00  0.00     0.029 A 
ATOM     31  N   UNL     1       8.453  -4.360   7.803  1.00  0.00    -0.354 N 
ATOM     32  N   UNL     1       7.999  -1.674   8.926  1.00  0.00    -0.248 NA
ATOM     33  C   UNL     1       8.293  -0.114  10.641  1.00  0.00     0.031 C 
ATOM     34  C   UNL     1       9.747  -5.760   8.942  1.00  0.00     0.029 A 
ATOM     35  C   UNL     1       9.210  -4.483   8.959  1.00  0.00     0.049 A 
ATOM     36  H   UNL     1       7.938  -3.560   7.549  1.00  0.00     0.167 HD
ATOM     37  C   UNL     1       8.825  -2.219   9.901  1.00  0.00     0.074 A 
ATOM     38  C   UNL     1       9.003  -1.199  10.914  1.00  0.00     0.031 C 
ATOM     39  C   UNL     1       9.380  -3.455   9.956  1.00  0.00     0.037 A 
BRANCH  26  40
ATOM     40  C   UNL     1       8.039  -7.086   5.124  1.00  0.00     0.058 A 
ATOM     41  C   UNL     1       8.788  -7.211   3.943  1.00  0.00     0.135 A 
ATOM     42  C   UNL     1       7.518  -8.261   5.691  1.00  0.00     0.135 A 
ATOM     43  F   UNL     1       9.299  -6.121   3.347  1.00  0.00    -0.206 F 
ATOM     44  C   UNL     1       8.998  -8.447   3.338  1.00  0.00     0.059 A 
ATOM     45  C   UNL     1       7.738  -9.512   5.119  1.00  0.00     0.059 A 
ATOM     46  F   UNL     1       6.795  -8.203   6.821  1.00  0.00    -0.206 F 
ATOM     47  C   UNL     1       8.471  -9.593   3.937  1.00  0.00     0.060 A 
BRANCH  47  48
ATOM     48  S   UNL     1       8.771 -11.190   3.149  1.00  0.00     0.124 S 
ATOM     49  O   UNL     1       7.934 -11.089   1.957  1.00  0.00    -0.237 OA
ATOM     50  O   UNL     1      10.211 -11.156   2.915  1.00  0.00    -0.237 OA
ATOM     51  O   UNL     1       8.324 -12.154   4.149  1.00  0.00    -0.744 OA
ENDBRANCH  47  48
ENDBRANCH  26  40
BRANCH  27  52
ATOM     52  C   UNL     1       6.609   1.898   9.322  1.00  0.00     0.058 A 
ATOM     53  C   UNL     1       7.643   2.829   9.497  1.00  0.00     0.135 A 
ATOM     54  C   UNL     1       5.327   2.255   9.770  1.00  0.00     0.135 A 
ATOM     55  F   UNL     1       8.886   2.537   9.085  1.00  0.00    -0.206 F 
ATOM     56  C   UNL     1       7.423   4.053  10.122  1.00  0.00     0.059 A 
ATOM     57  C   UNL     1       5.074   3.486  10.363  1.00  0.00     0.059 A 
ATOM     58  F   UNL     1       4.296   1.411   9.606  1.00  0.00    -0.206 F 
ATOM     59  C   UNL     1       6.133   4.371  10.553  1.00  0.00     0.060 A 
BRANCH  59  60
ATOM     60  S   UNL     1       5.851   5.967  11.347  1.00  0.00     0.124 S 
ATOM     61  O   UNL     1       6.469   5.757  12.650  1.00  0.00    -0.237 OA
ATOM     62  O   UNL     1       6.547   6.883  10.449  1.00  0.00    -0.237 OA
ATOM     63  O   UNL     1       4.396   6.088  11.349  1.00  0.00    -0.744 OA
ENDBRANCH  59  60
ENDBRANCH  27  52
BRANCH  39  64
ATOM     64  C   UNL     1      10.262  -3.753  11.137  1.00  0.00     0.058 A 
ATOM     65  C   UNL     1       9.740  -3.913  12.430  1.00  0.00     0.135 A 
ATOM     66  C   UNL     1      11.649  -3.894  10.968  1.00  0.00     0.135 A 
ATOM     67  F   UNL     1       8.422  -3.778  12.648  1.00  0.00    -0.206 F 
ATOM     68  C   UNL     1      10.565  -4.166  13.520  1.00  0.00     0.059 A 
ATOM     69  C   UNL     1      12.489  -4.180  12.038  1.00  0.00     0.059 A 
ATOM     70  F   UNL     1      12.200  -3.760   9.751  1.00  0.00    -0.206 F 
ATOM     71  C   UNL     1      11.940  -4.297  13.314  1.00  0.00     0.060 A 
BRANCH  71  72
ATOM     72  S   UNL     1      12.998  -4.639  14.735  1.00  0.00     0.124 S 
ATOM     73  O   UNL     1      12.997  -3.350  15.419  1.00  0.00    -0.237 OA
ATOM     74  O   UNL     1      12.277  -5.715  15.409  1.00  0.00    -0.237 OA
ATOM     75  O   UNL     1      14.268  -5.027  14.128  1.00  0.00    -0.744 OA
ENDBRANCH  71  72
ENDBRANCH  39  64
ENDBRANCH  13  14
ENDBRANCH   6   8
ENDBRANCH   3   4
ENDBRANCH   2   3
ENDBRANCH   1   2
BRANCH   1  76
ATOM     76  N   UNL     1       5.080   1.561  -4.206  1.00  0.00    -0.356 N 
ATOM     77  C   UNL     1       5.930   1.530  -5.267  1.00  0.00     0.227 C 
ATOM     78  H   UNL     1       5.155   2.372  -3.652  1.00  0.00     0.163 HD
ATOM     79  O   UNL     1       6.644   2.529  -5.419  1.00  0.00    -0.274 OA
BRANCH  77  80
ATOM     80  C   UNL     1       6.051   0.346  -6.246  1.00  0.00     0.108 C 
BRANCH  80  81
ATOM     81  C   UNL     1       7.039  -0.746  -5.740  1.00  0.00     0.018 C 
BRANCH  81  82
ATOM     82  C   UNL     1       6.702  -1.651  -4.546  1.00  0.00     0.004 C 
BRANCH  82  83
ATOM     83  C   UNL     1       5.462  -2.551  -4.610  1.00  0.00     0.028 C 
BRANCH  83  84
ATOM     84  C   UNL     1       5.671  -3.867  -5.351  1.00  0.00     0.156 C 
BRANCH  84  85
ATOM     85  O   UNL     1       6.343  -4.808  -4.529  1.00  0.00    -0.396 OA
ATOM     86  H   UNL     1       7.213  -4.458  -4.282  1.00  0.00     0.210 HD
ENDBRANCH  84  85
ENDBRANCH  83  84
ENDBRANCH  82  83
ENDBRANCH  81  82
ENDBRANCH  80  81
BRANCH  80  87
ATOM     87  C   UNL     1       4.777  -0.094  -6.964  1.00  0.00    -0.034 A 
ATOM     88  C   UNL     1       3.653   0.745  -7.063  1.00  0.00     0.004 A 
ATOM     89  C   UNL     1       4.718  -1.332  -7.626  1.00  0.00     0.025 A 
ATOM     90  C   UNL     1       2.474   0.305  -7.673  1.00  0.00     0.002 A 
ATOM     91  C   UNL     1       3.537  -1.778  -8.218  1.00  0.00     0.041 A 
ATOM     92  C   UNL     1       2.407  -0.970  -8.228  1.00  0.00     0.020 A 
ATOM     93  Cl  UNL     1       3.480  -3.348  -8.919  1.00  0.00    -0.084 Cl
ENDBRANCH  80  87
ENDBRANCH  77  80
ENDBRANCH   1  76
TORSDOF 19
