REMARK SMILES O=C(C[C@H]1C[N@@H+](CCSc2ccccc2F)CCO1)NCCCNC(=O)c1ccc(-c2c3nc(c(-c4c(F)cc(S(=O)(=O)[O-])cc4F)c4ccc([nH]4)c(-c4c(F)cc(S(=O)(=O)[O-])cc4F)c4nc(c(-c5c(F)cc(S(=O)(=O)[O-])cc5F)c5ccc2[nH]5)C=C4)C=C3)cc1
REMARK SMILES IDX 21 1 20 2 1 3 2 4 3 6 4 7 5 8 19 9 6 10 18 11 17 12 7 14
REMARK SMILES IDX 8 15 9 16 10 17 11 18 15 19 12 20 14 21 16 22 13 23 22 24
REMARK SMILES IDX 23 25 24 26 25 27 26 29 27 30 28 31 92 32 29 33 91 34 30 35
REMARK SMILES IDX 31 36 32 37 85 38 33 39 90 40 84 41 86 42 34 43 89 44 83 45
REMARK SMILES IDX 82 46 35 48 69 49 48 50 68 51 49 52 52 53 67 54 87 55 50 56
REMARK SMILES IDX 51 57 66 59 88 60 53 61 36 62 37 63 46 64 38 65 39 66 45 67
REMARK SMILES IDX 47 68 40 69 41 70 42 71 43 72 44 73 70 74 71 75 80 76 72 77
REMARK SMILES IDX 73 78 79 79 81 80 74 81 75 82 76 83 77 84 78 85 54 86 55 87
REMARK SMILES IDX 64 88 56 89 57 90 63 91 65 92 58 93 59 94 60 95 61 96 62 97
REMARK H PARENT 20 5 6 13 24 28 86 47 52 58
REMARK Flexibility Score: inf
ROOT
ATOM      1  C   UNL     1       4.037   1.762  -3.041  1.00  0.00     0.117 C 
ENDROOT
BRANCH   1   2
ATOM      2  N   UNL     1       3.282   0.767  -2.308  1.00  0.00    -0.356 N 
ATOM      3  O   UNL     1       2.620  -0.451  -4.135  1.00  0.00    -0.275 OA
ATOM      4  C   UNL     1       2.631  -0.277  -2.921  1.00  0.00     0.222 C 
ATOM      5  H   UNL     1       3.233   0.842  -1.328  1.00  0.00     0.163 HD
BRANCH   4   6
ATOM      6  C   UNL     1       1.873  -1.175  -1.975  1.00  0.00     0.138 C 
BRANCH   6   7
ATOM      7  C   UNL     1       2.697  -2.057  -1.037  1.00  0.00     0.182 C 
ATOM      8  C   UNL     1       3.167  -3.405  -1.647  1.00  0.00     0.295 C 
ATOM      9  O   UNL     1       3.690  -1.338  -0.287  1.00  0.00    -0.366 OA
ATOM     10  N   UNL     1       4.541  -3.466  -2.150  1.00  0.00    -0.330 N 
ATOM     11  C   UNL     1       5.021  -1.458  -0.801  1.00  0.00     0.222 C 
ATOM     12  C   UNL     1       5.404  -2.898  -1.134  1.00  0.00     0.291 C 
ATOM     13  H   UNL     1       4.806  -4.443  -2.277  1.00  0.00     0.348 HD
BRANCH  10  14
ATOM     14  C   UNL     1       4.767  -3.079  -3.552  1.00  0.00     0.273 C 
BRANCH  14  15
ATOM     15  C   UNL     1       5.649  -1.885  -4.052  1.00  0.00     0.136 C 
BRANCH  15  16
ATOM     16  S   UNL     1       7.507  -1.951  -4.017  1.00  0.00    -0.117 SA
BRANCH  16  17
ATOM     17  C   UNL     1       7.991  -1.284  -2.422  1.00  0.00     0.043 A 
ATOM     18  C   UNL     1       7.787   0.049  -2.043  1.00  0.00     0.018 A 
ATOM     19  C   UNL     1       8.594  -2.145  -1.490  1.00  0.00     0.136 A 
ATOM     20  C   UNL     1       8.066   0.463  -0.728  1.00  0.00     0.001 A 
ATOM     21  C   UNL     1       8.823  -1.754  -0.171  1.00  0.00     0.040 A 
ATOM     22  F   UNL     1       8.842  -3.425  -1.812  1.00  0.00    -0.206 F 
ATOM     23  C   UNL     1       8.544  -0.449   0.217  1.00  0.00     0.003 A 
ENDBRANCH  16  17
ENDBRANCH  15  16
ENDBRANCH  14  15
ENDBRANCH  10  14
ENDBRANCH   6   7
ENDBRANCH   4   6
ENDBRANCH   1   2
BRANCH   1  24
ATOM     24  C   UNL     1       3.202   2.979  -3.413  1.00  0.00     0.042 C 
BRANCH  24  25
ATOM     25  C   UNL     1       2.636   3.736  -2.218  1.00  0.00     0.118 C 
BRANCH  25  26
ATOM     26  N   UNL     1       3.659   4.348  -1.384  1.00  0.00    -0.352 N 
ATOM     27  C   UNL     1       3.699   5.601  -0.817  1.00  0.00     0.251 C 
ATOM     28  H   UNL     1       4.441   3.780  -1.198  1.00  0.00     0.163 HD
ATOM     29  O   UNL     1       4.718   5.963  -0.243  1.00  0.00    -0.269 OA
BRANCH  27  30
ATOM     30  C   UNL     1       2.534   6.515  -0.918  1.00  0.00     0.039 A 
ATOM     31  C   UNL     1       2.770   7.878  -1.122  1.00  0.00     0.014 A 
ATOM     32  C   UNL     1       1.222   6.053  -0.788  1.00  0.00     0.014 A 
ATOM     33  C   UNL     1       1.694   8.762  -1.236  1.00  0.00     0.010 A 
ATOM     34  C   UNL     1       0.149   6.920  -0.992  1.00  0.00     0.010 A 
ATOM     35  C   UNL     1       0.371   8.289  -1.197  1.00  0.00    -0.014 A 
BRANCH  35  36
ATOM     36  C   UNL     1      -0.779   9.222  -1.334  1.00  0.00     0.031 A 
ATOM     37  C   UNL     1      -1.754   9.399  -0.198  1.00  0.00     0.074 A 
ATOM     38  C   UNL     1      -0.956   9.902  -2.485  1.00  0.00     0.049 A 
ATOM     39  N   UNL     1      -2.805  10.175  -0.126  1.00  0.00    -0.248 NA
ATOM     40  C   UNL     1      -1.534   8.581   1.007  1.00  0.00     0.031 C 
ATOM     41  C   UNL     1      -0.110   9.781  -3.675  1.00  0.00     0.029 A 
ATOM     42  N   UNL     1      -1.897  10.836  -2.842  1.00  0.00    -0.354 N 
ATOM     43  C   UNL     1      -3.368   9.939   1.123  1.00  0.00     0.074 A 
ATOM     44  C   UNL     1      -2.585   8.897   1.749  1.00  0.00     0.031 C 
ATOM     45  C   UNL     1      -0.541  10.642  -4.611  1.00  0.00     0.029 A 
ATOM     46  C   UNL     1      -1.714  11.350  -4.105  1.00  0.00     0.049 A 
ATOM     47  H   UNL     1      -2.633  11.112  -2.250  1.00  0.00     0.167 HD
ATOM     48  C   UNL     1      -4.418  10.559   1.712  1.00  0.00     0.037 A 
ATOM     49  C   UNL     1      -2.405  12.293  -4.777  1.00  0.00     0.037 A 
ATOM     50  C   UNL     1      -5.181  11.612   1.093  1.00  0.00     0.049 A 
ATOM     51  C   UNL     1      -3.569  12.967  -4.103  1.00  0.00     0.074 A 
ATOM     52  C   UNL     1      -6.243  12.327   1.619  1.00  0.00     0.029 A 
ATOM     53  N   UNL     1      -4.961  12.106  -0.185  1.00  0.00    -0.354 N 
ATOM     54  N   UNL     1      -4.059  12.762  -2.903  1.00  0.00    -0.248 NA
ATOM     55  C   UNL     1      -4.265  14.012  -4.866  1.00  0.00     0.031 C 
ATOM     56  C   UNL     1      -6.696  13.219   0.642  1.00  0.00     0.029 A 
ATOM     57  C   UNL     1      -5.875  13.107  -0.468  1.00  0.00     0.049 A 
ATOM     58  H   UNL     1      -4.259  11.791  -0.799  1.00  0.00     0.167 HD
ATOM     59  C   UNL     1      -5.096  13.677  -2.754  1.00  0.00     0.074 A 
ATOM     60  C   UNL     1      -5.157  14.441  -3.983  1.00  0.00     0.031 C 
ATOM     61  C   UNL     1      -5.919  13.870  -1.692  1.00  0.00     0.037 A 
BRANCH  48  62
ATOM     62  C   UNL     1      -4.796  10.133   3.106  1.00  0.00     0.058 A 
ATOM     63  C   UNL     1      -6.020   9.492   3.353  1.00  0.00     0.135 A 
ATOM     64  C   UNL     1      -3.973  10.414   4.210  1.00  0.00     0.135 A 
ATOM     65  F   UNL     1      -6.844   9.191   2.337  1.00  0.00    -0.206 F 
ATOM     66  C   UNL     1      -6.422   9.161   4.643  1.00  0.00     0.059 A 
ATOM     67  C   UNL     1      -4.341  10.064   5.506  1.00  0.00     0.059 A 
ATOM     68  F   UNL     1      -2.781  11.005   4.031  1.00  0.00    -0.206 F 
ATOM     69  C   UNL     1      -5.575   9.451   5.714  1.00  0.00     0.060 A 
BRANCH  69  70
ATOM     70  S   UNL     1      -6.101   8.989   7.378  1.00  0.00     0.124 S 
ATOM     71  O   UNL     1      -7.212   9.904   7.608  1.00  0.00    -0.237 OA
ATOM     72  O   UNL     1      -6.457   7.583   7.205  1.00  0.00    -0.237 OA
ATOM     73  O   UNL     1      -4.909   9.227   8.188  1.00  0.00    -0.744 OA
ENDBRANCH  69  70
ENDBRANCH  48  62
BRANCH  49  74
ATOM     74  C   UNL     1      -1.973  12.690  -6.145  1.00  0.00     0.058 A 
ATOM     75  C   UNL     1      -2.094  11.811  -7.233  1.00  0.00     0.135 A 
ATOM     76  C   UNL     1      -1.396  13.947  -6.384  1.00  0.00     0.135 A 
ATOM     77  F   UNL     1      -2.627  10.592  -7.058  1.00  0.00    -0.206 F 
ATOM     78  C   UNL     1      -1.637  12.154  -8.501  1.00  0.00     0.059 A 
ATOM     79  C   UNL     1      -0.958  14.325  -7.651  1.00  0.00     0.059 A 
ATOM     80  F   UNL     1      -1.268  14.827  -5.379  1.00  0.00    -0.206 F 
ATOM     81  C   UNL     1      -1.068  13.413  -8.700  1.00  0.00     0.060 A 
BRANCH  81  82
ATOM     82  S   UNL     1      -0.470  13.830 -10.351  1.00  0.00     0.124 S 
ATOM     83  O   UNL     1       0.664  12.922 -10.489  1.00  0.00    -0.237 OA
ATOM     84  O   UNL     1      -1.631  13.527 -11.181  1.00  0.00    -0.237 OA
ATOM     85  O   UNL     1      -0.131  15.245 -10.241  1.00  0.00    -0.744 OA
ENDBRANCH  81  82
ENDBRANCH  49  74
BRANCH  61  86
ATOM     86  C   UNL     1      -6.928  14.983  -1.782  1.00  0.00     0.058 A 
ATOM     87  C   UNL     1      -6.801  16.117  -0.962  1.00  0.00     0.135 A 
ATOM     88  C   UNL     1      -8.045  14.911  -2.629  1.00  0.00     0.135 A 
ATOM     89  F   UNL     1      -5.759  16.234  -0.124  1.00  0.00    -0.206 F 
ATOM     90  C   UNL     1      -7.747  17.135  -0.975  1.00  0.00     0.059 A 
ATOM     91  C   UNL     1      -8.987  15.935  -2.683  1.00  0.00     0.059 A 
ATOM     92  F   UNL     1      -8.212  13.852  -3.437  1.00  0.00    -0.206 F 
ATOM     93  C   UNL     1      -8.835  17.038  -1.843  1.00  0.00     0.060 A 
BRANCH  93  94
ATOM     94  S   UNL     1     -10.026  18.393  -1.880  1.00  0.00     0.124 S 
ATOM     95  O   UNL     1     -10.704  18.233  -0.598  1.00  0.00    -0.237 OA
ATOM     96  O   UNL     1      -9.160  19.562  -1.999  1.00  0.00    -0.237 OA
ATOM     97  O   UNL     1     -10.836  18.100  -3.060  1.00  0.00    -0.744 OA
ENDBRANCH  93  94
ENDBRANCH  61  86
ENDBRANCH  35  36
ENDBRANCH  27  30
ENDBRANCH  25  26
ENDBRANCH  24  25
ENDBRANCH   1  24
TORSDOF 18
