REMARK SMILES Cc1cc(NC(=O)Nc2sc(C)c(C)c2C(=O)NCCCNC(=O)c2ccc(-c3c4nc(c(-c5c(F)cc(S(=O)(=O)[O-])cc5F)c5ccc([nH]5)c(-c5c(F)cc(S(=O)(=O)[O-])cc5F)c5nc(c(-c6c(F)cc(S(=O)(=O)[O-])cc6F)c6ccc3[nH]6)C=C5)C=C4)cc2)ccn1
REMARK SMILES IDX 20 1 19 2 18 3 16 4 17 5 15 7 9 8 10 9 11 10 13 11 12 12
REMARK SMILES IDX 14 13 8 14 5 15 6 16 7 18 4 20 1 21 2 22 3 23 93 24 92 25
REMARK SMILES IDX 91 26 21 27 22 28 23 29 24 31 25 32 26 33 90 34 27 35 89 36
REMARK SMILES IDX 28 37 29 38 30 39 83 40 31 41 88 42 82 43 84 44 32 45 87 46
REMARK SMILES IDX 81 47 80 48 33 50 67 51 46 52 66 53 47 54 50 55 65 56 85 57
REMARK SMILES IDX 48 58 49 59 64 61 86 62 51 63 34 64 35 65 44 66 36 67 37 68
REMARK SMILES IDX 43 69 45 70 38 71 39 72 40 73 41 74 42 75 68 76 69 77 78 78
REMARK SMILES IDX 70 79 71 80 77 81 79 82 72 83 73 84 74 85 75 86 76 87 52 88
REMARK SMILES IDX 53 89 62 90 54 91 55 92 61 93 63 94 56 95 57 96 58 97 59 98
REMARK SMILES IDX 60 99
REMARK H PARENT 18 6 5 17 8 19 22 30 84 49 50 60
REMARK Flexibility Score: inf
ROOT
ATOM      1  C   UNL     1      -5.270  -2.096   2.555  1.00  0.00     0.042 C 
ENDROOT
BRANCH   1   2
ATOM      2  C   UNL     1      -5.192  -1.097   1.422  1.00  0.00     0.118 C 
BRANCH   2   3
ATOM      3  N   UNL     1      -5.415   0.292   1.737  1.00  0.00    -0.352 N 
ATOM      4  C   UNL     1      -4.925   1.451   1.174  1.00  0.00     0.254 C 
ATOM      5  O   UNL     1      -5.396   2.486   1.657  1.00  0.00    -0.269 OA
ATOM      6  H   UNL     1      -6.030   0.441   2.491  1.00  0.00     0.163 HD
BRANCH   4   7
ATOM      7  C   UNL     1      -3.875   1.526   0.126  1.00  0.00     0.077 A 
ATOM      8  C   UNL     1      -3.453   0.582  -0.802  1.00  0.00     0.110 A 
ATOM      9  S   UNL     1      -2.326   1.173  -1.931  1.00  0.00    -0.122 S 
ATOM     10  C   UNL     1      -2.047   2.567  -1.006  1.00  0.00     0.007 A 
ATOM     11  C   UNL     1      -2.965   2.691   0.028  1.00  0.00    -0.022 A 
ATOM     12  C   UNL     1      -0.901   3.451  -1.371  1.00  0.00     0.057 C 
ATOM     13  C   UNL     1      -2.967   3.839   0.997  1.00  0.00     0.046 C 
BRANCH   8  14
ATOM     14  N   UNL     1      -3.862  -0.696  -1.063  1.00  0.00    -0.298 N 
ATOM     15  N   UNL     1      -1.843  -1.941  -0.613  1.00  0.00    -0.308 N 
ATOM     16  C   UNL     1      -3.128  -1.838  -1.029  1.00  0.00     0.324 C 
ATOM     17  H   UNL     1      -1.442  -2.801  -0.875  1.00  0.00     0.171 HD
ATOM     18  O   UNL     1      -3.689  -2.877  -1.398  1.00  0.00    -0.248 OA
ATOM     19  H   UNL     1      -4.810  -0.802  -1.307  1.00  0.00     0.172 HD
BRANCH  15  20
ATOM     20  C   UNL     1      -0.932  -1.134   0.098  1.00  0.00     0.046 A 
ATOM     21  C   UNL     1       2.783  -0.464  -0.101  1.00  0.00     0.067 C 
ATOM     22  C   UNL     1       1.349  -0.405   0.330  1.00  0.00     0.039 A 
ATOM     23  C   UNL     1       0.416  -1.273  -0.232  1.00  0.00     0.049 A 
ATOM     24  N   UNL     1       1.010   0.559   1.215  1.00  0.00    -0.261 NA
ATOM     25  C   UNL     1      -0.282   0.608   1.595  1.00  0.00     0.113 A 
ATOM     26  C   UNL     1      -1.267  -0.233   1.097  1.00  0.00     0.046 A 
ENDBRANCH  15  20
ENDBRANCH   8  14
ENDBRANCH   4   7
ENDBRANCH   2   3
ENDBRANCH   1   2
BRANCH   1  27
ATOM     27  C   UNL     1      -6.583  -2.171   3.300  1.00  0.00     0.118 C 
BRANCH  27  28
ATOM     28  N   UNL     1      -7.710  -2.587   2.479  1.00  0.00    -0.352 N 
ATOM     29  C   UNL     1      -8.455  -3.744   2.464  1.00  0.00     0.251 C 
ATOM     30  H   UNL     1      -7.990  -1.919   1.812  1.00  0.00     0.163 HD
ATOM     31  O   UNL     1      -9.304  -3.881   1.583  1.00  0.00    -0.269 OA
BRANCH  29  32
ATOM     32  C   UNL     1      -8.241  -4.831   3.452  1.00  0.00     0.039 A 
ATOM     33  C   UNL     1      -8.433  -6.157   3.048  1.00  0.00     0.014 A 
ATOM     34  C   UNL     1      -7.884  -4.573   4.774  1.00  0.00     0.014 A 
ATOM     35  C   UNL     1      -8.201  -7.203   3.947  1.00  0.00     0.010 A 
ATOM     36  C   UNL     1      -7.510  -5.613   5.620  1.00  0.00     0.010 A 
ATOM     37  C   UNL     1      -7.694  -6.944   5.231  1.00  0.00    -0.014 A 
BRANCH  37  38
ATOM     38  C   UNL     1      -7.394  -8.046   6.184  1.00  0.00     0.031 A 
ATOM     39  C   UNL     1      -8.087  -8.110   7.524  1.00  0.00     0.074 A 
ATOM     40  C   UNL     1      -6.470  -8.974   5.861  1.00  0.00     0.049 A 
ATOM     41  N   UNL     1      -7.966  -8.999   8.476  1.00  0.00    -0.248 NA
ATOM     42  C   UNL     1      -9.012  -7.012   7.854  1.00  0.00     0.031 C 
ATOM     43  C   UNL     1      -5.677  -8.984   4.629  1.00  0.00     0.029 A 
ATOM     44  N   UNL     1      -6.048 -10.094   6.533  1.00  0.00    -0.354 N 
ATOM     45  C   UNL     1      -8.787  -8.564   9.511  1.00  0.00     0.074 A 
ATOM     46  C   UNL     1      -9.334  -7.290   9.107  1.00  0.00     0.031 C 
ATOM     47  C   UNL     1      -4.910 -10.085   4.606  1.00  0.00     0.029 A 
ATOM     48  C   UNL     1      -5.125 -10.839   5.837  1.00  0.00     0.049 A 
ATOM     49  H   UNL     1      -6.374 -10.340   7.428  1.00  0.00     0.167 HD
ATOM     50  C   UNL     1      -9.091  -9.184  10.677  1.00  0.00     0.037 A 
ATOM     51  C   UNL     1      -4.528 -12.007   6.148  1.00  0.00     0.037 A 
ATOM     52  C   UNL     1      -8.558 -10.464  11.064  1.00  0.00     0.049 A 
ATOM     53  C   UNL     1      -4.888 -12.686   7.441  1.00  0.00     0.074 A 
ATOM     54  C   UNL     1      -8.835 -11.206  12.198  1.00  0.00     0.029 A 
ATOM     55  N   UNL     1      -7.636 -11.193  10.325  1.00  0.00    -0.354 N 
ATOM     56  N   UNL     1      -5.720 -12.293   8.377  1.00  0.00    -0.248 NA
ATOM     57  C   UNL     1      -4.239 -13.975   7.715  1.00  0.00     0.031 C 
ATOM     58  C   UNL     1      -8.044 -12.359  12.170  1.00  0.00     0.029 A 
ATOM     59  C   UNL     1      -7.320 -12.367  10.988  1.00  0.00     0.049 A 
ATOM     60  H   UNL     1      -7.262 -10.915   9.458  1.00  0.00     0.167 HD
ATOM     61  C   UNL     1      -5.722 -13.303   9.333  1.00  0.00     0.074 A 
ATOM     62  C   UNL     1      -4.814 -14.327   8.857  1.00  0.00     0.031 C 
ATOM     63  C   UNL     1      -6.417 -13.379  10.496  1.00  0.00     0.037 A 
BRANCH  50  64
ATOM     64  C   UNL     1     -10.047  -8.483  11.609  1.00  0.00     0.058 A 
ATOM     65  C   UNL     1     -11.399  -8.290  11.273  1.00  0.00     0.135 A 
ATOM     66  C   UNL     1      -9.613  -8.004  12.855  1.00  0.00     0.135 A 
ATOM     67  F   UNL     1     -11.870  -8.713  10.089  1.00  0.00    -0.206 F 
ATOM     68  C   UNL     1     -12.270  -7.606  12.116  1.00  0.00     0.059 A 
ATOM     69  C   UNL     1     -10.476  -7.348  13.730  1.00  0.00     0.059 A 
ATOM     70  F   UNL     1      -8.335  -8.161  13.232  1.00  0.00    -0.206 F 
ATOM     71  C   UNL     1     -11.798  -7.136  13.341  1.00  0.00     0.060 A 
BRANCH  71  72
ATOM     72  S   UNL     1     -12.937  -6.236  14.415  1.00  0.00     0.124 S 
ATOM     73  O   UNL     1     -13.071  -4.970  13.699  1.00  0.00    -0.237 OA
ATOM     74  O   UNL     1     -14.116  -7.095  14.409  1.00  0.00    -0.237 OA
ATOM     75  O   UNL     1     -12.222  -6.165  15.685  1.00  0.00    -0.744 OA
ENDBRANCH  71  72
ENDBRANCH  50  64
BRANCH  51  76
ATOM     76  C   UNL     1      -3.577 -12.631   5.188  1.00  0.00     0.058 A 
ATOM     77  C   UNL     1      -3.921 -13.797   4.488  1.00  0.00     0.135 A 
ATOM     78  C   UNL     1      -2.323 -12.059   4.925  1.00  0.00     0.135 A 
ATOM     79  F   UNL     1      -5.107 -14.386   4.707  1.00  0.00    -0.206 F 
ATOM     80  C   UNL     1      -3.054 -14.381   3.570  1.00  0.00     0.059 A 
ATOM     81  C   UNL     1      -1.450 -12.608   3.991  1.00  0.00     0.059 A 
ATOM     82  F   UNL     1      -1.953 -10.932   5.554  1.00  0.00    -0.206 F 
ATOM     83  C   UNL     1      -1.821 -13.774   3.324  1.00  0.00     0.060 A 
BRANCH  83  84
ATOM     84  S   UNL     1      -0.729 -14.505   2.085  1.00  0.00     0.124 S 
ATOM     85  O   UNL     1      -0.281 -15.715   2.765  1.00  0.00    -0.237 OA
ATOM     86  O   UNL     1      -1.635 -14.704   0.958  1.00  0.00    -0.237 OA
ATOM     87  O   UNL     1       0.290 -13.478   1.888  1.00  0.00    -0.744 OA
ENDBRANCH  83  84
ENDBRANCH  51  76
BRANCH  63  88
ATOM     88  C   UNL     1      -6.260 -14.633  11.313  1.00  0.00     0.058 A 
ATOM     89  C   UNL     1      -5.072 -14.933  11.997  1.00  0.00     0.135 A 
ATOM     90  C   UNL     1      -7.333 -15.530  11.440  1.00  0.00     0.135 A 
ATOM     91  F   UNL     1      -4.014 -14.111  11.908  1.00  0.00    -0.206 F 
ATOM     92  C   UNL     1      -4.939 -16.099  12.745  1.00  0.00     0.059 A 
ATOM     93  C   UNL     1      -7.235 -16.684  12.210  1.00  0.00     0.059 A 
ATOM     94  F   UNL     1      -8.498 -15.285  10.819  1.00  0.00    -0.206 F 
ATOM     95  C   UNL     1      -6.027 -16.969  12.845  1.00  0.00     0.060 A 
BRANCH  95  96
ATOM     96  S   UNL     1      -5.846 -18.471  13.828  1.00  0.00     0.124 S 
ATOM     97  O   UNL     1      -4.992 -19.284  12.969  1.00  0.00    -0.237 OA
ATOM     98  O   UNL     1      -5.224 -17.971  15.050  1.00  0.00    -0.237 OA
ATOM     99  O   UNL     1      -7.218 -18.946  13.980  1.00  0.00    -0.744 OA
ENDBRANCH  95  96
ENDBRANCH  63  88
ENDBRANCH  37  38
ENDBRANCH  29  32
ENDBRANCH  27  28
ENDBRANCH   1  27
TORSDOF 15
