REMARK SMILES COc1ccc(CC(=O)Nc2ccc(N3CC[NH+](C)CC3)cc2C(=O)NCCCNC(=O)c2ccc(-c3c4nc(c(-c5c(F)cc(S(=O)(=O)[O-])cc5F)c5ccc([nH]5)c(-c5c(F)cc(S(=O)(=O)[O-])cc5F)c5nc(c(-c6c(F)cc(S(=O)(=O)[O-])cc6F)c6ccc3[nH]6)C=C5)C=C4)cc2)cc1
REMARK SMILES IDX 27 1 26 2 24 3 25 4 23 6 11 7 12 8 13 9 22 10 14 11 10 12
REMARK SMILES IDX 8 13 9 14 7 16 6 17 3 18 4 19 100 20 5 21 99 22 2 23 1 24
REMARK SMILES IDX 15 25 16 26 21 27 17 28 20 29 18 30 19 31 28 33 29 34 30 35
REMARK SMILES IDX 31 36 32 38 33 39 34 40 98 41 35 42 97 43 36 44 37 45 38 46
REMARK SMILES IDX 91 47 39 48 96 49 90 50 92 51 40 52 95 53 89 54 88 55 41 57
REMARK SMILES IDX 75 58 54 59 74 60 55 61 58 62 73 63 93 64 56 65 57 66 72 68
REMARK SMILES IDX 94 69 59 70 42 71 43 72 52 73 44 74 45 75 51 76 53 77 46 78
REMARK SMILES IDX 47 79 48 80 49 81 50 82 76 83 77 84 86 85 78 86 79 87 85 88
REMARK SMILES IDX 87 89 80 90 81 91 82 92 83 93 84 94 60 95 61 96 70 97 62 98
REMARK SMILES IDX 63 99 69 100 71 101 64 102 65 103 66 104 67 105 68 106
REMARK H PARENT 26 5 10 15 18 32 30 37 92 56 58 67
REMARK Flexibility Score: inf
ROOT
ATOM      1  C   UNL     1       0.373  -7.712  -0.040  1.00  0.00     0.118 C 
ENDROOT
BRANCH   1   2
ATOM      2  N   UNL     1       0.384  -6.324   0.384  1.00  0.00    -0.352 N 
ATOM      3  C   UNL     1       1.374  -5.401   0.586  1.00  0.00     0.253 C 
ATOM      4  O   UNL     1       1.007  -4.354   1.129  1.00  0.00    -0.269 OA
ATOM      5  H   UNL     1      -0.516  -5.969   0.565  1.00  0.00     0.163 HD
BRANCH   3   6
ATOM      6  C   UNL     1       2.834  -5.604   0.319  1.00  0.00     0.065 A 
ATOM      7  C   UNL     1       3.446  -6.559  -0.495  1.00  0.00     0.054 A 
ATOM      8  C   UNL     1       4.786  -6.871  -0.258  1.00  0.00     0.029 A 
ATOM      9  C   UNL     1       5.575  -6.045   0.545  1.00  0.00     0.028 A 
ATOM     10  C   UNL     1       3.679  -4.740   1.069  1.00  0.00     0.042 A 
ATOM     11  C   UNL     1       5.070  -4.877   1.123  1.00  0.00     0.038 A 
BRANCH   7  12
ATOM     12  N   UNL     1       2.872  -7.267  -1.557  1.00  0.00    -0.325 N 
ATOM     13  C   UNL     1       2.216  -6.829  -2.678  1.00  0.00     0.228 C 
ATOM     14  O   UNL     1       1.626  -7.683  -3.352  1.00  0.00    -0.274 OA
ATOM     15  H   UNL     1       2.952  -8.245  -1.487  1.00  0.00     0.169 HD
BRANCH  13  16
ATOM     16  C   UNL     1       2.386  -5.430  -3.231  1.00  0.00     0.135 C 
BRANCH  16  17
ATOM     17  C   UNL     1       1.808  -4.264  -2.484  1.00  0.00    -0.038 A 
ATOM     18  C   UNL     1       0.787  -2.001  -1.151  1.00  0.00     0.118 A 
ATOM     19  C   UNL     1      -0.072  -2.997  -1.623  1.00  0.00     0.047 A 
ATOM     20  C   UNL     1       2.159  -2.137  -1.350  1.00  0.00     0.047 A 
ATOM     21  C   UNL     1       0.429  -4.118  -2.296  1.00  0.00     0.008 A 
ATOM     22  C   UNL     1       2.663  -3.255  -2.019  1.00  0.00     0.008 A 
BRANCH  18  23
ATOM     23  O   UNL     1       0.176  -0.968  -0.495  1.00  0.00    -0.497 OA
ATOM     24  C   UNL     1       0.961   0.195  -0.272  1.00  0.00     0.278 C 
ENDBRANCH  18  23
ENDBRANCH  16  17
ENDBRANCH  13  16
ENDBRANCH   7  12
BRANCH  11  25
ATOM     25  N   UNL     1       5.902  -3.917   1.661  1.00  0.00    -0.360 N 
ATOM     26  C   UNL     1       5.514  -2.975   2.727  1.00  0.00     0.178 C 
ATOM     27  C   UNL     1       7.320  -3.834   1.269  1.00  0.00     0.178 C 
ATOM     28  C   UNL     1       5.994  -1.535   2.403  1.00  0.00     0.283 C 
ATOM     29  C   UNL     1       7.725  -2.375   0.966  1.00  0.00     0.283 C 
ATOM     30  N   UNL     1       7.439  -1.458   2.086  1.00  0.00    -0.334 N 
ATOM     31  C   UNL     1       7.830  -0.094   1.739  1.00  0.00     0.332 C 
ATOM     32  H   UNL     1       7.979  -1.732   2.907  1.00  0.00     0.347 HD
ENDBRANCH  11  25
ENDBRANCH   3   6
ENDBRANCH   1   2
BRANCH   1  33
ATOM     33  C   UNL     1      -1.022  -8.316  -0.010  1.00  0.00     0.042 C 
BRANCH  33  34
ATOM     34  C   UNL     1      -1.942  -7.652  -1.036  1.00  0.00     0.118 C 
BRANCH  34  35
ATOM     35  N   UNL     1      -1.797  -8.181  -2.390  1.00  0.00    -0.352 N 
ATOM     36  C   UNL     1      -2.558  -9.100  -3.083  1.00  0.00     0.251 C 
ATOM     37  H   UNL     1      -1.028  -7.824  -2.890  1.00  0.00     0.163 HD
ATOM     38  O   UNL     1      -2.215  -9.475  -4.194  1.00  0.00    -0.269 OA
BRANCH  36  39
ATOM     39  C   UNL     1      -3.764  -9.686  -2.453  1.00  0.00     0.039 A 
ATOM     40  C   UNL     1      -3.949 -11.070  -2.508  1.00  0.00     0.014 A 
ATOM     41  C   UNL     1      -4.689  -8.888  -1.784  1.00  0.00     0.014 A 
ATOM     42  C   UNL     1      -4.997 -11.657  -1.792  1.00  0.00     0.010 A 
ATOM     43  C   UNL     1      -5.649  -9.481  -0.973  1.00  0.00     0.010 A 
ATOM     44  C   UNL     1      -5.818 -10.873  -0.965  1.00  0.00    -0.014 A 
BRANCH  44  45
ATOM     45  C   UNL     1      -6.866 -11.473  -0.095  1.00  0.00     0.031 A 
ATOM     46  C   UNL     1      -8.298 -11.021  -0.230  1.00  0.00     0.074 A 
ATOM     47  C   UNL     1      -6.524 -12.348   0.873  1.00  0.00     0.049 A 
ATOM     48  N   UNL     1      -9.327 -11.290   0.531  1.00  0.00    -0.248 NA
ATOM     49  C   UNL     1      -8.603 -10.105  -1.343  1.00  0.00     0.031 C 
ATOM     50  C   UNL     1      -5.165 -12.822   1.153  1.00  0.00     0.029 A 
ATOM     51  N   UNL     1      -7.293 -12.991   1.811  1.00  0.00    -0.354 N 
ATOM     52  C   UNL     1     -10.383 -10.546   0.017  1.00  0.00     0.074 A 
ATOM     53  C   UNL     1      -9.857  -9.770  -1.085  1.00  0.00     0.031 C 
ATOM     54  C   UNL     1      -5.205 -13.708   2.163  1.00  0.00     0.029 A 
ATOM     55  C   UNL     1      -6.580 -13.834   2.632  1.00  0.00     0.049 A 
ATOM     56  H   UNL     1      -8.266 -12.861   1.888  1.00  0.00     0.167 HD
ATOM     57  C   UNL     1     -11.682 -10.532   0.402  1.00  0.00     0.037 A 
ATOM     58  C   UNL     1      -6.989 -14.618   3.647  1.00  0.00     0.037 A 
ATOM     59  C   UNL     1     -12.216 -11.359   1.451  1.00  0.00     0.049 A 
ATOM     60  C   UNL     1      -8.448 -14.635   4.015  1.00  0.00     0.074 A 
ATOM     61  C   UNL     1     -13.525 -11.460   1.888  1.00  0.00     0.029 A 
ATOM     62  N   UNL     1     -11.470 -12.250   2.208  1.00  0.00    -0.354 N 
ATOM     63  N   UNL     1      -9.435 -13.941   3.501  1.00  0.00    -0.248 NA
ATOM     64  C   UNL     1      -8.851 -15.546   5.096  1.00  0.00     0.031 C 
ATOM     65  C   UNL     1     -13.569 -12.407   2.918  1.00  0.00     0.029 A 
ATOM     66  C   UNL     1     -12.293 -12.915   3.101  1.00  0.00     0.049 A 
ATOM     67  H   UNL     1     -10.499 -12.389   2.124  1.00  0.00     0.167 HD
ATOM     68  C   UNL     1     -10.579 -14.355   4.173  1.00  0.00     0.074 A 
ATOM     69  C   UNL     1     -10.164 -15.365   5.125  1.00  0.00     0.031 C 
ATOM     70  C   UNL     1     -11.860 -13.937   4.019  1.00  0.00     0.037 A 
BRANCH  57  71
ATOM     71  C   UNL     1     -12.615  -9.615  -0.339  1.00  0.00     0.058 A 
ATOM     72  C   UNL     1     -12.989  -9.871  -1.669  1.00  0.00     0.135 A 
ATOM     73  C   UNL     1     -13.151  -8.477   0.284  1.00  0.00     0.135 A 
ATOM     74  F   UNL     1     -12.492 -10.935  -2.318  1.00  0.00    -0.206 F 
ATOM     75  C   UNL     1     -13.831  -9.011  -2.366  1.00  0.00     0.059 A 
ATOM     76  C   UNL     1     -14.018  -7.618  -0.386  1.00  0.00     0.059 A 
ATOM     77  F   UNL     1     -12.828  -8.185   1.554  1.00  0.00    -0.206 F 
ATOM     78  C   UNL     1     -14.338  -7.885  -1.717  1.00  0.00     0.060 A 
BRANCH  78  79
ATOM     79  S   UNL     1     -15.427  -6.777  -2.636  1.00  0.00     0.124 S 
ATOM     80  O   UNL     1     -14.471  -6.058  -3.473  1.00  0.00    -0.237 OA
ATOM     81  O   UNL     1     -16.305  -7.709  -3.337  1.00  0.00    -0.237 OA
ATOM     82  O   UNL     1     -16.066  -5.986  -1.590  1.00  0.00    -0.744 OA
ENDBRANCH  78  79
ENDBRANCH  57  71
BRANCH  58  83
ATOM     83  C   UNL     1      -6.018 -15.489   4.362  1.00  0.00     0.058 A 
ATOM     84  C   UNL     1      -6.036 -16.880   4.176  1.00  0.00     0.135 A 
ATOM     85  C   UNL     1      -5.065 -14.960   5.245  1.00  0.00     0.135 A 
ATOM     86  F   UNL     1      -6.932 -17.433   3.345  1.00  0.00    -0.206 F 
ATOM     87  C   UNL     1      -5.163 -17.719   4.859  1.00  0.00     0.059 A 
ATOM     88  C   UNL     1      -4.165 -15.777   5.923  1.00  0.00     0.059 A 
ATOM     89  F   UNL     1      -4.992 -13.634   5.441  1.00  0.00    -0.206 F 
ATOM     90  C   UNL     1      -4.232 -17.158   5.734  1.00  0.00     0.060 A 
BRANCH  90  91
ATOM     91  S   UNL     1      -3.082 -18.252   6.597  1.00  0.00     0.124 S 
ATOM     92  O   UNL     1      -3.935 -18.811   7.639  1.00  0.00    -0.237 OA
ATOM     93  O   UNL     1      -2.678 -19.174   5.539  1.00  0.00    -0.237 OA
ATOM     94  O   UNL     1      -2.036 -17.342   7.055  1.00  0.00    -0.744 OA
ENDBRANCH  90  91
ENDBRANCH  58  83
BRANCH  70  95
ATOM     95  C   UNL     1     -12.908 -14.608   4.856  1.00  0.00     0.058 A 
ATOM     96  C   UNL     1     -13.059 -14.318   6.220  1.00  0.00     0.135 A 
ATOM     97  C   UNL     1     -13.803 -15.519   4.272  1.00  0.00     0.135 A 
ATOM     98  F   UNL     1     -12.224 -13.458   6.824  1.00  0.00    -0.206 F 
ATOM     99  C   UNL     1     -14.051 -14.925   6.984  1.00  0.00     0.059 A 
ATOM    100  C   UNL     1     -14.816 -16.120   5.011  1.00  0.00     0.059 A 
ATOM    101  F   UNL     1     -13.704 -15.822   2.968  1.00  0.00    -0.206 F 
ATOM    102  C   UNL     1     -14.924 -15.825   6.370  1.00  0.00     0.060 A 
BRANCH 102 103
ATOM    103  S   UNL     1     -16.229 -16.583   7.361  1.00  0.00     0.124 S 
ATOM    104  O   UNL     1     -15.487 -17.605   8.090  1.00  0.00    -0.237 OA
ATOM    105  O   UNL     1     -16.711 -15.459   8.159  1.00  0.00    -0.237 OA
ATOM    106  O   UNL     1     -17.168 -17.080   6.360  1.00  0.00    -0.744 OA
ENDBRANCH 102 103
ENDBRANCH  70  95
ENDBRANCH  44  45
ENDBRANCH  36  39
ENDBRANCH  34  35
ENDBRANCH  33  34
ENDBRANCH   1  33
TORSDOF 18
