REMARK SMILES CC1(C)[C@H](C(=O)NCCCNC(=O)c2ccc(-c3c4nc(c(-c5c(F)cc(S(=O)(=O)[O-])cc5F)c5ccc([nH]5)c(-c5c(F)cc(S(=O)(=O)[O-])cc5F)c5nc(c(-c6c(F)cc(S(=O)(=O)[O-])cc6F)c6ccc3[nH]6)C=C5)C=C4)cc2)[C@@H]1C(=O)Nc1ccc(Cl)c(Br)c1
REMARK SMILES IDX 9 1 8 2 7 3 5 4 6 5 4 7 1 8 2 9 3 10 80 11 81 12 82 13 83 14
REMARK SMILES IDX 84 16 85 17 91 18 86 19 89 20 87 21 90 22 88 23 10 24 11 25
REMARK SMILES IDX 12 26 13 28 14 29 15 30 79 31 16 32 78 33 17 34 18 35 19 36
REMARK SMILES IDX 72 37 20 38 77 39 71 40 73 41 21 42 76 43 70 44 69 45 22 47
REMARK SMILES IDX 56 48 35 49 55 50 36 51 39 52 54 53 74 54 37 55 38 56 53 58
REMARK SMILES IDX 75 59 40 60 23 61 24 62 33 63 25 64 26 65 32 66 34 67 27 68
REMARK SMILES IDX 28 69 29 70 30 71 31 72 57 73 58 74 67 75 59 76 60 77 66 78
REMARK SMILES IDX 68 79 61 80 62 81 63 82 64 83 65 84 41 85 42 86 51 87 43 88
REMARK SMILES IDX 44 89 50 90 52 91 45 92 46 93 47 94 48 95 49 96
REMARK H PARENT 7 6 83 15 11 27 73 46 39 57
REMARK Flexibility Score: inf
ROOT
ATOM      1  C   UNL     1       0.075   4.170  -0.732  1.00  0.00     0.042 C 
ENDROOT
BRANCH   1   2
ATOM      2  C   UNL     1      -0.947   3.098  -0.401  1.00  0.00     0.117 C 
BRANCH   2   3
ATOM      3  N   UNL     1      -1.196   2.221  -1.525  1.00  0.00    -0.356 N 
ATOM      4  C   UNL     1      -1.175   0.875  -1.726  1.00  0.00     0.224 C 
ATOM      5  O   UNL     1      -1.467   0.510  -2.867  1.00  0.00    -0.275 OA
ATOM      6  H   UNL     1      -1.439   2.717  -2.340  1.00  0.00     0.163 HD
BRANCH   4   7
ATOM      7  C   UNL     1      -0.892  -0.200  -0.742  1.00  0.00     0.098 C 
ATOM      8  C   UNL     1       1.002  -1.636   0.203  1.00  0.00     0.013 C 
ATOM      9  C   UNL     1       0.282  -0.302   0.212  1.00  0.00    -0.011 C 
ATOM     10  C   UNL     1       1.241   0.850   0.377  1.00  0.00     0.013 C 
ATOM     11  C   UNL     1      -1.177  -0.286   0.728  1.00  0.00     0.098 C 
BRANCH  11  12
ATOM     12  C   UNL     1      -1.783   0.771   1.568  1.00  0.00     0.228 C 
ATOM     13  O   UNL     1      -1.205   1.135   2.589  1.00  0.00    -0.274 OA
ATOM     14  N   UNL     1      -2.981   1.363   1.224  1.00  0.00    -0.326 N 
ATOM     15  H   UNL     1      -3.273   2.087   1.824  1.00  0.00     0.169 HD
BRANCH  14  16
ATOM     16  C   UNL     1      -3.850   1.095   0.154  1.00  0.00     0.042 A 
ATOM     17  C   UNL     1      -4.498   2.185  -0.436  1.00  0.00     0.028 A 
ATOM     18  C   UNL     1      -4.051  -0.182  -0.366  1.00  0.00     0.043 A 
ATOM     19  C   UNL     1      -5.222   2.016  -1.619  1.00  0.00     0.024 A 
ATOM     20  C   UNL     1      -4.798  -0.359  -1.537  1.00  0.00     0.038 A 
ATOM     21  C   UNL     1      -5.359   0.745  -2.184  1.00  0.00     0.055 A 
ATOM     22  Br  UNL     1      -4.984  -2.135  -2.187  1.00  0.00    -0.049 Br
ATOM     23  Cl  UNL     1      -6.231   0.619  -3.668  1.00  0.00    -0.083 Cl
ENDBRANCH  14  16
ENDBRANCH  11  12
ENDBRANCH   4   7
ENDBRANCH   2   3
ENDBRANCH   1   2
BRANCH   1  24
ATOM     24  C   UNL     1      -0.477   5.228  -1.673  1.00  0.00     0.118 C 
BRANCH  24  25
ATOM     25  N   UNL     1      -1.475   6.077  -1.030  1.00  0.00    -0.352 N 
ATOM     26  C   UNL     1      -1.406   7.414  -0.714  1.00  0.00     0.251 C 
ATOM     27  H   UNL     1      -2.318   5.630  -0.788  1.00  0.00     0.163 HD
ATOM     28  O   UNL     1      -2.255   7.916   0.016  1.00  0.00    -0.269 OA
BRANCH  26  29
ATOM     29  C   UNL     1      -0.291   8.224  -1.245  1.00  0.00     0.039 A 
ATOM     30  C   UNL     1       0.401   9.088  -0.395  1.00  0.00     0.014 A 
ATOM     31  C   UNL     1       0.091   8.092  -2.581  1.00  0.00     0.014 A 
ATOM     32  C   UNL     1       1.531   9.759  -0.870  1.00  0.00     0.010 A 
ATOM     33  C   UNL     1       1.272   8.674  -3.019  1.00  0.00     0.010 A 
ATOM     34  C   UNL     1       2.000   9.523  -2.172  1.00  0.00    -0.014 A 
BRANCH  34  35
ATOM     35  C   UNL     1       3.228  10.170  -2.698  1.00  0.00     0.031 A 
ATOM     36  C   UNL     1       3.131  11.059  -3.910  1.00  0.00     0.074 A 
ATOM     37  C   UNL     1       4.428   9.892  -2.150  1.00  0.00     0.049 A 
ATOM     38  N   UNL     1       4.088  11.596  -4.621  1.00  0.00    -0.248 NA
ATOM     39  C   UNL     1       1.777  11.349  -4.414  1.00  0.00     0.031 C 
ATOM     40  C   UNL     1       4.656   9.007  -1.004  1.00  0.00     0.029 A 
ATOM     41  N   UNL     1       5.687  10.315  -2.493  1.00  0.00    -0.354 N 
ATOM     42  C   UNL     1       3.455  12.262  -5.664  1.00  0.00     0.074 A 
ATOM     43  C   UNL     1       2.037  12.012  -5.530  1.00  0.00     0.031 C 
ATOM     44  C   UNL     1       5.970   8.973  -0.727  1.00  0.00     0.029 A 
ATOM     45  C   UNL     1       6.682   9.797  -1.697  1.00  0.00     0.049 A 
ATOM     46  H   UNL     1       5.862  10.931  -3.241  1.00  0.00     0.167 HD
ATOM     47  C   UNL     1       4.002  13.039  -6.628  1.00  0.00     0.037 A 
ATOM     48  C   UNL     1       8.018   9.964  -1.752  1.00  0.00     0.037 A 
ATOM     49  C   UNL     1       5.407  13.325  -6.724  1.00  0.00     0.049 A 
ATOM     50  C   UNL     1       8.600  10.847  -2.823  1.00  0.00     0.074 A 
ATOM     51  C   UNL     1       6.061  14.136  -7.635  1.00  0.00     0.029 A 
ATOM     52  N   UNL     1       6.375  12.821  -5.868  1.00  0.00    -0.354 N 
ATOM     53  N   UNL     1       7.982  11.499  -3.779  1.00  0.00    -0.248 NA
ATOM     54  C   UNL     1      10.059  11.022  -2.823  1.00  0.00     0.031 C 
ATOM     55  C   UNL     1       7.428  14.104  -7.344  1.00  0.00     0.029 A 
ATOM     56  C   UNL     1       7.621  13.303  -6.229  1.00  0.00     0.049 A 
ATOM     57  H   UNL     1       6.202  12.210  -5.116  1.00  0.00     0.167 HD
ATOM     58  C   UNL     1       8.972  12.188  -4.470  1.00  0.00     0.074 A 
ATOM     59  C   UNL     1      10.228  11.879  -3.820  1.00  0.00     0.031 C 
ATOM     60  C   UNL     1       8.854  13.004  -5.547  1.00  0.00     0.037 A 
BRANCH  47  61
ATOM     61  C   UNL     1       3.073  13.659  -7.635  1.00  0.00     0.058 A 
ATOM     62  C   UNL     1       2.196  14.696  -7.279  1.00  0.00     0.135 A 
ATOM     63  C   UNL     1       3.084  13.241  -8.975  1.00  0.00     0.135 A 
ATOM     64  F   UNL     1       2.130  15.120  -6.007  1.00  0.00    -0.206 F 
ATOM     65  C   UNL     1       1.347  15.281  -8.211  1.00  0.00     0.059 A 
ATOM     66  C   UNL     1       2.262  13.831  -9.930  1.00  0.00     0.059 A 
ATOM     67  F   UNL     1       3.901  12.250  -9.367  1.00  0.00    -0.206 F 
ATOM     68  C   UNL     1       1.388  14.843  -9.535  1.00  0.00     0.060 A 
BRANCH  68  69
ATOM     69  S   UNL     1       0.292  15.629 -10.735  1.00  0.00     0.124 S 
ATOM     70  O   UNL     1      -0.999  15.058 -10.366  1.00  0.00    -0.237 OA
ATOM     71  O   UNL     1       0.467  17.047 -10.437  1.00  0.00    -0.237 OA
ATOM     72  O   UNL     1       0.827  15.191 -12.021  1.00  0.00    -0.744 OA
ENDBRANCH  68  69
ENDBRANCH  47  61
BRANCH  48  73
ATOM     73  C   UNL     1       8.901   9.304  -0.752  1.00  0.00     0.058 A 
ATOM     74  C   UNL     1       9.569  10.059   0.224  1.00  0.00     0.135 A 
ATOM     75  C   UNL     1       9.109   7.917  -0.760  1.00  0.00     0.135 A 
ATOM     76  F   UNL     1       9.405  11.390   0.270  1.00  0.00    -0.206 F 
ATOM     77  C   UNL     1      10.438   9.468   1.136  1.00  0.00     0.059 A 
ATOM     78  C   UNL     1       9.954   7.299   0.158  1.00  0.00     0.059 A 
ATOM     79  F   UNL     1       8.478   7.146  -1.660  1.00  0.00    -0.206 F 
ATOM     80  C   UNL     1      10.627   8.086   1.091  1.00  0.00     0.060 A 
BRANCH  80  81
ATOM     81  S   UNL     1      11.744   7.324   2.289  1.00  0.00     0.124 S 
ATOM     82  O   UNL     1      13.047   7.693   1.748  1.00  0.00    -0.237 OA
ATOM     83  O   UNL     1      11.359   7.984   3.533  1.00  0.00    -0.237 OA
ATOM     84  O   UNL     1      11.404   5.907   2.208  1.00  0.00    -0.744 OA
ENDBRANCH  80  81
ENDBRANCH  48  73
BRANCH  60  85
ATOM     85  C   UNL     1      10.102  13.665  -6.056  1.00  0.00     0.058 A 
ATOM     86  C   UNL     1      11.064  12.956  -6.790  1.00  0.00     0.135 A 
ATOM     87  C   UNL     1      10.300  15.042  -5.865  1.00  0.00     0.135 A 
ATOM     88  F   UNL     1      10.922  11.636  -6.993  1.00  0.00    -0.206 F 
ATOM     89  C   UNL     1      12.191  13.587  -7.305  1.00  0.00     0.059 A 
ATOM     90  C   UNL     1      11.406  15.698  -6.393  1.00  0.00     0.059 A 
ATOM     91  F   UNL     1       9.401  15.765  -5.179  1.00  0.00    -0.206 F 
ATOM     92  C   UNL     1      12.351  14.960  -7.104  1.00  0.00     0.060 A 
BRANCH  92  93
ATOM     93  S   UNL     1      13.792  15.777  -7.820  1.00  0.00     0.124 S 
ATOM     94  O   UNL     1      14.853  15.348  -6.915  1.00  0.00    -0.237 OA
ATOM     95  O   UNL     1      13.838  15.211  -9.165  1.00  0.00    -0.237 OA
ATOM     96  O   UNL     1      13.446  17.194  -7.756  1.00  0.00    -0.744 OA
ENDBRANCH  92  93
ENDBRANCH  60  85
ENDBRANCH  34  35
ENDBRANCH  26  29
ENDBRANCH  24  25
ENDBRANCH   1  24
TORSDOF 15
