REMARK SMILES C[N@H+](Cc1ccc2nsnc2c1)Cc1ccccc1C(=O)NCCCNC(=O)c1ccc(-c2c3nc(c(-c4c(F)cc(S(=O)(=O)[O-])cc4F)c4ccc([nH]4)c(-c4c(F)cc(S(=O)(=O)[O-])cc4F)c4nc(c(-c5c(F)cc(S(=O)(=O)[O-])cc5F)c5ccc2[nH]5)C=C4)C=C3)cc1
REMARK SMILES IDX 23 1 22 2 20 3 21 4 19 6 14 7 15 8 16 9 18 10 17 11 13 12
REMARK SMILES IDX 2 13 1 14 3 16 4 17 5 18 12 19 6 20 11 21 7 22 10 23 8 24
REMARK SMILES IDX 9 25 24 26 25 27 26 28 27 29 28 31 29 32 30 33 94 34 31 35
REMARK SMILES IDX 93 36 32 37 33 38 34 39 87 40 35 41 92 42 86 43 88 44 36 45
REMARK SMILES IDX 91 46 85 47 84 48 37 50 71 51 50 52 70 53 51 54 54 55 69 56
REMARK SMILES IDX 89 57 52 58 53 59 68 61 90 62 55 63 38 64 39 65 48 66 40 67
REMARK SMILES IDX 41 68 47 69 49 70 42 71 43 72 44 73 45 74 46 75 72 76 73 77
REMARK SMILES IDX 82 78 74 79 75 80 81 81 83 82 76 83 77 84 78 85 79 86 80 87
REMARK SMILES IDX 56 88 57 89 66 90 58 91 59 92 65 93 67 94 60 95 61 96 62 97
REMARK SMILES IDX 63 98 64 99
REMARK H PARENT 22 5 2 15 26 30 88 49 54 60
REMARK Flexibility Score: inf
ROOT
ATOM      1  C   UNL     1       2.056  -1.247   3.575  1.00  0.00     0.118 C 
ENDROOT
BRANCH   1   2
ATOM      2  N   UNL     1       2.865  -2.412   3.421  1.00  0.00    -0.352 N 
ATOM      3  C   UNL     1       2.745  -3.452   2.532  1.00  0.00     0.251 C 
ATOM      4  O   UNL     1       3.605  -4.333   2.659  1.00  0.00    -0.269 OA
ATOM      5  H   UNL     1       3.624  -2.481   4.045  1.00  0.00     0.163 HD
BRANCH   3   6
ATOM      6  C   UNL     1       1.675  -3.654   1.468  1.00  0.00     0.048 A 
ATOM      7  C   UNL     1       0.979  -2.732   0.632  1.00  0.00     0.019 A 
ATOM      8  C   UNL     1       0.242  -3.256  -0.460  1.00  0.00     0.010 A 
ATOM      9  C   UNL     1       0.074  -4.620  -0.677  1.00  0.00     0.001 A 
ATOM     10  C   UNL     1       1.464  -5.040   1.226  1.00  0.00     0.014 A 
ATOM     11  C   UNL     1       0.665  -5.518   0.187  1.00  0.00     0.001 A 
BRANCH   7  12
ATOM     12  C   UNL     1       0.934  -1.226   0.818  1.00  0.00     0.299 C 
BRANCH  12  13
ATOM     13  N   UNL     1       0.007  -0.442  -0.017  1.00  0.00    -0.330 N 
ATOM     14  C   UNL     1       0.643   0.537  -0.873  1.00  0.00     0.333 C 
ATOM     15  H   UNL     1      -0.349  -1.126  -0.685  1.00  0.00     0.348 HD
BRANCH  13  16
ATOM     16  C   UNL     1      -1.231  -0.005   0.653  1.00  0.00     0.299 C 
BRANCH  16  17
ATOM     17  C   UNL     1      -2.279  -1.085   0.426  1.00  0.00     0.009 A 
ATOM     18  C   UNL     1      -2.455  -2.117   1.393  1.00  0.00     0.012 A 
ATOM     19  C   UNL     1      -2.843  -1.153  -0.871  1.00  0.00     0.041 A 
ATOM     20  C   UNL     1      -3.097  -3.337   1.107  1.00  0.00     0.032 A 
ATOM     21  C   UNL     1      -3.437  -2.382  -1.223  1.00  0.00     0.105 A 
ATOM     22  C   UNL     1      -3.550  -3.502  -0.223  1.00  0.00     0.104 A 
ATOM     23  N   UNL     1      -3.895  -2.707  -2.442  1.00  0.00    -0.173 NA
ATOM     24  N   UNL     1      -4.075  -4.621  -0.747  1.00  0.00    -0.173 NA
ATOM     25  S   UNL     1      -4.382  -4.290  -2.346  1.00  0.00     0.069 S 
ENDBRANCH  16  17
ENDBRANCH  13  16
ENDBRANCH  12  13
ENDBRANCH   7  12
ENDBRANCH   3   6
ENDBRANCH   1   2
BRANCH   1  26
ATOM     26  C   UNL     1       1.992  -0.568   4.918  1.00  0.00     0.042 C 
BRANCH  26  27
ATOM     27  C   UNL     1       3.282   0.013   5.451  1.00  0.00     0.118 C 
BRANCH  27  28
ATOM     28  N   UNL     1       3.862   1.086   4.653  1.00  0.00    -0.352 N 
ATOM     29  C   UNL     1       4.067   2.429   4.927  1.00  0.00     0.251 C 
ATOM     30  H   UNL     1       4.161   0.806   3.758  1.00  0.00     0.163 HD
ATOM     31  O   UNL     1       4.537   3.147   4.064  1.00  0.00    -0.269 OA
BRANCH  29  32
ATOM     32  C   UNL     1       3.666   3.005   6.238  1.00  0.00     0.039 A 
ATOM     33  C   UNL     1       3.125   4.294   6.282  1.00  0.00     0.014 A 
ATOM     34  C   UNL     1       3.788   2.280   7.419  1.00  0.00     0.014 A 
ATOM     35  C   UNL     1       2.612   4.792   7.485  1.00  0.00     0.010 A 
ATOM     36  C   UNL     1       3.126   2.700   8.564  1.00  0.00     0.010 A 
ATOM     37  C   UNL     1       2.551   3.974   8.625  1.00  0.00    -0.014 A 
BRANCH  37  38
ATOM     38  C   UNL     1       1.937   4.434   9.899  1.00  0.00     0.031 A 
ATOM     39  C   UNL     1       2.745   4.418  11.175  1.00  0.00     0.074 A 
ATOM     40  C   UNL     1       0.637   4.795   9.928  1.00  0.00     0.049 A 
ATOM     41  N   UNL     1       2.373   4.714  12.394  1.00  0.00    -0.248 NA
ATOM     42  C   UNL     1       4.144   3.964  11.077  1.00  0.00     0.031 C 
ATOM     43  C   UNL     1      -0.277   4.772   8.782  1.00  0.00     0.029 A 
ATOM     44  N   UNL     1      -0.144   5.252  10.960  1.00  0.00    -0.354 N 
ATOM     45  C   UNL     1       3.478   4.457  13.200  1.00  0.00     0.074 A 
ATOM     46  C   UNL     1       4.503   3.901  12.349  1.00  0.00     0.031 C 
ATOM     47  C   UNL     1      -1.476   5.241   9.164  1.00  0.00     0.029 A 
ATOM     48  C   UNL     1      -1.431   5.561  10.586  1.00  0.00     0.049 A 
ATOM     49  H   UNL     1       0.186   5.348  11.882  1.00  0.00     0.167 HD
ATOM     50  C   UNL     1       3.643   4.700  14.522  1.00  0.00     0.037 A 
ATOM     51  C   UNL     1      -2.456   6.056  11.307  1.00  0.00     0.037 A 
ATOM     52  C   UNL     1       2.637   5.303  15.353  1.00  0.00     0.049 A 
ATOM     53  C   UNL     1      -2.236   6.364  12.763  1.00  0.00     0.074 A 
ATOM     54  C   UNL     1       2.721   5.662  16.686  1.00  0.00     0.029 A 
ATOM     55  N   UNL     1       1.362   5.645  14.926  1.00  0.00    -0.354 N 
ATOM     56  N   UNL     1      -1.160   6.181  13.492  1.00  0.00    -0.248 NA
ATOM     57  C   UNL     1      -3.364   6.959  13.492  1.00  0.00     0.031 C 
ATOM     58  C   UNL     1       1.483   6.185  17.076  1.00  0.00     0.029 A 
ATOM     59  C   UNL     1       0.645   6.199  15.972  1.00  0.00     0.049 A 
ATOM     60  H   UNL     1       1.018   5.513  14.012  1.00  0.00     0.167 HD
ATOM     61  C   UNL     1      -1.473   6.662  14.759  1.00  0.00     0.074 A 
ATOM     62  C   UNL     1      -2.832   7.161  14.689  1.00  0.00     0.031 C 
ATOM     63  C   UNL     1      -0.708   6.688  15.879  1.00  0.00     0.037 A 
BRANCH  50  64
ATOM     64  C   UNL     1       4.969   4.335  15.137  1.00  0.00     0.058 A 
ATOM     65  C   UNL     1       6.151   5.018  14.804  1.00  0.00     0.135 A 
ATOM     66  C   UNL     1       5.059   3.298  16.080  1.00  0.00     0.135 A 
ATOM     67  F   UNL     1       6.129   6.005  13.894  1.00  0.00    -0.206 F 
ATOM     68  C   UNL     1       7.378   4.663  15.354  1.00  0.00     0.059 A 
ATOM     69  C   UNL     1       6.272   2.948  16.668  1.00  0.00     0.059 A 
ATOM     70  F   UNL     1       3.963   2.609  16.434  1.00  0.00    -0.206 F 
ATOM     71  C   UNL     1       7.428   3.625  16.285  1.00  0.00     0.060 A 
BRANCH  71  72
ATOM     72  S   UNL     1       9.029   3.180  16.991  1.00  0.00     0.124 S 
ATOM     73  O   UNL     1       9.666   2.506  15.864  1.00  0.00    -0.237 OA
ATOM     74  O   UNL     1       9.585   4.481  17.348  1.00  0.00    -0.237 OA
ATOM     75  O   UNL     1       8.676   2.321  18.118  1.00  0.00    -0.744 OA
ENDBRANCH  71  72
ENDBRANCH  50  64
BRANCH  51  76
ATOM     76  C   UNL     1      -3.762   6.339  10.652  1.00  0.00     0.058 A 
ATOM     77  C   UNL     1      -4.192   7.658  10.440  1.00  0.00     0.135 A 
ATOM     78  C   UNL     1      -4.598   5.302  10.209  1.00  0.00     0.135 A 
ATOM     79  F   UNL     1      -3.431   8.684  10.848  1.00  0.00    -0.206 F 
ATOM     80  C   UNL     1      -5.410   7.940   9.830  1.00  0.00     0.059 A 
ATOM     81  C   UNL     1      -5.809   5.559   9.573  1.00  0.00     0.059 A 
ATOM     82  F   UNL     1      -4.224   4.023  10.368  1.00  0.00    -0.206 F 
ATOM     83  C   UNL     1      -6.211   6.883   9.397  1.00  0.00     0.060 A 
BRANCH  83  84
ATOM     84  S   UNL     1      -7.766   7.260   8.559  1.00  0.00     0.124 S 
ATOM     85  O   UNL     1      -8.594   7.718   9.668  1.00  0.00    -0.237 OA
ATOM     86  O   UNL     1      -7.357   8.283   7.601  1.00  0.00    -0.237 OA
ATOM     87  O   UNL     1      -8.148   5.980   7.970  1.00  0.00    -0.744 OA
ENDBRANCH  83  84
ENDBRANCH  51  76
BRANCH  63  88
ATOM     88  C   UNL     1      -1.315   7.306  17.108  1.00  0.00     0.058 A 
ATOM     89  C   UNL     1      -2.346   6.673  17.820  1.00  0.00     0.135 A 
ATOM     90  C   UNL     1      -0.844   8.538  17.589  1.00  0.00     0.135 A 
ATOM     91  F   UNL     1      -2.834   5.495  17.400  1.00  0.00    -0.206 F 
ATOM     92  C   UNL     1      -2.919   7.262  18.942  1.00  0.00     0.059 A 
ATOM     93  C   UNL     1      -1.381   9.130  18.727  1.00  0.00     0.059 A 
ATOM     94  F   UNL     1       0.152   9.177  16.955  1.00  0.00    -0.206 F 
ATOM     95  C   UNL     1      -2.433   8.493  19.385  1.00  0.00     0.060 A 
BRANCH  95  96
ATOM     96  S   UNL     1      -3.186   9.249  20.840  1.00  0.00     0.124 S 
ATOM     97  O   UNL     1      -4.450   9.735  20.295  1.00  0.00    -0.237 OA
ATOM     98  O   UNL     1      -3.285   8.123  21.763  1.00  0.00    -0.237 OA
ATOM     99  O   UNL     1      -2.227  10.282  21.221  1.00  0.00    -0.744 OA
ENDBRANCH  95  96
ENDBRANCH  63  88
ENDBRANCH  37  38
ENDBRANCH  29  32
ENDBRANCH  27  28
ENDBRANCH  26  27
ENDBRANCH   1  26
TORSDOF 17
