REMARK SMILES O=C(NCCCNC(=O)[C@H]1[C@H]2CC[C@H](CC2)[C@H]1C(=O)Nc1ccc(C(=O)N2CCCC2)cc1)c1ccc(-c2c3nc(c(-c4c(F)cc(S(=O)(=O)[O-])cc4F)c4ccc([nH]4)c(-c4c(F)cc(S(=O)(=O)[O-])cc4F)c4nc(c(-c5c(F)cc(S(=O)(=O)[O-])cc5F)c5ccc2[nH]5)C=C4)C=C3)cc1
REMARK SMILES IDX 5 1 4 2 3 3 1 4 2 5 34 7 35 8 99 9 36 10 98 11 37 12 38 13
REMARK SMILES IDX 39 14 92 15 40 16 97 17 91 18 93 19 41 20 96 21 90 22 89 23
REMARK SMILES IDX 42 25 76 26 55 27 75 28 56 29 59 30 74 31 94 32 57 33 58 34
REMARK SMILES IDX 73 36 95 37 60 38 43 39 44 40 53 41 45 42 46 43 52 44 54 45
REMARK SMILES IDX 47 46 48 47 49 48 50 49 51 50 77 51 78 52 87 53 79 54 80 55
REMARK SMILES IDX 86 56 88 57 81 58 82 59 83 60 84 61 85 62 61 63 62 64 71 65
REMARK SMILES IDX 63 66 64 67 70 68 72 69 65 70 66 71 67 72 68 73 69 74 6 75
REMARK SMILES IDX 7 76 8 77 9 79 10 80 11 81 17 82 16 83 12 84 14 85 15 86
REMARK SMILES IDX 13 87 18 88 19 89 20 90 21 92 22 93 33 94 23 95 32 96 24 97
REMARK SMILES IDX 25 98 26 99 27 100 28 101 31 102 29 103 30 104
REMARK H PARENT 3 6 93 24 59 35 7 78 20 91
REMARK Flexibility Score: inf
ROOT
ATOM      1  C   UNL     1       4.811  -2.413   0.512  1.00  0.00     0.042 C 
ENDROOT
BRANCH   1   2
ATOM      2  C   UNL     1       4.445  -1.163  -0.277  1.00  0.00     0.118 C 
BRANCH   2   3
ATOM      3  N   UNL     1       3.014  -0.975  -0.459  1.00  0.00    -0.352 N 
ATOM      4  O   UNL     1       1.004   0.008  -0.164  1.00  0.00    -0.269 OA
ATOM      5  C   UNL     1       2.217   0.066  -0.023  1.00  0.00     0.251 C 
ATOM      6  H   UNL     1       2.551  -1.685  -0.959  1.00  0.00     0.163 HD
BRANCH   5   7
ATOM      7  C   UNL     1       2.847   1.221   0.660  1.00  0.00     0.039 A 
ATOM      8  C   UNL     1       3.982   1.829   0.120  1.00  0.00     0.014 A 
ATOM      9  C   UNL     1       2.343   1.647   1.890  1.00  0.00     0.014 A 
ATOM     10  C   UNL     1       4.731   2.700   0.903  1.00  0.00     0.010 A 
ATOM     11  C   UNL     1       3.041   2.610   2.628  1.00  0.00     0.010 A 
ATOM     12  C   UNL     1       4.274   3.100   2.171  1.00  0.00    -0.014 A 
BRANCH  12  13
ATOM     13  C   UNL     1       5.103   4.033   2.984  1.00  0.00     0.031 A 
ATOM     14  C   UNL     1       5.653   3.623   4.328  1.00  0.00     0.074 A 
ATOM     15  C   UNL     1       5.403   5.247   2.480  1.00  0.00     0.049 A 
ATOM     16  N   UNL     1       6.412   4.304   5.150  1.00  0.00    -0.248 NA
ATOM     17  C   UNL     1       5.299   2.282   4.820  1.00  0.00     0.031 C 
ATOM     18  C   UNL     1       4.928   5.765   1.194  1.00  0.00     0.029 A 
ATOM     19  N   UNL     1       6.198   6.253   2.967  1.00  0.00    -0.354 N 
ATOM     20  C   UNL     1       6.595   3.495   6.267  1.00  0.00     0.074 A 
ATOM     21  C   UNL     1       5.854   2.276   6.025  1.00  0.00     0.031 C 
ATOM     22  C   UNL     1       5.490   6.960   0.965  1.00  0.00     0.029 A 
ATOM     23  C   UNL     1       6.309   7.326   2.115  1.00  0.00     0.049 A 
ATOM     24  H   UNL     1       6.645   6.211   3.843  1.00  0.00     0.167 HD
ATOM     25  C   UNL     1       7.317   3.743   7.388  1.00  0.00     0.037 A 
ATOM     26  C   UNL     1       6.985   8.483   2.243  1.00  0.00     0.037 A 
ATOM     27  C   UNL     1       8.085   4.943   7.608  1.00  0.00     0.049 A 
ATOM     28  C   UNL     1       7.787   8.727   3.488  1.00  0.00     0.074 A 
ATOM     29  C   UNL     1       8.882   5.269   8.693  1.00  0.00     0.029 A 
ATOM     30  N   UNL     1       8.155   6.013   6.728  1.00  0.00    -0.354 N 
ATOM     31  N   UNL     1       7.958   7.941   4.524  1.00  0.00    -0.248 NA
ATOM     32  C   UNL     1       8.484  10.016   3.584  1.00  0.00     0.031 C 
ATOM     33  C   UNL     1       9.403   6.551   8.486  1.00  0.00     0.029 A 
ATOM     34  C   UNL     1       8.969   7.006   7.252  1.00  0.00     0.049 A 
ATOM     35  H   UNL     1       7.695   6.061   5.860  1.00  0.00     0.167 HD
ATOM     36  C   UNL     1       8.803   8.631   5.385  1.00  0.00     0.074 A 
ATOM     37  C   UNL     1       9.115   9.892   4.743  1.00  0.00     0.031 C 
ATOM     38  C   UNL     1       9.278   8.253   6.598  1.00  0.00     0.037 A 
BRANCH  25  39
ATOM     39  C   UNL     1       7.296   2.705   8.480  1.00  0.00     0.058 A 
ATOM     40  C   UNL     1       7.967   1.479   8.355  1.00  0.00     0.135 A 
ATOM     41  C   UNL     1       6.620   2.960   9.685  1.00  0.00     0.135 A 
ATOM     42  F   UNL     1       8.619   1.177   7.221  1.00  0.00    -0.206 F 
ATOM     43  C   UNL     1       7.942   0.529   9.373  1.00  0.00     0.059 A 
ATOM     44  C   UNL     1       6.602   2.035  10.725  1.00  0.00     0.059 A 
ATOM     45  F   UNL     1       5.964   4.118   9.860  1.00  0.00    -0.206 F 
ATOM     46  C   UNL     1       7.252   0.814  10.552  1.00  0.00     0.060 A 
BRANCH  46  47
ATOM     47  S   UNL     1       7.212  -0.435  11.856  1.00  0.00     0.124 S 
ATOM     48  O   UNL     1       6.265  -1.399  11.305  1.00  0.00    -0.237 OA
ATOM     49  O   UNL     1       8.602  -0.876  11.912  1.00  0.00    -0.237 OA
ATOM     50  O   UNL     1       6.746   0.307  13.024  1.00  0.00    -0.744 OA
ENDBRANCH  46  47
ENDBRANCH  25  39
BRANCH  26  51
ATOM     51  C   UNL     1       6.938   9.487   1.149  1.00  0.00     0.058 A 
ATOM     52  C   UNL     1       8.063   9.734   0.349  1.00  0.00     0.135 A 
ATOM     53  C   UNL     1       5.760  10.193   0.860  1.00  0.00     0.135 A 
ATOM     54  F   UNL     1       9.213   9.085   0.589  1.00  0.00    -0.206 F 
ATOM     55  C   UNL     1       8.025  10.652  -0.695  1.00  0.00     0.059 A 
ATOM     56  C   UNL     1       5.689  11.095  -0.194  1.00  0.00     0.059 A 
ATOM     57  F   UNL     1       4.652   9.976   1.586  1.00  0.00    -0.206 F 
ATOM     58  C   UNL     1       6.831  11.325  -0.961  1.00  0.00     0.060 A 
BRANCH  58  59
ATOM     59  S   UNL     1       6.773  12.471  -2.355  1.00  0.00     0.124 S 
ATOM     60  O   UNL     1       7.490  13.621  -1.818  1.00  0.00    -0.237 OA
ATOM     61  O   UNL     1       7.460  11.719  -3.401  1.00  0.00    -0.237 OA
ATOM     62  O   UNL     1       5.341  12.662  -2.570  1.00  0.00    -0.744 OA
ENDBRANCH  58  59
ENDBRANCH  26  51
BRANCH  38  63
ATOM     63  C   UNL     1      10.221   9.197   7.287  1.00  0.00     0.058 A 
ATOM     64  C   UNL     1       9.775  10.392   7.873  1.00  0.00     0.135 A 
ATOM     65  C   UNL     1      11.588   8.891   7.377  1.00  0.00     0.135 A 
ATOM     66  F   UNL     1       8.479  10.734   7.808  1.00  0.00    -0.206 F 
ATOM     67  C   UNL     1      10.658  11.267   8.498  1.00  0.00     0.059 A 
ATOM     68  C   UNL     1      12.485   9.739   8.019  1.00  0.00     0.059 A 
ATOM     69  F   UNL     1      12.064   7.756   6.841  1.00  0.00    -0.206 F 
ATOM     70  C   UNL     1      12.012  10.932   8.563  1.00  0.00     0.060 A 
BRANCH  70  71
ATOM     71  S   UNL     1      13.149  12.067   9.387  1.00  0.00     0.124 S 
ATOM     72  O   UNL     1      13.309  13.107   8.375  1.00  0.00    -0.237 OA
ATOM     73  O   UNL     1      12.401  12.453  10.579  1.00  0.00    -0.237 OA
ATOM     74  O   UNL     1      14.329  11.243   9.634  1.00  0.00    -0.744 OA
ENDBRANCH  70  71
ENDBRANCH  38  63
ENDBRANCH  12  13
ENDBRANCH   5   7
ENDBRANCH   2   3
ENDBRANCH   1   2
BRANCH   1  75
ATOM     75  C   UNL     1       4.691  -3.726  -0.247  1.00  0.00     0.117 C 
BRANCH  75  76
ATOM     76  N   UNL     1       5.466  -3.723  -1.467  1.00  0.00    -0.356 N 
ATOM     77  C   UNL     1       6.073  -4.694  -2.174  1.00  0.00     0.224 C 
ATOM     78  H   UNL     1       5.573  -2.827  -1.860  1.00  0.00     0.163 HD
ATOM     79  O   UNL     1       6.684  -4.293  -3.171  1.00  0.00    -0.275 OA
BRANCH  77  80
ATOM     80  C   UNL     1       6.163  -6.144  -1.741  1.00  0.00     0.094 C 
ATOM     81  C   UNL     1       5.114  -6.940  -0.906  1.00  0.00     0.002 C 
ATOM     82  C   UNL     1       6.716  -7.055  -2.859  1.00  0.00     0.094 C 
ATOM     83  C   UNL     1       4.174  -7.848  -1.721  1.00  0.00     0.005 C 
ATOM     84  C   UNL     1       5.938  -7.933  -0.049  1.00  0.00     0.005 C 
ATOM     85  C   UNL     1       6.444  -8.539  -2.476  1.00  0.00     0.002 C 
ATOM     86  C   UNL     1       4.952  -8.840  -2.587  1.00  0.00     0.005 C 
ATOM     87  C   UNL     1       6.836  -8.771  -0.987  1.00  0.00     0.005 C 
BRANCH  82  88
ATOM     88  C   UNL     1       6.553  -6.766  -4.383  1.00  0.00     0.228 C 
ATOM     89  O   UNL     1       7.553  -6.971  -5.098  1.00  0.00    -0.274 OA
ATOM     90  N   UNL     1       5.417  -6.499  -5.093  1.00  0.00    -0.326 N 
ATOM     91  H   UNL     1       5.575  -6.445  -6.063  1.00  0.00     0.169 HD
BRANCH  90  92
ATOM     92  C   UNL     1       4.082  -6.285  -4.746  1.00  0.00     0.041 A 
ATOM     93  C   UNL     1       3.119  -7.157  -5.251  1.00  0.00     0.027 A 
ATOM     94  C   UNL     1       3.656  -5.218  -3.970  1.00  0.00     0.027 A 
ATOM     95  C   UNL     1       1.825  -7.146  -4.714  1.00  0.00     0.016 A 
ATOM     96  C   UNL     1       2.365  -5.198  -3.426  1.00  0.00     0.016 A 
ATOM     97  C   UNL     1       1.472  -6.232  -3.706  1.00  0.00     0.040 A 
BRANCH  97  98
ATOM     98  C   UNL     1       0.287  -6.597  -2.854  1.00  0.00     0.253 C 
ATOM     99  O   UNL     1      -0.534  -7.396  -3.304  1.00  0.00    -0.269 OA
ATOM    100  N   UNL     1       0.345  -6.306  -1.500  1.00  0.00    -0.339 N 
ATOM    101  C   UNL     1       0.241  -5.001  -0.874  1.00  0.00     0.120 C 
ATOM    102  C   UNL     1       0.023  -7.334  -0.522  1.00  0.00     0.120 C 
ATOM    103  C   UNL     1       0.726  -5.279   0.537  1.00  0.00     0.023 C 
ATOM    104  C   UNL     1       0.109  -6.643   0.840  1.00  0.00     0.023 C 
ENDBRANCH  97  98
ENDBRANCH  90  92
ENDBRANCH  82  88
ENDBRANCH  77  80
ENDBRANCH  75  76
ENDBRANCH   1  75
TORSDOF 16
