REMARK SMILES C/C=C/C[C@]1(C(=O)NCCCNC(=O)c2ccc(-c3c4nc(c(-c5c(F)cc(S(=O)(=O)[O-])cc5F)c5ccc([nH]5)c(-c5c(F)cc(S(=O)(=O)[O-])cc5F)c5nc(c(-c6c(F)cc(S(=O)(=O)[O-])cc6F)c6ccc3[nH]6)C=C5)C=C4)cc2)CCN(C(=O)OC(C)(C)C)C1
REMARK SMILES IDX 10 1 9 2 8 3 6 4 7 5 5 7 81 8 91 9 82 10 83 11 4 12 3 13
REMARK SMILES IDX 1 14 2 15 84 16 85 17 86 18 87 19 88 20 89 21 90 22 11 23
REMARK SMILES IDX 12 24 13 25 14 27 15 28 16 29 80 30 17 31 79 32 18 33 19 34
REMARK SMILES IDX 20 35 73 36 21 37 78 38 72 39 74 40 22 41 77 42 71 43 70 44
REMARK SMILES IDX 23 46 57 47 36 48 56 49 37 50 40 51 55 52 75 53 38 54 39 55
REMARK SMILES IDX 54 57 76 58 41 59 24 60 25 61 34 62 26 63 27 64 33 65 35 66
REMARK SMILES IDX 28 67 29 68 30 69 31 70 32 71 58 72 59 73 68 74 60 75 61 76
REMARK SMILES IDX 67 77 69 78 62 79 63 80 64 81 65 82 66 83 42 84 43 85 52 86
REMARK SMILES IDX 44 87 45 88 51 89 53 90 46 91 47 92 48 93 49 94 50 95
REMARK H PARENT 8 6 12 26 74 45 40 56
REMARK Flexibility Score: inf
ROOT
ATOM      1  C   UNL     1       1.507  -5.398  -6.258  1.00  0.00     0.042 C 
ENDROOT
BRANCH   1   2
ATOM      2  C   UNL     1       1.859  -4.890  -4.864  1.00  0.00     0.117 C 
BRANCH   2   3
ATOM      3  N   UNL     1       1.703  -3.449  -4.736  1.00  0.00    -0.355 N 
ATOM      4  C   UNL     1       0.796  -2.655  -4.106  1.00  0.00     0.228 C 
ATOM      5  O   UNL     1       0.953  -1.444  -4.299  1.00  0.00    -0.274 OA
ATOM      6  H   UNL     1       2.403  -2.941  -5.206  1.00  0.00     0.163 HD
BRANCH   4   7
ATOM      7  C   UNL     1      -0.365  -3.198  -3.246  1.00  0.00     0.072 C 
ATOM      8  C   UNL     1      -1.318  -4.061  -4.113  1.00  0.00     0.041 C 
ATOM      9  C   UNL     1       0.150  -4.145  -2.154  1.00  0.00     0.140 C 
ATOM     10  C   UNL     1      -1.558  -5.351  -3.337  1.00  0.00     0.124 C 
ATOM     11  N   UNL     1      -0.480  -5.426  -2.379  1.00  0.00    -0.307 N 
BRANCH   7  12
ATOM     12  C   UNL     1      -1.169  -2.006  -2.632  1.00  0.00     0.046 C 
BRANCH  12  13
ATOM     13  C   UNL     1      -0.594  -1.420  -1.364  1.00  0.00    -0.030 C 
ATOM     14  C   UNL     1       0.902   0.063  -0.024  1.00  0.00     0.035 C 
ATOM     15  C   UNL     1       0.300  -0.423  -1.303  1.00  0.00    -0.035 C 
ENDBRANCH  12  13
ENDBRANCH   7  12
BRANCH  11  16
ATOM     16  C   UNL     1      -0.103  -6.517  -1.639  1.00  0.00     0.410 C 
ATOM     17  O   UNL     1       0.750  -6.449  -0.759  1.00  0.00    -0.224 OA
BRANCH  16  18
ATOM     18  O   UNL     1      -0.755  -7.650  -2.000  1.00  0.00    -0.444 OA
BRANCH  18  19
ATOM     19  C   UNL     1      -0.447  -8.900  -1.325  1.00  0.00     0.106 C 
ATOM     20  C   UNL     1       1.032  -9.288  -1.479  1.00  0.00     0.056 C 
ATOM     21  C   UNL     1      -0.872  -8.842   0.147  1.00  0.00     0.056 C 
ATOM     22  C   UNL     1      -1.293  -9.967  -2.035  1.00  0.00     0.056 C 
ENDBRANCH  18  19
ENDBRANCH  16  18
ENDBRANCH  11  16
ENDBRANCH   4   7
ENDBRANCH   2   3
ENDBRANCH   1   2
BRANCH   1  23
ATOM     23  C   UNL     1       2.359  -4.801  -7.371  1.00  0.00     0.118 C 
BRANCH  23  24
ATOM     24  N   UNL     1       3.757  -5.191  -7.270  1.00  0.00    -0.352 N 
ATOM     25  C   UNL     1       4.507  -5.992  -8.097  1.00  0.00     0.251 C 
ATOM     26  H   UNL     1       4.239  -4.827  -6.492  1.00  0.00     0.163 HD
ATOM     27  O   UNL     1       5.611  -6.382  -7.728  1.00  0.00    -0.269 OA
BRANCH  25  28
ATOM     28  C   UNL     1       3.978  -6.398  -9.418  1.00  0.00     0.039 A 
ATOM     29  C   UNL     1       4.132  -7.724  -9.833  1.00  0.00     0.014 A 
ATOM     30  C   UNL     1       3.341  -5.474 -10.249  1.00  0.00     0.014 A 
ATOM     31  C   UNL     1       3.583  -8.137 -11.049  1.00  0.00     0.010 A 
ATOM     32  C   UNL     1       2.722  -5.906 -11.419  1.00  0.00     0.010 A 
ATOM     33  C   UNL     1       2.838  -7.242 -11.834  1.00  0.00    -0.014 A 
BRANCH  33  34
ATOM     34  C   UNL     1       2.169  -7.675 -13.089  1.00  0.00     0.031 A 
ATOM     35  C   UNL     1       2.552  -7.045 -14.402  1.00  0.00     0.074 A 
ATOM     36  C   UNL     1       1.160  -8.568 -13.035  1.00  0.00     0.049 A 
ATOM     37  N   UNL     1       2.009  -7.201 -15.582  1.00  0.00    -0.248 NA
ATOM     38  C   UNL     1       3.676  -6.094 -14.382  1.00  0.00     0.031 C 
ATOM     39  C   UNL     1       0.664  -9.213 -11.816  1.00  0.00     0.029 A 
ATOM     40  N   UNL     1       0.351  -9.072 -14.025  1.00  0.00    -0.354 N 
ATOM     41  C   UNL     1       2.705  -6.352 -16.435  1.00  0.00     0.074 A 
ATOM     42  C   UNL     1       3.684  -5.653 -15.633  1.00  0.00     0.031 C 
ATOM     43  C   UNL     1      -0.355 -10.028 -12.131  1.00  0.00     0.029 A 
ATOM     44  C   UNL     1      -0.620  -9.931 -13.563  1.00  0.00     0.049 A 
ATOM     45  H   UNL     1       0.457  -8.841 -14.976  1.00  0.00     0.167 HD
ATOM     46  C   UNL     1       2.550  -6.184 -17.770  1.00  0.00     0.037 A 
ATOM     47  C   UNL     1      -1.627 -10.549 -14.212  1.00  0.00     0.037 A 
ATOM     48  C   UNL     1       1.596  -6.910 -18.567  1.00  0.00     0.049 A 
ATOM     49  C   UNL     1      -1.774 -10.346 -15.697  1.00  0.00     0.074 A 
ATOM     50  C   UNL     1       1.419  -6.871 -19.939  1.00  0.00     0.029 A 
ATOM     51  N   UNL     1       0.656  -7.800 -18.067  1.00  0.00    -0.354 N 
ATOM     52  N   UNL     1      -1.054  -9.600 -16.502  1.00  0.00    -0.248 NA
ATOM     53  C   UNL     1      -2.865 -11.069 -16.366  1.00  0.00     0.031 C 
ATOM     54  C   UNL     1       0.332  -7.687 -20.262  1.00  0.00     0.029 A 
ATOM     55  C   UNL     1      -0.125  -8.289 -19.101  1.00  0.00     0.049 A 
ATOM     56  H   UNL     1       0.558  -8.046 -17.119  1.00  0.00     0.167 HD
ATOM     57  C   UNL     1      -1.584  -9.790 -17.774  1.00  0.00     0.074 A 
ATOM     58  C   UNL     1      -2.677 -10.729 -17.634  1.00  0.00     0.031 C 
ATOM     59  C   UNL     1      -1.200  -9.238 -18.951  1.00  0.00     0.037 A 
BRANCH  46  60
ATOM     60  C   UNL     1       3.424  -5.176 -18.466  1.00  0.00     0.058 A 
ATOM     61  C   UNL     1       4.797  -5.391 -18.659  1.00  0.00     0.135 A 
ATOM     62  C   UNL     1       2.860  -4.013 -19.019  1.00  0.00     0.135 A 
ATOM     63  F   UNL     1       5.392  -6.476 -18.138  1.00  0.00    -0.206 F 
ATOM     64  C   UNL     1       5.583  -4.486 -19.365  1.00  0.00     0.059 A 
ATOM     65  C   UNL     1       3.621  -3.110 -19.754  1.00  0.00     0.059 A 
ATOM     66  F   UNL     1       1.552  -3.756 -18.862  1.00  0.00    -0.206 F 
ATOM     67  C   UNL     1       4.984  -3.352 -19.916  1.00  0.00     0.060 A 
BRANCH  67  68
ATOM     68  S   UNL     1       6.011  -2.211 -20.865  1.00  0.00     0.124 S 
ATOM     69  O   UNL     1       6.826  -1.609 -19.814  1.00  0.00    -0.237 OA
ATOM     70  O   UNL     1       6.713  -3.110 -21.775  1.00  0.00    -0.237 OA
ATOM     71  O   UNL     1       5.041  -1.319 -21.493  1.00  0.00    -0.744 OA
ENDBRANCH  67  68
ENDBRANCH  46  60
BRANCH  47  72
ATOM     72  C   UNL     1      -2.586 -11.408 -13.463  1.00  0.00     0.058 A 
ATOM     73  C   UNL     1      -2.633 -12.796 -13.666  1.00  0.00     0.135 A 
ATOM     74  C   UNL     1      -3.484 -10.856 -12.537  1.00  0.00     0.135 A 
ATOM     75  F   UNL     1      -1.799 -13.373 -14.545  1.00  0.00    -0.206 F 
ATOM     76  C   UNL     1      -3.555 -13.600 -13.003  1.00  0.00     0.059 A 
ATOM     77  C   UNL     1      -4.394 -11.643 -11.838  1.00  0.00     0.059 A 
ATOM     78  F   UNL     1      -3.470  -9.537 -12.289  1.00  0.00    -0.206 F 
ATOM     79  C   UNL     1      -4.432 -13.013 -12.090  1.00  0.00     0.060 A 
BRANCH  79  80
ATOM     80  S   UNL     1      -5.609 -14.068 -11.217  1.00  0.00     0.124 S 
ATOM     81  O   UNL     1      -6.551 -14.399 -12.280  1.00  0.00    -0.237 OA
ATOM     82  O   UNL     1      -4.757 -15.159 -10.754  1.00  0.00    -0.237 OA
ATOM     83  O   UNL     1      -6.124 -13.196 -10.165  1.00  0.00    -0.744 OA
ENDBRANCH  79  80
ENDBRANCH  47  72
BRANCH  59  84
ATOM     84  C   UNL     1      -1.927  -9.665 -20.197  1.00  0.00     0.058 A 
ATOM     85  C   UNL     1      -3.241  -9.255 -20.466  1.00  0.00     0.135 A 
ATOM     86  C   UNL     1      -1.267 -10.433 -21.171  1.00  0.00     0.135 A 
ATOM     87  F   UNL     1      -3.920  -8.526 -19.566  1.00  0.00    -0.206 F 
ATOM     88  C   UNL     1      -3.882  -9.604 -21.650  1.00  0.00     0.059 A 
ATOM     89  C   UNL     1      -1.877 -10.767 -22.375  1.00  0.00     0.059 A 
ATOM     90  F   UNL     1      -0.005 -10.844 -20.968  1.00  0.00    -0.206 F 
ATOM     91  C   UNL     1      -3.189 -10.354 -22.602  1.00  0.00     0.060 A 
BRANCH  91  92
ATOM     92  S   UNL     1      -4.015 -10.754 -24.157  1.00  0.00     0.124 S 
ATOM     93  O   UNL     1      -4.994 -11.746 -23.723  1.00  0.00    -0.237 OA
ATOM     94  O   UNL     1      -4.559  -9.462 -24.561  1.00  0.00    -0.237 OA
ATOM     95  O   UNL     1      -2.935 -11.264 -24.996  1.00  0.00    -0.744 OA
ENDBRANCH  91  92
ENDBRANCH  59  84
ENDBRANCH  33  34
ENDBRANCH  25  28
ENDBRANCH  23  24
ENDBRANCH   1  23
TORSDOF 18
