REMARK SMILES O=C(Nc1c(F)cc(F)cc1F)N[C@H]1C=C[C@H](C(=O)NCCCNC(=O)c2ccc(-c3c4nc(c(-c5c(F)cc(S(=O)(=O)[O-])cc5F)c5ccc([nH]5)c(-c5c(F)cc(S(=O)(=O)[O-])cc5F)c5nc(c(-c6c(F)cc(S(=O)(=O)[O-])cc6F)c6ccc3[nH]6)C=C5)C=C4)cc2)C1
REMARK SMILES IDX 22 1 21 2 20 3 18 4 19 5 17 7 14 8 15 9 93 10 16 11 13 12
REMARK SMILES IDX 1 13 2 14 3 15 4 18 5 19 11 20 6 21 7 22 10 23 12 24 8 25
REMARK SMILES IDX 9 26 23 27 24 28 25 29 26 31 27 32 28 33 92 34 29 35 91 36
REMARK SMILES IDX 30 37 31 38 32 39 85 40 33 41 90 42 84 43 86 44 34 45 89 46
REMARK SMILES IDX 83 47 82 48 35 50 69 51 48 52 68 53 49 54 52 55 67 56 87 57
REMARK SMILES IDX 50 58 51 59 66 61 88 62 53 63 36 64 37 65 46 66 38 67 39 68
REMARK SMILES IDX 45 69 47 70 40 71 41 72 42 73 43 74 44 75 70 76 71 77 80 78
REMARK SMILES IDX 72 79 73 80 79 81 81 82 74 83 75 84 76 85 77 86 78 87 54 88
REMARK SMILES IDX 55 89 64 90 56 91 57 92 63 93 65 94 58 95 59 96 60 97 61 98
REMARK SMILES IDX 62 99
REMARK H PARENT 20 6 3 16 13 17 24 30 86 49 52 60
REMARK Flexibility Score: inf
ROOT
ATOM      1  C   UNL     1      -3.928  -1.172  -3.222  1.00  0.00     0.042 C 
ENDROOT
BRANCH   1   2
ATOM      2  C   UNL     1      -2.993  -2.375  -3.295  1.00  0.00     0.117 C 
BRANCH   2   3
ATOM      3  N   UNL     1      -1.955  -2.196  -4.293  1.00  0.00    -0.356 N 
ATOM      4  C   UNL     1      -0.644  -1.860  -4.138  1.00  0.00     0.227 C 
ATOM      5  O   UNL     1       0.044  -1.741  -5.155  1.00  0.00    -0.274 OA
ATOM      6  H   UNL     1      -2.242  -2.341  -5.224  1.00  0.00     0.163 HD
BRANCH   4   7
ATOM      7  C   UNL     1      -0.065  -1.681  -2.736  1.00  0.00     0.103 C 
ATOM      8  C   UNL     1       2.204  -0.812  -2.413  1.00  0.00     0.107 C 
ATOM      9  C   UNL     1       2.167  -2.299  -2.306  1.00  0.00    -0.006 C 
ATOM     10  C   UNL     1       0.755  -0.384  -2.647  1.00  0.00     0.047 C 
ATOM     11  C   UNL     1       0.932  -2.776  -2.484  1.00  0.00    -0.016 C 
BRANCH   8  12
ATOM     12  N   UNL     1       2.874  -0.278  -1.253  1.00  0.00    -0.332 N 
ATOM     13  O   UNL     1       1.201  -0.324   0.300  1.00  0.00    -0.248 OA
ATOM     14  C   UNL     1       2.374  -0.119  -0.004  1.00  0.00     0.319 C 
ATOM     15  N   UNL     1       3.250   0.185   0.998  1.00  0.00    -0.303 N 
ATOM     16  H   UNL     1       2.825   0.248   1.883  1.00  0.00     0.172 HD
ATOM     17  H   UNL     1       3.807   0.007  -1.385  1.00  0.00     0.165 HD
BRANCH  15  18
ATOM     18  C   UNL     1       4.641   0.427   1.026  1.00  0.00     0.115 A 
ATOM     19  C   UNL     1       5.418   0.893  -0.039  1.00  0.00     0.152 A 
ATOM     20  C   UNL     1       5.303   0.152   2.230  1.00  0.00     0.152 A 
ATOM     21  F   UNL     1       4.856   1.274  -1.194  1.00  0.00    -0.204 F 
ATOM     22  C   UNL     1       6.803   0.998   0.056  1.00  0.00     0.081 A 
ATOM     23  C   UNL     1       6.688   0.238   2.342  1.00  0.00     0.081 A 
ATOM     24  F   UNL     1       4.599  -0.268   3.292  1.00  0.00    -0.204 F 
ATOM     25  C   UNL     1       7.427   0.648   1.243  1.00  0.00     0.129 A 
ATOM     26  F   UNL     1       8.761   0.707   1.327  1.00  0.00    -0.207 F 
ENDBRANCH  15  18
ENDBRANCH   8  12
ENDBRANCH   4   7
ENDBRANCH   2   3
ENDBRANCH   1   2
BRANCH   1  27
ATOM     27  C   UNL     1      -4.726  -0.929  -4.502  1.00  0.00     0.118 C 
BRANCH  27  28
ATOM     28  N   UNL     1      -5.567  -2.063  -4.866  1.00  0.00    -0.352 N 
ATOM     29  C   UNL     1      -6.925  -2.147  -5.032  1.00  0.00     0.251 C 
ATOM     30  H   UNL     1      -5.080  -2.905  -5.017  1.00  0.00     0.163 HD
ATOM     31  O   UNL     1      -7.447  -3.256  -5.152  1.00  0.00    -0.269 OA
BRANCH  29  32
ATOM     32  C   UNL     1      -7.763  -0.930  -5.050  1.00  0.00     0.039 A 
ATOM     33  C   UNL     1      -8.996  -0.949  -4.391  1.00  0.00     0.014 A 
ATOM     34  C   UNL     1      -7.357   0.218  -5.736  1.00  0.00     0.014 A 
ATOM     35  C   UNL     1      -9.787   0.202  -4.363  1.00  0.00     0.010 A 
ATOM     36  C   UNL     1      -8.107   1.387  -5.638  1.00  0.00     0.010 A 
ATOM     37  C   UNL     1      -9.331   1.393  -4.952  1.00  0.00    -0.014 A 
BRANCH  37  38
ATOM     38  C   UNL     1     -10.114   2.653  -4.851  1.00  0.00     0.031 A 
ATOM     39  C   UNL     1     -10.642   3.323  -6.090  1.00  0.00     0.074 A 
ATOM     40  C   UNL     1     -10.292   3.227  -3.644  1.00  0.00     0.049 A 
ATOM     41  N   UNL     1     -11.284   4.457  -6.206  1.00  0.00    -0.248 NA
ATOM     42  C   UNL     1     -10.395   2.642  -7.372  1.00  0.00     0.031 C 
ATOM     43  C   UNL     1      -9.788   2.700  -2.373  1.00  0.00     0.029 A 
ATOM     44  N   UNL     1     -10.935   4.386  -3.287  1.00  0.00    -0.354 N 
ATOM     45  C   UNL     1     -11.505   4.632  -7.567  1.00  0.00     0.074 A 
ATOM     46  C   UNL     1     -10.882   3.515  -8.242  1.00  0.00     0.031 C 
ATOM     47  C   UNL     1     -10.159   3.519  -1.377  1.00  0.00     0.029 A 
ATOM     48  C   UNL     1     -10.888   4.652  -1.938  1.00  0.00     0.049 A 
ATOM     49  H   UNL     1     -11.388   4.972  -3.936  1.00  0.00     0.167 HD
ATOM     50  C   UNL     1     -12.186   5.621  -8.195  1.00  0.00     0.037 A 
ATOM     51  C   UNL     1     -11.366   5.696  -1.233  1.00  0.00     0.037 A 
ATOM     52  C   UNL     1     -12.819   6.721  -7.514  1.00  0.00     0.049 A 
ATOM     53  C   UNL     1     -12.106   6.790  -1.954  1.00  0.00     0.074 A 
ATOM     54  C   UNL     1     -13.580   7.744  -8.054  1.00  0.00     0.029 A 
ATOM     55  N   UNL     1     -12.761   6.948  -6.146  1.00  0.00    -0.354 N 
ATOM     56  N   UNL     1     -12.364   6.904  -3.236  1.00  0.00    -0.248 NA
ATOM     57  C   UNL     1     -12.625   7.894  -1.135  1.00  0.00     0.031 C 
ATOM     58  C   UNL     1     -13.935   8.618  -7.022  1.00  0.00     0.029 A 
ATOM     59  C   UNL     1     -13.449   8.108  -5.828  1.00  0.00     0.049 A 
ATOM     60  H   UNL     1     -12.298   6.370  -5.497  1.00  0.00     0.167 HD
ATOM     61  C   UNL     1     -13.101   8.076  -3.372  1.00  0.00     0.074 A 
ATOM     62  C   UNL     1     -13.258   8.627  -2.042  1.00  0.00     0.031 C 
ATOM     63  C   UNL     1     -13.603   8.643  -4.497  1.00  0.00     0.037 A 
BRANCH  50  64
ATOM     64  C   UNL     1     -12.281   5.562  -9.697  1.00  0.00     0.058 A 
ATOM     65  C   UNL     1     -13.041   4.578 -10.351  1.00  0.00     0.135 A 
ATOM     66  C   UNL     1     -11.637   6.524 -10.492  1.00  0.00     0.135 A 
ATOM     67  F   UNL     1     -13.667   3.624  -9.643  1.00  0.00    -0.206 F 
ATOM     68  C   UNL     1     -13.133   4.532 -11.739  1.00  0.00     0.059 A 
ATOM     69  C   UNL     1     -11.742   6.516 -11.880  1.00  0.00     0.059 A 
ATOM     70  F   UNL     1     -10.899   7.489  -9.921  1.00  0.00    -0.206 F 
ATOM     71  C   UNL     1     -12.480   5.506 -12.495  1.00  0.00     0.060 A 
BRANCH  71  72
ATOM     72  S   UNL     1     -12.616   5.434 -14.294  1.00  0.00     0.124 S 
ATOM     73  O   UNL     1     -11.792   4.268 -14.601  1.00  0.00    -0.237 OA
ATOM     74  O   UNL     1     -14.052   5.264 -14.491  1.00  0.00    -0.237 OA
ATOM     75  O   UNL     1     -12.073   6.716 -14.729  1.00  0.00    -0.744 OA
ENDBRANCH  71  72
ENDBRANCH  50  64
BRANCH  51  76
ATOM     76  C   UNL     1     -11.172   5.747   0.242  1.00  0.00     0.058 A 
ATOM     77  C   UNL     1     -12.257   5.598   1.119  1.00  0.00     0.135 A 
ATOM     78  C   UNL     1      -9.899   5.933   0.804  1.00  0.00     0.135 A 
ATOM     79  F   UNL     1     -13.495   5.426   0.631  1.00  0.00    -0.206 F 
ATOM     80  C   UNL     1     -12.091   5.649   2.499  1.00  0.00     0.059 A 
ATOM     81  C   UNL     1      -9.704   5.958   2.182  1.00  0.00     0.059 A 
ATOM     82  F   UNL     1      -8.825   6.064   0.010  1.00  0.00    -0.206 F 
ATOM     83  C   UNL     1     -10.809   5.825   3.021  1.00  0.00     0.060 A 
BRANCH  83  84
ATOM     84  S   UNL     1     -10.600   5.842   4.815  1.00  0.00     0.124 S 
ATOM     85  O   UNL     1     -11.191   7.128   5.168  1.00  0.00    -0.237 OA
ATOM     86  O   UNL     1     -11.354   4.660   5.221  1.00  0.00    -0.237 OA
ATOM     87  O   UNL     1      -9.154   5.744   4.986  1.00  0.00    -0.744 OA
ENDBRANCH  83  84
ENDBRANCH  51  76
BRANCH  63  88
ATOM     88  C   UNL     1     -14.404   9.908  -4.340  1.00  0.00     0.058 A 
ATOM     89  C   UNL     1     -13.802  11.130  -4.003  1.00  0.00     0.135 A 
ATOM     90  C   UNL     1     -15.788   9.905  -4.581  1.00  0.00     0.135 A 
ATOM     91  F   UNL     1     -12.483  11.189  -3.755  1.00  0.00    -0.206 F 
ATOM     92  C   UNL     1     -14.546  12.300  -3.887  1.00  0.00     0.059 A 
ATOM     93  C   UNL     1     -16.547  11.069  -4.502  1.00  0.00     0.059 A 
ATOM     94  F   UNL     1     -16.414   8.766  -4.916  1.00  0.00    -0.206 F 
ATOM     95  C   UNL     1     -15.919  12.259  -4.142  1.00  0.00     0.060 A 
BRANCH  95  96
ATOM     96  S   UNL     1     -16.866  13.791  -4.021  1.00  0.00     0.124 S 
ATOM     97  O   UNL     1     -16.901  14.003  -2.578  1.00  0.00    -0.237 OA
ATOM     98  O   UNL     1     -16.043  14.728  -4.780  1.00  0.00    -0.237 OA
ATOM     99  O   UNL     1     -18.145  13.450  -4.637  1.00  0.00    -0.744 OA
ENDBRANCH  95  96
ENDBRANCH  63  88
ENDBRANCH  37  38
ENDBRANCH  29  32
ENDBRANCH  27  28
ENDBRANCH   1  27
TORSDOF 15
