REMARK SMILES Nc1c(Nc2ncc(C(F)(F)F)cc2Cl)ncnc1N1CCC(C(=O)NCCCNC(=O)c2ccc(-c3c4nc(c(-c5c(F)cc(S(=O)(=O)[O-])cc5F)c5ccc([nH]5)c(-c5c(F)cc(S(=O)(=O)[O-])cc5F)c5nc(c(-c6c(F)cc(S(=O)(=O)[O-])cc6F)c6ccc3[nH]6)C=C5)C=C4)cc2)CC1
REMARK SMILES IDX 27 1 26 2 24 3 25 4 23 6 20 7 21 8 100 9 22 10 99 11 19 12
REMARK SMILES IDX 2 13 3 14 16 15 18 16 17 17 1 18 4 21 5 23 6 24 14 25 7 26
REMARK SMILES IDX 13 27 15 28 8 29 9 30 10 31 11 32 12 33 28 34 29 35 30 36
REMARK SMILES IDX 31 37 32 39 33 40 34 41 98 42 35 43 97 44 36 45 37 46 38 47
REMARK SMILES IDX 91 48 39 49 96 50 90 51 92 52 40 53 95 54 89 55 88 56 41 58
REMARK SMILES IDX 75 59 54 60 74 61 55 62 58 63 73 64 93 65 56 66 57 67 72 69
REMARK SMILES IDX 94 70 59 71 42 72 43 73 52 74 44 75 45 76 51 77 53 78 46 79
REMARK SMILES IDX 47 80 48 81 49 82 50 83 76 84 77 85 86 86 78 87 79 88 85 89
REMARK SMILES IDX 87 90 80 91 81 92 82 93 83 94 84 95 60 96 61 97 70 98 62 99
REMARK SMILES IDX 63 100 69 101 71 102 64 103 65 104 66 105 67 106 68 107
REMARK H PARENT 26 5 1 19 1 20 4 22 30 38 92 57 58 68
REMARK Flexibility Score: inf
ROOT
ATOM      1  C   UNL     1       0.681   6.464  -1.146  1.00  0.00     0.117 C 
ENDROOT
BRANCH   1   2
ATOM      2  N   UNL     1       1.819   6.652  -2.036  1.00  0.00    -0.356 N 
ATOM      3  C   UNL     1       2.857   5.837  -2.354  1.00  0.00     0.223 C 
ATOM      4  O   UNL     1       3.708   6.273  -3.134  1.00  0.00    -0.275 OA
ATOM      5  H   UNL     1       1.839   7.527  -2.486  1.00  0.00     0.163 HD
BRANCH   3   6
ATOM      6  C   UNL     1       2.971   4.422  -1.813  1.00  0.00     0.082 C 
ATOM      7  N   UNL     1       2.022   2.211  -0.278  1.00  0.00    -0.355 N 
ATOM      8  C   UNL     1       3.151   2.968   0.245  1.00  0.00     0.119 C 
ATOM      9  C   UNL     1       1.852   2.144  -1.722  1.00  0.00     0.119 C 
ATOM     10  C   UNL     1       3.155   4.390  -0.293  1.00  0.00     0.035 C 
ATOM     11  C   UNL     1       1.837   3.534  -2.340  1.00  0.00     0.035 C 
BRANCH   7  12
ATOM     12  C   UNL     1       0.907   2.049   0.543  1.00  0.00     0.157 A 
ATOM     13  C   UNL     1       0.286   0.790   0.621  1.00  0.00     0.118 A 
ATOM     14  C   UNL     1      -0.777   0.678   1.528  1.00  0.00     0.160 A 
ATOM     15  N   UNL     1      -1.233   1.724   2.234  1.00  0.00    -0.217 NA
ATOM     16  N   UNL     1       0.478   3.098   1.268  1.00  0.00    -0.217 NA
ATOM     17  C   UNL     1      -0.575   2.879   2.072  1.00  0.00     0.226 A 
BRANCH  13  18
ATOM     18  N   UNL     1       0.822  -0.348  -0.016  1.00  0.00    -0.393 N 
ATOM     19  H   UNL     1       0.362  -1.215   0.057  1.00  0.00     0.156 HD
ATOM     20  H   UNL     1       1.656  -0.274  -0.534  1.00  0.00     0.156 HD
ENDBRANCH  13  18
BRANCH  14  21
ATOM     21  N   UNL     1      -1.313  -0.619   1.737  1.00  0.00    -0.322 N 
ATOM     22  H   UNL     1      -0.876  -1.351   1.244  1.00  0.00     0.170 HD
BRANCH  21  23
ATOM     23  C   UNL     1      -2.380  -0.985   2.553  1.00  0.00     0.150 A 
ATOM     24  N   UNL     1      -2.096  -2.005   3.405  1.00  0.00    -0.237 NA
ATOM     25  C   UNL     1      -3.652  -0.400   2.516  1.00  0.00     0.084 A 
ATOM     26  C   UNL     1      -3.042  -2.377   4.298  1.00  0.00     0.126 A 
ATOM     27  C   UNL     1      -4.616  -0.822   3.435  1.00  0.00     0.039 A 
ATOM     28  Cl  UNL     1      -4.146   0.728   1.304  1.00  0.00    -0.080 Cl
ATOM     29  C   UNL     1      -4.307  -1.819   4.364  1.00  0.00     0.075 A 
BRANCH  29  30
ATOM     30  C   UNL     1      -5.280  -2.308   5.389  1.00  0.00     0.417 C 
ATOM     31  F   UNL     1      -5.523  -3.644   5.270  1.00  0.00    -0.166 F 
ATOM     32  F   UNL     1      -4.844  -2.122   6.662  1.00  0.00    -0.166 F 
ATOM     33  F   UNL     1      -6.499  -1.706   5.313  1.00  0.00    -0.166 F 
ENDBRANCH  29  30
ENDBRANCH  21  23
ENDBRANCH  14  21
ENDBRANCH   7  12
ENDBRANCH   3   6
ENDBRANCH   1   2
BRANCH   1  34
ATOM     34  C   UNL     1       0.773   7.338   0.097  1.00  0.00     0.042 C 
BRANCH  34  35
ATOM     35  C   UNL     1       0.743   8.829  -0.208  1.00  0.00     0.118 C 
BRANCH  35  36
ATOM     36  N   UNL     1      -0.538   9.261  -0.753  1.00  0.00    -0.352 N 
ATOM     37  C   UNL     1      -1.563   9.953  -0.156  1.00  0.00     0.251 C 
ATOM     38  H   UNL     1      -0.692   9.019  -1.695  1.00  0.00     0.163 HD
ATOM     39  O   UNL     1      -2.651  10.032  -0.721  1.00  0.00    -0.269 OA
BRANCH  37  40
ATOM     40  C   UNL     1      -1.366  10.578   1.169  1.00  0.00     0.039 A 
ATOM     41  C   UNL     1      -2.369  10.455   2.133  1.00  0.00     0.014 A 
ATOM     42  C   UNL     1      -0.201  11.292   1.458  1.00  0.00     0.014 A 
ATOM     43  C   UNL     1      -2.169  10.988   3.408  1.00  0.00     0.010 A 
ATOM     44  C   UNL     1       0.037  11.738   2.754  1.00  0.00     0.010 A 
ATOM     45  C   UNL     1      -0.950  11.601   3.740  1.00  0.00    -0.014 A 
BRANCH  45  46
ATOM     46  C   UNL     1      -0.703  12.122   5.108  1.00  0.00     0.031 A 
ATOM     47  C   UNL     1      -0.493  13.595   5.330  1.00  0.00     0.074 A 
ATOM     48  C   UNL     1      -0.634  11.264   6.145  1.00  0.00     0.049 A 
ATOM     49  N   UNL     1      -0.270  14.236   6.447  1.00  0.00    -0.248 NA
ATOM     50  C   UNL     1      -0.513  14.459   4.137  1.00  0.00     0.031 C 
ATOM     51  C   UNL     1      -0.766   9.809   6.048  1.00  0.00     0.029 A 
ATOM     52  N   UNL     1      -0.445  11.490   7.485  1.00  0.00    -0.354 N 
ATOM     53  C   UNL     1      -0.124  15.572   6.093  1.00  0.00     0.074 A 
ATOM     54  C   UNL     1      -0.209  15.641   4.652  1.00  0.00     0.031 C 
ATOM     55  C   UNL     1      -0.703   9.278   7.280  1.00  0.00     0.029 A 
ATOM     56  C   UNL     1      -0.495  10.349   8.250  1.00  0.00     0.049 A 
ATOM     57  H   UNL     1      -0.287  12.385   7.864  1.00  0.00     0.167 HD
ATOM     58  C   UNL     1       0.029  16.650   6.898  1.00  0.00     0.037 A 
ATOM     59  C   UNL     1      -0.398  10.185   9.584  1.00  0.00     0.037 A 
ATOM     60  C   UNL     1       0.088  16.579   8.333  1.00  0.00     0.049 A 
ATOM     61  C   UNL     1      -0.212  11.393  10.460  1.00  0.00     0.074 A 
ATOM     62  C   UNL     1       0.191  17.617   9.242  1.00  0.00     0.029 A 
ATOM     63  N   UNL     1       0.050  15.403   9.068  1.00  0.00    -0.354 N 
ATOM     64  N   UNL     1      -0.140  12.656  10.113  1.00  0.00    -0.248 NA
ATOM     65  C   UNL     1      -0.094  11.158  11.905  1.00  0.00     0.031 C 
ATOM     66  C   UNL     1       0.252  17.066  10.526  1.00  0.00     0.029 A 
ATOM     67  C   UNL     1       0.149  15.687  10.419  1.00  0.00     0.049 A 
ATOM     68  H   UNL     1      -0.034  14.500   8.685  1.00  0.00     0.167 HD
ATOM     69  C   UNL     1       0.017  13.368  11.296  1.00  0.00     0.074 A 
ATOM     70  C   UNL     1       0.017  12.396  12.371  1.00  0.00     0.031 C 
ATOM     71  C   UNL     1       0.149  14.705  11.475  1.00  0.00     0.037 A 
BRANCH  58  72
ATOM     72  C   UNL     1       0.117  17.998   6.238  1.00  0.00     0.058 A 
ATOM     73  C   UNL     1      -1.002  18.584   5.624  1.00  0.00     0.135 A 
ATOM     74  C   UNL     1       1.322  18.718   6.228  1.00  0.00     0.135 A 
ATOM     75  F   UNL     1      -2.175  17.930   5.591  1.00  0.00    -0.206 F 
ATOM     76  C   UNL     1      -0.922  19.819   4.991  1.00  0.00     0.059 A 
ATOM     77  C   UNL     1       1.418  19.969   5.624  1.00  0.00     0.059 A 
ATOM     78  F   UNL     1       2.422  18.204   6.800  1.00  0.00    -0.206 F 
ATOM     79  C   UNL     1       0.295  20.503   4.994  1.00  0.00     0.060 A 
BRANCH  79  80
ATOM     80  S   UNL     1       0.383  22.099   4.156  1.00  0.00     0.124 S 
ATOM     81  O   UNL     1       0.332  21.695   2.754  1.00  0.00    -0.237 OA
ATOM     82  O   UNL     1      -0.802  22.783   4.661  1.00  0.00    -0.237 OA
ATOM     83  O   UNL     1       1.659  22.648   4.603  1.00  0.00    -0.744 OA
ENDBRANCH  79  80
ENDBRANCH  58  72
BRANCH  59  84
ATOM     84  C   UNL     1      -0.535   8.825  10.168  1.00  0.00     0.058 A 
ATOM     85  C   UNL     1      -1.703   8.456  10.851  1.00  0.00     0.135 A 
ATOM     86  C   UNL     1       0.465   7.854  10.010  1.00  0.00     0.135 A 
ATOM     87  F   UNL     1      -2.685   9.352  11.032  1.00  0.00    -0.206 F 
ATOM     88  C   UNL     1      -1.879   7.171  11.353  1.00  0.00     0.059 A 
ATOM     89  C   UNL     1       0.305   6.556  10.486  1.00  0.00     0.059 A 
ATOM     90  F   UNL     1       1.595   8.154   9.351  1.00  0.00    -0.206 F 
ATOM     91  C   UNL     1      -0.871   6.224  11.157  1.00  0.00     0.060 A 
BRANCH  91  92
ATOM     92  S   UNL     1      -1.147   4.538  11.744  1.00  0.00     0.124 S 
ATOM     93  O   UNL     1      -1.074   4.714  13.190  1.00  0.00    -0.237 OA
ATOM     94  O   UNL     1      -2.470   4.241  11.203  1.00  0.00    -0.237 OA
ATOM     95  O   UNL     1      -0.048   3.789  11.143  1.00  0.00    -0.744 OA
ENDBRANCH  91  92
ENDBRANCH  59  84
BRANCH  71  96
ATOM     96  C   UNL     1       0.307  15.210  12.881  1.00  0.00     0.058 A 
ATOM     97  C   UNL     1       1.525  15.088  13.565  1.00  0.00     0.135 A 
ATOM     98  C   UNL     1      -0.732  15.919  13.506  1.00  0.00     0.135 A 
ATOM     99  F   UNL     1       2.545  14.412  13.013  1.00  0.00    -0.206 F 
ATOM    100  C   UNL     1       1.710  15.654  14.821  1.00  0.00     0.059 A 
ATOM    101  C   UNL     1      -0.562  16.512  14.752  1.00  0.00     0.059 A 
ATOM    102  F   UNL     1      -1.914  16.070  12.887  1.00  0.00    -0.206 F 
ATOM    103  C   UNL     1       0.664  16.375  15.402  1.00  0.00     0.060 A 
BRANCH 103 104
ATOM    104  S   UNL     1       0.948  17.171  16.997  1.00  0.00     0.124 S 
ATOM    105  O   UNL     1       0.984  16.024  17.898  1.00  0.00    -0.237 OA
ATOM    106  O   UNL     1       2.223  17.849  16.783  1.00  0.00    -0.237 OA
ATOM    107  O   UNL     1      -0.205  18.053  17.148  1.00  0.00    -0.744 OA
ENDBRANCH 103 104
ENDBRANCH  71  96
ENDBRANCH  45  46
ENDBRANCH  37  40
ENDBRANCH  35  36
ENDBRANCH  34  35
ENDBRANCH   1  34
TORSDOF 18
