REMARK SMILES Cc1cscc1CNC(=O)N[C@@H](C)c1nc(C(=O)NCCCNC(=O)c2ccc(-c3c4nc(c(-c5c(F)cc(S(=O)(=O)[O-])cc5F)c5ccc([nH]5)c(-c5c(F)cc(S(=O)(=O)[O-])cc5F)c5nc(c(-c6c(F)cc(S(=O)(=O)[O-])cc6F)c6ccc3[nH]6)C=C5)C=C4)cc2)cs1
REMARK SMILES IDX 20 1 19 2 17 3 18 4 16 6 14 7 15 8 93 9 92 10 12 11 13 12
REMARK SMILES IDX 11 13 8 14 9 15 10 17 7 19 6 20 1 21 2 22 3 23 4 24 5 25
REMARK SMILES IDX 21 26 22 27 23 28 24 29 25 31 26 32 27 33 91 34 28 35 90 36
REMARK SMILES IDX 29 37 30 38 31 39 84 40 32 41 89 42 83 43 85 44 33 45 88 46
REMARK SMILES IDX 82 47 81 48 34 50 68 51 47 52 67 53 48 54 51 55 66 56 86 57
REMARK SMILES IDX 49 58 50 59 65 61 87 62 52 63 35 64 36 65 45 66 37 67 38 68
REMARK SMILES IDX 44 69 46 70 39 71 40 72 41 73 42 74 43 75 69 76 70 77 79 78
REMARK SMILES IDX 71 79 72 80 78 81 80 82 73 83 74 84 75 85 76 86 77 87 53 88
REMARK SMILES IDX 54 89 63 90 55 91 56 92 62 93 64 94 57 95 58 96 59 97 60 98
REMARK SMILES IDX 61 99
REMARK H PARENT 19 5 8 16 11 18 23 30 85 49 51 60
REMARK Flexibility Score: inf
ROOT
ATOM      1  C   UNL     1      -2.192   7.851   3.621  1.00  0.00     0.118 C 
ENDROOT
BRANCH   1   2
ATOM      2  N   UNL     1      -3.317   7.079   4.119  1.00  0.00    -0.351 N 
ATOM      3  C   UNL     1      -3.546   5.723   4.120  1.00  0.00     0.270 C 
ATOM      4  O   UNL     1      -4.575   5.321   4.661  1.00  0.00    -0.267 OA
ATOM      5  H   UNL     1      -4.036   7.616   4.523  1.00  0.00     0.163 HD
BRANCH   3   6
ATOM      6  C   UNL     1      -2.569   4.792   3.538  1.00  0.00     0.139 A 
ATOM      7  C   UNL     1      -0.729   4.139   2.458  1.00  0.00     0.116 A 
ATOM      8  N   UNL     1      -1.477   5.179   2.768  1.00  0.00    -0.234 NA
ATOM      9  S   UNL     1      -1.319   2.626   3.014  1.00  0.00    -0.124 S 
ATOM     10  C   UNL     1      -2.656   3.421   3.723  1.00  0.00     0.101 A 
BRANCH   7  11
ATOM     11  C   UNL     1       0.571   4.229   1.694  1.00  0.00     0.140 C 
ATOM     12  C   UNL     1       1.567   5.109   2.453  1.00  0.00     0.039 C 
BRANCH  11  13
ATOM     13  N   UNL     1       0.285   4.828   0.402  1.00  0.00    -0.329 N 
ATOM     14  N   UNL     1       1.053   3.370  -1.290  1.00  0.00    -0.334 N 
ATOM     15  C   UNL     1       0.447   4.480  -0.872  1.00  0.00     0.315 C 
ATOM     16  H   UNL     1       1.015   3.271  -2.269  1.00  0.00     0.165 HD
ATOM     17  O   UNL     1      -0.011   5.237  -1.730  1.00  0.00    -0.249 OA
ATOM     18  H   UNL     1      -0.135   5.715   0.491  1.00  0.00     0.166 HD
BRANCH  14  19
ATOM     19  C   UNL     1       1.749   2.278  -0.657  1.00  0.00     0.154 C 
BRANCH  19  20
ATOM     20  C   UNL     1       0.825   1.120  -0.381  1.00  0.00    -0.015 A 
ATOM     21  C   UNL     1       2.717  -0.647  -0.039  1.00  0.00     0.045 C 
ATOM     22  C   UNL     1       1.283  -0.229  -0.102  1.00  0.00    -0.035 A 
ATOM     23  C   UNL     1       0.225  -1.096   0.094  1.00  0.00     0.068 A 
ATOM     24  S   UNL     1      -1.292  -0.332  -0.031  1.00  0.00    -0.152 S 
ATOM     25  C   UNL     1      -0.560   1.172  -0.364  1.00  0.00     0.070 A 
ENDBRANCH  19  20
ENDBRANCH  14  19
ENDBRANCH  11  13
ENDBRANCH   7  11
ENDBRANCH   3   6
ENDBRANCH   1   2
BRANCH   1  26
ATOM     26  C   UNL     1      -2.510   8.533   2.294  1.00  0.00     0.042 C 
BRANCH  26  27
ATOM     27  C   UNL     1      -3.510   9.680   2.430  1.00  0.00     0.118 C 
BRANCH  27  28
ATOM     28  N   UNL     1      -3.001  10.765   3.264  1.00  0.00    -0.352 N 
ATOM     29  C   UNL     1      -2.795  12.089   2.967  1.00  0.00     0.251 C 
ATOM     30  H   UNL     1      -2.769  10.505   4.185  1.00  0.00     0.163 HD
ATOM     31  O   UNL     1      -2.156  12.791   3.746  1.00  0.00    -0.269 OA
BRANCH  29  32
ATOM     32  C   UNL     1      -3.328  12.664   1.716  1.00  0.00     0.039 A 
ATOM     33  C   UNL     1      -2.519  13.518   0.963  1.00  0.00     0.014 A 
ATOM     34  C   UNL     1      -4.630  12.376   1.297  1.00  0.00     0.014 A 
ATOM     35  C   UNL     1      -2.987  14.023  -0.253  1.00  0.00     0.010 A 
ATOM     36  C   UNL     1      -5.071  12.826   0.056  1.00  0.00     0.010 A 
ATOM     37  C   UNL     1      -4.251  13.645  -0.735  1.00  0.00    -0.014 A 
BRANCH  37  38
ATOM     38  C   UNL     1      -4.728  14.066  -2.075  1.00  0.00     0.031 A 
ATOM     39  C   UNL     1      -5.939  14.947  -2.206  1.00  0.00     0.074 A 
ATOM     40  C   UNL     1      -4.121  13.578  -3.175  1.00  0.00     0.049 A 
ATOM     41  N   UNL     1      -6.575  15.322  -3.285  1.00  0.00    -0.248 NA
ATOM     42  C   UNL     1      -6.527  15.452  -0.955  1.00  0.00     0.031 C 
ATOM     43  C   UNL     1      -2.960  12.685  -3.174  1.00  0.00     0.029 A 
ATOM     44  N   UNL     1      -4.406  13.748  -4.506  1.00  0.00    -0.354 N 
ATOM     45  C   UNL     1      -7.644  16.094  -2.846  1.00  0.00     0.074 A 
ATOM     46  C   UNL     1      -7.597  16.095  -1.399  1.00  0.00     0.031 C 
ATOM     47  C   UNL     1      -2.621  12.401  -4.441  1.00  0.00     0.029 A 
ATOM     48  C   UNL     1      -3.566  13.052  -5.343  1.00  0.00     0.049 A 
ATOM     49  H   UNL     1      -5.142  14.315  -4.832  1.00  0.00     0.167 HD
ATOM     50  C   UNL     1      -8.568  16.756  -3.583  1.00  0.00     0.037 A 
ATOM     51  C   UNL     1      -3.566  12.938  -6.685  1.00  0.00     0.037 A 
ATOM     52  C   UNL     1      -8.598  16.761  -5.022  1.00  0.00     0.049 A 
ATOM     53  C   UNL     1      -4.619  13.659  -7.481  1.00  0.00     0.074 A 
ATOM     54  C   UNL     1      -9.462  17.439  -5.864  1.00  0.00     0.029 A 
ATOM     55  N   UNL     1      -7.726  16.049  -5.835  1.00  0.00    -0.354 N 
ATOM     56  N   UNL     1      -5.593  14.427  -7.053  1.00  0.00    -0.248 NA
ATOM     57  C   UNL     1      -4.575  13.498  -8.940  1.00  0.00     0.031 C 
ATOM     58  C   UNL     1      -9.138  17.106  -7.184  1.00  0.00     0.029 A 
ATOM     59  C   UNL     1      -8.044  16.254  -7.167  1.00  0.00     0.049 A 
ATOM     60  H   UNL     1      -6.989  15.481  -5.511  1.00  0.00     0.167 HD
ATOM     61  C   UNL     1      -6.264  14.859  -8.191  1.00  0.00     0.074 A 
ATOM     62  C   UNL     1      -5.579  14.275  -9.326  1.00  0.00     0.031 C 
ATOM     63  C   UNL     1      -7.348  15.668  -8.286  1.00  0.00     0.037 A 
BRANCH  50  64
ATOM     64  C   UNL     1      -9.622  17.530  -2.839  1.00  0.00     0.058 A 
ATOM     65  C   UNL     1      -9.312  18.705  -2.135  1.00  0.00     0.135 A 
ATOM     66  C   UNL     1     -10.960  17.103  -2.840  1.00  0.00     0.135 A 
ATOM     67  F   UNL     1      -8.047  19.151  -2.089  1.00  0.00    -0.206 F 
ATOM     68  C   UNL     1     -10.282  19.408  -1.427  1.00  0.00     0.059 A 
ATOM     69  C   UNL     1     -11.952  17.806  -2.162  1.00  0.00     0.059 A 
ATOM     70  F   UNL     1     -11.313  15.988  -3.499  1.00  0.00    -0.206 F 
ATOM     71  C   UNL     1     -11.599  18.947  -1.443  1.00  0.00     0.060 A 
BRANCH  71  72
ATOM     72  S   UNL     1     -12.843  19.861  -0.507  1.00  0.00     0.124 S 
ATOM     73  O   UNL     1     -12.512  19.480   0.863  1.00  0.00    -0.237 OA
ATOM     74  O   UNL     1     -12.553  21.245  -0.867  1.00  0.00    -0.237 OA
ATOM     75  O   UNL     1     -14.106  19.335  -1.016  1.00  0.00    -0.744 OA
ENDBRANCH  71  72
ENDBRANCH  50  64
BRANCH  51  76
ATOM     76  C   UNL     1      -2.519  12.126  -7.359  1.00  0.00     0.058 A 
ATOM     77  C   UNL     1      -1.497  12.744  -8.094  1.00  0.00     0.135 A 
ATOM     78  C   UNL     1      -2.500  10.725  -7.262  1.00  0.00     0.135 A 
ATOM     79  F   UNL     1      -1.477  14.079  -8.221  1.00  0.00    -0.206 F 
ATOM     80  C   UNL     1      -0.499  12.004  -8.719  1.00  0.00     0.059 A 
ATOM     81  C   UNL     1      -1.498   9.965  -7.858  1.00  0.00     0.059 A 
ATOM     82  F   UNL     1      -3.448  10.088  -6.558  1.00  0.00    -0.206 F 
ATOM     83  C   UNL     1      -0.505  10.614  -8.592  1.00  0.00     0.060 A 
BRANCH  83  84
ATOM     84  S   UNL     1       0.826   9.671  -9.365  1.00  0.00     0.124 S 
ATOM     85  O   UNL     1       0.472   9.765 -10.777  1.00  0.00    -0.237 OA
ATOM     86  O   UNL     1       2.011  10.418  -8.954  1.00  0.00    -0.237 OA
ATOM     87  O   UNL     1       0.692   8.345  -8.768  1.00  0.00    -0.744 OA
ENDBRANCH  83  84
ENDBRANCH  51  76
BRANCH  63  88
ATOM     88  C   UNL     1      -7.849  15.993  -9.665  1.00  0.00     0.058 A 
ATOM     89  C   UNL     1      -8.555  15.055 -10.432  1.00  0.00     0.135 A 
ATOM     90  C   UNL     1      -7.674  17.281 -10.199  1.00  0.00     0.135 A 
ATOM     91  F   UNL     1      -8.741  13.808  -9.971  1.00  0.00    -0.206 F 
ATOM     92  C   UNL     1      -9.062  15.377 -11.687  1.00  0.00     0.059 A 
ATOM     93  C   UNL     1      -8.193  17.632 -11.441  1.00  0.00     0.059 A 
ATOM     94  F   UNL     1      -7.011  18.217  -9.502  1.00  0.00    -0.206 F 
ATOM     95  C   UNL     1      -8.880  16.671 -12.181  1.00  0.00     0.060 A 
BRANCH  95  96
ATOM     96  S   UNL     1      -9.588  17.091 -13.788  1.00  0.00     0.124 S 
ATOM     97  O   UNL     1      -8.674  16.411 -14.699  1.00  0.00    -0.237 OA
ATOM     98  O   UNL     1     -10.930  16.526 -13.696  1.00  0.00    -0.237 OA
ATOM     99  O   UNL     1      -9.529  18.550 -13.813  1.00  0.00    -0.744 OA
ENDBRANCH  95  96
ENDBRANCH  63  88
ENDBRANCH  37  38
ENDBRANCH  29  32
ENDBRANCH  27  28
ENDBRANCH  26  27
ENDBRANCH   1  26
TORSDOF 17
