REMARK SMILES O=C(NCCCNC(=O)c1ccc(F)cc1NC(=O)[C@H]1CCS(=O)(=O)C1)c1ccc(-c2c3nc(c(-c4c(F)cc(S(=O)(=O)[O-])cc4F)c4ccc([nH]4)c(-c4c(F)cc(S(=O)(=O)[O-])cc4F)c4nc(c(-c5c(F)cc(S(=O)(=O)[O-])cc5F)c5ccc2[nH]5)C=C4)C=C3)cc1
REMARK SMILES IDX 4 1 3 2 1 3 2 4 27 6 28 7 92 8 29 9 91 10 30 11 31 12 32 13
REMARK SMILES IDX 85 14 33 15 90 16 84 17 86 18 34 19 89 20 83 21 82 22 35 24
REMARK SMILES IDX 69 25 48 26 68 27 49 28 52 29 67 30 87 31 50 32 51 33 66 35
REMARK SMILES IDX 88 36 53 37 36 38 37 39 46 40 38 41 39 42 45 43 47 44 40 45
REMARK SMILES IDX 41 46 42 47 43 48 44 49 70 50 71 51 80 52 72 53 73 54 79 55
REMARK SMILES IDX 81 56 74 57 75 58 76 59 77 60 78 61 54 62 55 63 64 64 56 65
REMARK SMILES IDX 57 66 63 67 65 68 58 69 59 70 60 71 61 72 62 73 5 74 6 75
REMARK SMILES IDX 7 76 8 77 9 79 10 80 11 81 16 82 12 83 15 84 13 85 14 86
REMARK SMILES IDX 17 87 18 88 19 90 20 91 21 92 26 93 22 94 23 95 24 96 25 97
REMARK H PARENT 3 5 86 23 52 34 7 78 17 89
REMARK Flexibility Score: inf
ROOT
ATOM      1  C   UNL     1      10.957  -1.021   2.647  1.00  0.00     0.118 C 
ENDROOT
BRANCH   1   2
ATOM      2  N   UNL     1      10.961   0.423   2.853  1.00  0.00    -0.352 N 
ATOM      3  O   UNL     1      10.576   2.394   3.866  1.00  0.00    -0.269 OA
ATOM      4  C   UNL     1      10.652   1.172   3.966  1.00  0.00     0.251 C 
ATOM      5  H   UNL     1      11.228   0.949   2.065  1.00  0.00     0.163 HD
BRANCH   4   6
ATOM      6  C   UNL     1      10.375   0.512   5.261  1.00  0.00     0.039 A 
ATOM      7  C   UNL     1      11.130  -0.581   5.679  1.00  0.00     0.014 A 
ATOM      8  C   UNL     1       9.334   0.984   6.066  1.00  0.00     0.014 A 
ATOM      9  C   UNL     1      10.708  -1.335   6.766  1.00  0.00     0.010 A 
ATOM     10  C   UNL     1       8.993   0.298   7.237  1.00  0.00     0.010 A 
ATOM     11  C   UNL     1       9.639  -0.902   7.568  1.00  0.00    -0.014 A 
BRANCH  11  12
ATOM     12  C   UNL     1       9.251  -1.715   8.752  1.00  0.00     0.031 A 
ATOM     13  C   UNL     1       7.877  -2.320   8.869  1.00  0.00     0.074 A 
ATOM     14  C   UNL     1      10.178  -1.962   9.701  1.00  0.00     0.049 A 
ATOM     15  N   UNL     1       7.397  -3.095   9.809  1.00  0.00    -0.248 NA
ATOM     16  C   UNL     1       6.912  -2.015   7.801  1.00  0.00     0.031 C 
ATOM     17  C   UNL     1      11.543  -1.428   9.700  1.00  0.00     0.029 A 
ATOM     18  N   UNL     1      10.132  -2.745  10.826  1.00  0.00    -0.354 N 
ATOM     19  C   UNL     1       6.078  -3.360   9.456  1.00  0.00     0.074 A 
ATOM     20  C   UNL     1       5.819  -2.628   8.235  1.00  0.00     0.031 C 
ATOM     21  C   UNL     1      12.222  -1.951  10.730  1.00  0.00     0.029 A 
ATOM     22  C   UNL     1      11.324  -2.794  11.510  1.00  0.00     0.049 A 
ATOM     23  H   UNL     1       9.323  -3.225  11.117  1.00  0.00     0.167 HD
ATOM     24  C   UNL     1       5.174  -4.152  10.082  1.00  0.00     0.037 A 
ATOM     25  C   UNL     1      11.662  -3.433  12.646  1.00  0.00     0.037 A 
ATOM     26  C   UNL     1       5.446  -4.884  11.294  1.00  0.00     0.049 A 
ATOM     27  C   UNL     1      10.633  -4.277  13.340  1.00  0.00     0.074 A 
ATOM     28  C   UNL     1       4.599  -5.721  12.001  1.00  0.00     0.029 A 
ATOM     29  N   UNL     1       6.653  -4.870  11.980  1.00  0.00    -0.354 N 
ATOM     30  N   UNL     1       9.393  -4.518  12.985  1.00  0.00    -0.248 NA
ATOM     31  C   UNL     1      11.044  -4.934  14.586  1.00  0.00     0.031 C 
ATOM     32  C   UNL     1       5.275  -6.170  13.139  1.00  0.00     0.029 A 
ATOM     33  C   UNL     1       6.566  -5.668  13.111  1.00  0.00     0.049 A 
ATOM     34  H   UNL     1       7.453  -4.367  11.705  1.00  0.00     0.167 HD
ATOM     35  C   UNL     1       8.881  -5.373  13.954  1.00  0.00     0.074 A 
ATOM     36  C   UNL     1       9.951  -5.617  14.900  1.00  0.00     0.031 C 
ATOM     37  C   UNL     1       7.638  -5.907  14.047  1.00  0.00     0.037 A 
BRANCH  24  38
ATOM     38  C   UNL     1       3.799  -4.269   9.477  1.00  0.00     0.058 A 
ATOM     39  C   UNL     1       2.679  -3.739  10.139  1.00  0.00     0.135 A 
ATOM     40  C   UNL     1       3.577  -4.952   8.269  1.00  0.00     0.135 A 
ATOM     41  F   UNL     1       2.828  -3.074  11.296  1.00  0.00    -0.206 F 
ATOM     42  C   UNL     1       1.391  -3.891   9.634  1.00  0.00     0.059 A 
ATOM     43  C   UNL     1       2.300  -5.090   7.730  1.00  0.00     0.059 A 
ATOM     44  F   UNL     1       4.612  -5.462   7.582  1.00  0.00    -0.206 F 
ATOM     45  C   UNL     1       1.212  -4.566   8.426  1.00  0.00     0.060 A 
BRANCH  45  46
ATOM     46  S   UNL     1      -0.460  -4.708   7.758  1.00  0.00     0.124 S 
ATOM     47  O   UNL     1      -1.084  -5.629   8.700  1.00  0.00    -0.237 OA
ATOM     48  O   UNL     1      -0.928  -3.326   7.812  1.00  0.00    -0.237 OA
ATOM     49  O   UNL     1      -0.243  -5.233   6.413  1.00  0.00    -0.744 OA
ENDBRANCH  45  46
ENDBRANCH  24  38
BRANCH  25  50
ATOM     50  C   UNL     1      13.046  -3.298  13.174  1.00  0.00     0.058 A 
ATOM     51  C   UNL     1      13.519  -2.067  13.657  1.00  0.00     0.135 A 
ATOM     52  C   UNL     1      13.942  -4.376  13.143  1.00  0.00     0.135 A 
ATOM     53  F   UNL     1      12.706  -1.000  13.694  1.00  0.00    -0.206 F 
ATOM     54  C   UNL     1      14.840  -1.900  14.053  1.00  0.00     0.059 A 
ATOM     55  C   UNL     1      15.261  -4.242  13.564  1.00  0.00     0.059 A 
ATOM     56  F   UNL     1      13.533  -5.574  12.698  1.00  0.00    -0.206 F 
ATOM     57  C   UNL     1      15.706  -2.993  13.998  1.00  0.00     0.060 A 
BRANCH  57  58
ATOM     58  S   UNL     1      17.424  -2.744  14.491  1.00  0.00     0.124 S 
ATOM     59  O   UNL     1      17.910  -1.874  13.425  1.00  0.00    -0.237 OA
ATOM     60  O   UNL     1      17.277  -2.122  15.803  1.00  0.00    -0.237 OA
ATOM     61  O   UNL     1      17.973  -4.096  14.497  1.00  0.00    -0.744 OA
ENDBRANCH  57  58
ENDBRANCH  25  50
BRANCH  37  62
ATOM     62  C   UNL     1       7.366  -6.840  15.195  1.00  0.00     0.058 A 
ATOM     63  C   UNL     1       7.154  -8.208  14.960  1.00  0.00     0.135 A 
ATOM     64  C   UNL     1       7.254  -6.378  16.516  1.00  0.00     0.135 A 
ATOM     65  F   UNL     1       7.244  -8.704  13.716  1.00  0.00    -0.206 F 
ATOM     66  C   UNL     1       6.827  -9.082  15.991  1.00  0.00     0.059 A 
ATOM     67  C   UNL     1       6.959  -7.240  17.568  1.00  0.00     0.059 A 
ATOM     68  F   UNL     1       7.458  -5.081  16.797  1.00  0.00    -0.206 F 
ATOM     69  C   UNL     1       6.732  -8.589  17.293  1.00  0.00     0.060 A 
BRANCH  69  70
ATOM     70  S   UNL     1       6.333  -9.744  18.621  1.00  0.00     0.124 S 
ATOM     71  O   UNL     1       4.936 -10.056  18.337  1.00  0.00    -0.237 OA
ATOM     72  O   UNL     1       7.286 -10.825  18.385  1.00  0.00    -0.237 OA
ATOM     73  O   UNL     1       6.569  -8.963  19.832  1.00  0.00    -0.744 OA
ENDBRANCH  69  70
ENDBRANCH  37  62
ENDBRANCH  11  12
ENDBRANCH   4   6
ENDBRANCH   1   2
BRANCH   1  74
ATOM     74  C   UNL     1       9.867  -1.488   1.697  1.00  0.00     0.042 C 
BRANCH  74  75
ATOM     75  C   UNL     1      10.028  -0.980   0.274  1.00  0.00     0.118 C 
BRANCH  75  76
ATOM     76  N   UNL     1      11.256  -1.455  -0.358  1.00  0.00    -0.352 N 
ATOM     77  C   UNL     1      11.426  -2.307  -1.423  1.00  0.00     0.253 C 
ATOM     78  H   UNL     1      12.089  -1.113   0.039  1.00  0.00     0.163 HD
ATOM     79  O   UNL     1      12.536  -2.763  -1.680  1.00  0.00    -0.269 OA
BRANCH  77  80
ATOM     80  C   UNL     1      10.259  -2.714  -2.239  1.00  0.00     0.063 A 
ATOM     81  C   UNL     1       9.383  -1.703  -2.678  1.00  0.00     0.019 A 
ATOM     82  C   UNL     1      10.036  -4.071  -2.573  1.00  0.00     0.056 A 
ATOM     83  C   UNL     1       8.191  -2.034  -3.305  1.00  0.00     0.040 A 
ATOM     84  C   UNL     1       8.788  -4.375  -3.124  1.00  0.00     0.066 A 
ATOM     85  C   UNL     1       7.889  -3.370  -3.485  1.00  0.00     0.125 A 
ATOM     86  F   UNL     1       6.719  -3.710  -4.038  1.00  0.00    -0.207 F 
BRANCH  82  87
ATOM     87  N   UNL     1      11.090  -5.009  -2.374  1.00  0.00    -0.325 N 
ATOM     88  C   UNL     1      11.338  -6.285  -2.805  1.00  0.00     0.228 C 
ATOM     89  H   UNL     1      11.804  -4.660  -1.792  1.00  0.00     0.169 HD
ATOM     90  O   UNL     1      12.426  -6.804  -2.548  1.00  0.00    -0.274 OA
BRANCH  88  91
ATOM     91  C   UNL     1      10.302  -7.058  -3.571  1.00  0.00     0.095 C 
ATOM     92  C   UNL     1      10.810  -8.161  -4.509  1.00  0.00     0.030 C 
ATOM     93  C   UNL     1       9.399  -7.800  -2.589  1.00  0.00     0.150 C 
ATOM     94  C   UNL     1       9.535  -8.834  -5.028  1.00  0.00     0.138 C 
ATOM     95  S   UNL     1       8.392  -8.811  -3.648  1.00  0.00     0.151 S 
ATOM     96  O   UNL     1       7.232  -8.027  -4.030  1.00  0.00    -0.229 OA
ATOM     97  O   UNL     1       8.287 -10.137  -3.090  1.00  0.00    -0.229 OA
ENDBRANCH  88  91
ENDBRANCH  82  87
ENDBRANCH  77  80
ENDBRANCH  75  76
ENDBRANCH  74  75
ENDBRANCH   1  74
TORSDOF 15
