REMARK SMILES O=C(CC[NH+]1CCC([N@H+]2CCC[C@H](C(=O)NCc3cccnc3)C2)CC1)NCCCNC(=O)c1ccc(-c2c3nc(c(-c4c(F)cc(S(=O)(=O)[O-])cc4F)c4ccc([nH]4)c(-c4c(F)cc(S(=O)(=O)[O-])cc4F)c4nc(c(-c5c(F)cc(S(=O)(=O)[O-])cc5F)c5ccc2[nH]5)C=C4)C=C3)cc1
REMARK SMILES IDX 1 1 2 2 27 3 3 5 4 6 5 7 6 8 26 9 7 11 25 12 8 13 9 14 10 15
REMARK SMILES IDX 24 16 11 18 13 19 12 20 14 21 15 22 16 23 17 25 18 26 19 27
REMARK SMILES IDX 23 28 20 29 22 30 21 31 28 32 29 33 30 34 31 35 32 36 33 38
REMARK SMILES IDX 34 39 35 40 99 41 36 42 98 43 37 44 38 45 39 46 92 47 40 48
REMARK SMILES IDX 97 49 91 50 93 51 41 52 96 53 90 54 89 55 42 57 76 58 55 59
REMARK SMILES IDX 75 60 56 61 59 62 74 63 94 64 57 65 58 66 73 68 95 69 60 70
REMARK SMILES IDX 43 71 44 72 53 73 45 74 46 75 52 76 54 77 47 78 48 79 49 80
REMARK SMILES IDX 50 81 51 82 77 83 78 84 87 85 79 86 80 87 86 88 88 89 81 90
REMARK SMILES IDX 82 91 83 92 84 93 85 94 61 95 62 96 71 97 63 98 64 99 70 100
REMARK SMILES IDX 72 101 65 102 66 103 67 104 68 105 69 106
REMARK H PARENT 27 4 5 10 9 17 16 24 31 37 93 56 59 67
REMARK Flexibility Score: inf
ROOT
ATOM      1  O   UNL     1       0.694  -0.371  -0.120  1.00  0.00    -0.275 OA
ATOM      2  C   UNL     1       1.909  -0.208  -0.091  1.00  0.00     0.225 C 
ATOM      3  N   UNL     1       2.540   0.775   0.633  1.00  0.00    -0.356 N 
ATOM      4  H   UNL     1       3.524   0.795   0.629  1.00  0.00     0.163 HD
ENDROOT
BRANCH   2   5
ATOM      5  C   UNL     1       2.864  -1.108  -0.853  1.00  0.00     0.161 C 
BRANCH   5   6
ATOM      6  C   UNL     1       3.653  -0.336  -1.914  1.00  0.00     0.272 C 
BRANCH   6   7
ATOM      7  N   UNL     1       4.709   0.468  -1.271  1.00  0.00    -0.334 N 
ATOM      8  C   UNL     1       6.044  -0.112  -1.479  1.00  0.00     0.268 C 
ATOM      9  C   UNL     1       4.686   1.870  -1.710  1.00  0.00     0.268 C 
ATOM     10  H   UNL     1       4.508   0.452  -0.271  1.00  0.00     0.348 HD
ATOM     11  C   UNL     1       7.073   0.624  -0.622  1.00  0.00     0.126 C 
ATOM     12  C   UNL     1       5.629   2.690  -0.831  1.00  0.00     0.126 C 
ATOM     13  C   UNL     1       7.060   2.136  -0.900  1.00  0.00     0.195 C 
BRANCH  13  14
ATOM     14  N   UNL     1       7.933   2.966  -0.043  1.00  0.00    -0.331 N 
ATOM     15  C   UNL     1       8.037   2.521   1.353  1.00  0.00     0.262 C 
ATOM     16  C   UNL     1       9.258   3.161  -0.639  1.00  0.00     0.275 C 
ATOM     17  H   UNL     1       7.459   3.868   0.002  1.00  0.00     0.348 HD
ATOM     18  C   UNL     1       8.793   3.524   2.221  1.00  0.00     0.062 C 
ATOM     19  C   UNL     1      10.148   4.133   0.135  1.00  0.00     0.133 C 
ATOM     20  C   UNL     1      10.141   3.929   1.649  1.00  0.00     0.025 C 
BRANCH  19  21
ATOM     21  C   UNL     1      10.087   5.581  -0.353  1.00  0.00     0.229 C 
ATOM     22  O   UNL     1      11.092   6.068  -0.892  1.00  0.00    -0.275 OA
ATOM     23  N   UNL     1       9.024   6.409  -0.281  1.00  0.00    -0.352 N 
ATOM     24  H   UNL     1       9.216   7.307  -0.633  1.00  0.00     0.163 HD
BRANCH  23  25
ATOM     25  C   UNL     1       7.662   6.276   0.199  1.00  0.00     0.153 C 
BRANCH  25  26
ATOM     26  C   UNL     1       7.368   7.226   1.326  1.00  0.00    -0.010 A 
ATOM     27  C   UNL     1       6.873   6.772   2.548  1.00  0.00     0.009 A 
ATOM     28  C   UNL     1       7.543   8.601   1.205  1.00  0.00     0.116 A 
ATOM     29  C   UNL     1       6.639   7.661   3.591  1.00  0.00     0.020 A 
ATOM     30  N   UNL     1       7.307   9.498   2.192  1.00  0.00    -0.264 NA
ATOM     31  C   UNL     1       6.871   9.002   3.369  1.00  0.00     0.111 A 
ENDBRANCH  25  26
ENDBRANCH  23  25
ENDBRANCH  19  21
ENDBRANCH  13  14
ENDBRANCH   6   7
ENDBRANCH   5   6
ENDBRANCH   2   5
BRANCH   3  32
ATOM     32  C   UNL     1       1.842   1.783   1.401  1.00  0.00     0.117 C 
BRANCH  32  33
ATOM     33  C   UNL     1       2.169   1.703   2.890  1.00  0.00     0.042 C 
BRANCH  33  34
ATOM     34  C   UNL     1       3.634   1.978   3.232  1.00  0.00     0.118 C 
BRANCH  34  35
ATOM     35  N   UNL     1       4.007   3.346   2.919  1.00  0.00    -0.352 N 
ATOM     36  C   UNL     1       4.362   4.376   3.747  1.00  0.00     0.251 C 
ATOM     37  H   UNL     1       4.003   3.568   1.960  1.00  0.00     0.163 HD
ATOM     38  O   UNL     1       4.165   5.521   3.342  1.00  0.00    -0.269 OA
BRANCH  36  39
ATOM     39  C   UNL     1       4.995   4.162   5.075  1.00  0.00     0.039 A 
ATOM     40  C   UNL     1       4.930   5.211   6.000  1.00  0.00     0.014 A 
ATOM     41  C   UNL     1       5.709   3.008   5.412  1.00  0.00     0.014 A 
ATOM     42  C   UNL     1       5.516   5.082   7.261  1.00  0.00     0.010 A 
ATOM     43  C   UNL     1       6.207   2.840   6.709  1.00  0.00     0.010 A 
ATOM     44  C   UNL     1       6.097   3.866   7.656  1.00  0.00    -0.014 A 
BRANCH  44  45
ATOM     45  C   UNL     1       6.469   3.642   9.082  1.00  0.00     0.031 A 
ATOM     46  C   UNL     1       7.876   3.306   9.496  1.00  0.00     0.074 A 
ATOM     47  C   UNL     1       5.492   3.692  10.012  1.00  0.00     0.049 A 
ATOM     48  N   UNL     1       8.340   3.041  10.692  1.00  0.00    -0.248 NA
ATOM     49  C   UNL     1       8.889   3.230   8.433  1.00  0.00     0.031 C 
ATOM     50  C   UNL     1       4.073   3.938   9.732  1.00  0.00     0.029 A 
ATOM     51  N   UNL     1       5.534   3.546  11.376  1.00  0.00    -0.354 N 
ATOM     52  C   UNL     1       9.688   2.743  10.526  1.00  0.00     0.074 A 
ATOM     53  C   UNL     1       9.960   2.829   9.106  1.00  0.00     0.031 C 
ATOM     54  C   UNL     1       3.393   3.979  10.887  1.00  0.00     0.029 A 
ATOM     55  C   UNL     1       4.311   3.708  11.986  1.00  0.00     0.049 A 
ATOM     56  H   UNL     1       6.361   3.344  11.871  1.00  0.00     0.167 HD
ATOM     57  C   UNL     1      10.612   2.436  11.470  1.00  0.00     0.037 A 
ATOM     58  C   UNL     1       3.958   3.642  13.283  1.00  0.00     0.037 A 
ATOM     59  C   UNL     1      10.341   2.386  12.886  1.00  0.00     0.049 A 
ATOM     60  C   UNL     1       5.010   3.351  14.312  1.00  0.00     0.074 A 
ATOM     61  C   UNL     1      11.225   2.143  13.924  1.00  0.00     0.029 A 
ATOM     62  N   UNL     1       9.096   2.586  13.465  1.00  0.00    -0.354 N 
ATOM     63  N   UNL     1       6.288   3.116  14.135  1.00  0.00    -0.248 NA
ATOM     64  C   UNL     1       4.576   3.316  15.714  1.00  0.00     0.031 C 
ATOM     65  C   UNL     1      10.509   2.165  15.127  1.00  0.00     0.029 A 
ATOM     66  C   UNL     1       9.187   2.462  14.843  1.00  0.00     0.049 A 
ATOM     67  H   UNL     1       8.269   2.788  12.970  1.00  0.00     0.167 HD
ATOM     68  C   UNL     1       6.814   2.917  15.405  1.00  0.00     0.074 A 
ATOM     69  C   UNL     1       5.720   3.079  16.341  1.00  0.00     0.031 C 
ATOM     70  C   UNL     1       8.088   2.622  15.762  1.00  0.00     0.037 A 
BRANCH  57  71
ATOM     71  C   UNL     1      12.012   2.130  11.007  1.00  0.00     0.058 A 
ATOM     72  C   UNL     1      12.865   3.135  10.523  1.00  0.00     0.135 A 
ATOM     73  C   UNL     1      12.524   0.825  11.093  1.00  0.00     0.135 A 
ATOM     74  F   UNL     1      12.425   4.398  10.410  1.00  0.00    -0.206 F 
ATOM     75  C   UNL     1      14.164   2.851  10.112  1.00  0.00     0.059 A 
ATOM     76  C   UNL     1      13.828   0.523  10.710  1.00  0.00     0.059 A 
ATOM     77  F   UNL     1      11.754  -0.174  11.553  1.00  0.00    -0.206 F 
ATOM     78  C   UNL     1      14.636   1.541  10.205  1.00  0.00     0.060 A 
BRANCH  78  79
ATOM     79  S   UNL     1      16.321   1.186   9.663  1.00  0.00     0.124 S 
ATOM     80  O   UNL     1      16.170   1.218   8.211  1.00  0.00    -0.237 OA
ATOM     81  O   UNL     1      17.078   2.289  10.245  1.00  0.00    -0.237 OA
ATOM     82  O   UNL     1      16.593  -0.129  10.237  1.00  0.00    -0.744 OA
ENDBRANCH  78  79
ENDBRANCH  57  71
BRANCH  58  83
ATOM     83  C   UNL     1       2.545   3.881  13.674  1.00  0.00     0.058 A 
ATOM     84  C   UNL     1       2.169   5.065  14.324  1.00  0.00     0.135 A 
ATOM     85  C   UNL     1       1.537   2.953  13.367  1.00  0.00     0.135 A 
ATOM     86  F   UNL     1       3.099   5.980  14.638  1.00  0.00    -0.206 F 
ATOM     87  C   UNL     1       0.846   5.320  14.666  1.00  0.00     0.059 A 
ATOM     88  C   UNL     1       0.203   3.196  13.677  1.00  0.00     0.059 A 
ATOM     89  F   UNL     1       1.843   1.815  12.726  1.00  0.00    -0.206 F 
ATOM     90  C   UNL     1      -0.131   4.379  14.335  1.00  0.00     0.060 A 
BRANCH  90  91
ATOM     91  S   UNL     1      -1.857   4.745  14.725  1.00  0.00     0.124 S 
ATOM     92  O   UNL     1      -1.894   4.480  16.158  1.00  0.00    -0.237 OA
ATOM     93  O   UNL     1      -1.973   6.145  14.330  1.00  0.00    -0.237 OA
ATOM     94  O   UNL     1      -2.594   3.803  13.887  1.00  0.00    -0.744 OA
ENDBRANCH  90  91
ENDBRANCH  58  83
BRANCH  70  95
ATOM     95  C   UNL     1       8.367   2.475  17.230  1.00  0.00     0.058 A 
ATOM     96  C   UNL     1       7.948   1.343  17.947  1.00  0.00     0.135 A 
ATOM     97  C   UNL     1       9.077   3.467  17.924  1.00  0.00     0.135 A 
ATOM     98  F   UNL     1       7.258   0.370  17.331  1.00  0.00    -0.206 F 
ATOM     99  C   UNL     1       8.201   1.212  19.308  1.00  0.00     0.059 A 
ATOM    100  C   UNL     1       9.361   3.347  19.280  1.00  0.00     0.059 A 
ATOM    101  F   UNL     1       9.505   4.566  17.282  1.00  0.00    -0.206 F 
ATOM    102  C   UNL     1       8.906   2.222  19.967  1.00  0.00     0.060 A 
BRANCH 102 103
ATOM    103  S   UNL     1       9.244   2.035  21.731  1.00  0.00     0.124 S 
ATOM    104  O   UNL     1       7.949   2.367  22.314  1.00  0.00    -0.237 OA
ATOM    105  O   UNL     1       9.643   0.634  21.828  1.00  0.00    -0.237 OA
ATOM    106  O   UNL     1      10.311   3.002  21.974  1.00  0.00    -0.744 OA
ENDBRANCH 102 103
ENDBRANCH  70  95
ENDBRANCH  44  45
ENDBRANCH  36  39
ENDBRANCH  34  35
ENDBRANCH  33  34
ENDBRANCH  32  33
ENDBRANCH   3  32
TORSDOF 19
