REMARK SMILES C[C@H]1[C@@H](C(=O)NCCCNC(=O)c2ccc(-c3c4nc(c(-c5c(F)cc(S(=O)(=O)[O-])cc5F)c5ccc([nH]5)c(-c5c(F)cc(S(=O)(=O)[O-])cc5F)c5nc(c(-c6c(F)cc(S(=O)(=O)[O-])cc6F)c6ccc3[nH]6)C=C5)C=C4)cc2)CCN1C(=O)NCC(C1CC1)C1CC1
REMARK SMILES IDX 7 1 6 2 4 3 5 4 3 6 1 7 2 8 81 9 79 10 80 11 82 12 83 13
REMARK SMILES IDX 84 14 85 16 86 17 87 18 88 19 89 20 90 21 91 22 92 23 8 24
REMARK SMILES IDX 9 25 10 26 11 27 12 29 13 30 14 31 78 32 15 33 77 34 16 35
REMARK SMILES IDX 17 36 18 37 71 38 19 39 76 40 70 41 72 42 20 43 75 44 69 45
REMARK SMILES IDX 68 46 21 48 55 49 34 50 54 51 35 52 38 53 53 54 73 55 36 56
REMARK SMILES IDX 37 57 52 59 74 60 39 61 22 62 23 63 32 64 24 65 25 66 31 67
REMARK SMILES IDX 33 68 26 69 27 70 28 71 29 72 30 73 56 74 57 75 66 76 58 77
REMARK SMILES IDX 59 78 65 79 67 80 60 81 61 82 62 83 63 84 64 85 40 86 41 87
REMARK SMILES IDX 50 88 42 89 43 90 49 91 51 92 44 93 45 94 46 95 47 96 48 97
REMARK H PARENT 6 5 84 15 10 28 72 47 38 58
REMARK Flexibility Score: inf
ROOT
ATOM      1  C   UNL     1       2.773   1.976  -1.187  1.00  0.00     0.117 C 
ENDROOT
BRANCH   1   2
ATOM      2  N   UNL     1       1.517   2.131  -1.909  1.00  0.00    -0.356 N 
ATOM      3  C   UNL     1       0.240   1.730  -1.641  1.00  0.00     0.225 C 
ATOM      4  O   UNL     1      -0.608   1.995  -2.495  1.00  0.00    -0.275 OA
ATOM      5  H   UNL     1       1.606   2.621  -2.758  1.00  0.00     0.163 HD
BRANCH   3   6
ATOM      6  C   UNL     1      -0.141   1.094  -0.308  1.00  0.00     0.102 C 
ATOM      7  C   UNL     1       1.238  -1.041  -0.954  1.00  0.00     0.032 C 
ATOM      8  C   UNL     1       0.576  -0.194   0.130  1.00  0.00     0.096 C 
ATOM      9  N   UNL     1      -0.433  -1.014   0.778  1.00  0.00    -0.321 N 
ATOM     10  C   UNL     1      -1.643   0.765  -0.167  1.00  0.00     0.037 C 
ATOM     11  C   UNL     1      -1.715  -0.714   0.172  1.00  0.00     0.122 C 
BRANCH   9  12
ATOM     12  C   UNL     1      -0.297  -2.103   1.586  1.00  0.00     0.317 C 
ATOM     13  O   UNL     1      -1.276  -2.787   1.904  1.00  0.00    -0.249 OA
ATOM     14  N   UNL     1       0.893  -2.514   2.072  1.00  0.00    -0.338 N 
ATOM     15  H   UNL     1       0.794  -3.315   2.637  1.00  0.00     0.165 HD
BRANCH  14  16
ATOM     16  C   UNL     1       2.291  -2.089   1.985  1.00  0.00     0.121 C 
BRANCH  16  17
ATOM     17  C   UNL     1       2.975  -1.995   3.366  1.00  0.00     0.014 C 
BRANCH  17  18
ATOM     18  C   UNL     1       3.595  -3.298   3.842  1.00  0.00    -0.006 C 
ATOM     19  C   UNL     1       3.413  -4.652   3.194  1.00  0.00     0.004 C 
ATOM     20  C   UNL     1       4.724  -3.929   3.059  1.00  0.00     0.004 C 
ENDBRANCH  17  18
BRANCH  17  21
ATOM     21  C   UNL     1       4.019  -0.887   3.500  1.00  0.00    -0.006 C 
ATOM     22  C   UNL     1       4.848  -0.387   2.341  1.00  0.00     0.004 C 
ATOM     23  C   UNL     1       3.823   0.517   2.975  1.00  0.00     0.004 C 
ENDBRANCH  17  21
ENDBRANCH  16  17
ENDBRANCH  14  16
ENDBRANCH   9  12
ENDBRANCH   3   6
ENDBRANCH   1   2
BRANCH   1  24
ATOM     24  C   UNL     1       3.710   0.981  -1.878  1.00  0.00     0.042 C 
BRANCH  24  25
ATOM     25  C   UNL     1       4.316   1.465  -3.190  1.00  0.00     0.118 C 
BRANCH  25  26
ATOM     26  N   UNL     1       5.649   2.004  -3.011  1.00  0.00    -0.352 N 
ATOM     27  C   UNL     1       6.893   1.462  -3.233  1.00  0.00     0.251 C 
ATOM     28  H   UNL     1       5.668   2.927  -2.668  1.00  0.00     0.163 HD
ATOM     29  O   UNL     1       7.863   2.067  -2.775  1.00  0.00    -0.269 OA
BRANCH  27  30
ATOM     30  C   UNL     1       7.115   0.190  -3.977  1.00  0.00     0.039 A 
ATOM     31  C   UNL     1       8.244  -0.573  -3.645  1.00  0.00     0.014 A 
ATOM     32  C   UNL     1       6.326  -0.226  -5.051  1.00  0.00     0.014 A 
ATOM     33  C   UNL     1       8.559  -1.737  -4.360  1.00  0.00     0.010 A 
ATOM     34  C   UNL     1       6.584  -1.439  -5.703  1.00  0.00     0.010 A 
ATOM     35  C   UNL     1       7.721  -2.196  -5.388  1.00  0.00    -0.014 A 
BRANCH  35  36
ATOM     36  C   UNL     1       8.056  -3.425  -6.165  1.00  0.00     0.031 A 
ATOM     37  C   UNL     1       8.318  -3.347  -7.651  1.00  0.00     0.074 A 
ATOM     38  C   UNL     1       8.104  -4.623  -5.548  1.00  0.00     0.049 A 
ATOM     39  N   UNL     1       8.593  -4.309  -8.496  1.00  0.00    -0.248 NA
ATOM     40  C   UNL     1       8.234  -2.016  -8.274  1.00  0.00     0.031 C 
ATOM     41  C   UNL     1       7.823  -4.855  -4.129  1.00  0.00     0.029 A 
ATOM     42  N   UNL     1       8.401  -5.874  -6.033  1.00  0.00    -0.354 N 
ATOM     43  C   UNL     1       8.698  -3.705  -9.745  1.00  0.00     0.074 A 
ATOM     44  C   UNL     1       8.401  -2.302  -9.557  1.00  0.00     0.031 C 
ATOM     45  C   UNL     1       7.985  -6.159  -3.855  1.00  0.00     0.029 A 
ATOM     46  C   UNL     1       8.350  -6.864  -5.081  1.00  0.00     0.049 A 
ATOM     47  H   UNL     1       8.629  -6.045  -6.976  1.00  0.00     0.167 HD
ATOM     48  C   UNL     1       9.037  -4.257 -10.937  1.00  0.00     0.037 A 
ATOM     49  C   UNL     1       8.569  -8.191  -5.178  1.00  0.00     0.037 A 
ATOM     50  C   UNL     1       9.366  -5.647 -11.122  1.00  0.00     0.049 A 
ATOM     51  C   UNL     1       8.970  -8.779  -6.503  1.00  0.00     0.074 A 
ATOM     52  C   UNL     1       9.772  -6.289 -12.280  1.00  0.00     0.029 A 
ATOM     53  N   UNL     1       9.331  -6.609 -10.124  1.00  0.00    -0.354 N 
ATOM     54  N   UNL     1       9.116  -8.179  -7.661  1.00  0.00    -0.248 NA
ATOM     55  C   UNL     1       9.249 -10.221  -6.534  1.00  0.00     0.031 C 
ATOM     56  C   UNL     1       9.952  -7.647 -11.989  1.00  0.00     0.029 A 
ATOM     57  C   UNL     1       9.697  -7.842 -10.641  1.00  0.00     0.049 A 
ATOM     58  H   UNL     1       9.083  -6.442  -9.187  1.00  0.00     0.167 HD
ATOM     59  C   UNL     1       9.519  -9.167  -8.553  1.00  0.00     0.074 A 
ATOM     60  C   UNL     1       9.614 -10.399  -7.797  1.00  0.00     0.031 C 
ATOM     61  C   UNL     1       9.785  -9.063  -9.879  1.00  0.00     0.037 A 
BRANCH  48  62
ATOM     62  C   UNL     1       9.080  -3.347 -12.136  1.00  0.00     0.058 A 
ATOM     63  C   UNL     1      10.080  -2.372 -12.284  1.00  0.00     0.135 A 
ATOM     64  C   UNL     1       8.128  -3.465 -13.162  1.00  0.00     0.135 A 
ATOM     65  F   UNL     1      11.009  -2.206 -11.328  1.00  0.00    -0.206 F 
ATOM     66  C   UNL     1      10.113  -1.521 -13.384  1.00  0.00     0.059 A 
ATOM     67  C   UNL     1       8.158  -2.643 -14.286  1.00  0.00     0.059 A 
ATOM     68  F   UNL     1       7.152  -4.383 -13.077  1.00  0.00    -0.206 F 
ATOM     69  C   UNL     1       9.144  -1.661 -14.378  1.00  0.00     0.060 A 
BRANCH  69  70
ATOM     70  S   UNL     1       9.191  -0.544 -15.796  1.00  0.00     0.124 S 
ATOM     71  O   UNL     1       8.690   0.695 -15.203  1.00  0.00    -0.237 OA
ATOM     72  O   UNL     1      10.610  -0.544 -16.148  1.00  0.00    -0.237 OA
ATOM     73  O   UNL     1       8.308  -1.180 -16.762  1.00  0.00    -0.744 OA
ENDBRANCH  69  70
ENDBRANCH  48  62
BRANCH  49  74
ATOM     74  C   UNL     1       8.438  -9.050  -3.971  1.00  0.00     0.058 A 
ATOM     75  C   UNL     1       9.569  -9.595  -3.345  1.00  0.00     0.135 A 
ATOM     76  C   UNL     1       7.183  -9.322  -3.405  1.00  0.00     0.135 A 
ATOM     77  F   UNL     1      10.790  -9.370  -3.853  1.00  0.00    -0.206 F 
ATOM     78  C   UNL     1       9.461 -10.385  -2.205  1.00  0.00     0.059 A 
ATOM     79  C   UNL     1       7.051 -10.089  -2.252  1.00  0.00     0.059 A 
ATOM     80  F   UNL     1       6.072  -8.811  -3.958  1.00  0.00    -0.206 F 
ATOM     81  C   UNL     1       8.197 -10.623  -1.663  1.00  0.00     0.060 A 
BRANCH  81  82
ATOM     82  S   UNL     1       8.072 -11.591  -0.143  1.00  0.00     0.124 S 
ATOM     83  O   UNL     1       8.302 -12.943  -0.636  1.00  0.00    -0.237 OA
ATOM     84  O   UNL     1       9.138 -11.018   0.674  1.00  0.00    -0.237 OA
ATOM     85  O   UNL     1       6.718 -11.308   0.323  1.00  0.00    -0.744 OA
ENDBRANCH  81  82
ENDBRANCH  49  74
BRANCH  61  86
ATOM     86  C   UNL     1      10.223 -10.311 -10.593  1.00  0.00     0.058 A 
ATOM     87  C   UNL     1       9.322 -11.348 -10.883  1.00  0.00     0.135 A 
ATOM     88  C   UNL     1      11.553 -10.460 -11.018  1.00  0.00     0.135 A 
ATOM     89  F   UNL     1       8.040 -11.257 -10.495  1.00  0.00    -0.206 F 
ATOM     90  C   UNL     1       9.730 -12.502 -11.543  1.00  0.00     0.059 A 
ATOM     91  C   UNL     1      11.978 -11.595 -11.702  1.00  0.00     0.059 A 
ATOM     92  F   UNL     1      12.452  -9.493 -10.777  1.00  0.00    -0.206 F 
ATOM     93  C   UNL     1      11.062 -12.618 -11.945  1.00  0.00     0.060 A 
BRANCH  93  94
ATOM     94  S   UNL     1      11.580 -14.115 -12.812  1.00  0.00     0.124 S 
ATOM     95  O   UNL     1      11.661 -15.075 -11.716  1.00  0.00    -0.237 OA
ATOM     96  O   UNL     1      10.488 -14.325 -13.758  1.00  0.00    -0.237 OA
ATOM     97  O   UNL     1      12.856 -13.736 -13.412  1.00  0.00    -0.744 OA
ENDBRANCH  93  94
ENDBRANCH  61  86
ENDBRANCH  35  36
ENDBRANCH  27  30
ENDBRANCH  25  26
ENDBRANCH  24  25
ENDBRANCH   1  24
TORSDOF 18
