REMARK SMILES Cc1cc(=O)n2nc(C)c(C(=O)NCCCNC(=O)c3ccc(-c4c5nc(c(-c6c(F)cc(S(=O)(=O)[O-])cc6F)c6ccc([nH]6)c(-c6c(F)cc(S(=O)(=O)[O-])cc6F)c6nc(c(-c7c(F)cc(S(=O)(=O)[O-])cc7F)c7ccc4[nH]7)C=C6)C=C5)cc3)c2[nH]1
REMARK SMILES IDX 17 1 18 2 19 3 16 5 15 6 14 7 13 8 11 9 12 10 10 12 1 13
REMARK SMILES IDX 2 14 3 15 87 16 4 17 86 18 5 20 6 21 7 22 8 23 9 24 20 25
REMARK SMILES IDX 21 26 85 27 22 28 84 29 23 30 24 31 25 32 78 33 26 34 83 35
REMARK SMILES IDX 77 36 79 37 27 38 82 39 76 40 75 41 28 43 62 44 41 45 61 46
REMARK SMILES IDX 42 47 45 48 60 49 80 50 43 51 44 52 59 54 81 55 46 56 29 57
REMARK SMILES IDX 30 58 39 59 31 60 32 61 38 62 40 63 33 64 34 65 35 66 36 67
REMARK SMILES IDX 37 68 63 69 64 70 73 71 65 72 66 73 72 74 74 75 67 76 68 77
REMARK SMILES IDX 69 78 70 79 71 80 47 81 48 82 57 83 49 84 50 85 56 86 58 87
REMARK SMILES IDX 51 88 52 89 53 90 54 91 55 92
REMARK H PARENT 17 4 13 11 87 19 79 42 45 53
REMARK Flexibility Score: inf
ROOT
ATOM      1  N   UNL     1       0.415   9.299  -5.649  1.00  0.00    -0.352 N 
ATOM      2  C   UNL     1       0.648  10.660  -5.697  1.00  0.00     0.251 C 
ATOM      3  O   UNL     1       1.086  11.184  -6.714  1.00  0.00    -0.269 OA
ATOM      4  H   UNL     1       0.881   8.760  -6.328  1.00  0.00     0.163 HD
ENDROOT
BRANCH   1   5
ATOM      5  C   UNL     1      -0.439   8.553  -4.716  1.00  0.00     0.118 C 
BRANCH   5   6
ATOM      6  C   UNL     1      -0.358   7.061  -4.959  1.00  0.00     0.042 C 
BRANCH   6   7
ATOM      7  C   UNL     1       0.997   6.476  -4.548  1.00  0.00     0.118 C 
BRANCH   7   8
ATOM      8  N   UNL     1       0.969   5.931  -3.212  1.00  0.00    -0.352 N 
ATOM      9  C   UNL     1       0.761   4.673  -2.719  1.00  0.00     0.256 C 
ATOM     10  O   UNL     1       0.989   4.558  -1.509  1.00  0.00    -0.269 OA
ATOM     11  H   UNL     1       1.135   6.603  -2.512  1.00  0.00     0.163 HD
BRANCH   9  12
ATOM     12  C   UNL     1       0.336   3.508  -3.501  1.00  0.00     0.105 A 
ATOM     13  C   UNL     1       1.054   0.058   0.034  1.00  0.00     0.064 C 
ATOM     14  C   UNL     1       0.609   0.454  -1.344  1.00  0.00     0.019 A 
ATOM     15  C   UNL     1       0.109  -0.455  -2.205  1.00  0.00     0.095 A 
ATOM     16  N   UNL     1       0.728   1.787  -1.695  1.00  0.00    -0.343 N 
ATOM     17  C   UNL     1      -0.308  -0.029  -3.563  1.00  0.00     0.274 A 
ATOM     18  C   UNL     1       0.358   2.246  -2.918  1.00  0.00     0.150 A 
ATOM     19  H   UNL     1       1.092   2.422  -1.037  1.00  0.00     0.168 HD
ATOM     20  O   UNL     1      -0.766  -0.806  -4.405  1.00  0.00    -0.267 OA
ATOM     21  N   UNL     1      -0.135   1.337  -3.819  1.00  0.00    -0.179 N 
ATOM     22  N   UNL     1      -0.444   1.913  -4.992  1.00  0.00    -0.168 NA
ATOM     23  C   UNL     1      -0.203   3.220  -4.807  1.00  0.00     0.075 A 
ATOM     24  C   UNL     1      -0.583   4.068  -5.962  1.00  0.00     0.070 C 
ENDBRANCH   9  12
ENDBRANCH   7   8
ENDBRANCH   6   7
ENDBRANCH   5   6
ENDBRANCH   1   5
BRANCH   2  25
ATOM     25  C   UNL     1       0.355  11.455  -4.495  1.00  0.00     0.039 A 
ATOM     26  C   UNL     1      -0.263  12.705  -4.563  1.00  0.00     0.014 A 
ATOM     27  C   UNL     1       0.644  10.866  -3.270  1.00  0.00     0.014 A 
ATOM     28  C   UNL     1      -0.662  13.308  -3.373  1.00  0.00     0.010 A 
ATOM     29  C   UNL     1       0.044  11.341  -2.141  1.00  0.00     0.010 A 
ATOM     30  C   UNL     1      -0.529  12.602  -2.165  1.00  0.00    -0.014 A 
BRANCH  30  31
ATOM     31  C   UNL     1      -1.082  13.108  -0.916  1.00  0.00     0.031 A 
ATOM     32  C   UNL     1      -2.519  13.474  -1.017  1.00  0.00     0.074 A 
ATOM     33  C   UNL     1      -0.419  13.048   0.262  1.00  0.00     0.049 A 
ATOM     34  N   UNL     1      -3.020  14.660  -1.115  1.00  0.00    -0.248 NA
ATOM     35  C   UNL     1      -3.500  12.400  -1.251  1.00  0.00     0.031 C 
ATOM     36  C   UNL     1       0.874  12.409   0.559  1.00  0.00     0.029 A 
ATOM     37  N   UNL     1      -0.809  13.487   1.489  1.00  0.00    -0.354 N 
ATOM     38  C   UNL     1      -4.400  14.484  -1.135  1.00  0.00     0.074 A 
ATOM     39  C   UNL     1      -4.618  13.101  -1.458  1.00  0.00     0.031 C 
ATOM     40  C   UNL     1       1.043  12.303   1.896  1.00  0.00     0.029 A 
ATOM     41  C   UNL     1      -0.019  13.041   2.549  1.00  0.00     0.049 A 
ATOM     42  H   UNL     1      -1.589  14.074   1.619  1.00  0.00     0.167 HD
ATOM     43  C   UNL     1      -5.225  15.418  -0.582  1.00  0.00     0.037 A 
ATOM     44  C   UNL     1      -0.224  13.292   3.866  1.00  0.00     0.037 A 
ATOM     45  C   UNL     1      -4.493  16.631  -0.306  1.00  0.00     0.049 A 
ATOM     46  C   UNL     1      -1.072  14.506   3.921  1.00  0.00     0.074 A 
ATOM     47  C   UNL     1      -3.887  17.620  -1.051  1.00  0.00     0.029 A 
ATOM     48  N   UNL     1      -3.953  16.686   0.954  1.00  0.00    -0.354 N 
ATOM     49  N   UNL     1      -0.682  15.682   3.512  1.00  0.00    -0.248 NA
ATOM     50  C   UNL     1      -2.510  14.341   4.075  1.00  0.00     0.031 C 
ATOM     51  C   UNL     1      -2.762  18.046  -0.282  1.00  0.00     0.029 A 
ATOM     52  C   UNL     1      -2.756  17.351   0.929  1.00  0.00     0.049 A 
ATOM     53  H   UNL     1      -4.367  16.303   1.761  1.00  0.00     0.167 HD
ATOM     54  C   UNL     1      -1.816  16.256   2.965  1.00  0.00     0.074 A 
ATOM     55  C   UNL     1      -2.927  15.460   3.478  1.00  0.00     0.031 C 
ATOM     56  C   UNL     1      -1.718  17.127   1.918  1.00  0.00     0.037 A 
BRANCH  43  57
ATOM     57  C   UNL     1      -6.522  15.108   0.143  1.00  0.00     0.058 A 
ATOM     58  C   UNL     1      -7.335  16.177   0.581  1.00  0.00     0.135 A 
ATOM     59  C   UNL     1      -6.856  13.843   0.676  1.00  0.00     0.135 A 
ATOM     60  F   UNL     1      -7.102  17.430   0.159  1.00  0.00    -0.206 F 
ATOM     61  C   UNL     1      -8.361  16.009   1.514  1.00  0.00     0.059 A 
ATOM     62  C   UNL     1      -7.907  13.644   1.565  1.00  0.00     0.059 A 
ATOM     63  F   UNL     1      -6.124  12.748   0.442  1.00  0.00    -0.206 F 
ATOM     64  C   UNL     1      -8.635  14.736   2.005  1.00  0.00     0.060 A 
BRANCH  64  65
ATOM     65  S   UNL     1      -9.918  14.522   3.251  1.00  0.00     0.124 S 
ATOM     66  O   UNL     1      -9.342  15.227   4.390  1.00  0.00    -0.237 OA
ATOM     67  O   UNL     1     -11.064  15.163   2.613  1.00  0.00    -0.237 OA
ATOM     68  O   UNL     1     -10.016  13.072   3.387  1.00  0.00    -0.744 OA
ENDBRANCH  64  65
ENDBRANCH  43  57
BRANCH  44  69
ATOM     69  C   UNL     1      -0.063  12.403   5.049  1.00  0.00     0.058 A 
ATOM     70  C   UNL     1      -0.219  12.923   6.350  1.00  0.00     0.135 A 
ATOM     71  C   UNL     1      -0.122  11.002   4.930  1.00  0.00     0.135 A 
ATOM     72  F   UNL     1      -0.164  14.248   6.556  1.00  0.00    -0.206 F 
ATOM     73  C   UNL     1      -0.534  12.116   7.446  1.00  0.00     0.059 A 
ATOM     74  C   UNL     1      -0.427  10.174   6.013  1.00  0.00     0.059 A 
ATOM     75  F   UNL     1       0.011  10.406   3.735  1.00  0.00    -0.206 F 
ATOM     76  C   UNL     1      -0.676  10.743   7.258  1.00  0.00     0.060 A 
BRANCH  76  77
ATOM     77  S   UNL     1      -1.322   9.733   8.616  1.00  0.00     0.124 S 
ATOM     78  O   UNL     1      -0.239   9.808   9.591  1.00  0.00    -0.237 OA
ATOM     79  O   UNL     1      -2.546  10.444   8.968  1.00  0.00    -0.237 OA
ATOM     80  O   UNL     1      -1.519   8.424   8.000  1.00  0.00    -0.744 OA
ENDBRANCH  76  77
ENDBRANCH  44  69
BRANCH  56  81
ATOM     81  C   UNL     1      -0.390  17.800   1.688  1.00  0.00     0.058 A 
ATOM     82  C   UNL     1       0.784  17.163   1.249  1.00  0.00     0.135 A 
ATOM     83  C   UNL     1      -0.350  19.196   1.818  1.00  0.00     0.135 A 
ATOM     84  F   UNL     1       0.811  15.842   1.028  1.00  0.00    -0.206 F 
ATOM     85  C   UNL     1       1.950  17.883   0.973  1.00  0.00     0.059 A 
ATOM     86  C   UNL     1       0.789  19.936   1.521  1.00  0.00     0.059 A 
ATOM     87  F   UNL     1      -1.452  19.867   2.193  1.00  0.00    -0.206 F 
ATOM     88  C   UNL     1       1.941  19.272   1.107  1.00  0.00     0.060 A 
BRANCH  88  89
ATOM     89  S   UNL     1       3.422  20.215   0.681  1.00  0.00     0.124 S 
ATOM     90  O   UNL     1       4.356  19.811   1.726  1.00  0.00    -0.237 OA
ATOM     91  O   UNL     1       3.726  19.733  -0.663  1.00  0.00    -0.237 OA
ATOM     92  O   UNL     1       2.975  21.604   0.748  1.00  0.00    -0.744 OA
ENDBRANCH  88  89
ENDBRANCH  56  81
ENDBRANCH  30  31
ENDBRANCH   2  25
TORSDOF 13
