REMARK SMILES Cc1ncccc1NC(=O)Nc1ccc(C(=O)NCCCNC(=O)c2ccc(-c3c4nc(c(-c5c(F)cc(S(=O)(=O)[O-])cc5F)c5ccc([nH]5)c(-c5c(F)cc(S(=O)(=O)[O-])cc5F)c5nc(c(-c6c(F)cc(S(=O)(=O)[O-])cc6F)c6ccc3[nH]6)C=C5)C=C4)cc2)c(O)c1
REMARK SMILES IDX 20 1 19 2 18 3 16 4 17 5 15 7 12 8 13 9 93 10 14 11 91 12
REMARK SMILES IDX 11 13 8 14 9 15 10 17 7 19 1 20 2 21 3 22 4 23 6 24 5 25
REMARK SMILES IDX 92 26 21 28 22 29 23 30 24 32 25 33 26 34 90 35 27 36 89 37
REMARK SMILES IDX 28 38 29 39 30 40 83 41 31 42 88 43 82 44 84 45 32 46 87 47
REMARK SMILES IDX 81 48 80 49 33 51 67 52 46 53 66 54 47 55 50 56 65 57 85 58
REMARK SMILES IDX 48 59 49 60 64 62 86 63 51 64 34 65 35 66 44 67 36 68 37 69
REMARK SMILES IDX 43 70 45 71 38 72 39 73 40 74 41 75 42 76 68 77 69 78 78 79
REMARK SMILES IDX 70 80 71 81 77 82 79 83 72 84 73 85 74 86 75 87 76 88 52 89
REMARK SMILES IDX 53 90 62 91 54 92 55 93 61 94 63 95 56 96 57 97 58 98 59 99
REMARK SMILES IDX 60 100
REMARK H PARENT 18 6 8 16 11 18 92 27 22 31 84 50 50 61
REMARK Flexibility Score: inf
ROOT
ATOM      1  C   UNL     1      -5.346   1.412   3.171  1.00  0.00     0.042 C 
ENDROOT
BRANCH   1   2
ATOM      2  C   UNL     1      -5.414   0.533   1.930  1.00  0.00     0.118 C 
BRANCH   2   3
ATOM      3  N   UNL     1      -5.199   1.216   0.662  1.00  0.00    -0.352 N 
ATOM      4  C   UNL     1      -4.670   0.774  -0.532  1.00  0.00     0.255 C 
ATOM      5  O   UNL     1      -4.670   1.548  -1.488  1.00  0.00    -0.269 OA
ATOM      6  H   UNL     1      -5.481   2.160   0.656  1.00  0.00     0.163 HD
BRANCH   4   7
ATOM      7  C   UNL     1      -4.007  -0.550  -0.677  1.00  0.00     0.081 A 
ATOM      8  C   UNL     1      -2.234  -2.703  -0.492  1.00  0.00     0.046 A 
ATOM      9  C   UNL     1      -1.951  -1.655  -1.363  1.00  0.00     0.027 A 
ATOM     10  C   UNL     1      -3.514  -2.804   0.057  1.00  0.00     0.073 A 
ATOM     11  C   UNL     1      -2.825  -0.566  -1.434  1.00  0.00     0.020 A 
ATOM     12  C   UNL     1      -4.406  -1.736  -0.060  1.00  0.00     0.130 A 
BRANCH   8  13
ATOM     13  N   UNL     1      -1.269  -3.628  -0.065  1.00  0.00    -0.308 N 
ATOM     14  N   UNL     1       0.798  -2.419   0.104  1.00  0.00    -0.306 N 
ATOM     15  C   UNL     1       0.081  -3.566   0.016  1.00  0.00     0.323 C 
ATOM     16  H   UNL     1       1.742  -2.540  -0.149  1.00  0.00     0.171 HD
ATOM     17  O   UNL     1       0.709  -4.630   0.017  1.00  0.00    -0.248 OA
ATOM     18  H   UNL     1      -1.645  -4.487   0.233  1.00  0.00     0.171 HD
BRANCH  14  19
ATOM     19  C   UNL     1       0.495  -1.089   0.476  1.00  0.00     0.064 A 
ATOM     20  C   UNL     1       2.728  -0.188  -0.415  1.00  0.00     0.069 C 
ATOM     21  C   UNL     1       1.324  -0.023   0.089  1.00  0.00     0.061 A 
ATOM     22  N   UNL     1       0.941   1.280   0.199  1.00  0.00    -0.259 NA
ATOM     23  C   UNL     1      -0.247   1.544   0.776  1.00  0.00     0.111 A 
ATOM     24  C   UNL     1      -0.640  -0.758   1.218  1.00  0.00     0.030 A 
ATOM     25  C   UNL     1      -1.040   0.571   1.345  1.00  0.00     0.022 A 
ENDBRANCH  14  19
ENDBRANCH   8  13
BRANCH  12  26
ATOM     26  O   UNL     1      -5.646  -1.937   0.477  1.00  0.00    -0.507 OA
ATOM     27  H   UNL     1      -6.291  -1.259   0.432  1.00  0.00     0.293 HD
ENDBRANCH  12  26
ENDBRANCH   4   7
ENDBRANCH   2   3
ENDBRANCH   1   2
BRANCH   1  28
ATOM     28  C   UNL     1      -6.290   2.607   3.213  1.00  0.00     0.118 C 
BRANCH  28  29
ATOM     29  N   UNL     1      -7.699   2.266   3.092  1.00  0.00    -0.352 N 
ATOM     30  C   UNL     1      -8.753   2.367   3.974  1.00  0.00     0.251 C 
ATOM     31  H   UNL     1      -7.946   1.894   2.215  1.00  0.00     0.163 HD
ATOM     32  O   UNL     1      -9.840   1.911   3.639  1.00  0.00    -0.269 OA
BRANCH  30  33
ATOM     33  C   UNL     1      -8.595   2.974   5.321  1.00  0.00     0.039 A 
ATOM     34  C   UNL     1      -9.327   2.439   6.388  1.00  0.00     0.014 A 
ATOM     35  C   UNL     1      -7.774   4.077   5.550  1.00  0.00     0.014 A 
ATOM     36  C   UNL     1      -9.174   2.960   7.678  1.00  0.00     0.010 A 
ATOM     37  C   UNL     1      -7.528   4.514   6.851  1.00  0.00     0.010 A 
ATOM     38  C   UNL     1      -8.238   3.976   7.932  1.00  0.00    -0.014 A 
BRANCH  38  39
ATOM     39  C   UNL     1      -8.023   4.512   9.306  1.00  0.00     0.031 A 
ATOM     40  C   UNL     1      -8.253   5.976   9.595  1.00  0.00     0.074 A 
ATOM     41  C   UNL     1      -7.581   3.696  10.286  1.00  0.00     0.049 A 
ATOM     42  N   UNL     1      -8.075   6.638  10.710  1.00  0.00    -0.248 NA
ATOM     43  C   UNL     1      -8.713   6.815   8.475  1.00  0.00     0.031 C 
ATOM     44  C   UNL     1      -7.261   2.275  10.128  1.00  0.00     0.029 A 
ATOM     45  N   UNL     1      -7.322   3.943  11.612  1.00  0.00    -0.354 N 
ATOM     46  C   UNL     1      -8.397   7.960  10.424  1.00  0.00     0.074 A 
ATOM     47  C   UNL     1      -8.698   8.025   9.012  1.00  0.00     0.031 C 
ATOM     48  C   UNL     1      -6.887   1.770  11.315  1.00  0.00     0.029 A 
ATOM     49  C   UNL     1      -6.901   2.835  12.312  1.00  0.00     0.049 A 
ATOM     50  H   UNL     1      -7.428   4.831  12.024  1.00  0.00     0.167 HD
ATOM     51  C   UNL     1      -8.480   9.020  11.265  1.00  0.00     0.037 A 
ATOM     52  C   UNL     1      -6.564   2.693  13.609  1.00  0.00     0.037 A 
ATOM     53  C   UNL     1      -8.207   8.950  12.676  1.00  0.00     0.049 A 
ATOM     54  C   UNL     1      -6.652   3.890  14.521  1.00  0.00     0.074 A 
ATOM     55  C   UNL     1      -8.292   9.957  13.622  1.00  0.00     0.029 A 
ATOM     56  N   UNL     1      -7.802   7.806  13.348  1.00  0.00    -0.354 N 
ATOM     57  N   UNL     1      -7.017   5.119  14.240  1.00  0.00    -0.248 NA
ATOM     58  C   UNL     1      -6.295   3.677  15.931  1.00  0.00     0.031 C 
ATOM     59  C   UNL     1      -7.902   9.432  14.858  1.00  0.00     0.029 A 
ATOM     60  C   UNL     1      -7.623   8.085  14.693  1.00  0.00     0.049 A 
ATOM     61  H   UNL     1      -7.663   6.925  12.930  1.00  0.00     0.167 HD
ATOM     62  C   UNL     1      -6.963   5.815  15.444  1.00  0.00     0.074 A 
ATOM     63  C   UNL     1      -6.552   4.865  16.457  1.00  0.00     0.031 C 
ATOM     64  C   UNL     1      -7.226   7.123  15.690  1.00  0.00     0.037 A 
BRANCH  51  65
ATOM     65  C   UNL     1      -8.913  10.340  10.683  1.00  0.00     0.058 A 
ATOM     66  C   UNL     1     -10.225  10.540  10.222  1.00  0.00     0.135 A 
ATOM     67  C   UNL     1      -8.026  11.426  10.616  1.00  0.00     0.135 A 
ATOM     68  F   UNL     1     -11.112   9.532  10.244  1.00  0.00    -0.206 F 
ATOM     69  C   UNL     1     -10.633  11.758   9.689  1.00  0.00     0.059 A 
ATOM     70  C   UNL     1      -8.422  12.664  10.116  1.00  0.00     0.059 A 
ATOM     71  F   UNL     1      -6.760  11.293  11.040  1.00  0.00    -0.206 F 
ATOM     72  C   UNL     1      -9.725  12.816   9.642  1.00  0.00     0.060 A 
BRANCH  72  73
ATOM     73  S   UNL     1     -10.278  14.392   8.959  1.00  0.00     0.124 S 
ATOM     74  O   UNL     1     -10.386  14.073   7.539  1.00  0.00    -0.237 OA
ATOM     75  O   UNL     1     -11.541  14.607   9.658  1.00  0.00    -0.237 OA
ATOM     76  O   UNL     1      -9.203  15.314   9.315  1.00  0.00    -0.744 OA
ENDBRANCH  72  73
ENDBRANCH  51  65
BRANCH  52  77
ATOM     77  C   UNL     1      -6.133   1.369  14.139  1.00  0.00     0.058 A 
ATOM     78  C   UNL     1      -6.921   0.669  15.065  1.00  0.00     0.135 A 
ATOM     79  C   UNL     1      -4.913   0.791  13.755  1.00  0.00     0.135 A 
ATOM     80  F   UNL     1      -8.095   1.179  15.468  1.00  0.00    -0.206 F 
ATOM     81  C   UNL     1      -6.499  -0.534  15.622  1.00  0.00     0.059 A 
ATOM     82  C   UNL     1      -4.484  -0.427  14.273  1.00  0.00     0.059 A 
ATOM     83  F   UNL     1      -4.129   1.408  12.856  1.00  0.00    -0.206 F 
ATOM     84  C   UNL     1      -5.275  -1.072  15.222  1.00  0.00     0.060 A 
BRANCH  84  85
ATOM     85  S   UNL     1      -4.739  -2.639  15.944  1.00  0.00     0.124 S 
ATOM     86  O   UNL     1      -4.372  -2.228  17.294  1.00  0.00    -0.237 OA
ATOM     87  O   UNL     1      -5.941  -3.457  15.828  1.00  0.00    -0.237 OA
ATOM     88  O   UNL     1      -3.630  -3.042  15.083  1.00  0.00    -0.744 OA
ENDBRANCH  84  85
ENDBRANCH  52  77
BRANCH  64  89
ATOM     89  C   UNL     1      -7.118   7.591  17.116  1.00  0.00     0.058 A 
ATOM     90  C   UNL     1      -5.879   7.705  17.767  1.00  0.00     0.135 A 
ATOM     91  C   UNL     1      -8.270   7.956  17.832  1.00  0.00     0.135 A 
ATOM     92  F   UNL     1      -4.747   7.366  17.129  1.00  0.00    -0.206 F 
ATOM     93  C   UNL     1      -5.789   8.125  19.090  1.00  0.00     0.059 A 
ATOM     94  C   UNL     1      -8.200   8.411  19.145  1.00  0.00     0.059 A 
ATOM     95  F   UNL     1      -9.479   7.881  17.254  1.00  0.00    -0.206 F 
ATOM     96  C   UNL     1      -6.957   8.474  19.771  1.00  0.00     0.060 A 
BRANCH  96  97
ATOM     97  S   UNL     1      -6.825   9.027  21.484  1.00  0.00     0.124 S 
ATOM     98  O   UNL     1      -6.538   7.774  22.176  1.00  0.00    -0.237 OA
ATOM     99  O   UNL     1      -5.723   9.982  21.420  1.00  0.00    -0.237 OA
ATOM    100  O   UNL     1      -8.136   9.608  21.756  1.00  0.00    -0.744 OA
ENDBRANCH  96  97
ENDBRANCH  64  89
ENDBRANCH  38  39
ENDBRANCH  30  33
ENDBRANCH  28  29
ENDBRANCH   1  28
TORSDOF 16
