REMARK SMILES CCc1ccc(-c2cc(Cl)cc3c2O[C@H](C(F)(F)F)C(C(=O)NCCCNC(=O)c2ccc(-c4c5nc(c(-c6c(F)cc(S(=O)(=O)[O-])cc6F)c6ccc([nH]6)c(-c6c(F)cc(S(=O)(=O)[O-])cc6F)c6nc(c(-c7c(F)cc(S(=O)(=O)[O-])cc7F)c7ccc4[nH]7)C=C6)C=C5)cc2)=C3)cc1
REMARK SMILES IDX 25 1 24 2 23 3 21 4 22 5 20 7 7 8 8 9 13 10 9 11 12 12 14 13
REMARK SMILES IDX 10 14 11 15 96 16 15 17 6 18 3 19 4 20 98 21 5 22 97 23 2 24
REMARK SMILES IDX 1 25 16 26 17 27 18 28 19 29 26 30 27 31 28 32 29 34 30 35
REMARK SMILES IDX 31 36 95 37 32 38 94 39 33 40 34 41 35 42 88 43 36 44 93 45
REMARK SMILES IDX 87 46 89 47 37 48 92 49 86 50 85 51 38 53 72 54 51 55 71 56
REMARK SMILES IDX 52 57 55 58 70 59 90 60 53 61 54 62 69 64 91 65 56 66 39 67
REMARK SMILES IDX 40 68 49 69 41 70 42 71 48 72 50 73 43 74 44 75 45 76 46 77
REMARK SMILES IDX 47 78 73 79 74 80 83 81 75 82 76 83 82 84 84 85 77 86 78 87
REMARK SMILES IDX 79 88 80 89 81 90 57 91 58 92 67 93 59 94 60 95 66 96 68 97
REMARK SMILES IDX 61 98 62 99 63 100 64 101 65 102
REMARK H PARENT 23 6 27 33 89 52 55 63
REMARK Flexibility Score: inf
ROOT
ATOM      1  C   UNL     1       5.640  14.085   0.155  1.00  0.00     0.042 C 
ENDROOT
BRANCH   1   2
ATOM      2  C   UNL     1       4.218  13.532   0.036  1.00  0.00     0.118 C 
BRANCH   2   3
ATOM      3  N   UNL     1       4.174  12.480  -0.961  1.00  0.00    -0.352 N 
ATOM      4  C   UNL     1       3.871  11.176  -0.751  1.00  0.00     0.251 C 
ATOM      5  O   UNL     1       4.501  10.300  -1.332  1.00  0.00    -0.270 OA
ATOM      6  H   UNL     1       4.387  12.740  -1.886  1.00  0.00     0.163 HD
BRANCH   4   7
ATOM      7  C   UNL     1       2.660  10.885   0.074  1.00  0.00     0.067 C 
ATOM      8  C   UNL     1       2.358   6.862  -0.508  1.00  0.00     0.026 A 
ATOM      9  C   UNL     1       2.541   6.614  -1.893  1.00  0.00     0.033 A 
ATOM     10  C   UNL     1       2.147   8.201  -0.137  1.00  0.00     0.135 A 
ATOM     11  C   UNL     1       2.353   7.599  -2.860  1.00  0.00     0.042 A 
ATOM     12  C   UNL     1       1.844   9.159  -1.134  1.00  0.00     0.019 A 
ATOM     13  O   UNL     1       2.256   8.648   1.172  1.00  0.00    -0.475 OA
ATOM     14  Cl  UNL     1       2.596   7.223  -4.519  1.00  0.00    -0.084 Cl
ATOM     15  C   UNL     1       1.934   8.863  -2.491  1.00  0.00     0.032 A 
ATOM     16  C   UNL     1       1.605  10.553  -0.697  1.00  0.00     0.025 C 
ATOM     17  C   UNL     1       2.908   9.987   1.281  1.00  0.00     0.314 C 
BRANCH   8  18
ATOM     18  C   UNL     1       2.161   5.650   0.330  1.00  0.00    -0.015 A 
ATOM     19  C   UNL     1       1.236   3.016   0.925  1.00  0.00    -0.048 A 
ATOM     20  C   UNL     1       2.543   3.229   0.478  1.00  0.00     0.004 A 
ATOM     21  C   UNL     1       0.459   4.144   1.226  1.00  0.00     0.004 A 
ATOM     22  C   UNL     1       3.002   4.527   0.195  1.00  0.00     0.009 A 
ATOM     23  C   UNL     1       0.915   5.441   0.939  1.00  0.00     0.009 A 
BRANCH  19  24
ATOM     24  C   UNL     1       0.642   1.636   1.114  1.00  0.00     0.032 C 
ATOM     25  C   UNL     1       1.078   0.568   0.111  1.00  0.00     0.009 C 
ENDBRANCH  19  24
ENDBRANCH   8  18
BRANCH  17  26
ATOM     26  C   UNL     1       2.452  10.738   2.551  1.00  0.00     0.429 C 
ATOM     27  F   UNL     1       1.400  10.144   3.159  1.00  0.00    -0.167 F 
ATOM     28  F   UNL     1       3.454  10.822   3.458  1.00  0.00    -0.167 F 
ATOM     29  F   UNL     1       2.069  12.017   2.291  1.00  0.00    -0.167 F 
ENDBRANCH  17  26
ENDBRANCH   4   7
ENDBRANCH   2   3
ENDBRANCH   1   2
BRANCH   1  30
ATOM     30  C   UNL     1       6.192  14.713  -1.124  1.00  0.00     0.118 C 
BRANCH  30  31
ATOM     31  N   UNL     1       5.415  15.851  -1.586  1.00  0.00    -0.352 N 
ATOM     32  C   UNL     1       5.847  17.107  -1.941  1.00  0.00     0.251 C 
ATOM     33  H   UNL     1       4.444  15.703  -1.654  1.00  0.00     0.163 HD
ATOM     34  O   UNL     1       5.029  17.994  -2.171  1.00  0.00    -0.269 OA
BRANCH  32  35
ATOM     35  C   UNL     1       7.296  17.390  -2.014  1.00  0.00     0.039 A 
ATOM     36  C   UNL     1       7.792  18.538  -1.395  1.00  0.00     0.014 A 
ATOM     37  C   UNL     1       8.164  16.512  -2.668  1.00  0.00     0.014 A 
ATOM     38  C   UNL     1       9.170  18.768  -1.368  1.00  0.00     0.010 A 
ATOM     39  C   UNL     1       9.540  16.701  -2.572  1.00  0.00     0.010 A 
ATOM     40  C   UNL     1      10.059  17.830  -1.920  1.00  0.00    -0.014 A 
BRANCH  40  41
ATOM     41  C   UNL     1      11.532  18.008  -1.818  1.00  0.00     0.031 A 
ATOM     42  C   UNL     1      12.365  18.147  -3.065  1.00  0.00     0.074 A 
ATOM     43  C   UNL     1      12.127  17.976  -0.608  1.00  0.00     0.049 A 
ATOM     44  N   UNL     1      13.665  18.230  -3.184  1.00  0.00    -0.248 NA
ATOM     45  C   UNL     1      11.644  18.164  -4.348  1.00  0.00     0.031 C 
ATOM     46  C   UNL     1      11.435  17.793   0.671  1.00  0.00     0.029 A 
ATOM     47  N   UNL     1      13.449  18.083  -0.254  1.00  0.00    -0.354 N 
ATOM     48  C   UNL     1      13.918  18.292  -4.550  1.00  0.00     0.074 A 
ATOM     49  C   UNL     1      12.641  18.181  -5.220  1.00  0.00     0.031 C 
ATOM     50  C   UNL     1      12.335  17.825   1.668  1.00  0.00     0.029 A 
ATOM     51  C   UNL     1      13.670  17.989   1.101  1.00  0.00     0.049 A 
ATOM     52  H   UNL     1      14.172  18.215  -0.909  1.00  0.00     0.167 HD
ATOM     53  C   UNL     1      15.102  18.452  -5.186  1.00  0.00     0.037 A 
ATOM     54  C   UNL     1      14.817  18.021   1.806  1.00  0.00     0.037 A 
ATOM     55  C   UNL     1      16.366  18.594  -4.511  1.00  0.00     0.049 A 
ATOM     56  C   UNL     1      16.121  18.205   1.076  1.00  0.00     0.074 A 
ATOM     57  C   UNL     1      17.614  18.824  -5.063  1.00  0.00     0.029 A 
ATOM     58  N   UNL     1      16.544  18.520  -3.138  1.00  0.00    -0.354 N 
ATOM     59  N   UNL     1      16.333  18.328  -0.213  1.00  0.00    -0.248 NA
ATOM     60  C   UNL     1      17.340  18.262   1.895  1.00  0.00     0.031 C 
ATOM     61  C   UNL     1      18.554  18.844  -4.027  1.00  0.00     0.029 A 
ATOM     62  C   UNL     1      17.884  18.680  -2.825  1.00  0.00     0.049 A 
ATOM     63  H   UNL     1      15.825  18.375  -2.482  1.00  0.00     0.167 HD
ATOM     64  C   UNL     1      17.705  18.505  -0.357  1.00  0.00     0.074 A 
ATOM     65  C   UNL     1      18.270  18.486   0.977  1.00  0.00     0.031 C 
ATOM     66  C   UNL     1      18.430  18.669  -1.490  1.00  0.00     0.037 A 
BRANCH  53  67
ATOM     67  C   UNL     1      15.089  18.493  -6.691  1.00  0.00     0.058 A 
ATOM     68  C   UNL     1      14.539  19.577  -7.394  1.00  0.00     0.135 A 
ATOM     69  C   UNL     1      15.670  17.456  -7.439  1.00  0.00     0.135 A 
ATOM     70  F   UNL     1      13.957  20.588  -6.730  1.00  0.00    -0.206 F 
ATOM     71  C   UNL     1      14.540  19.619  -8.784  1.00  0.00     0.059 A 
ATOM     72  C   UNL     1      15.710  17.492  -8.831  1.00  0.00     0.059 A 
ATOM     73  F   UNL     1      16.210  16.395  -6.819  1.00  0.00    -0.206 F 
ATOM     74  C   UNL     1      15.130  18.572  -9.494  1.00  0.00     0.060 A 
BRANCH  74  75
ATOM     75  S   UNL     1      15.134  18.650 -11.297  1.00  0.00     0.124 S 
ATOM     76  O   UNL     1      13.730  18.390 -11.603  1.00  0.00    -0.237 OA
ATOM     77  O   UNL     1      15.595  20.012 -11.549  1.00  0.00    -0.237 OA
ATOM     78  O   UNL     1      16.066  17.595 -11.682  1.00  0.00    -0.744 OA
ENDBRANCH  74  75
ENDBRANCH  53  67
BRANCH  54  79
ATOM     79  C   UNL     1      14.785  17.897   3.289  1.00  0.00     0.058 A 
ATOM     80  C   UNL     1      15.096  18.990   4.112  1.00  0.00     0.135 A 
ATOM     81  C   UNL     1      14.441  16.688   3.914  1.00  0.00     0.135 A 
ATOM     82  F   UNL     1      15.438  20.166   3.563  1.00  0.00    -0.206 F 
ATOM     83  C   UNL     1      15.086  18.886   5.499  1.00  0.00     0.059 A 
ATOM     84  C   UNL     1      14.398  16.566   5.300  1.00  0.00     0.059 A 
ATOM     85  F   UNL     1      14.118  15.616   3.173  1.00  0.00    -0.206 F 
ATOM     86  C   UNL     1      14.734  17.669   6.084  1.00  0.00     0.060 A 
BRANCH  86  87
ATOM     87  S   UNL     1      14.684  17.555   7.886  1.00  0.00     0.124 S 
ATOM     88  O   UNL     1      16.104  17.557   8.220  1.00  0.00    -0.237 OA
ATOM     89  O   UNL     1      13.941  18.758   8.248  1.00  0.00    -0.237 OA
ATOM     90  O   UNL     1      13.980  16.299   8.123  1.00  0.00    -0.744 OA
ENDBRANCH  86  87
ENDBRANCH  54  79
BRANCH  66  91
ATOM     91  C   UNL     1      19.912  18.882  -1.341  1.00  0.00     0.058 A 
ATOM     92  C   UNL     1      20.775  17.839  -0.972  1.00  0.00     0.135 A 
ATOM     93  C   UNL     1      20.480  20.135  -1.626  1.00  0.00     0.135 A 
ATOM     94  F   UNL     1      20.283  16.624  -0.683  1.00  0.00    -0.206 F 
ATOM     95  C   UNL     1      22.148  18.036  -0.869  1.00  0.00     0.059 A 
ATOM     96  C   UNL     1      21.853  20.346  -1.558  1.00  0.00     0.059 A 
ATOM     97  F   UNL     1      19.700  21.163  -1.994  1.00  0.00    -0.206 F 
ATOM     98  C   UNL     1      22.679  19.293  -1.166  1.00  0.00     0.060 A 
BRANCH  98  99
ATOM     99  S   UNL     1      24.466  19.526  -1.062  1.00  0.00     0.124 S 
ATOM    100  O   UNL     1      24.676  19.545   0.381  1.00  0.00    -0.237 OA
ATOM    101  O   UNL     1      24.975  18.349  -1.761  1.00  0.00    -0.237 OA
ATOM    102  O   UNL     1      24.684  20.797  -1.746  1.00  0.00    -0.744 OA
ENDBRANCH  98  99
ENDBRANCH  66  91
ENDBRANCH  40  41
ENDBRANCH  32  35
ENDBRANCH  30  31
ENDBRANCH   1  30
TORSDOF 16
