REMARK SMILES CC1=C([C@H](NC(=O)c2cccc3ccccc23)C(=O)NCCCNC(=O)c2ccc(-c3c4nc(c(-c5c(F)cc(S(=O)(=O)[O-])cc5F)c5ccc([nH]5)c(-c5c(F)cc(S(=O)(=O)[O-])cc5F)c5nc(c(-c6c(F)cc(S(=O)(=O)[O-])cc6F)c6ccc3[nH]6)C=C5)C=C4)cc2)[C@H](C)N=N1
REMARK SMILES IDX 22 1 21 2 20 3 18 4 19 5 4 7 3 8 1 9 2 10 96 11 93 12 95 13
REMARK SMILES IDX 94 14 5 15 6 16 7 18 8 19 9 20 17 21 10 22 12 23 16 24 11 25
REMARK SMILES IDX 13 26 15 27 14 28 23 29 24 30 25 31 26 33 27 34 28 35 92 36
REMARK SMILES IDX 29 37 91 38 30 39 31 40 32 41 85 42 33 43 90 44 84 45 86 46
REMARK SMILES IDX 34 47 89 48 83 49 82 50 35 52 69 53 48 54 68 55 49 56 52 57
REMARK SMILES IDX 67 58 87 59 50 60 51 61 66 63 88 64 53 65 36 66 37 67 46 68
REMARK SMILES IDX 38 69 39 70 45 71 47 72 40 73 41 74 42 75 43 76 44 77 70 78
REMARK SMILES IDX 71 79 80 80 72 81 73 82 79 83 81 84 74 85 75 86 76 87 77 88
REMARK SMILES IDX 78 89 54 90 55 91 64 92 56 93 57 94 63 95 65 96 58 97 59 98
REMARK SMILES IDX 60 99 61 100 62 101
REMARK H PARENT 20 6 5 17 24 32 86 51 52 62
REMARK Flexibility Score: inf
ROOT
ATOM      1  C   UNL     1       1.682   2.049   5.251  1.00  0.00     0.042 C 
ENDROOT
BRANCH   1   2
ATOM      2  C   UNL     1       1.188   3.261   4.481  1.00  0.00     0.117 C 
BRANCH   2   3
ATOM      3  N   UNL     1       1.450   3.205   3.061  1.00  0.00    -0.354 N 
ATOM      4  C   UNL     1       0.498   3.369   2.094  1.00  0.00     0.247 C 
ATOM      5  O   UNL     1       0.683   4.275   1.274  1.00  0.00    -0.272 OA
ATOM      6  H   UNL     1       2.376   3.038   2.771  1.00  0.00     0.163 HD
BRANCH   4   7
ATOM      7  C   UNL     1      -0.693   2.357   1.919  1.00  0.00     0.202 C 
BRANCH   7   8
ATOM      8  C   UNL     1      -1.957   2.959   1.338  1.00  0.00     0.011 C 
ATOM      9  C   UNL     1      -1.611   2.486  -1.154  1.00  0.00     0.069 C 
ATOM     10  C   UNL     1      -2.273   3.085   0.036  1.00  0.00     0.064 C 
ATOM     11  N   UNL     1      -3.279   3.993  -0.189  1.00  0.00    -0.160 NA
ATOM     12  C   UNL     1      -2.990   3.800   2.020  1.00  0.00     0.156 C 
ATOM     13  N   UNL     1      -3.625   4.531   0.892  1.00  0.00    -0.181 NA
ATOM     14  C   UNL     1      -4.137   2.999   2.652  1.00  0.00     0.040 C 
ENDBRANCH   7   8
BRANCH   7  15
ATOM     15  N   UNL     1      -0.866   1.104   2.675  1.00  0.00    -0.337 N 
ATOM     16  C   UNL     1      -1.210   0.553   3.875  1.00  0.00     0.252 C 
ATOM     17  H   UNL     1      -0.641   0.363   2.067  1.00  0.00     0.165 HD
ATOM     18  O   UNL     1      -1.171  -0.680   3.879  1.00  0.00    -0.269 OA
BRANCH  16  19
ATOM     19  C   UNL     1      -1.623   1.265   5.122  1.00  0.00     0.047 A 
ATOM     20  C   UNL     1      -2.115   2.564   5.035  1.00  0.00     0.014 A 
ATOM     21  C   UNL     1      -1.505   0.668   6.421  1.00  0.00    -0.006 A 
ATOM     22  C   UNL     1      -2.665   3.234   6.119  1.00  0.00     0.001 A 
ATOM     23  C   UNL     1      -2.038   1.377   7.534  1.00  0.00    -0.018 A 
ATOM     24  C   UNL     1      -0.793  -0.525   6.722  1.00  0.00     0.009 A 
ATOM     25  C   UNL     1      -2.667   2.617   7.356  1.00  0.00     0.009 A 
ATOM     26  C   UNL     1      -1.832   0.919   8.845  1.00  0.00     0.009 A 
ATOM     27  C   UNL     1      -0.570  -0.952   8.036  1.00  0.00     0.001 A 
ATOM     28  C   UNL     1      -1.081  -0.223   9.098  1.00  0.00     0.001 A 
ENDBRANCH  16  19
ENDBRANCH   7  15
ENDBRANCH   4   7
ENDBRANCH   2   3
ENDBRANCH   1   2
BRANCH   1  29
ATOM     29  C   UNL     1       1.759   2.321   6.754  1.00  0.00     0.118 C 
BRANCH  29  30
ATOM     30  N   UNL     1       0.619   3.029   7.375  1.00  0.00    -0.352 N 
ATOM     31  C   UNL     1       0.480   3.505   8.682  1.00  0.00     0.251 C 
ATOM     32  H   UNL     1      -0.152   3.188   6.784  1.00  0.00     0.163 HD
ATOM     33  O   UNL     1      -0.588   3.889   9.153  1.00  0.00    -0.269 OA
BRANCH  31  34
ATOM     34  C   UNL     1       1.702   3.620   9.475  1.00  0.00     0.039 A 
ATOM     35  C   UNL     1       1.948   2.901  10.649  1.00  0.00     0.014 A 
ATOM     36  C   UNL     1       2.713   4.213   8.761  1.00  0.00     0.014 A 
ATOM     37  C   UNL     1       3.277   2.626  10.984  1.00  0.00     0.010 A 
ATOM     38  C   UNL     1       3.921   3.608   8.894  1.00  0.00     0.010 A 
ATOM     39  C   UNL     1       4.275   2.921  10.047  1.00  0.00    -0.014 A 
BRANCH  39  40
ATOM     40  C   UNL     1       5.667   2.471  10.126  1.00  0.00     0.031 A 
ATOM     41  C   UNL     1       5.920   1.102  10.653  1.00  0.00     0.074 A 
ATOM     42  C   UNL     1       6.678   3.149   9.527  1.00  0.00     0.049 A 
ATOM     43  N   UNL     1       6.450   0.792  11.790  1.00  0.00    -0.248 NA
ATOM     44  C   UNL     1       5.467  -0.062   9.879  1.00  0.00     0.031 C 
ATOM     45  C   UNL     1       6.627   4.388   8.723  1.00  0.00     0.029 A 
ATOM     46  N   UNL     1       7.984   2.792   9.402  1.00  0.00    -0.354 N 
ATOM     47  C   UNL     1       6.633  -0.589  11.773  1.00  0.00     0.074 A 
ATOM     48  C   UNL     1       5.835  -1.071  10.675  1.00  0.00     0.031 C 
ATOM     49  C   UNL     1       7.738   4.505   7.974  1.00  0.00     0.029 A 
ATOM     50  C   UNL     1       8.687   3.532   8.461  1.00  0.00     0.049 A 
ATOM     51  H   UNL     1       8.395   2.071   9.932  1.00  0.00     0.167 HD
ATOM     52  C   UNL     1       7.617  -1.180  12.512  1.00  0.00     0.037 A 
ATOM     53  C   UNL     1       9.996   3.449   8.147  1.00  0.00     0.037 A 
ATOM     54  C   UNL     1       8.169  -0.248  13.471  1.00  0.00     0.049 A 
ATOM     55  C   UNL     1      10.663   2.860   9.330  1.00  0.00     0.074 A 
ATOM     56  C   UNL     1       7.655   0.510  14.505  1.00  0.00     0.029 A 
ATOM     57  N   UNL     1       9.393   0.308  13.181  1.00  0.00    -0.354 N 
ATOM     58  N   UNL     1      10.732   3.453  10.492  1.00  0.00    -0.248 NA
ATOM     59  C   UNL     1      10.884   1.425   9.350  1.00  0.00     0.031 C 
ATOM     60  C   UNL     1       8.358   1.752  14.440  1.00  0.00     0.029 A 
ATOM     61  C   UNL     1       9.309   1.657  13.421  1.00  0.00     0.049 A 
ATOM     62  H   UNL     1      10.188  -0.175  12.858  1.00  0.00     0.167 HD
ATOM     63  C   UNL     1      10.569   2.435  11.419  1.00  0.00     0.074 A 
ATOM     64  C   UNL     1      10.803   1.206  10.665  1.00  0.00     0.031 C 
ATOM     65  C   UNL     1       9.992   2.668  12.637  1.00  0.00     0.037 A 
BRANCH  52  66
ATOM     66  C   UNL     1       8.342  -2.465  12.155  1.00  0.00     0.058 A 
ATOM     67  C   UNL     1       9.243  -3.032  13.085  1.00  0.00     0.135 A 
ATOM     68  C   UNL     1       8.401  -3.013  10.854  1.00  0.00     0.135 A 
ATOM     69  F   UNL     1       9.280  -2.597  14.355  1.00  0.00    -0.206 F 
ATOM     70  C   UNL     1      10.186  -3.999  12.729  1.00  0.00     0.059 A 
ATOM     71  C   UNL     1       9.295  -4.018  10.493  1.00  0.00     0.059 A 
ATOM     72  F   UNL     1       7.668  -2.536   9.842  1.00  0.00    -0.206 F 
ATOM     73  C   UNL     1      10.216  -4.470  11.422  1.00  0.00     0.060 A 
BRANCH  73  74
ATOM     74  S   UNL     1      11.509  -5.622  10.923  1.00  0.00     0.124 S 
ATOM     75  O   UNL     1      12.680  -4.753  10.915  1.00  0.00    -0.237 OA
ATOM     76  O   UNL     1      11.459  -6.619  11.989  1.00  0.00    -0.237 OA
ATOM     77  O   UNL     1      11.055  -6.088   9.616  1.00  0.00    -0.744 OA
ENDBRANCH  73  74
ENDBRANCH  52  66
BRANCH  53  78
ATOM     78  C   UNL     1      10.634   3.637   6.827  1.00  0.00     0.058 A 
ATOM     79  C   UNL     1      12.029   3.736   6.722  1.00  0.00     0.135 A 
ATOM     80  C   UNL     1       9.923   3.428   5.627  1.00  0.00     0.135 A 
ATOM     81  F   UNL     1      12.775   3.945   7.816  1.00  0.00    -0.206 F 
ATOM     82  C   UNL     1      12.693   3.540   5.511  1.00  0.00     0.059 A 
ATOM     83  C   UNL     1      10.564   3.242   4.404  1.00  0.00     0.059 A 
ATOM     84  F   UNL     1       8.586   3.299   5.623  1.00  0.00    -0.206 F 
ATOM     85  C   UNL     1      11.953   3.257   4.364  1.00  0.00     0.060 A 
BRANCH  85  86
ATOM     86  S   UNL     1      12.822   2.752   2.862  1.00  0.00     0.124 S 
ATOM     87  O   UNL     1      13.439   4.003   2.437  1.00  0.00    -0.237 OA
ATOM     88  O   UNL     1      13.732   1.729   3.366  1.00  0.00    -0.237 OA
ATOM     89  O   UNL     1      11.750   2.258   2.002  1.00  0.00    -0.744 OA
ENDBRANCH  85  86
ENDBRANCH  53  78
BRANCH  65  90
ATOM     90  C   UNL     1       9.851   4.100  13.101  1.00  0.00     0.058 A 
ATOM     91  C   UNL     1       9.052   5.074  12.475  1.00  0.00     0.135 A 
ATOM     92  C   UNL     1      10.445   4.463  14.320  1.00  0.00     0.135 A 
ATOM     93  F   UNL     1       8.366   4.792  11.362  1.00  0.00    -0.206 F 
ATOM     94  C   UNL     1       8.885   6.354  13.009  1.00  0.00     0.059 A 
ATOM     95  C   UNL     1      10.269   5.724  14.888  1.00  0.00     0.059 A 
ATOM     96  F   UNL     1      11.173   3.565  15.005  1.00  0.00    -0.206 F 
ATOM     97  C   UNL     1       9.498   6.671  14.219  1.00  0.00     0.060 A 
BRANCH  97  98
ATOM     98  S   UNL     1       9.223   8.303  14.944  1.00  0.00     0.124 S 
ATOM     99  O   UNL     1      10.019   9.163  14.075  1.00  0.00    -0.237 OA
ATOM    100  O   UNL     1       7.775   8.460  14.835  1.00  0.00    -0.237 OA
ATOM    101  O   UNL     1       9.724   8.158  16.308  1.00  0.00    -0.744 OA
ENDBRANCH  97  98
ENDBRANCH  65  90
ENDBRANCH  39  40
ENDBRANCH  31  34
ENDBRANCH  29  30
ENDBRANCH   1  29
TORSDOF 16
