REMARK SMILES C/C(=C(/F)C(=O)NCCCNC(=O)c1ccc(-c2c3nc(c(-c4c(F)cc(S(=O)(=O)[O-])cc4F)c4ccc([nH]4)c(-c4c(F)cc(S(=O)(=O)[O-])cc4F)c4nc(c(-c5c(F)cc(S(=O)(=O)[O-])cc5F)c5ccc2[nH]5)C=C4)C=C3)cc1)c1cccc(-n2cnnn2)c1
REMARK SMILES IDX 9 1 8 2 7 3 5 4 6 5 3 7 1 8 2 9 4 10 80 11 81 12 90 13 82 14
REMARK SMILES IDX 84 15 83 16 85 17 86 18 89 19 87 20 88 21 10 22 11 23 12 24
REMARK SMILES IDX 13 26 14 27 15 28 79 29 16 30 78 31 17 32 18 33 19 34 72 35
REMARK SMILES IDX 20 36 77 37 71 38 73 39 21 40 76 41 70 42 69 43 22 45 56 46
REMARK SMILES IDX 35 47 55 48 36 49 39 50 54 51 74 52 37 53 38 54 53 56 75 57
REMARK SMILES IDX 40 58 23 59 24 60 33 61 25 62 26 63 32 64 34 65 27 66 28 67
REMARK SMILES IDX 29 68 30 69 31 70 57 71 58 72 67 73 59 74 60 75 66 76 68 77
REMARK SMILES IDX 61 78 62 79 63 80 64 81 65 82 41 83 42 84 51 85 43 86 44 87
REMARK SMILES IDX 50 88 52 89 45 90 46 91 47 92 48 93 49 94
REMARK H PARENT 7 6 11 25 73 44 39 55
REMARK Flexibility Score: inf
ROOT
ATOM      1  C   UNL     1      -1.640   2.901   4.743  1.00  0.00     0.042 C 
ENDROOT
BRANCH   1   2
ATOM      2  C   UNL     1      -2.207   2.078   3.589  1.00  0.00     0.118 C 
BRANCH   2   3
ATOM      3  N   UNL     1      -1.562   2.410   2.329  1.00  0.00    -0.350 N 
ATOM      4  C   UNL     1      -0.560   1.790   1.642  1.00  0.00     0.280 C 
ATOM      5  O   UNL     1      -0.172   2.318   0.601  1.00  0.00    -0.267 OA
ATOM      6  H   UNL     1      -1.909   3.224   1.897  1.00  0.00     0.163 HD
BRANCH   4   7
ATOM      7  C   UNL     1       0.006   0.503   2.147  1.00  0.00     0.191 C 
ATOM      8  C   UNL     1       1.063  -0.302  -0.035  1.00  0.00     0.048 C 
ATOM      9  C   UNL     1       0.683  -0.406   1.418  1.00  0.00    -0.002 C 
ATOM     10  F   UNL     1      -0.187   0.269   3.465  1.00  0.00    -0.201 F 
BRANCH   9  11
ATOM     11  C   UNL     1       1.075  -1.679   2.066  1.00  0.00    -0.017 A 
ATOM     12  C   UNL     1       0.090  -2.532   2.588  1.00  0.00     0.008 A 
ATOM     13  C   UNL     1       2.419  -2.077   2.115  1.00  0.00     0.037 A 
ATOM     14  C   UNL     1       0.434  -3.768   3.136  1.00  0.00     0.003 A 
ATOM     15  C   UNL     1       2.766  -3.325   2.659  1.00  0.00     0.069 A 
ATOM     16  C   UNL     1       1.767  -4.173   3.159  1.00  0.00     0.028 A 
BRANCH  15  17
ATOM     17  N   UNL     1       4.114  -3.747   2.692  1.00  0.00    -0.201 N 
ATOM     18  C   UNL     1       5.260  -3.030   2.452  1.00  0.00     0.252 A 
ATOM     19  N   UNL     1       4.474  -5.022   2.969  1.00  0.00    -0.040 NA
ATOM     20  N   UNL     1       6.298  -3.832   2.524  1.00  0.00    -0.117 NA
ATOM     21  N   UNL     1       5.792  -5.065   2.840  1.00  0.00    -0.024 NA
ENDBRANCH  15  17
ENDBRANCH   9  11
ENDBRANCH   4   7
ENDBRANCH   2   3
ENDBRANCH   1   2
BRANCH   1  22
ATOM     22  C   UNL     1      -1.908   4.401   4.618  1.00  0.00     0.118 C 
BRANCH  22  23
ATOM     23  N   UNL     1      -3.330   4.713   4.607  1.00  0.00    -0.352 N 
ATOM     24  C   UNL     1      -4.056   5.579   5.381  1.00  0.00     0.251 C 
ATOM     25  H   UNL     1      -3.855   4.222   3.934  1.00  0.00     0.163 HD
ATOM     26  O   UNL     1      -5.287   5.534   5.327  1.00  0.00    -0.269 OA
BRANCH  24  27
ATOM     27  C   UNL     1      -3.392   6.555   6.272  1.00  0.00     0.039 A 
ATOM     28  C   UNL     1      -3.977   6.836   7.511  1.00  0.00     0.014 A 
ATOM     29  C   UNL     1      -2.243   7.244   5.874  1.00  0.00     0.014 A 
ATOM     30  C   UNL     1      -3.396   7.782   8.358  1.00  0.00     0.010 A 
ATOM     31  C   UNL     1      -1.624   8.134   6.751  1.00  0.00     0.010 A 
ATOM     32  C   UNL     1      -2.205   8.429   7.993  1.00  0.00    -0.014 A 
BRANCH  32  33
ATOM     33  C   UNL     1      -1.589   9.454   8.874  1.00  0.00     0.031 A 
ATOM     34  C   UNL     1      -1.496  10.885   8.410  1.00  0.00     0.074 A 
ATOM     35  C   UNL     1      -1.085   9.097  10.072  1.00  0.00     0.049 A 
ATOM     36  N   UNL     1      -0.937  11.911   8.999  1.00  0.00    -0.248 NA
ATOM     37  C   UNL     1      -2.088  11.199   7.099  1.00  0.00     0.031 C 
ATOM     38  C   UNL     1      -1.074   7.736  10.615  1.00  0.00     0.029 A 
ATOM     39  N   UNL     1      -0.477   9.847  11.047  1.00  0.00    -0.354 N 
ATOM     40  C   UNL     1      -1.105  12.985   8.132  1.00  0.00     0.074 A 
ATOM     41  C   UNL     1      -1.761  12.474   6.948  1.00  0.00     0.031 C 
ATOM     42  C   UNL     1      -0.501   7.752  11.830  1.00  0.00     0.029 A 
ATOM     43  C   UNL     1      -0.079   9.114  12.141  1.00  0.00     0.049 A 
ATOM     44  H   UNL     1      -0.339  10.818  10.971  1.00  0.00     0.167 HD
ATOM     45  C   UNL     1      -0.774  14.286   8.316  1.00  0.00     0.037 A 
ATOM     46  C   UNL     1       0.557   9.498  13.264  1.00  0.00     0.037 A 
ATOM     47  C   UNL     1      -0.146  14.797   9.505  1.00  0.00     0.049 A 
ATOM     48  C   UNL     1       0.895  10.954  13.453  1.00  0.00     0.074 A 
ATOM     49  C   UNL     1       0.225  16.099   9.794  1.00  0.00     0.029 A 
ATOM     50  N   UNL     1       0.188  14.033  10.613  1.00  0.00    -0.354 N 
ATOM     51  N   UNL     1       0.705  11.959  12.631  1.00  0.00    -0.248 NA
ATOM     52  C   UNL     1       1.514  11.332  14.730  1.00  0.00     0.031 C 
ATOM     53  C   UNL     1       0.801  16.119  11.070  1.00  0.00     0.029 A 
ATOM     54  C   UNL     1       0.749  14.836  11.591  1.00  0.00     0.049 A 
ATOM     55  H   UNL     1       0.047  13.062  10.693  1.00  0.00     0.167 HD
ATOM     56  C   UNL     1       1.144  13.091  13.308  1.00  0.00     0.074 A 
ATOM     57  C   UNL     1       1.599  12.649  14.610  1.00  0.00     0.031 C 
ATOM     58  C   UNL     1       1.170  14.382  12.892  1.00  0.00     0.037 A 
BRANCH  45  59
ATOM     59  C   UNL     1      -1.114  15.255   7.216  1.00  0.00     0.058 A 
ATOM     60  C   UNL     1      -2.445  15.618   6.949  1.00  0.00     0.135 A 
ATOM     61  C   UNL     1      -0.105  15.862   6.451  1.00  0.00     0.135 A 
ATOM     62  F   UNL     1      -3.450  15.053   7.636  1.00  0.00    -0.206 F 
ATOM     63  C   UNL     1      -2.764  16.533   5.952  1.00  0.00     0.059 A 
ATOM     64  C   UNL     1      -0.400  16.802   5.467  1.00  0.00     0.059 A 
ATOM     65  F   UNL     1       1.183  15.550   6.661  1.00  0.00    -0.206 F 
ATOM     66  C   UNL     1      -1.735  17.122   5.218  1.00  0.00     0.060 A 
BRANCH  66  67
ATOM     67  S   UNL     1      -2.167  18.327   3.945  1.00  0.00     0.124 S 
ATOM     68  O   UNL     1      -2.725  17.465   2.907  1.00  0.00    -0.237 OA
ATOM     69  O   UNL     1      -3.124  19.184   4.638  1.00  0.00    -0.237 OA
ATOM     70  O   UNL     1      -0.889  18.953   3.621  1.00  0.00    -0.744 OA
ENDBRANCH  66  67
ENDBRANCH  45  59
BRANCH  46  71
ATOM     71  C   UNL     1       0.902   8.499  14.312  1.00  0.00     0.058 A 
ATOM     72  C   UNL     1       0.259   8.503  15.559  1.00  0.00     0.135 A 
ATOM     73  C   UNL     1       1.904   7.540  14.097  1.00  0.00     0.135 A 
ATOM     74  F   UNL     1      -0.705   9.402  15.812  1.00  0.00    -0.206 F 
ATOM     75  C   UNL     1       0.624   7.622  16.571  1.00  0.00     0.059 A 
ATOM     76  C   UNL     1       2.267   6.629  15.084  1.00  0.00     0.059 A 
ATOM     77  F   UNL     1       2.534   7.478  12.914  1.00  0.00    -0.206 F 
ATOM     78  C   UNL     1       1.635   6.692  16.326  1.00  0.00     0.060 A 
BRANCH  78  79
ATOM     79  S   UNL     1       2.102   5.547  17.642  1.00  0.00     0.124 S 
ATOM     80  O   UNL     1       2.884   6.412  18.517  1.00  0.00    -0.237 OA
ATOM     81  O   UNL     1       0.804   5.121  18.156  1.00  0.00    -0.237 OA
ATOM     82  O   UNL     1       2.856   4.516  16.935  1.00  0.00    -0.744 OA
ENDBRANCH  78  79
ENDBRANCH  46  71
BRANCH  58  83
ATOM     83  C   UNL     1       1.640  15.414  13.879  1.00  0.00     0.058 A 
ATOM     84  C   UNL     1       2.988  15.526  14.252  1.00  0.00     0.135 A 
ATOM     85  C   UNL     1       0.725  16.316  14.445  1.00  0.00     0.135 A 
ATOM     86  F   UNL     1       3.903  14.687  13.741  1.00  0.00    -0.206 F 
ATOM     87  C   UNL     1       3.406  16.469  15.185  1.00  0.00     0.059 A 
ATOM     88  C   UNL     1       1.125  17.285  15.358  1.00  0.00     0.059 A 
ATOM     89  F   UNL     1      -0.574  16.261  14.110  1.00  0.00    -0.206 F 
ATOM     90  C   UNL     1       2.465  17.341  15.738  1.00  0.00     0.060 A 
BRANCH  90  91
ATOM     91  S   UNL     1       3.017  18.560  16.949  1.00  0.00     0.124 S 
ATOM     92  O   UNL     1       3.181  17.735  18.141  1.00  0.00    -0.237 OA
ATOM     93  O   UNL     1       4.250  19.063  16.351  1.00  0.00    -0.237 OA
ATOM     94  O   UNL     1       1.914  19.516  16.993  1.00  0.00    -0.744 OA
ENDBRANCH  90  91
ENDBRANCH  58  83
ENDBRANCH  32  33
ENDBRANCH  24  27
ENDBRANCH  22  23
ENDBRANCH   1  22
TORSDOF 15
