REMARK SMILES CC[C@@H](C)c1nc2cc(C(=O)NCCCNC(=O)c3ccc(-c4c5nc(c(-c6c(F)cc(S(=O)(=O)[O-])cc6F)c6ccc([nH]6)c(-c6c(F)cc(S(=O)(=O)[O-])cc6F)c6nc(c(-c7c(F)cc(S(=O)(=O)[O-])cc7F)c7ccc4[nH]7)C=C6)C=C5)cc3)ccc2n1[C@@H](C)CC
REMARK SMILES IDX 14 1 13 2 12 3 10 4 11 5 9 7 5 8 6 9 88 10 7 11 87 12 8 13
REMARK SMILES IDX 86 14 85 15 3 16 4 17 2 18 1 19 89 20 90 21 91 22 92 23
REMARK SMILES IDX 15 24 16 25 17 26 18 28 19 29 20 30 84 31 21 32 83 33 22 34
REMARK SMILES IDX 23 35 24 36 77 37 25 38 82 39 76 40 78 41 26 42 81 43 75 44
REMARK SMILES IDX 74 45 27 47 61 48 40 49 60 50 41 51 44 52 59 53 79 54 42 55
REMARK SMILES IDX 43 56 58 58 80 59 45 60 28 61 29 62 38 63 30 64 31 65 37 66
REMARK SMILES IDX 39 67 32 68 33 69 34 70 35 71 36 72 62 73 63 74 72 75 64 76
REMARK SMILES IDX 65 77 71 78 73 79 66 80 67 81 68 82 69 83 70 84 46 85 47 86
REMARK SMILES IDX 56 87 48 88 49 89 55 90 57 91 50 92 51 93 52 94 53 95 54 96
REMARK H PARENT 12 6 16 27 78 46 44 57
REMARK Flexibility Score: inf
ROOT
ATOM      1  C   UNL     1      -1.234   0.217 -11.301  1.00  0.00     0.042 C 
ENDROOT
BRANCH   1   2
ATOM      2  C   UNL     1      -2.229  -0.554 -10.419  1.00  0.00     0.118 C 
BRANCH   2   3
ATOM      3  N   UNL     1      -1.756  -1.891 -10.076  1.00  0.00    -0.352 N 
ATOM      4  C   UNL     1      -1.230  -2.445  -8.931  1.00  0.00     0.251 C 
ATOM      5  O   UNL     1      -1.070  -3.667  -8.928  1.00  0.00    -0.269 OA
ATOM      6  H   UNL     1      -1.827  -2.531 -10.820  1.00  0.00     0.163 HD
BRANCH   4   7
ATOM      7  C   UNL     1      -0.860  -1.668  -7.709  1.00  0.00     0.042 A 
ATOM      8  C   UNL     1       0.345  -1.121  -3.330  1.00  0.00     0.112 A 
ATOM      9  N   UNL     1      -0.063  -2.152  -4.064  1.00  0.00    -0.233 NA
ATOM     10  N   UNL     1       0.265   0.043  -4.094  1.00  0.00    -0.325 N 
ATOM     11  C   UNL     1      -0.320  -1.689  -5.327  1.00  0.00     0.090 A 
ATOM     12  C   UNL     1      -0.115  -0.323  -5.381  1.00  0.00     0.068 A 
ATOM     13  C   UNL     1      -0.707  -2.376  -6.495  1.00  0.00     0.044 A 
ATOM     14  C   UNL     1      -0.257   0.403  -6.570  1.00  0.00     0.029 A 
ATOM     15  C   UNL     1      -0.590  -0.301  -7.729  1.00  0.00     0.016 A 
BRANCH   8  16
ATOM     16  C   UNL     1       0.958  -1.319  -1.936  1.00  0.00     0.052 C 
ATOM     17  C   UNL     1       0.664  -2.751  -1.439  1.00  0.00     0.016 C 
BRANCH  16  18
ATOM     18  C   UNL     1       0.514  -0.312  -0.862  1.00  0.00     0.008 C 
ATOM     19  C   UNL     1       1.163  -0.487   0.508  1.00  0.00     0.004 C 
ENDBRANCH  16  18
ENDBRANCH   8  16
BRANCH  10  20
ATOM     20  C   UNL     1       0.566   1.438  -3.773  1.00  0.00     0.085 C 
ATOM     21  C   UNL     1      -0.530   2.113  -2.942  1.00  0.00     0.031 C 
BRANCH  20  22
ATOM     22  C   UNL     1       2.023   1.698  -3.356  1.00  0.00     0.022 C 
ATOM     23  C   UNL     1       2.989   1.435  -4.513  1.00  0.00     0.006 C 
ENDBRANCH  20  22
ENDBRANCH  10  20
ENDBRANCH   4   7
ENDBRANCH   2   3
ENDBRANCH   1   2
BRANCH   1  24
ATOM     24  C   UNL     1      -1.259  -0.202 -12.773  1.00  0.00     0.118 C 
BRANCH  24  25
ATOM     25  N   UNL     1      -2.555  -0.025 -13.401  1.00  0.00    -0.352 N 
ATOM     26  C   UNL     1      -3.221   0.986 -14.036  1.00  0.00     0.251 C 
ATOM     27  H   UNL     1      -3.096  -0.846 -13.358  1.00  0.00     0.163 HD
ATOM     28  O   UNL     1      -4.344   0.684 -14.454  1.00  0.00    -0.269 OA
BRANCH  26  29
ATOM     29  C   UNL     1      -2.736   2.382 -14.244  1.00  0.00     0.039 A 
ATOM     30  C   UNL     1      -1.491   2.885 -13.874  1.00  0.00     0.014 A 
ATOM     31  C   UNL     1      -3.645   3.261 -14.872  1.00  0.00     0.014 A 
ATOM     32  C   UNL     1      -1.182   4.232 -14.094  1.00  0.00     0.010 A 
ATOM     33  C   UNL     1      -3.338   4.604 -15.098  1.00  0.00     0.010 A 
ATOM     34  C   UNL     1      -2.109   5.103 -14.686  1.00  0.00    -0.014 A 
BRANCH  34  35
ATOM     35  C   UNL     1      -1.700   6.491 -14.932  1.00  0.00     0.031 A 
ATOM     36  C   UNL     1      -0.475   6.662 -15.766  1.00  0.00     0.074 A 
ATOM     37  C   UNL     1      -2.371   7.598 -14.548  1.00  0.00     0.049 A 
ATOM     38  N   UNL     1       0.690   7.075 -15.387  1.00  0.00    -0.248 NA
ATOM     39  C   UNL     1      -0.529   6.233 -17.169  1.00  0.00     0.031 C 
ATOM     40  C   UNL     1      -3.719   7.698 -13.987  1.00  0.00     0.029 A 
ATOM     41  N   UNL     1      -1.985   8.906 -14.658  1.00  0.00    -0.354 N 
ATOM     42  C   UNL     1       1.470   7.156 -16.539  1.00  0.00     0.074 A 
ATOM     43  C   UNL     1       0.717   6.493 -17.573  1.00  0.00     0.031 C 
ATOM     44  C   UNL     1      -4.111   8.993 -13.996  1.00  0.00     0.029 A 
ATOM     45  C   UNL     1      -2.999   9.826 -14.424  1.00  0.00     0.049 A 
ATOM     46  H   UNL     1      -1.065   9.173 -14.884  1.00  0.00     0.167 HD
ATOM     47  C   UNL     1       2.591   7.933 -16.592  1.00  0.00     0.037 A 
ATOM     48  C   UNL     1      -2.943  11.170 -14.606  1.00  0.00     0.037 A 
ATOM     49  C   UNL     1       3.035   8.303 -15.271  1.00  0.00     0.049 A 
ATOM     50  C   UNL     1      -1.514  11.570 -14.531  1.00  0.00     0.074 A 
ATOM     51  C   UNL     1       3.408   7.611 -14.134  1.00  0.00     0.029 A 
ATOM     52  N   UNL     1       2.839   9.600 -14.860  1.00  0.00    -0.354 N 
ATOM     53  N   UNL     1      -0.791  11.512 -13.445  1.00  0.00    -0.248 NA
ATOM     54  C   UNL     1      -0.764  11.674 -15.773  1.00  0.00     0.031 C 
ATOM     55  C   UNL     1       2.929   8.400 -13.047  1.00  0.00     0.029 A 
ATOM     56  C   UNL     1       2.337   9.542 -13.588  1.00  0.00     0.049 A 
ATOM     57  H   UNL     1       3.024  10.414 -15.382  1.00  0.00     0.167 HD
ATOM     58  C   UNL     1       0.472  11.144 -13.881  1.00  0.00     0.074 A 
ATOM     59  C   UNL     1       0.453  11.363 -15.324  1.00  0.00     0.031 C 
ATOM     60  C   UNL     1       1.326  10.443 -13.079  1.00  0.00     0.037 A 
BRANCH  47  61
ATOM     61  C   UNL     1       3.090   8.665 -17.824  1.00  0.00     0.058 A 
ATOM     62  C   UNL     1       4.308   9.379 -17.747  1.00  0.00     0.135 A 
ATOM     63  C   UNL     1       2.285   8.964 -18.944  1.00  0.00     0.135 A 
ATOM     64  F   UNL     1       5.172   9.157 -16.743  1.00  0.00    -0.206 F 
ATOM     65  C   UNL     1       4.631  10.409 -18.631  1.00  0.00     0.059 A 
ATOM     66  C   UNL     1       2.615   9.950 -19.869  1.00  0.00     0.059 A 
ATOM     67  F   UNL     1       1.095   8.389 -19.145  1.00  0.00    -0.206 F 
ATOM     68  C   UNL     1       3.757  10.708 -19.670  1.00  0.00     0.060 A 
BRANCH  68  69
ATOM     69  S   UNL     1       4.076  12.151 -20.700  1.00  0.00     0.124 S 
ATOM     70  O   UNL     1       3.829  13.235 -19.756  1.00  0.00    -0.237 OA
ATOM     71  O   UNL     1       5.466  11.944 -21.090  1.00  0.00    -0.237 OA
ATOM     72  O   UNL     1       3.099  12.014 -21.777  1.00  0.00    -0.744 OA
ENDBRANCH  68  69
ENDBRANCH  47  61
BRANCH  48  73
ATOM     73  C   UNL     1      -4.003  12.069 -15.142  1.00  0.00     0.058 A 
ATOM     74  C   UNL     1      -3.864  13.470 -15.109  1.00  0.00     0.135 A 
ATOM     75  C   UNL     1      -5.044  11.572 -15.952  1.00  0.00     0.135 A 
ATOM     76  F   UNL     1      -2.888  14.036 -14.383  1.00  0.00    -0.206 F 
ATOM     77  C   UNL     1      -4.674  14.320 -15.873  1.00  0.00     0.059 A 
ATOM     78  C   UNL     1      -5.871  12.400 -16.710  1.00  0.00     0.059 A 
ATOM     79  F   UNL     1      -5.234  10.254 -16.106  1.00  0.00    -0.206 F 
ATOM     80  C   UNL     1      -5.663  13.772 -16.688  1.00  0.00     0.060 A 
BRANCH  80  81
ATOM     81  S   UNL     1      -6.600  14.846 -17.801  1.00  0.00     0.124 S 
ATOM     82  O   UNL     1      -7.375  15.651 -16.863  1.00  0.00    -0.237 OA
ATOM     83  O   UNL     1      -5.540  15.546 -18.518  1.00  0.00    -0.237 OA
ATOM     84  O   UNL     1      -7.378  13.906 -18.605  1.00  0.00    -0.744 OA
ENDBRANCH  80  81
ENDBRANCH  48  73
BRANCH  60  85
ATOM     85  C   UNL     1       1.055  10.374 -11.600  1.00  0.00     0.058 A 
ATOM     86  C   UNL     1      -0.079   9.776 -11.025  1.00  0.00     0.135 A 
ATOM     87  C   UNL     1       2.083  10.771 -10.727  1.00  0.00     0.135 A 
ATOM     88  F   UNL     1      -1.062   9.279 -11.789  1.00  0.00    -0.206 F 
ATOM     89  C   UNL     1      -0.194   9.602  -9.644  1.00  0.00     0.059 A 
ATOM     90  C   UNL     1       2.004  10.576  -9.351  1.00  0.00     0.059 A 
ATOM     91  F   UNL     1       3.217  11.298 -11.219  1.00  0.00    -0.206 F 
ATOM     92  C   UNL     1       0.858   9.993  -8.815  1.00  0.00     0.060 A 
BRANCH  92  93
ATOM     93  S   UNL     1       0.761   9.648  -7.045  1.00  0.00     0.124 S 
ATOM     94  O   UNL     1      -0.286  10.572  -6.608  1.00  0.00    -0.237 OA
ATOM     95  O   UNL     1       0.399   8.230  -7.019  1.00  0.00    -0.237 OA
ATOM     96  O   UNL     1       2.099   9.947  -6.559  1.00  0.00    -0.744 OA
ENDBRANCH  92  93
ENDBRANCH  60  85
ENDBRANCH  34  35
ENDBRANCH  26  29
ENDBRANCH  24  25
ENDBRANCH   1  24
TORSDOF 17
