REMARK SMILES CSC[C@H](C(=O)NCCCNC(=O)c1ccc(-c2c3nc(c(-c4c(F)cc(S(=O)(=O)[O-])cc4F)c4ccc([nH]4)c(-c4c(F)cc(S(=O)(=O)[O-])cc4F)c4nc(c(-c5c(F)cc(S(=O)(=O)[O-])cc5F)c5ccc2[nH]5)C=C4)C=C3)cc1)c1ccccc1
REMARK SMILES IDX 9 1 8 2 7 3 5 4 6 5 4 7 3 8 2 9 1 10 80 11 81 12 85 13 82 14
REMARK SMILES IDX 84 15 83 16 10 17 11 18 12 19 13 21 14 22 15 23 79 24 16 25
REMARK SMILES IDX 78 26 17 27 18 28 19 29 72 30 20 31 77 32 71 33 73 34 21 35
REMARK SMILES IDX 76 36 70 37 69 38 22 40 56 41 35 42 55 43 36 44 39 45 54 46
REMARK SMILES IDX 74 47 37 48 38 49 53 51 75 52 40 53 23 54 24 55 33 56 25 57
REMARK SMILES IDX 26 58 32 59 34 60 27 61 28 62 29 63 30 64 31 65 57 66 58 67
REMARK SMILES IDX 67 68 59 69 60 70 66 71 68 72 61 73 62 74 63 75 64 76 65 77
REMARK SMILES IDX 41 78 42 79 51 80 43 81 44 82 50 83 52 84 45 85 46 86 47 87
REMARK SMILES IDX 48 88 49 89
REMARK H PARENT 7 6 11 20 73 39 39 50
REMARK Flexibility Score: inf
ROOT
ATOM      1  C   UNL     1       1.800   0.653   0.112  1.00  0.00     0.042 C 
ENDROOT
BRANCH   1   2
ATOM      2  C   UNL     1       2.454  -0.689   0.435  1.00  0.00     0.117 C 
BRANCH   2   3
ATOM      3  N   UNL     1       1.766  -1.340   1.534  1.00  0.00    -0.355 N 
ATOM      4  C   UNL     1       0.747  -2.231   1.593  1.00  0.00     0.228 C 
ATOM      5  O   UNL     1       0.222  -2.337   2.712  1.00  0.00    -0.274 OA
ATOM      6  H   UNL     1       2.110  -1.081   2.419  1.00  0.00     0.163 HD
BRANCH   4   7
ATOM      7  C   UNL     1       0.293  -3.183   0.470  1.00  0.00     0.118 C 
BRANCH   7   8
ATOM      8  C   UNL     1       0.427  -2.853  -1.022  1.00  0.00     0.087 C 
BRANCH   8   9
ATOM      9  S   UNL     1      -0.261  -1.314  -1.736  1.00  0.00    -0.164 SA
ATOM     10  C   UNL     1      -1.676  -0.976  -0.661  1.00  0.00     0.085 C 
ENDBRANCH   8   9
ENDBRANCH   7   8
BRANCH   7  11
ATOM     11  C   UNL     1       0.841  -4.603   0.704  1.00  0.00    -0.035 A 
ATOM     12  C   UNL     1       0.065  -5.713   0.320  1.00  0.00     0.004 A 
ATOM     13  C   UNL     1       2.107  -4.837   1.264  1.00  0.00     0.004 A 
ATOM     14  C   UNL     1       0.537  -7.014   0.499  1.00  0.00     0.000 A 
ATOM     15  C   UNL     1       2.570  -6.141   1.457  1.00  0.00     0.000 A 
ATOM     16  C   UNL     1       1.787  -7.228   1.073  1.00  0.00     0.000 A 
ENDBRANCH   7  11
ENDBRANCH   4   7
ENDBRANCH   2   3
ENDBRANCH   1   2
BRANCH   1  17
ATOM     17  C   UNL     1       2.114   1.754   1.117  1.00  0.00     0.118 C 
BRANCH  17  18
ATOM     18  N   UNL     1       3.438   2.314   0.912  1.00  0.00    -0.352 N 
ATOM     19  C   UNL     1       3.810   3.575   0.513  1.00  0.00     0.251 C 
ATOM     20  H   UNL     1       4.184   1.695   1.086  1.00  0.00     0.163 HD
ATOM     21  O   UNL     1       4.975   3.765   0.168  1.00  0.00    -0.269 OA
BRANCH  19  22
ATOM     22  C   UNL     1       2.840   4.698   0.487  1.00  0.00     0.039 A 
ATOM     23  C   UNL     1       2.960   5.663  -0.520  1.00  0.00     0.014 A 
ATOM     24  C   UNL     1       1.868   4.859   1.478  1.00  0.00     0.014 A 
ATOM     25  C   UNL     1       2.095   6.762  -0.547  1.00  0.00     0.010 A 
ATOM     26  C   UNL     1       0.953   5.909   1.402  1.00  0.00     0.010 A 
ATOM     27  C   UNL     1       1.073   6.889   0.406  1.00  0.00    -0.014 A 
BRANCH  27  28
ATOM     28  C   UNL     1       0.165   8.067   0.416  1.00  0.00     0.031 A 
ATOM     29  C   UNL     1       0.173   9.011   1.593  1.00  0.00     0.074 A 
ATOM     30  C   UNL     1      -0.697   8.267  -0.600  1.00  0.00     0.049 A 
ATOM     31  N   UNL     1      -0.593  10.045   1.832  1.00  0.00    -0.248 NA
ATOM     32  C   UNL     1       1.155   8.739   2.655  1.00  0.00     0.031 C 
ATOM     33  C   UNL     1      -0.834   7.407  -1.777  1.00  0.00     0.029 A 
ATOM     34  N   UNL     1      -1.629   9.255  -0.803  1.00  0.00    -0.354 N 
ATOM     35  C   UNL     1      -0.205  10.526   3.078  1.00  0.00     0.074 A 
ATOM     36  C   UNL     1       0.831   9.644   3.567  1.00  0.00     0.031 C 
ATOM     37  C   UNL     1      -1.779   7.914  -2.586  1.00  0.00     0.029 A 
ATOM     38  C   UNL     1      -2.338   9.116  -1.973  1.00  0.00     0.049 A 
ATOM     39  H   UNL     1      -1.777   9.994  -0.169  1.00  0.00     0.167 HD
ATOM     40  C   UNL     1      -0.653  11.617   3.744  1.00  0.00     0.037 A 
ATOM     41  C   UNL     1      -3.328   9.868  -2.492  1.00  0.00     0.037 A 
ATOM     42  C   UNL     1      -1.650  12.521   3.234  1.00  0.00     0.049 A 
ATOM     43  C   UNL     1      -3.787  11.094  -1.748  1.00  0.00     0.074 A 
ATOM     44  C   UNL     1      -2.131  13.685   3.806  1.00  0.00     0.029 A 
ATOM     45  N   UNL     1      -2.312  12.367   2.025  1.00  0.00    -0.354 N 
ATOM     46  N   UNL     1      -3.377  11.558  -0.592  1.00  0.00    -0.248 NA
ATOM     47  C   UNL     1      -4.837  11.903  -2.383  1.00  0.00     0.031 C 
ATOM     48  C   UNL     1      -3.106  14.220   2.957  1.00  0.00     0.029 A 
ATOM     49  C   UNL     1      -3.202  13.411   1.836  1.00  0.00     0.049 A 
ATOM     50  H   UNL     1      -2.170  11.624   1.393  1.00  0.00     0.167 HD
ATOM     51  C   UNL     1      -4.096  12.728  -0.375  1.00  0.00     0.074 A 
ATOM     52  C   UNL     1      -4.961  12.906  -1.523  1.00  0.00     0.031 C 
ATOM     53  C   UNL     1      -4.043  13.580   0.678  1.00  0.00     0.037 A 
BRANCH  40  54
ATOM     54  C   UNL     1      -0.058  11.901   5.097  1.00  0.00     0.058 A 
ATOM     55  C   UNL     1       1.265  12.350   5.241  1.00  0.00     0.135 A 
ATOM     56  C   UNL     1      -0.827  11.749   6.262  1.00  0.00     0.135 A 
ATOM     57  F   UNL     1       2.050  12.498   4.162  1.00  0.00    -0.206 F 
ATOM     58  C   UNL     1       1.814  12.608   6.492  1.00  0.00     0.059 A 
ATOM     59  C   UNL     1      -0.306  12.028   7.523  1.00  0.00     0.059 A 
ATOM     60  F   UNL     1      -2.098  11.324   6.184  1.00  0.00    -0.206 F 
ATOM     61  C   UNL     1       1.021  12.442   7.629  1.00  0.00     0.060 A 
BRANCH  61  62
ATOM     62  S   UNL     1       1.746  12.781   9.247  1.00  0.00     0.124 S 
ATOM     63  O   UNL     1       2.595  11.607   9.436  1.00  0.00    -0.237 OA
ATOM     64  O   UNL     1       2.451  14.040   9.017  1.00  0.00    -0.237 OA
ATOM     65  O   UNL     1       0.589  12.867  10.128  1.00  0.00    -0.744 OA
ENDBRANCH  61  62
ENDBRANCH  40  54
BRANCH  41  66
ATOM     66  C   UNL     1      -3.933   9.501  -3.800  1.00  0.00     0.058 A 
ATOM     67  C   UNL     1      -3.680  10.264  -4.950  1.00  0.00     0.135 A 
ATOM     68  C   UNL     1      -4.763   8.378  -3.930  1.00  0.00     0.135 A 
ATOM     69  F   UNL     1      -2.897  11.351  -4.874  1.00  0.00    -0.206 F 
ATOM     70  C   UNL     1      -4.243   9.939  -6.179  1.00  0.00     0.059 A 
ATOM     71  C   UNL     1      -5.319   8.018  -5.154  1.00  0.00     0.059 A 
ATOM     72  F   UNL     1      -5.022   7.606  -2.864  1.00  0.00    -0.206 F 
ATOM     73  C   UNL     1      -5.061   8.812  -6.272  1.00  0.00     0.060 A 
BRANCH  73  74
ATOM     74  S   UNL     1      -5.751   8.370  -7.882  1.00  0.00     0.124 S 
ATOM     75  O   UNL     1      -6.807   9.364  -8.031  1.00  0.00    -0.237 OA
ATOM     76  O   UNL     1      -4.598   8.525  -8.764  1.00  0.00    -0.237 OA
ATOM     77  O   UNL     1      -6.200   6.995  -7.687  1.00  0.00    -0.744 OA
ENDBRANCH  73  74
ENDBRANCH  41  66
BRANCH  53  78
ATOM     78  C   UNL     1      -4.911  14.806   0.622  1.00  0.00     0.058 A 
ATOM     79  C   UNL     1      -6.297  14.738   0.823  1.00  0.00     0.135 A 
ATOM     80  C   UNL     1      -4.336  16.071   0.418  1.00  0.00     0.135 A 
ATOM     81  F   UNL     1      -6.895  13.552   1.017  1.00  0.00    -0.206 F 
ATOM     82  C   UNL     1      -7.090  15.882   0.803  1.00  0.00     0.059 A 
ATOM     83  C   UNL     1      -5.106  17.230   0.418  1.00  0.00     0.059 A 
ATOM     84  F   UNL     1      -3.012  16.190   0.231  1.00  0.00    -0.206 F 
ATOM     85  C   UNL     1      -6.484  17.124   0.600  1.00  0.00     0.060 A 
BRANCH  85  86
ATOM     86  S   UNL     1      -7.516  18.605   0.610  1.00  0.00     0.124 S 
ATOM     87  O   UNL     1      -8.155  18.527  -0.699  1.00  0.00    -0.237 OA
ATOM     88  O   UNL     1      -8.390  18.371   1.756  1.00  0.00    -0.237 OA
ATOM     89  O   UNL     1      -6.552  19.689   0.776  1.00  0.00    -0.744 OA
ENDBRANCH  85  86
ENDBRANCH  53  78
ENDBRANCH  27  28
ENDBRANCH  19  22
ENDBRANCH  17  18
ENDBRANCH   1  17
TORSDOF 16
