REMARK SMILES O=C(N/N=C\c1ccccc1C(=O)NCCCNC(=O)c1ccc(-c2c3nc(c(-c4c(F)cc(S(=O)(=O)[O-])cc4F)c4ccc([nH]4)c(-c4c(F)cc(S(=O)(=O)[O-])cc4F)c4nc(c(-c5c(F)cc(S(=O)(=O)[O-])cc5F)c5ccc2[nH]5)C=C4)C=C3)cc1)C(=O)N1CCCCC1
REMARK SMILES IDX 16 1 15 2 14 3 12 4 13 5 11 7 6 8 7 9 8 10 10 11 9 12 5 13
REMARK SMILES IDX 4 14 3 15 1 16 2 17 87 19 88 20 89 21 90 22 94 23 91 24
REMARK SMILES IDX 93 25 92 26 17 27 18 28 19 29 20 31 21 32 22 33 86 34 23 35
REMARK SMILES IDX 85 36 24 37 25 38 26 39 79 40 27 41 84 42 78 43 80 44 28 45
REMARK SMILES IDX 83 46 77 47 76 48 29 50 63 51 42 52 62 53 43 54 46 55 61 56
REMARK SMILES IDX 81 57 44 58 45 59 60 61 82 62 47 63 30 64 31 65 40 66 32 67
REMARK SMILES IDX 33 68 39 69 41 70 34 71 35 72 36 73 37 74 38 75 64 76 65 77
REMARK SMILES IDX 74 78 66 79 67 80 73 81 75 82 68 83 69 84 70 85 71 86 72 87
REMARK SMILES IDX 48 88 49 89 58 90 50 91 51 92 57 93 59 94 52 95 53 96 54 97
REMARK SMILES IDX 55 98 56 99
REMARK H PARENT 14 6 3 18 18 30 80 49 46 60
REMARK Flexibility Score: inf
ROOT
ATOM      1  C   UNL     1       5.397  -0.978  -2.936  1.00  0.00     0.042 C 
ENDROOT
BRANCH   1   2
ATOM      2  C   UNL     1       3.938  -0.656  -2.702  1.00  0.00     0.118 C 
BRANCH   2   3
ATOM      3  N   UNL     1       3.237  -1.705  -2.052  1.00  0.00    -0.352 N 
ATOM      4  C   UNL     1       3.070  -1.995  -0.744  1.00  0.00     0.251 C 
ATOM      5  O   UNL     1       2.469  -3.041  -0.494  1.00  0.00    -0.269 OA
ATOM      6  H   UNL     1       2.794  -2.335  -2.665  1.00  0.00     0.163 HD
BRANCH   4   7
ATOM      7  C   UNL     1       3.543  -1.177   0.397  1.00  0.00     0.048 A 
ATOM      8  C   UNL     1       3.855   0.616   0.526  1.00  0.00     0.007 A 
ATOM      9  C   UNL     1       3.888   1.447   2.180  1.00  0.00     0.010 A 
ATOM     10  C   UNL     1       3.807   0.450   3.679  1.00  0.00     0.001 A 
ATOM     11  C   UNL     1       3.343  -2.124   1.931  1.00  0.00     0.014 A 
ATOM     12  C   UNL     1       3.560  -1.336   3.571  1.00  0.00     0.001 A 
BRANCH   8  13
ATOM     13  C   UNL     1       3.806   1.625  -0.490  1.00  0.00     0.142 C 
ATOM     14  N   UNL     1       2.667   2.145  -0.742  1.00  0.00    -0.180 NA
BRANCH  14  15
ATOM     15  N   UNL     1       1.638   1.585  -0.057  1.00  0.00    -0.239 N 
ATOM     16  O   UNL     1       0.362   0.158   0.972  1.00  0.00    -0.262 OA
ATOM     17  C   UNL     1       1.538   0.565   0.907  1.00  0.00     0.329 C 
ATOM     18  H   UNL     1       0.766   1.981  -0.286  1.00  0.00     0.194 HD
BRANCH  17  19
ATOM     19  C   UNL     1       2.693  -0.174   2.005  1.00  0.00     0.313 C 
ATOM     20  O   UNL     1       1.784  -0.569   2.829  1.00  0.00    -0.263 OA
ATOM     21  N   UNL     1       4.667  -0.474   2.003  1.00  0.00    -0.334 N 
ATOM     22  C   UNL     1       5.647  -1.803   2.458  1.00  0.00     0.120 C 
ATOM     23  C   UNL     1       5.998   0.501   1.498  1.00  0.00     0.120 C 
ATOM     24  C   UNL     1       6.692  -1.475   3.536  1.00  0.00     0.022 C 
ATOM     25  C   UNL     1       6.963   0.813   2.648  1.00  0.00     0.022 C 
ATOM     26  C   UNL     1       7.692  -0.429   3.095  1.00  0.00     0.004 C 
ENDBRANCH  17  19
ENDBRANCH  14  15
ENDBRANCH   8  13
ENDBRANCH   4   7
ENDBRANCH   2   3
ENDBRANCH   1   2
BRANCH   1  27
ATOM     27  C   UNL     1       5.719  -0.698  -4.384  1.00  0.00     0.118 C 
BRANCH  27  28
ATOM     28  N   UNL     1       5.392   0.669  -4.790  1.00  0.00    -0.352 N 
ATOM     29  C   UNL     1       5.935   1.402  -5.817  1.00  0.00     0.251 C 
ATOM     30  H   UNL     1       4.695   1.121  -4.261  1.00  0.00     0.163 HD
ATOM     31  O   UNL     1       5.583   2.558  -6.016  1.00  0.00    -0.269 OA
BRANCH  29  32
ATOM     32  C   UNL     1       7.013   0.780  -6.602  1.00  0.00     0.039 A 
ATOM     33  C   UNL     1       8.212   1.474  -6.742  1.00  0.00     0.014 A 
ATOM     34  C   UNL     1       6.891  -0.545  -7.020  1.00  0.00     0.014 A 
ATOM     35  C   UNL     1       9.326   0.795  -7.223  1.00  0.00     0.010 A 
ATOM     36  C   UNL     1       8.033  -1.255  -7.338  1.00  0.00     0.010 A 
ATOM     37  C   UNL     1       9.258  -0.587  -7.464  1.00  0.00    -0.014 A 
BRANCH  37  38
ATOM     38  C   UNL     1      10.452  -1.354  -7.884  1.00  0.00     0.031 A 
ATOM     39  C   UNL     1      10.418  -2.106  -9.187  1.00  0.00     0.074 A 
ATOM     40  C   UNL     1      11.525  -1.415  -7.072  1.00  0.00     0.049 A 
ATOM     41  N   UNL     1      11.326  -2.883  -9.711  1.00  0.00    -0.248 NA
ATOM     42  C   UNL     1       9.184  -2.006  -9.989  1.00  0.00     0.031 C 
ATOM     43  C   UNL     1      11.632  -0.780  -5.753  1.00  0.00     0.029 A 
ATOM     44  N   UNL     1      12.734  -2.040  -7.232  1.00  0.00    -0.354 N 
ATOM     45  C   UNL     1      10.768  -3.373 -10.884  1.00  0.00     0.074 A 
ATOM     46  C   UNL     1       9.415  -2.876 -10.959  1.00  0.00     0.031 C 
ATOM     47  C   UNL     1      12.854  -1.013  -5.249  1.00  0.00     0.029 A 
ATOM     48  C   UNL     1      13.599  -1.853  -6.179  1.00  0.00     0.049 A 
ATOM     49  H   UNL     1      12.962  -2.574  -8.027  1.00  0.00     0.167 HD
ATOM     50  C   UNL     1      11.348  -4.136 -11.837  1.00  0.00     0.037 A 
ATOM     51  C   UNL     1      14.850  -2.316  -5.988  1.00  0.00     0.037 A 
ATOM     52  C   UNL     1      12.710  -4.586 -11.768  1.00  0.00     0.049 A 
ATOM     53  C   UNL     1      15.472  -3.162  -7.066  1.00  0.00     0.074 A 
ATOM     54  C   UNL     1      13.425  -5.305 -12.707  1.00  0.00     0.029 A 
ATOM     55  N   UNL     1      13.563  -4.358 -10.697  1.00  0.00    -0.354 N 
ATOM     56  N   UNL     1      14.959  -3.546  -8.212  1.00  0.00    -0.248 NA
ATOM     57  C   UNL     1      16.843  -3.633  -6.833  1.00  0.00     0.031 C 
ATOM     58  C   UNL     1      14.691  -5.567 -12.177  1.00  0.00     0.029 A 
ATOM     59  C   UNL     1      14.789  -4.952 -10.938  1.00  0.00     0.049 A 
ATOM     60  H   UNL     1      13.330  -3.850  -9.886  1.00  0.00     0.167 HD
ATOM     61  C   UNL     1      15.953  -4.282  -8.847  1.00  0.00     0.074 A 
ATOM     62  C   UNL     1      17.104  -4.269  -7.966  1.00  0.00     0.031 C 
ATOM     63  C   UNL     1      15.920  -4.914 -10.046  1.00  0.00     0.037 A 
BRANCH  50  64
ATOM     64  C   UNL     1      10.520  -4.519 -13.032  1.00  0.00     0.058 A 
ATOM     65  C   UNL     1      10.110  -3.571 -13.985  1.00  0.00     0.135 A 
ATOM     66  C   UNL     1      10.172  -5.860 -13.253  1.00  0.00     0.135 A 
ATOM     67  F   UNL     1      10.392  -2.269 -13.810  1.00  0.00    -0.206 F 
ATOM     68  C   UNL     1       9.372  -3.937 -15.104  1.00  0.00     0.059 A 
ATOM     69  C   UNL     1       9.463  -6.254 -14.384  1.00  0.00     0.059 A 
ATOM     70  F   UNL     1      10.526  -6.806 -12.369  1.00  0.00    -0.206 F 
ATOM     71  C   UNL     1       9.062  -5.283 -15.300  1.00  0.00     0.060 A 
BRANCH  71  72
ATOM     72  S   UNL     1       8.142  -5.744 -16.782  1.00  0.00     0.124 S 
ATOM     73  O   UNL     1       6.826  -5.180 -16.497  1.00  0.00    -0.237 OA
ATOM     74  O   UNL     1       8.902  -5.079 -17.836  1.00  0.00    -0.237 OA
ATOM     75  O   UNL     1       8.211  -7.202 -16.787  1.00  0.00    -0.744 OA
ENDBRANCH  71  72
ENDBRANCH  50  64
BRANCH  51  76
ATOM     76  C   UNL     1      15.593  -1.986  -4.741  1.00  0.00     0.058 A 
ATOM     77  C   UNL     1      16.737  -1.175  -4.768  1.00  0.00     0.135 A 
ATOM     78  C   UNL     1      15.178  -2.482  -3.494  1.00  0.00     0.135 A 
ATOM     79  F   UNL     1      17.178  -0.675  -5.933  1.00  0.00    -0.206 F 
ATOM     80  C   UNL     1      17.461  -0.892  -3.613  1.00  0.00     0.059 A 
ATOM     81  C   UNL     1      15.865  -2.187  -2.321  1.00  0.00     0.059 A 
ATOM     82  F   UNL     1      14.077  -3.245  -3.406  1.00  0.00    -0.206 F 
ATOM     83  C   UNL     1      17.015  -1.404  -2.393  1.00  0.00     0.060 A 
BRANCH  83  84
ATOM     84  S   UNL     1      17.945  -1.010  -0.896  1.00  0.00     0.124 S 
ATOM     85  O   UNL     1      19.156  -1.798  -1.087  1.00  0.00    -0.237 OA
ATOM     86  O   UNL     1      18.099   0.437  -1.005  1.00  0.00    -0.237 OA
ATOM     87  O   UNL     1      17.060  -1.459   0.175  1.00  0.00    -0.744 OA
ENDBRANCH  83  84
ENDBRANCH  51  76
BRANCH  63  88
ATOM     88  C   UNL     1      17.173  -5.615 -10.492  1.00  0.00     0.058 A 
ATOM     89  C   UNL     1      17.617  -6.796  -9.879  1.00  0.00     0.135 A 
ATOM     90  C   UNL     1      17.901  -5.130 -11.591  1.00  0.00     0.135 A 
ATOM     91  F   UNL     1      16.960  -7.298  -8.821  1.00  0.00    -0.206 F 
ATOM     92  C   UNL     1      18.756  -7.458 -10.322  1.00  0.00     0.059 A 
ATOM     93  C   UNL     1      19.021  -5.795 -12.075  1.00  0.00     0.059 A 
ATOM     94  F   UNL     1      17.510  -4.011 -12.222  1.00  0.00    -0.206 F 
ATOM     95  C   UNL     1      19.448  -6.952 -11.425  1.00  0.00     0.060 A 
BRANCH  95  96
ATOM     96  S   UNL     1      20.902  -7.845 -12.012  1.00  0.00     0.124 S 
ATOM     97  O   UNL     1      21.863  -7.571 -10.949  1.00  0.00    -0.237 OA
ATOM     98  O   UNL     1      20.413  -9.218 -12.087  1.00  0.00    -0.237 OA
ATOM     99  O   UNL     1      21.191  -7.216 -13.297  1.00  0.00    -0.744 OA
ENDBRANCH  95  96
ENDBRANCH  63  88
ENDBRANCH  37  38
ENDBRANCH  29  32
ENDBRANCH  27  28
ENDBRANCH   1  27
TORSDOF 16
