REMARK SMILES C[C@@H](C(=O)NCCCNC(=O)c1ccc(-c2c3nc(c(-c4c(F)cc(S(=O)(=O)[O-])cc4F)c4ccc([nH]4)c(-c4c(F)cc(S(=O)(=O)[O-])cc4F)c4nc(c(-c5c(F)cc(S(=O)(=O)[O-])cc5F)c5ccc2[nH]5)C=C4)C=C3)cc1)N(C)c1ccc(C(N)=O)nn1
REMARK SMILES IDX 7 1 6 2 5 3 3 4 4 5 2 7 1 8 78 9 79 10 80 11 81 12 88 13
REMARK SMILES IDX 82 14 87 15 83 16 84 17 85 18 86 19 8 22 9 23 10 24 11 26
REMARK SMILES IDX 12 27 13 28 77 29 14 30 76 31 15 32 16 33 17 34 70 35 18 36
REMARK SMILES IDX 75 37 69 38 71 39 19 40 74 41 68 42 67 43 20 45 54 46 33 47
REMARK SMILES IDX 53 48 34 49 37 50 52 51 72 52 35 53 36 54 51 56 73 57 38 58
REMARK SMILES IDX 21 59 22 60 31 61 23 62 24 63 30 64 32 65 25 66 26 67 27 68
REMARK SMILES IDX 28 69 29 70 55 71 56 72 65 73 57 74 58 75 64 76 66 77 59 78
REMARK SMILES IDX 60 79 61 80 62 81 63 82 39 83 40 84 49 85 41 86 42 87 48 88
REMARK SMILES IDX 50 89 43 90 44 91 45 92 46 93 47 94
REMARK H PARENT 5 6 85 20 85 21 9 25 71 44 37 55
REMARK Flexibility Score: inf
ROOT
ATOM      1  C   UNL     1       4.339   1.238  -0.578  1.00  0.00     0.042 C 
ENDROOT
BRANCH   1   2
ATOM      2  C   UNL     1       3.456   2.112   0.311  1.00  0.00     0.117 C 
BRANCH   2   3
ATOM      3  N   UNL     1       2.325   2.659  -0.415  1.00  0.00    -0.354 N 
ATOM      4  C   UNL     1       1.006   2.297  -0.425  1.00  0.00     0.242 C 
ATOM      5  O   UNL     1       0.269   2.986  -1.135  1.00  0.00    -0.273 OA
ATOM      6  H   UNL     1       2.545   3.420  -1.000  1.00  0.00     0.163 HD
BRANCH   4   7
ATOM      7  C   UNL     1       0.493   1.136   0.478  1.00  0.00     0.169 C 
ATOM      8  C   UNL     1       1.164  -0.210   0.208  1.00  0.00     0.042 C 
BRANCH   7   9
ATOM      9  N   UNL     1      -0.995   1.010   0.479  1.00  0.00    -0.346 N 
ATOM     10  C   UNL     1      -1.708   1.745   1.521  1.00  0.00     0.146 C 
BRANCH   9  11
ATOM     11  C   UNL     1      -1.722   0.854  -0.706  1.00  0.00     0.151 A 
ATOM     12  C   UNL     1      -1.387  -0.105  -1.657  1.00  0.00     0.051 A 
ATOM     13  N   UNL     1      -2.826   1.611  -0.934  1.00  0.00    -0.132 NA
ATOM     14  C   UNL     1      -2.126  -0.243  -2.833  1.00  0.00     0.040 A 
ATOM     15  N   UNL     1      -3.568   1.502  -2.101  1.00  0.00    -0.143 NA
ATOM     16  C   UNL     1      -3.203   0.592  -3.027  1.00  0.00     0.150 A 
BRANCH  16  17
ATOM     17  C   UNL     1      -4.024   0.502  -4.264  1.00  0.00     0.269 C 
ATOM     18  N   UNL     1      -5.037   1.414  -4.393  1.00  0.00    -0.364 N 
ATOM     19  O   UNL     1      -3.815  -0.340  -5.131  1.00  0.00    -0.268 OA
ATOM     20  H   UNL     1      -5.190   2.083  -3.687  1.00  0.00     0.160 HD
ATOM     21  H   UNL     1      -5.612   1.401  -5.192  1.00  0.00     0.160 HD
ENDBRANCH  16  17
ENDBRANCH   9  11
ENDBRANCH   7   9
ENDBRANCH   4   7
ENDBRANCH   2   3
ENDBRANCH   1   2
BRANCH   1  22
ATOM     22  C   UNL     1       5.085   2.009  -1.669  1.00  0.00     0.118 C 
BRANCH  22  23
ATOM     23  N   UNL     1       6.061   2.945  -1.125  1.00  0.00    -0.352 N 
ATOM     24  C   UNL     1       7.427   2.988  -1.266  1.00  0.00     0.251 C 
ATOM     25  H   UNL     1       5.680   3.660  -0.567  1.00  0.00     0.163 HD
ATOM     26  O   UNL     1       8.079   3.749  -0.555  1.00  0.00    -0.269 OA
BRANCH  24  27
ATOM     27  C   UNL     1       8.117   2.115  -2.241  1.00  0.00     0.039 A 
ATOM     28  C   UNL     1       9.285   1.455  -1.845  1.00  0.00     0.014 A 
ATOM     29  C   UNL     1       7.633   1.955  -3.542  1.00  0.00     0.014 A 
ATOM     30  C   UNL     1       9.911   0.564  -2.721  1.00  0.00     0.010 A 
ATOM     31  C   UNL     1       8.224   1.021  -4.393  1.00  0.00     0.010 A 
ATOM     32  C   UNL     1       9.354   0.297  -3.982  1.00  0.00    -0.014 A 
BRANCH  32  33
ATOM     33  C   UNL     1       9.884  -0.792  -4.846  1.00  0.00     0.031 A 
ATOM     34  C   UNL     1      10.473  -0.488  -6.196  1.00  0.00     0.074 A 
ATOM     35  C   UNL     1       9.738  -2.072  -4.443  1.00  0.00     0.049 A 
ATOM     36  N   UNL     1      10.876  -1.319  -7.122  1.00  0.00    -0.248 NA
ATOM     37  C   UNL     1      10.613   0.931  -6.562  1.00  0.00     0.031 C 
ATOM     38  C   UNL     1       9.140  -2.495  -3.173  1.00  0.00     0.029 A 
ATOM     39  N   UNL     1      10.054  -3.255  -5.065  1.00  0.00    -0.354 N 
ATOM     40  C   UNL     1      11.297  -0.530  -8.187  1.00  0.00     0.074 A 
ATOM     41  C   UNL     1      11.080   0.848  -7.801  1.00  0.00     0.031 C 
ATOM     42  C   UNL     1       9.132  -3.836  -3.112  1.00  0.00     0.029 A 
ATOM     43  C   UNL     1       9.676  -4.372  -4.354  1.00  0.00     0.049 A 
ATOM     44  H   UNL     1      10.508  -3.300  -5.938  1.00  0.00     0.167 HD
ATOM     45  C   UNL     1      11.823  -0.924  -9.370  1.00  0.00     0.037 A 
ATOM     46  C   UNL     1       9.728  -5.680  -4.677  1.00  0.00     0.037 A 
ATOM     47  C   UNL     1      12.065  -2.298  -9.731  1.00  0.00     0.049 A 
ATOM     48  C   UNL     1      10.296  -6.083  -6.012  1.00  0.00     0.074 A 
ATOM     49  C   UNL     1      12.690  -2.788 -10.866  1.00  0.00     0.029 A 
ATOM     50  N   UNL     1      11.683  -3.399  -8.980  1.00  0.00    -0.354 N 
ATOM     51  N   UNL     1      10.789  -5.322  -6.960  1.00  0.00    -0.248 NA
ATOM     52  C   UNL     1      10.311  -7.519  -6.326  1.00  0.00     0.031 C 
ATOM     53  C   UNL     1      12.626  -4.183 -10.833  1.00  0.00     0.029 A 
ATOM     54  C   UNL     1      12.013  -4.565  -9.650  1.00  0.00     0.049 A 
ATOM     55  H   UNL     1      11.242  -3.358  -8.100  1.00  0.00     0.167 HD
ATOM     56  C   UNL     1      11.187  -6.188  -7.972  1.00  0.00     0.074 A 
ATOM     57  C   UNL     1      10.902  -7.531  -7.513  1.00  0.00     0.031 C 
ATOM     58  C   UNL     1      11.731  -5.897  -9.179  1.00  0.00     0.037 A 
BRANCH  45  59
ATOM     59  C   UNL     1      12.182   0.127 -10.384  1.00  0.00     0.058 A 
ATOM     60  C   UNL     1      13.310   0.946 -10.231  1.00  0.00     0.135 A 
ATOM     61  C   UNL     1      11.457   0.227 -11.584  1.00  0.00     0.135 A 
ATOM     62  F   UNL     1      14.031   0.900  -9.099  1.00  0.00    -0.206 F 
ATOM     63  C   UNL     1      13.710   1.825 -11.232  1.00  0.00     0.059 A 
ATOM     64  C   UNL     1      11.852   1.082 -12.608  1.00  0.00     0.059 A 
ATOM     65  F   UNL     1      10.368  -0.533 -11.780  1.00  0.00    -0.206 F 
ATOM     66  C   UNL     1      12.981   1.878 -12.422  1.00  0.00     0.060 A 
BRANCH  66  67
ATOM     67  S   UNL     1      13.555   2.976 -13.735  1.00  0.00     0.124 S 
ATOM     68  O   UNL     1      13.257   4.288 -13.169  1.00  0.00    -0.237 OA
ATOM     69  O   UNL     1      14.971   2.635 -13.829  1.00  0.00    -0.237 OA
ATOM     70  O   UNL     1      12.742   2.590 -14.884  1.00  0.00    -0.744 OA
ENDBRANCH  66  67
ENDBRANCH  45  59
BRANCH  46  71
ATOM     71  C   UNL     1       9.194  -6.710  -3.743  1.00  0.00     0.058 A 
ATOM     72  C   UNL     1      10.040  -7.650  -3.137  1.00  0.00     0.135 A 
ATOM     73  C   UNL     1       7.819  -6.799  -3.469  1.00  0.00     0.135 A 
ATOM     74  F   UNL     1      11.361  -7.611  -3.371  1.00  0.00    -0.206 F 
ATOM     75  C   UNL     1       9.542  -8.664  -2.326  1.00  0.00     0.059 A 
ATOM     76  C   UNL     1       7.301  -7.784  -2.636  1.00  0.00     0.059 A 
ATOM     77  F   UNL     1       6.965  -5.914  -4.007  1.00  0.00    -0.206 F 
ATOM     78  C   UNL     1       8.168  -8.726  -2.085  1.00  0.00     0.060 A 
BRANCH  78  79
ATOM     79  S   UNL     1       7.529 -10.044  -1.030  1.00  0.00     0.124 S 
ATOM     80  O   UNL     1       7.643 -11.202  -1.909  1.00  0.00    -0.237 OA
ATOM     81  O   UNL     1       8.452 -10.006   0.101  1.00  0.00    -0.237 OA
ATOM     82  O   UNL     1       6.169  -9.605  -0.734  1.00  0.00    -0.744 OA
ENDBRANCH  78  79
ENDBRANCH  46  71
BRANCH  58  83
ATOM     83  C   UNL     1      12.068  -7.046 -10.088  1.00  0.00     0.058 A 
ATOM     84  C   UNL     1      11.068  -7.777 -10.747  1.00  0.00     0.135 A 
ATOM     85  C   UNL     1      13.407  -7.373 -10.360  1.00  0.00     0.135 A 
ATOM     86  F   UNL     1       9.773  -7.513 -10.512  1.00  0.00    -0.206 F 
ATOM     87  C   UNL     1      11.381  -8.798 -11.637  1.00  0.00     0.059 A 
ATOM     88  C   UNL     1      13.744  -8.371 -11.270  1.00  0.00     0.059 A 
ATOM     89  F   UNL     1      14.403  -6.701  -9.761  1.00  0.00    -0.206 F 
ATOM     90  C   UNL     1      12.723  -9.082 -11.899  1.00  0.00     0.060 A 
BRANCH  90  91
ATOM     91  S   UNL     1      13.113 -10.369 -13.103  1.00  0.00     0.124 S 
ATOM     92  O   UNL     1      12.739 -11.577 -12.376  1.00  0.00    -0.237 OA
ATOM     93  O   UNL     1      12.252 -10.014 -14.227  1.00  0.00    -0.237 OA
ATOM     94  O   UNL     1      14.543 -10.195 -13.337  1.00  0.00    -0.744 OA
ENDBRANCH  90  91
ENDBRANCH  58  83
ENDBRANCH  32  33
ENDBRANCH  24  27
ENDBRANCH  22  23
ENDBRANCH   1  22
TORSDOF 16
