REMARK SMILES CC[C@@H](Oc1cccc(/C=C2/SC(=O)N(c3cccc(OC)c3)C2=O)c1)C(=O)NCCCNC(=O)c1ccc(-c2c3nc(c(-c4c(F)cc(S(=O)(=O)[O-])cc4F)c4ccc([nH]4)c(-c4c(F)cc(S(=O)(=O)[O-])cc4F)c4nc(c(-c5c(F)cc(S(=O)(=O)[O-])cc5F)c5ccc2[nH]5)C=C4)C=C3)cc1
REMARK SMILES IDX 30 1 29 2 27 3 28 4 3 6 2 7 1 8 4 9 5 10 6 11 26 12 7 13
REMARK SMILES IDX 9 14 8 15 10 16 11 17 12 18 24 19 13 20 15 21 25 22 14 23
REMARK SMILES IDX 16 24 17 25 23 26 18 27 20 28 19 29 21 30 22 31 31 32 32 33
REMARK SMILES IDX 33 34 34 35 35 37 36 38 37 39 101 40 38 41 100 42 39 43
REMARK SMILES IDX 40 44 41 45 94 46 42 47 99 48 93 49 95 50 43 51 98 52 92 53
REMARK SMILES IDX 91 54 44 56 78 57 57 58 77 59 58 60 61 61 76 62 96 63 59 64
REMARK SMILES IDX 60 65 75 67 97 68 62 69 45 70 46 71 55 72 47 73 48 74 54 75
REMARK SMILES IDX 56 76 49 77 50 78 51 79 52 80 53 81 79 82 80 83 89 84 81 85
REMARK SMILES IDX 82 86 88 87 90 88 83 89 84 90 85 91 86 92 87 93 63 94 64 95
REMARK SMILES IDX 73 96 65 97 66 98 72 99 74 100 67 101 68 102 69 103 70 104
REMARK SMILES IDX 71 105
REMARK H PARENT 29 5 33 36 95 55 61 66
REMARK Flexibility Score: inf
ROOT
ATOM      1  C   UNL     1      -1.907  -0.994  -3.143  1.00  0.00     0.118 C 
ENDROOT
BRANCH   1   2
ATOM      2  N   UNL     1      -0.725  -0.702  -3.953  1.00  0.00    -0.353 N 
ATOM      3  C   UNL     1       0.600  -0.604  -3.589  1.00  0.00     0.261 C 
ATOM      4  O   UNL     1       1.435  -0.458  -4.488  1.00  0.00    -0.271 OA
ATOM      5  H   UNL     1      -0.905  -0.551  -4.909  1.00  0.00     0.163 HD
BRANCH   3   6
ATOM      6  C   UNL     1       1.023  -0.627  -2.100  1.00  0.00     0.261 C 
BRANCH   6   7
ATOM      7  C   UNL     1       0.342   0.601  -1.453  1.00  0.00     0.052 C 
ATOM      8  C   UNL     1       1.041   1.284  -0.282  1.00  0.00     0.008 C 
ENDBRANCH   6   7
BRANCH   6   9
ATOM      9  O   UNL     1       0.630  -1.962  -1.757  1.00  0.00    -0.481 OA
BRANCH   9  10
ATOM     10  C   UNL     1       0.929  -2.582  -0.590  1.00  0.00     0.121 A 
ATOM     11  C   UNL     1       0.851  -3.976  -0.605  1.00  0.00     0.046 A 
ATOM     12  C   UNL     1       1.092  -1.947   0.623  1.00  0.00     0.054 A 
ATOM     13  C   UNL     1       0.884  -4.712   0.587  1.00  0.00     0.004 A 
ATOM     14  C   UNL     1       0.967  -2.657   1.828  1.00  0.00    -0.021 A 
ATOM     15  C   UNL     1       0.906  -4.048   1.814  1.00  0.00     0.008 A 
BRANCH  14  16
ATOM     16  C   UNL     1       0.620  -1.865   3.015  1.00  0.00     0.029 C 
ATOM     17  C   UNL     1      -0.608  -1.325   3.143  1.00  0.00     0.083 C 
ATOM     18  S   UNL     1      -0.980  -0.067   4.251  1.00  0.00    -0.022 SA
ATOM     19  C   UNL     1      -1.798  -1.580   2.265  1.00  0.00     0.272 C 
ATOM     20  C   UNL     1      -2.457   0.365   3.383  1.00  0.00     0.298 C 
ATOM     21  N   UNL     1      -2.744  -0.578   2.423  1.00  0.00    -0.236 N 
ATOM     22  O   UNL     1      -1.863  -2.537   1.506  1.00  0.00    -0.268 OA
ATOM     23  O   UNL     1      -3.077   1.377   3.683  1.00  0.00    -0.260 OA
BRANCH  21  24
ATOM     24  C   UNL     1      -3.910  -0.522   1.589  1.00  0.00     0.057 A 
ATOM     25  C   UNL     1      -4.522  -1.702   1.133  1.00  0.00     0.027 A 
ATOM     26  C   UNL     1      -4.443   0.705   1.156  1.00  0.00     0.073 A 
ATOM     27  C   UNL     1      -5.617  -1.667   0.269  1.00  0.00     0.006 A 
ATOM     28  C   UNL     1      -5.503   0.744   0.240  1.00  0.00     0.120 A 
ATOM     29  C   UNL     1      -6.099  -0.445  -0.182  1.00  0.00     0.046 A 
BRANCH  28  30
ATOM     30  O   UNL     1      -6.024   1.870  -0.336  1.00  0.00    -0.497 OA
ATOM     31  C   UNL     1      -5.298   3.080  -0.152  1.00  0.00     0.278 C 
ENDBRANCH  28  30
ENDBRANCH  21  24
ENDBRANCH  14  16
ENDBRANCH   9  10
ENDBRANCH   6   9
ENDBRANCH   3   6
ENDBRANCH   1   2
BRANCH   1  32
ATOM     32  C   UNL     1      -2.806   0.221  -2.906  1.00  0.00     0.042 C 
BRANCH  32  33
ATOM     33  C   UNL     1      -3.554   0.727  -4.134  1.00  0.00     0.118 C 
BRANCH  33  34
ATOM     34  N   UNL     1      -4.578  -0.196  -4.594  1.00  0.00    -0.352 N 
ATOM     35  C   UNL     1      -5.941  -0.058  -4.694  1.00  0.00     0.251 C 
ATOM     36  H   UNL     1      -4.235  -1.072  -4.885  1.00  0.00     0.163 HD
ATOM     37  O   UNL     1      -6.612  -1.058  -4.949  1.00  0.00    -0.269 OA
BRANCH  35  38
ATOM     38  C   UNL     1      -6.624   1.246  -4.490  1.00  0.00     0.039 A 
ATOM     39  C   UNL     1      -7.884   1.244  -3.879  1.00  0.00     0.014 A 
ATOM     40  C   UNL     1      -6.089   2.454  -4.943  1.00  0.00     0.014 A 
ATOM     41  C   UNL     1      -8.570   2.446  -3.669  1.00  0.00     0.010 A 
ATOM     42  C   UNL     1      -6.740   3.660  -4.665  1.00  0.00     0.010 A 
ATOM     43  C   UNL     1      -7.989   3.672  -4.024  1.00  0.00    -0.014 A 
BRANCH  43  44
ATOM     44  C   UNL     1      -8.656   4.968  -3.712  1.00  0.00     0.031 A 
ATOM     45  C   UNL     1      -9.073   5.904  -4.816  1.00  0.00     0.074 A 
ATOM     46  C   UNL     1      -8.825   5.338  -2.426  1.00  0.00     0.049 A 
ATOM     47  N   UNL     1      -9.589   7.105  -4.729  1.00  0.00    -0.248 NA
ATOM     48  C   UNL     1      -8.879   5.436  -6.198  1.00  0.00     0.031 C 
ATOM     49  C   UNL     1      -8.456   4.535  -1.259  1.00  0.00     0.029 A 
ATOM     50  N   UNL     1      -9.327   6.495  -1.880  1.00  0.00    -0.354 N 
ATOM     51  C   UNL     1      -9.786   7.533  -6.037  1.00  0.00     0.074 A 
ATOM     52  C   UNL     1      -9.278   6.488  -6.901  1.00  0.00     0.031 C 
ATOM     53  C   UNL     1      -8.713   5.231  -0.141  1.00  0.00     0.029 A 
ATOM     54  C   UNL     1      -9.257   6.533  -0.506  1.00  0.00     0.049 A 
ATOM     55  H   UNL     1      -9.702   7.227  -2.421  1.00  0.00     0.167 HD
ATOM     56  C   UNL     1     -10.364   8.676  -6.480  1.00  0.00     0.037 A 
ATOM     57  C   UNL     1      -9.585   7.506   0.365  1.00  0.00     0.037 A 
ATOM     58  C   UNL     1     -10.889   9.707  -5.620  1.00  0.00     0.049 A 
ATOM     59  C   UNL     1     -10.191   8.782  -0.150  1.00  0.00     0.074 A 
ATOM     60  C   UNL     1     -11.546  10.872  -5.976  1.00  0.00     0.029 A 
ATOM     61  N   UNL     1     -10.815   9.700  -4.235  1.00  0.00    -0.354 N 
ATOM     62  N   UNL     1     -10.431   9.136  -1.389  1.00  0.00    -0.248 NA
ATOM     63  C   UNL     1     -10.594   9.780   0.851  1.00  0.00     0.031 C 
ATOM     64  C   UNL     1     -11.834  11.589  -4.809  1.00  0.00     0.029 A 
ATOM     65  C   UNL     1     -11.395  10.850  -3.723  1.00  0.00     0.049 A 
ATOM     66  H   UNL     1     -10.409   8.984  -3.695  1.00  0.00     0.167 HD
ATOM     67  C   UNL     1     -11.047  10.381  -1.315  1.00  0.00     0.074 A 
ATOM     68  C   UNL     1     -11.146  10.715   0.091  1.00  0.00     0.031 C 
ATOM     69  C   UNL     1     -11.496  11.171  -2.321  1.00  0.00     0.037 A 
BRANCH  56  70
ATOM     70  C   UNL     1     -10.486   8.870  -7.967  1.00  0.00     0.058 A 
ATOM     71  C   UNL     1     -11.396   8.121  -8.731  1.00  0.00     0.135 A 
ATOM     72  C   UNL     1      -9.734   9.855  -8.627  1.00  0.00     0.135 A 
ATOM     73  F   UNL     1     -12.132   7.158  -8.153  1.00  0.00    -0.206 F 
ATOM     74  C   UNL     1     -11.541   8.327 -10.099  1.00  0.00     0.059 A 
ATOM     75  C   UNL     1      -9.881  10.095  -9.991  1.00  0.00     0.059 A 
ATOM     76  F   UNL     1      -8.851  10.601  -7.946  1.00  0.00    -0.206 F 
ATOM     77  C   UNL     1     -10.780   9.318 -10.720  1.00  0.00     0.060 A 
BRANCH  77  78
ATOM     78  S   UNL     1     -10.995   9.585 -12.493  1.00  0.00     0.124 S 
ATOM     79  O   UNL     1     -10.331   8.409 -13.047  1.00  0.00    -0.237 OA
ATOM     80  O   UNL     1     -12.448   9.614 -12.630  1.00  0.00    -0.237 OA
ATOM     81  O   UNL     1     -10.320  10.857 -12.730  1.00  0.00    -0.744 OA
ENDBRANCH  77  78
ENDBRANCH  56  70
BRANCH  57  82
ATOM     82  C   UNL     1      -9.367   7.303   1.822  1.00  0.00     0.058 A 
ATOM     83  C   UNL     1     -10.447   7.119   2.697  1.00  0.00     0.135 A 
ATOM     84  C   UNL     1      -8.073   7.293   2.368  1.00  0.00     0.135 A 
ATOM     85  F   UNL     1     -11.702   7.124   2.222  1.00  0.00    -0.206 F 
ATOM     86  C   UNL     1     -10.257   6.960   4.066  1.00  0.00     0.059 A 
ATOM     87  C   UNL     1      -7.856   7.112   3.730  1.00  0.00     0.059 A 
ATOM     88  F   UNL     1      -7.004   7.443   1.570  1.00  0.00    -0.206 F 
ATOM     89  C   UNL     1      -8.957   6.961   4.573  1.00  0.00     0.060 A 
BRANCH  89  90
ATOM     90  S   UNL     1      -8.722   6.737   6.350  1.00  0.00     0.124 S 
ATOM     91  O   UNL     1      -9.162   8.027   6.869  1.00  0.00    -0.237 OA
ATOM     92  O   UNL     1      -9.595   5.602   6.634  1.00  0.00    -0.237 OA
ATOM     93  O   UNL     1      -7.293   6.463   6.467  1.00  0.00    -0.744 OA
ENDBRANCH  89  90
ENDBRANCH  57  82
BRANCH  69  94
ATOM     94  C   UNL     1     -12.171  12.458  -1.939  1.00  0.00     0.058 A 
ATOM     95  C   UNL     1     -11.445  13.553  -1.443  1.00  0.00     0.135 A 
ATOM     96  C   UNL     1     -13.557  12.611  -2.103  1.00  0.00     0.135 A 
ATOM     97  F   UNL     1     -10.119  13.457  -1.259  1.00  0.00    -0.206 F 
ATOM     98  C   UNL     1     -12.075  14.745  -1.098  1.00  0.00     0.059 A 
ATOM     99  C   UNL     1     -14.203  13.802  -1.790  1.00  0.00     0.059 A 
ATOM    100  F   UNL     1     -14.297  11.598  -2.583  1.00  0.00    -0.206 F 
ATOM    101  C   UNL     1     -13.455  14.860  -1.275  1.00  0.00     0.060 A 
BRANCH 101 102
ATOM    102  S   UNL     1     -14.256  16.420  -0.849  1.00  0.00     0.124 S 
ATOM    103  O   UNL     1     -14.273  16.354   0.609  1.00  0.00    -0.237 OA
ATOM    104  O   UNL     1     -13.350  17.407  -1.428  1.00  0.00    -0.237 OA
ATOM    105  O   UNL     1     -15.560  16.320  -1.497  1.00  0.00    -0.744 OA
ENDBRANCH 101 102
ENDBRANCH  69  94
ENDBRANCH  43  44
ENDBRANCH  35  38
ENDBRANCH  33  34
ENDBRANCH  32  33
ENDBRANCH   1  32
TORSDOF 19
