REMARK SMILES CC[C@@H](C(=O)NCCCNC(=O)c1ccc(-c2c3nc(c(-c4c(F)cc(S(=O)(=O)[O-])cc4F)c4ccc([nH]4)c(-c4c(F)cc(S(=O)(=O)[O-])cc4F)c4nc(c(-c5c(F)cc(S(=O)(=O)[O-])cc5F)c5ccc2[nH]5)C=C4)C=C3)cc1)[N@@H+](C)Cc1cccc(C)n1
REMARK SMILES IDX 8 1 7 2 6 3 4 4 5 5 3 7 2 8 1 9 79 10 80 11 81 13 82 14
REMARK SMILES IDX 83 15 88 16 84 17 86 18 85 19 87 20 9 21 10 22 11 23 12 25
REMARK SMILES IDX 13 26 14 27 78 28 15 29 77 30 16 31 17 32 18 33 71 34 19 35
REMARK SMILES IDX 76 36 70 37 72 38 20 39 75 40 69 41 68 42 21 44 55 45 34 46
REMARK SMILES IDX 54 47 35 48 38 49 53 50 73 51 36 52 37 53 52 55 74 56 39 57
REMARK SMILES IDX 22 58 23 59 32 60 24 61 25 62 31 63 33 64 26 65 27 66 28 67
REMARK SMILES IDX 29 68 30 69 56 70 57 71 66 72 58 73 59 74 65 75 67 76 60 77
REMARK SMILES IDX 61 78 62 79 63 80 64 81 40 82 41 83 50 84 42 85 43 86 49 87
REMARK SMILES IDX 51 88 44 89 45 90 46 91 47 92 48 93
REMARK H PARENT 6 6 79 12 10 24 72 43 38 54
REMARK Flexibility Score: inf
ROOT
ATOM      1  C   UNL     1       1.399  -2.457   0.428  1.00  0.00     0.042 C 
ENDROOT
BRANCH   1   2
ATOM      2  C   UNL     1       2.113  -1.698  -0.681  1.00  0.00     0.118 C 
BRANCH   2   3
ATOM      3  N   UNL     1       1.176  -1.144  -1.646  1.00  0.00    -0.351 N 
ATOM      4  C   UNL     1       1.607  -0.145  -2.478  1.00  0.00     0.278 C 
ATOM      5  O   UNL     1       2.321  -0.448  -3.436  1.00  0.00    -0.268 OA
ATOM      6  H   UNL     1       0.252  -1.480  -1.700  1.00  0.00     0.163 HD
BRANCH   4   7
ATOM      7  C   UNL     1       1.113   1.305  -2.209  1.00  0.00     0.273 C 
BRANCH   7   8
ATOM      8  C   UNL     1       0.288   1.553  -0.927  1.00  0.00     0.072 C 
ATOM      9  C   UNL     1       1.045   1.360   0.380  1.00  0.00     0.011 C 
ENDBRANCH   7   8
BRANCH   7  10
ATOM     10  N   UNL     1       0.430   1.875  -3.398  1.00  0.00    -0.322 N 
ATOM     11  C   UNL     1       1.192   1.914  -4.633  1.00  0.00     0.333 C 
ATOM     12  H   UNL     1       0.433   2.833  -3.047  1.00  0.00     0.348 HD
BRANCH  10  13
ATOM     13  C   UNL     1      -1.020   1.724  -3.573  1.00  0.00     0.320 C 
BRANCH  13  14
ATOM     14  C   UNL     1      -1.680   0.357  -3.579  1.00  0.00     0.095 A 
ATOM     15  C   UNL     1      -1.091  -0.782  -4.112  1.00  0.00     0.030 A 
ATOM     16  N   UNL     1      -2.961   0.335  -3.116  1.00  0.00    -0.252 NA
ATOM     17  C   UNL     1      -1.792  -1.986  -4.089  1.00  0.00     0.004 A 
ATOM     18  C   UNL     1      -3.650  -0.831  -3.137  1.00  0.00     0.038 A 
ATOM     19  C   UNL     1      -3.092  -2.014  -3.599  1.00  0.00     0.023 A 
ATOM     20  C   UNL     1      -5.092  -0.771  -2.731  1.00  0.00     0.067 C 
ENDBRANCH  13  14
ENDBRANCH  10  13
ENDBRANCH   7  10
ENDBRANCH   4   7
ENDBRANCH   2   3
ENDBRANCH   1   2
BRANCH   1  21
ATOM     21  C   UNL     1       0.759  -3.756  -0.046  1.00  0.00     0.118 C 
BRANCH  21  22
ATOM     22  N   UNL     1       1.735  -4.824  -0.198  1.00  0.00    -0.352 N 
ATOM     23  C   UNL     1       2.018  -5.885   0.628  1.00  0.00     0.251 C 
ATOM     24  H   UNL     1       2.276  -4.780  -1.019  1.00  0.00     0.163 HD
ATOM     25  O   UNL     1       3.042  -6.537   0.434  1.00  0.00    -0.269 OA
BRANCH  23  26
ATOM     26  C   UNL     1       1.121  -6.242   1.753  1.00  0.00     0.039 A 
ATOM     27  C   UNL     1       1.688  -6.645   2.966  1.00  0.00     0.014 A 
ATOM     28  C   UNL     1      -0.269  -6.244   1.609  1.00  0.00     0.014 A 
ATOM     29  C   UNL     1       0.865  -7.002   4.040  1.00  0.00     0.010 A 
ATOM     30  C   UNL     1      -1.088  -6.518   2.704  1.00  0.00     0.010 A 
ATOM     31  C   UNL     1      -0.532  -6.919   3.927  1.00  0.00    -0.014 A 
BRANCH  31  32
ATOM     32  C   UNL     1      -1.424  -7.282   5.061  1.00  0.00     0.031 A 
ATOM     33  C   UNL     1      -2.384  -8.438   4.927  1.00  0.00     0.074 A 
ATOM     34  C   UNL     1      -1.422  -6.537   6.186  1.00  0.00     0.049 A 
ATOM     35  N   UNL     1      -3.295  -8.858   5.768  1.00  0.00    -0.248 NA
ATOM     36  C   UNL     1      -2.337  -9.204   3.670  1.00  0.00     0.031 C 
ATOM     37  C   UNL     1      -0.591  -5.354   6.418  1.00  0.00     0.029 A 
ATOM     38  N   UNL     1      -2.157  -6.655   7.340  1.00  0.00    -0.354 N 
ATOM     39  C   UNL     1      -3.950  -9.906   5.131  1.00  0.00     0.074 A 
ATOM     40  C   UNL     1      -3.355 -10.040   3.820  1.00  0.00     0.031 C 
ATOM     41  C   UNL     1      -0.856  -4.861   7.639  1.00  0.00     0.029 A 
ATOM     42  C   UNL     1      -1.893  -5.674   8.267  1.00  0.00     0.049 A 
ATOM     43  H   UNL     1      -2.813  -7.374   7.489  1.00  0.00     0.167 HD
ATOM     44  C   UNL     1      -4.942 -10.698   5.602  1.00  0.00     0.037 A 
ATOM     45  C   UNL     1      -2.430  -5.450   9.483  1.00  0.00     0.037 A 
ATOM     46  C   UNL     1      -5.483 -10.611   6.933  1.00  0.00     0.049 A 
ATOM     47  C   UNL     1      -3.481  -6.391  10.009  1.00  0.00     0.074 A 
ATOM     48  C   UNL     1      -6.416 -11.436   7.536  1.00  0.00     0.029 A 
ATOM     49  N   UNL     1      -5.135  -9.649   7.868  1.00  0.00    -0.354 N 
ATOM     50  N   UNL     1      -4.026  -7.429   9.421  1.00  0.00    -0.248 NA
ATOM     51  C   UNL     1      -3.980  -6.140  11.369  1.00  0.00     0.031 C 
ATOM     52  C   UNL     1      -6.656 -10.956   8.828  1.00  0.00     0.029 A 
ATOM     53  C   UNL     1      -5.844  -9.853   9.040  1.00  0.00     0.049 A 
ATOM     54  H   UNL     1      -4.481  -8.928   7.722  1.00  0.00     0.167 HD
ATOM     55  C   UNL     1      -4.910  -7.969  10.349  1.00  0.00     0.074 A 
ATOM     56  C   UNL     1      -4.818  -7.152  11.541  1.00  0.00     0.031 C 
ATOM     57  C   UNL     1      -5.726  -9.044  10.225  1.00  0.00     0.037 A 
BRANCH  44  58
ATOM     58  C   UNL     1      -5.505 -11.748   4.686  1.00  0.00     0.058 A 
ATOM     59  C   UNL     1      -4.792 -12.915   4.375  1.00  0.00     0.135 A 
ATOM     60  C   UNL     1      -6.808 -11.620   4.176  1.00  0.00     0.135 A 
ATOM     61  F   UNL     1      -3.537 -13.080   4.823  1.00  0.00    -0.206 F 
ATOM     62  C   UNL     1      -5.345 -13.914   3.581  1.00  0.00     0.059 A 
ATOM     63  C   UNL     1      -7.390 -12.617   3.399  1.00  0.00     0.059 A 
ATOM     64  F   UNL     1      -7.532 -10.521   4.442  1.00  0.00    -0.206 F 
ATOM     65  C   UNL     1      -6.646 -13.758   3.101  1.00  0.00     0.060 A 
BRANCH  65  66
ATOM     66  S   UNL     1      -7.367 -15.081   2.106  1.00  0.00     0.124 S 
ATOM     67  O   UNL     1      -6.678 -14.894   0.832  1.00  0.00    -0.237 OA
ATOM     68  O   UNL     1      -6.991 -16.277   2.857  1.00  0.00    -0.237 OA
ATOM     69  O   UNL     1      -8.790 -14.769   2.102  1.00  0.00    -0.744 OA
ENDBRANCH  65  66
ENDBRANCH  44  58
BRANCH  45  70
ATOM     70  C   UNL     1      -1.980  -4.292  10.299  1.00  0.00     0.058 A 
ATOM     71  C   UNL     1      -1.208  -4.478  11.456  1.00  0.00     0.135 A 
ATOM     72  C   UNL     1      -2.331  -2.979   9.951  1.00  0.00     0.135 A 
ATOM     73  F   UNL     1      -0.851  -5.716  11.831  1.00  0.00    -0.206 F 
ATOM     74  C   UNL     1      -0.827  -3.408  12.258  1.00  0.00     0.059 A 
ATOM     75  C   UNL     1      -1.942  -1.889  10.725  1.00  0.00     0.059 A 
ATOM     76  F   UNL     1      -3.051  -2.746   8.843  1.00  0.00    -0.206 F 
ATOM     77  C   UNL     1      -1.205  -2.116  11.887  1.00  0.00     0.060 A 
BRANCH  77  78
ATOM     78  S   UNL     1      -0.693  -0.727  12.922  1.00  0.00     0.124 S 
ATOM     79  O   UNL     1      -1.648  -0.815  14.020  1.00  0.00    -0.237 OA
ATOM     80  O   UNL     1       0.687  -1.073  13.246  1.00  0.00    -0.237 OA
ATOM     81  O   UNL     1      -0.850   0.422  12.036  1.00  0.00    -0.744 OA
ENDBRANCH  77  78
ENDBRANCH  45  70
BRANCH  57  82
ATOM     82  C   UNL     1      -6.552  -9.427  11.419  1.00  0.00     0.058 A 
ATOM     83  C   UNL     1      -7.682  -8.688  11.801  1.00  0.00     0.135 A 
ATOM     84  C   UNL     1      -6.233 -10.574  12.164  1.00  0.00     0.135 A 
ATOM     85  F   UNL     1      -8.026  -7.581  11.124  1.00  0.00    -0.206 F 
ATOM     86  C   UNL     1      -8.454  -9.059  12.897  1.00  0.00     0.059 A 
ATOM     87  C   UNL     1      -7.004 -10.977  13.248  1.00  0.00     0.059 A 
ATOM     88  F   UNL     1      -5.168 -11.321  11.831  1.00  0.00    -0.206 F 
ATOM     89  C   UNL     1      -8.105 -10.204  13.616  1.00  0.00     0.060 A 
BRANCH  89  90
ATOM     90  S   UNL     1      -9.128 -10.693  15.022  1.00  0.00     0.124 S 
ATOM     91  O   UNL     1      -8.676  -9.762  16.050  1.00  0.00    -0.237 OA
ATOM     92  O   UNL     1     -10.481 -10.476  14.520  1.00  0.00    -0.237 OA
ATOM     93  O   UNL     1      -8.763 -12.091  15.235  1.00  0.00    -0.744 OA
ENDBRANCH  89  90
ENDBRANCH  57  82
ENDBRANCH  31  32
ENDBRANCH  23  26
ENDBRANCH  21  22
ENDBRANCH   1  21
TORSDOF 17
