REMARK SMILES Cc1n[nH]c(C[N@H+]2CCC[C@H](c3cccc(C(=O)NCCCNC(=O)c4ccc(-c5c6nc(c(-c7c(F)cc(S(=O)(=O)[O-])cc7F)c7ccc([nH]7)c(-c7c(F)cc(S(=O)(=O)[O-])cc7F)c7nc(c(-c8c(F)cc(S(=O)(=O)[O-])cc8F)c8ccc5[nH]8)C=C7)C=C6)cc4)c3)C2)n1
REMARK SMILES IDX 21 1 20 2 19 3 17 4 18 5 16 7 12 8 13 9 92 10 14 11 15 12
REMARK SMILES IDX 11 13 7 14 8 15 93 16 9 18 10 19 6 20 5 21 1 22 2 23 3 24
REMARK SMILES IDX 94 25 4 26 22 28 23 29 24 30 25 32 26 33 27 34 91 35 28 36
REMARK SMILES IDX 90 37 29 38 30 39 31 40 84 41 32 42 89 43 83 44 85 45 33 46
REMARK SMILES IDX 88 47 82 48 81 49 34 51 68 52 47 53 67 54 48 55 51 56 66 57
REMARK SMILES IDX 86 58 49 59 50 60 65 62 87 63 52 64 35 65 36 66 45 67 37 68
REMARK SMILES IDX 38 69 44 70 46 71 39 72 40 73 41 74 42 75 43 76 69 77 70 78
REMARK SMILES IDX 79 79 71 80 72 81 78 82 80 83 73 84 74 85 75 86 76 87 77 88
REMARK SMILES IDX 53 89 54 90 63 91 55 92 56 93 62 94 64 95 57 96 58 97 59 98
REMARK SMILES IDX 60 99 61 100
REMARK H PARENT 19 6 7 17 4 27 23 31 85 50 51 61
REMARK Flexibility Score: inf
ROOT
ATOM      1  C   UNL     1      -2.981   8.361   2.394  1.00  0.00     0.042 C 
ENDROOT
BRANCH   1   2
ATOM      2  C   UNL     1      -3.729   8.979   1.200  1.00  0.00     0.118 C 
BRANCH   2   3
ATOM      3  N   UNL     1      -3.093  10.184   0.686  1.00  0.00    -0.352 N 
ATOM      4  C   UNL     1      -2.132  10.408  -0.274  1.00  0.00     0.251 C 
ATOM      5  O   UNL     1      -1.940  11.577  -0.610  1.00  0.00    -0.269 OA
ATOM      6  H   UNL     1      -3.418  11.009   1.113  1.00  0.00     0.163 HD
BRANCH   4   7
ATOM      7  C   UNL     1      -1.338   9.334  -0.943  1.00  0.00     0.040 A 
ATOM      8  C   UNL     1      -0.631   6.994  -1.207  1.00  0.00    -0.039 A 
ATOM      9  C   UNL     1       0.146   7.362  -2.305  1.00  0.00     0.004 A 
ATOM     10  C   UNL     1      -1.307   8.011  -0.516  1.00  0.00     0.018 A 
ATOM     11  C   UNL     1       0.197   8.696  -2.717  1.00  0.00     0.001 A 
ATOM     12  C   UNL     1      -0.554   9.671  -2.053  1.00  0.00     0.014 A 
BRANCH   8  13
ATOM     13  C   UNL     1      -0.801   5.573  -0.682  1.00  0.00     0.074 C 
ATOM     14  N   UNL     1      -0.502   4.183  -2.754  1.00  0.00    -0.328 N 
ATOM     15  C   UNL     1      -1.909   3.771  -2.733  1.00  0.00     0.262 C 
ATOM     16  C   UNL     1       0.007   4.478  -1.399  1.00  0.00     0.270 C 
ATOM     17  H   UNL     1      -0.476   5.050  -3.291  1.00  0.00     0.348 HD
ATOM     18  C   UNL     1      -2.796   4.813  -2.051  1.00  0.00     0.062 C 
ATOM     19  C   UNL     1      -2.285   5.135  -0.650  1.00  0.00     0.020 C 
BRANCH  14  20
ATOM     20  C   UNL     1       0.371   3.232  -3.465  1.00  0.00     0.340 C 
BRANCH  20  21
ATOM     21  C   UNL     1       0.496   1.899  -2.807  1.00  0.00     0.179 A 
ATOM     22  C   UNL     1       1.059  -0.367  -0.173  1.00  0.00     0.092 C 
ATOM     23  C   UNL     1       0.734   0.311  -1.442  1.00  0.00     0.147 A 
ATOM     24  N   UNL     1       0.015  -0.251  -2.421  1.00  0.00    -0.159 NA
ATOM     25  N   UNL     1       1.093   1.609  -1.669  1.00  0.00    -0.211 NA
ATOM     26  N   UNL     1      -0.109   0.773  -3.283  1.00  0.00    -0.258 N 
ATOM     27  H   UNL     1      -0.577   0.717  -4.147  1.00  0.00     0.192 HD
ENDBRANCH  20  21
ENDBRANCH  14  20
ENDBRANCH   8  13
ENDBRANCH   4   7
ENDBRANCH   2   3
ENDBRANCH   1   2
BRANCH   1  28
ATOM     28  C   UNL     1      -3.493   8.842   3.739  1.00  0.00     0.118 C 
BRANCH  28  29
ATOM     29  N   UNL     1      -4.849   8.361   4.012  1.00  0.00    -0.352 N 
ATOM     30  C   UNL     1      -5.759   8.804   4.957  1.00  0.00     0.251 C 
ATOM     31  H   UNL     1      -5.157   7.618   3.444  1.00  0.00     0.163 HD
ATOM     32  O   UNL     1      -6.709   8.116   5.276  1.00  0.00    -0.269 OA
BRANCH  30  33
ATOM     33  C   UNL     1      -5.527  10.120   5.580  1.00  0.00     0.039 A 
ATOM     34  C   UNL     1      -5.631  10.288   6.963  1.00  0.00     0.014 A 
ATOM     35  C   UNL     1      -5.100  11.157   4.761  1.00  0.00     0.014 A 
ATOM     36  C   UNL     1      -5.189  11.482   7.528  1.00  0.00     0.010 A 
ATOM     37  C   UNL     1      -4.502  12.250   5.334  1.00  0.00     0.010 A 
ATOM     38  C   UNL     1      -4.588  12.451   6.711  1.00  0.00    -0.014 A 
BRANCH  38  39
ATOM     39  C   UNL     1      -3.951  13.635   7.287  1.00  0.00     0.031 A 
ATOM     40  C   UNL     1      -2.950  13.381   8.367  1.00  0.00     0.074 A 
ATOM     41  C   UNL     1      -4.059  14.856   6.719  1.00  0.00     0.049 A 
ATOM     42  N   UNL     1      -2.993  13.767   9.601  1.00  0.00    -0.248 NA
ATOM     43  C   UNL     1      -1.808  12.501   8.067  1.00  0.00     0.031 C 
ATOM     44  C   UNL     1      -4.751  15.226   5.476  1.00  0.00     0.029 A 
ATOM     45  N   UNL     1      -3.443  16.017   7.066  1.00  0.00    -0.354 N 
ATOM     46  C   UNL     1      -1.791  13.364  10.181  1.00  0.00     0.074 A 
ATOM     47  C   UNL     1      -1.188  12.447   9.248  1.00  0.00     0.031 C 
ATOM     48  C   UNL     1      -4.298  16.421   5.045  1.00  0.00     0.029 A 
ATOM     49  C   UNL     1      -3.438  16.983   6.068  1.00  0.00     0.049 A 
ATOM     50  H   UNL     1      -3.035  16.161   7.951  1.00  0.00     0.167 HD
ATOM     51  C   UNL     1      -1.284  13.981  11.288  1.00  0.00     0.037 A 
ATOM     52  C   UNL     1      -2.753  18.151   6.064  1.00  0.00     0.037 A 
ATOM     53  C   UNL     1      -2.279  14.804  11.928  1.00  0.00     0.049 A 
ATOM     54  C   UNL     1      -2.426  18.462   7.479  1.00  0.00     0.074 A 
ATOM     55  C   UNL     1      -3.527  14.568  12.474  1.00  0.00     0.029 A 
ATOM     56  N   UNL     1      -2.211  16.163  11.734  1.00  0.00    -0.354 N 
ATOM     57  N   UNL     1      -3.324  18.743   8.386  1.00  0.00    -0.248 NA
ATOM     58  C   UNL     1      -1.144  18.009   7.998  1.00  0.00     0.031 C 
ATOM     59  C   UNL     1      -4.308  15.702  12.104  1.00  0.00     0.029 A 
ATOM     60  C   UNL     1      -3.476  16.588  11.418  1.00  0.00     0.049 A 
ATOM     61  H   UNL     1      -1.406  16.725  11.809  1.00  0.00     0.167 HD
ATOM     62  C   UNL     1      -2.884  18.102   9.536  1.00  0.00     0.074 A 
ATOM     63  C   UNL     1      -1.489  17.758   9.264  1.00  0.00     0.031 C 
ATOM     64  C   UNL     1      -3.763  17.657  10.484  1.00  0.00     0.037 A 
BRANCH  51  65
ATOM     65  C   UNL     1       0.189  14.123  11.611  1.00  0.00     0.058 A 
ATOM     66  C   UNL     1       0.578  14.634  12.869  1.00  0.00     0.135 A 
ATOM     67  C   UNL     1       1.215  14.053  10.644  1.00  0.00     0.135 A 
ATOM     68  F   UNL     1      -0.312  14.746  13.868  1.00  0.00    -0.206 F 
ATOM     69  C   UNL     1       1.864  15.120  13.117  1.00  0.00     0.059 A 
ATOM     70  C   UNL     1       2.517  14.479  10.887  1.00  0.00     0.059 A 
ATOM     71  F   UNL     1       0.984  13.663   9.385  1.00  0.00    -0.206 F 
ATOM     72  C   UNL     1       2.820  15.057  12.109  1.00  0.00     0.060 A 
BRANCH  72  73
ATOM     73  S   UNL     1       4.438  15.805  12.374  1.00  0.00     0.124 S 
ATOM     74  O   UNL     1       4.105  17.224  12.368  1.00  0.00    -0.237 OA
ATOM     75  O   UNL     1       4.826  15.243  13.664  1.00  0.00    -0.237 OA
ATOM     76  O   UNL     1       5.216  15.332  11.232  1.00  0.00    -0.744 OA
ENDBRANCH  72  73
ENDBRANCH  51  65
BRANCH  52  77
ATOM     77  C   UNL     1      -2.139  18.844   4.901  1.00  0.00     0.058 A 
ATOM     78  C   UNL     1      -1.686  20.170   4.999  1.00  0.00     0.135 A 
ATOM     79  C   UNL     1      -1.746  18.137   3.744  1.00  0.00     0.135 A 
ATOM     80  F   UNL     1      -1.995  20.911   6.073  1.00  0.00    -0.206 F 
ATOM     81  C   UNL     1      -0.852  20.745   4.033  1.00  0.00     0.059 A 
ATOM     82  C   UNL     1      -0.928  18.694   2.762  1.00  0.00     0.059 A 
ATOM     83  F   UNL     1      -2.070  16.846   3.576  1.00  0.00    -0.206 F 
ATOM     84  C   UNL     1      -0.460  19.991   2.927  1.00  0.00     0.060 A 
BRANCH  84  85
ATOM     85  S   UNL     1       0.764  20.665   1.780  1.00  0.00     0.124 S 
ATOM     86  O   UNL     1       0.005  21.713   1.108  1.00  0.00    -0.237 OA
ATOM     87  O   UNL     1       1.816  21.119   2.684  1.00  0.00    -0.237 OA
ATOM     88  O   UNL     1       1.117  19.518   0.947  1.00  0.00    -0.744 OA
ENDBRANCH  84  85
ENDBRANCH  52  77
BRANCH  64  89
ATOM     89  C   UNL     1      -5.199  18.115  10.407  1.00  0.00     0.058 A 
ATOM     90  C   UNL     1      -6.074  17.810   9.349  1.00  0.00     0.135 A 
ATOM     91  C   UNL     1      -5.759  18.741  11.531  1.00  0.00     0.135 A 
ATOM     92  F   UNL     1      -5.655  17.115   8.285  1.00  0.00    -0.206 F 
ATOM     93  C   UNL     1      -7.428  18.149   9.386  1.00  0.00     0.059 A 
ATOM     94  C   UNL     1      -7.113  19.059  11.605  1.00  0.00     0.059 A 
ATOM     95  F   UNL     1      -4.995  19.000  12.606  1.00  0.00    -0.206 F 
ATOM     96  C   UNL     1      -7.940  18.772  10.521  1.00  0.00     0.060 A 
BRANCH  96  97
ATOM     97  S   UNL     1      -9.707  19.134  10.602  1.00  0.00     0.124 S 
ATOM     98  O   UNL     1      -9.833  20.256   9.678  1.00  0.00    -0.237 OA
ATOM     99  O   UNL     1     -10.311  17.879  10.161  1.00  0.00    -0.237 OA
ATOM    100  O   UNL     1      -9.926  19.457  12.010  1.00  0.00    -0.744 OA
ENDBRANCH  96  97
ENDBRANCH  64  89
ENDBRANCH  38  39
ENDBRANCH  30  33
ENDBRANCH  28  29
ENDBRANCH   1  28
TORSDOF 16
