REMARK SMILES O=C(C[C@@H]1CN(C(=O)C[NH2+]CC2CC2)CCO1)NCCCNC(=O)c1ccc(-c2c3nc(c(-c4c(F)cc(S(=O)(=O)[O-])cc4F)c4ccc([nH]4)c(-c4c(F)cc(S(=O)(=O)[O-])cc4F)c4nc(c(-c5c(F)cc(S(=O)(=O)[O-])cc5F)c5ccc2[nH]5)C=C4)C=C3)cc1
REMARK SMILES IDX 1 1 2 2 18 3 3 5 4 6 5 7 17 8 6 9 16 10 15 11 7 12 8 13 9 14
REMARK SMILES IDX 10 15 11 18 12 19 13 20 14 21 19 22 20 23 21 24 22 25 23 26
REMARK SMILES IDX 24 28 25 29 26 30 90 31 27 32 89 33 28 34 29 35 30 36 83 37
REMARK SMILES IDX 31 38 88 39 82 40 84 41 32 42 87 43 81 44 80 45 33 47 67 48
REMARK SMILES IDX 46 49 66 50 47 51 50 52 65 53 85 54 48 55 49 56 64 58 86 59
REMARK SMILES IDX 51 60 34 61 35 62 44 63 36 64 37 65 43 66 45 67 38 68 39 69
REMARK SMILES IDX 40 70 41 71 42 72 68 73 69 74 78 75 70 76 71 77 77 78 79 79
REMARK SMILES IDX 72 80 73 81 74 82 75 83 76 84 52 85 53 86 62 87 54 88 55 89
REMARK SMILES IDX 61 90 63 91 56 92 57 93 58 94 59 95 60 96
REMARK H PARENT 18 4 10 16 10 17 22 27 84 46 50 57
REMARK Flexibility Score: inf
ROOT
ATOM      1  O   UNL     1       0.861  -0.131   0.197  1.00  0.00    -0.275 OA
ATOM      2  C   UNL     1       2.071   0.036   0.077  1.00  0.00     0.222 C 
ATOM      3  N   UNL     1       2.686   1.263   0.052  1.00  0.00    -0.356 N 
ATOM      4  H   UNL     1       3.663   1.286  -0.066  1.00  0.00     0.163 HD
ENDROOT
BRANCH   2   5
ATOM      5  C   UNL     1       3.037  -1.127  -0.001  1.00  0.00     0.133 C 
BRANCH   5   6
ATOM      6  C   UNL     1       3.873  -1.083  -1.278  1.00  0.00     0.147 C 
ATOM      7  C   UNL     1       4.687  -2.382  -1.429  1.00  0.00     0.152 C 
ATOM      8  O   UNL     1       4.772   0.052  -1.208  1.00  0.00    -0.374 OA
ATOM      9  N   UNL     1       5.588  -2.296  -2.584  1.00  0.00    -0.333 N 
ATOM     10  C   UNL     1       5.553   0.156  -2.413  1.00  0.00     0.182 C 
ATOM     11  C   UNL     1       6.417  -1.090  -2.609  1.00  0.00     0.148 C 
BRANCH   9  12
ATOM     12  C   UNL     1       5.799  -3.294  -3.521  1.00  0.00     0.277 C 
ATOM     13  O   UNL     1       6.649  -3.190  -4.411  1.00  0.00    -0.268 OA
BRANCH  12  14
ATOM     14  C   UNL     1       4.934  -4.559  -3.446  1.00  0.00     0.362 C 
BRANCH  14  15
ATOM     15  N   UNL     1       5.367  -5.388  -2.311  1.00  0.00    -0.338 N 
ATOM     16  H   UNL     1       5.266  -4.847  -1.452  1.00  0.00     0.346 HD
ATOM     17  H   UNL     1       6.339  -5.653  -2.474  1.00  0.00     0.346 HD
BRANCH  15  18
ATOM     18  C   UNL     1       4.588  -6.613  -2.187  1.00  0.00     0.264 C 
BRANCH  18  19
ATOM     19  C   UNL     1       4.932  -7.617  -3.251  1.00  0.00     0.044 C 
ATOM     20  C   UNL     1       4.996  -9.086  -2.909  1.00  0.00     0.010 C 
ATOM     21  C   UNL     1       3.869  -8.565  -3.750  1.00  0.00     0.010 C 
ENDBRANCH  18  19
ENDBRANCH  15  18
ENDBRANCH  14  15
ENDBRANCH  12  14
ENDBRANCH   9  12
ENDBRANCH   5   6
ENDBRANCH   2   5
BRANCH   3  22
ATOM     22  C   UNL     1       1.991   2.523   0.189  1.00  0.00     0.117 C 
BRANCH  22  23
ATOM     23  C   UNL     1       2.299   3.210   1.516  1.00  0.00     0.042 C 
BRANCH  23  24
ATOM     24  C   UNL     1       3.778   3.509   1.760  1.00  0.00     0.118 C 
BRANCH  24  25
ATOM     25  N   UNL     1       4.353   4.417   0.778  1.00  0.00    -0.352 N 
ATOM     26  C   UNL     1       5.068   5.577   0.946  1.00  0.00     0.251 C 
ATOM     27  H   UNL     1       4.204   4.157  -0.159  1.00  0.00     0.163 HD
ATOM     28  O   UNL     1       5.346   6.248  -0.048  1.00  0.00    -0.269 OA
BRANCH  26  29
ATOM     29  C   UNL     1       5.490   6.044   2.288  1.00  0.00     0.039 A 
ATOM     30  C   UNL     1       5.434   7.415   2.562  1.00  0.00     0.014 A 
ATOM     31  C   UNL     1       5.984   5.169   3.259  1.00  0.00     0.014 A 
ATOM     32  C   UNL     1       5.820   7.898   3.816  1.00  0.00     0.010 A 
ATOM     33  C   UNL     1       6.303   5.642   4.534  1.00  0.00     0.010 A 
ATOM     34  C   UNL     1       6.231   7.013   4.826  1.00  0.00    -0.014 A 
BRANCH  34  35
ATOM     35  C   UNL     1       6.587   7.512   6.183  1.00  0.00     0.031 A 
ATOM     36  C   UNL     1       7.992   7.369   6.708  1.00  0.00     0.074 A 
ATOM     37  C   UNL     1       5.634   8.061   6.963  1.00  0.00     0.049 A 
ATOM     38  N   UNL     1       8.478   7.716   7.873  1.00  0.00    -0.248 NA
ATOM     39  C   UNL     1       8.973   6.729   5.818  1.00  0.00     0.031 C 
ATOM     40  C   UNL     1       4.225   8.214   6.596  1.00  0.00     0.029 A 
ATOM     41  N   UNL     1       5.705   8.588   8.229  1.00  0.00    -0.354 N 
ATOM     42  C   UNL     1       9.813   7.329   7.861  1.00  0.00     0.074 A 
ATOM     43  C   UNL     1      10.048   6.674   6.592  1.00  0.00     0.031 C 
ATOM     44  C   UNL     1       3.570   8.817   7.602  1.00  0.00     0.029 A 
ATOM     45  C   UNL     1       4.503   9.066   8.697  1.00  0.00     0.049 A 
ATOM     46  H   UNL     1       6.538   8.621   8.753  1.00  0.00     0.167 HD
ATOM     47  C   UNL     1      10.764   7.519   8.809  1.00  0.00     0.037 A 
ATOM     48  C   UNL     1       4.185   9.641   9.873  1.00  0.00     0.037 A 
ATOM     49  C   UNL     1      10.537   8.194  10.062  1.00  0.00     0.049 A 
ATOM     50  C   UNL     1       5.262   9.862  10.901  1.00  0.00     0.074 A 
ATOM     51  C   UNL     1      11.448   8.480  11.064  1.00  0.00     0.029 A 
ATOM     52  N   UNL     1       9.313   8.691  10.484  1.00  0.00    -0.354 N 
ATOM     53  N   UNL     1       6.532   9.538  10.847  1.00  0.00    -0.248 NA
ATOM     54  C   UNL     1       4.865  10.540  12.142  1.00  0.00     0.031 C 
ATOM     55  C   UNL     1      10.768   9.119  12.107  1.00  0.00     0.029 A 
ATOM     56  C   UNL     1       9.443   9.272  11.736  1.00  0.00     0.049 A 
ATOM     57  H   UNL     1       8.475   8.639   9.970  1.00  0.00     0.167 HD
ATOM     58  C   UNL     1       7.092  10.000  12.034  1.00  0.00     0.074 A 
ATOM     59  C   UNL     1       6.024  10.636  12.779  1.00  0.00     0.031 C 
ATOM     60  C   UNL     1       8.374   9.908  12.466  1.00  0.00     0.037 A 
BRANCH  47  61
ATOM     61  C   UNL     1      12.146   6.995   8.523  1.00  0.00     0.058 A 
ATOM     62  C   UNL     1      12.973   7.589   7.556  1.00  0.00     0.135 A 
ATOM     63  C   UNL     1      12.663   5.907   9.245  1.00  0.00     0.135 A 
ATOM     64  F   UNL     1      12.525   8.623   6.826  1.00  0.00    -0.206 F 
ATOM     65  C   UNL     1      14.249   7.103   7.291  1.00  0.00     0.059 A 
ATOM     66  C   UNL     1      13.947   5.421   9.016  1.00  0.00     0.059 A 
ATOM     67  F   UNL     1      11.917   5.302  10.183  1.00  0.00    -0.206 F 
ATOM     68  C   UNL     1      14.727   6.016   8.025  1.00  0.00     0.060 A 
BRANCH  68  69
ATOM     69  S   UNL     1      16.384   5.395   7.668  1.00  0.00     0.124 S 
ATOM     70  O   UNL     1      16.168   4.704   6.400  1.00  0.00    -0.237 OA
ATOM     71  O   UNL     1      17.170   6.622   7.594  1.00  0.00    -0.237 OA
ATOM     72  O   UNL     1      16.677   4.534   8.809  1.00  0.00    -0.744 OA
ENDBRANCH  68  69
ENDBRANCH  47  61
BRANCH  48  73
ATOM     73  C   UNL     1       2.788  10.082  10.131  1.00  0.00     0.058 A 
ATOM     74  C   UNL     1       2.457  11.444  10.164  1.00  0.00     0.135 A 
ATOM     75  C   UNL     1       1.758   9.153  10.339  1.00  0.00     0.135 A 
ATOM     76  F   UNL     1       3.410  12.370   9.977  1.00  0.00    -0.206 F 
ATOM     77  C   UNL     1       1.158  11.873  10.414  1.00  0.00     0.059 A 
ATOM     78  C   UNL     1       0.445   9.556  10.565  1.00  0.00     0.059 A 
ATOM     79  F   UNL     1       2.020   7.837  10.300  1.00  0.00    -0.206 F 
ATOM     80  C   UNL     1       0.158  10.920  10.612  1.00  0.00     0.060 A 
BRANCH  80  81
ATOM     81  S   UNL     1      -1.535  11.485  10.888  1.00  0.00     0.124 S 
ATOM     82  O   UNL     1      -1.464  11.965  12.263  1.00  0.00    -0.237 OA
ATOM     83  O   UNL     1      -1.689  12.511   9.860  1.00  0.00    -0.237 OA
ATOM     84  O   UNL     1      -2.329  10.277  10.679  1.00  0.00    -0.744 OA
ENDBRANCH  80  81
ENDBRANCH  48  73
BRANCH  60  85
ATOM     85  C   UNL     1       8.703  10.548  13.787  1.00  0.00     0.058 A 
ATOM     86  C   UNL     1       8.270   9.999  15.005  1.00  0.00     0.135 A 
ATOM     87  C   UNL     1       9.477  11.718  13.835  1.00  0.00     0.135 A 
ATOM     88  F   UNL     1       7.524   8.883  15.015  1.00  0.00    -0.206 F 
ATOM     89  C   UNL     1       8.561  10.608  16.221  1.00  0.00     0.059 A 
ATOM     90  C   UNL     1       9.803  12.330  15.042  1.00  0.00     0.059 A 
ATOM     91  F   UNL     1       9.928  12.278  12.701  1.00  0.00    -0.206 F 
ATOM     92  C   UNL     1       9.324  11.778  16.229  1.00  0.00     0.060 A 
BRANCH  92  93
ATOM     93  S   UNL     1       9.698  12.561  17.812  1.00  0.00     0.124 S 
ATOM     94  O   UNL     1       8.428  13.205  18.128  1.00  0.00    -0.237 OA
ATOM     95  O   UNL     1      10.056  11.421  18.651  1.00  0.00    -0.237 OA
ATOM     96  O   UNL     1      10.799  13.464  17.491  1.00  0.00    -0.744 OA
ENDBRANCH  92  93
ENDBRANCH  60  85
ENDBRANCH  34  35
ENDBRANCH  26  29
ENDBRANCH  24  25
ENDBRANCH  23  24
ENDBRANCH  22  23
ENDBRANCH   3  22
TORSDOF 19
