REMARK SMILES Cc1c(CC(=O)NCCCNC(=O)c2ccc(-c3c4nc(c(-c5c(F)cc(S(=O)(=O)[O-])cc5F)c5ccc([nH]5)c(-c5c(F)cc(S(=O)(=O)[O-])cc5F)c5nc(c(-c6c(F)cc(S(=O)(=O)[O-])cc6F)c6ccc3[nH]6)C=C5)C=C4)cc2)c2ccccc2n1C(=O)c1ccc(Cl)cc1
REMARK SMILES IDX 9 1 8 2 7 3 5 4 6 5 4 7 3 8 1 9 2 10 86 11 80 12 85 13 81 14
REMARK SMILES IDX 84 15 82 16 83 17 87 18 88 19 89 20 90 21 95 22 91 23 94 24
REMARK SMILES IDX 92 25 93 26 10 27 11 28 12 29 13 31 14 32 15 33 79 34 16 35
REMARK SMILES IDX 78 36 17 37 18 38 19 39 72 40 20 41 77 42 71 43 73 44 21 45
REMARK SMILES IDX 76 46 70 47 69 48 22 50 56 51 35 52 55 53 36 54 39 55 54 56
REMARK SMILES IDX 74 57 37 58 38 59 53 61 75 62 40 63 23 64 24 65 33 66 25 67
REMARK SMILES IDX 26 68 32 69 34 70 27 71 28 72 29 73 30 74 31 75 57 76 58 77
REMARK SMILES IDX 67 78 59 79 60 80 66 81 68 82 61 83 62 84 63 85 64 86 65 87
REMARK SMILES IDX 41 88 42 89 51 90 43 91 44 92 50 93 52 94 45 95 46 96 47 97
REMARK SMILES IDX 48 98 49 99
REMARK H PARENT 7 6 11 30 73 49 39 60
REMARK Flexibility Score: inf
ROOT
ATOM      1  C   UNL     1      -2.877  -1.375  -0.405  1.00  0.00     0.042 C 
ENDROOT
BRANCH   1   2
ATOM      2  C   UNL     1      -1.792  -2.198   0.291  1.00  0.00     0.117 C 
BRANCH   2   3
ATOM      3  N   UNL     1      -1.465  -3.408  -0.445  1.00  0.00    -0.356 N 
ATOM      4  C   UNL     1      -0.361  -3.701  -1.189  1.00  0.00     0.224 C 
ATOM      5  O   UNL     1      -0.325  -4.793  -1.764  1.00  0.00    -0.275 OA
ATOM      6  H   UNL     1      -2.141  -4.122  -0.399  1.00  0.00     0.163 HD
BRANCH   4   7
ATOM      7  C   UNL     1       0.807  -2.733  -1.253  1.00  0.00     0.138 C 
BRANCH   7   8
ATOM      8  C   UNL     1       0.483  -1.454  -1.967  1.00  0.00    -0.010 A 
ATOM      9  C   UNL     1       1.159   0.276  -0.146  1.00  0.00     0.065 C 
ATOM     10  C   UNL     1       0.617  -0.162  -1.476  1.00  0.00     0.028 A 
ATOM     11  N   UNL     1       0.141   0.741  -2.442  1.00  0.00    -0.280 N 
ATOM     12  C   UNL     1       0.023  -1.351  -3.309  1.00  0.00     0.004 A 
ATOM     13  C   UNL     1      -0.105   0.008  -3.617  1.00  0.00     0.056 A 
ATOM     14  C   UNL     1      -0.268  -2.316  -4.301  1.00  0.00     0.010 A 
ATOM     15  C   UNL     1      -0.446   0.397  -4.931  1.00  0.00     0.027 A 
ATOM     16  C   UNL     1      -0.679  -1.920  -5.574  1.00  0.00     0.001 A 
ATOM     17  C   UNL     1      -0.755  -0.575  -5.886  1.00  0.00     0.002 A 
BRANCH  11  18
ATOM     18  C   UNL     1      -0.059   2.141  -2.240  1.00  0.00     0.262 C 
ATOM     19  O   UNL     1       0.191   2.619  -1.149  1.00  0.00    -0.268 OA
BRANCH  18  20
ATOM     20  C   UNL     1      -0.554   3.076  -3.265  1.00  0.00     0.040 A 
ATOM     21  C   UNL     1      -1.876   3.008  -3.717  1.00  0.00     0.015 A 
ATOM     22  C   UNL     1       0.354   3.981  -3.822  1.00  0.00     0.015 A 
ATOM     23  C   UNL     1      -2.255   3.775  -4.821  1.00  0.00     0.021 A 
ATOM     24  C   UNL     1      -0.033   4.749  -4.920  1.00  0.00     0.021 A 
ATOM     25  C   UNL     1      -1.325   4.620  -5.433  1.00  0.00     0.041 A 
ATOM     26  Cl  UNL     1      -1.762   5.475  -6.861  1.00  0.00    -0.084 Cl
ENDBRANCH  18  20
ENDBRANCH  11  18
ENDBRANCH   7   8
ENDBRANCH   4   7
ENDBRANCH   2   3
ENDBRANCH   1   2
BRANCH   1  27
ATOM     27  C   UNL     1      -4.196  -2.132  -0.578  1.00  0.00     0.118 C 
BRANCH  27  28
ATOM     28  N   UNL     1      -4.768  -2.640   0.655  1.00  0.00    -0.352 N 
ATOM     29  C   UNL     1      -5.611  -2.136   1.605  1.00  0.00     0.251 C 
ATOM     30  H   UNL     1      -4.482  -3.561   0.853  1.00  0.00     0.163 HD
ATOM     31  O   UNL     1      -6.021  -2.941   2.446  1.00  0.00    -0.269 OA
BRANCH  29  32
ATOM     32  C   UNL     1      -5.965  -0.701   1.750  1.00  0.00     0.039 A 
ATOM     33  C   UNL     1      -5.634   0.305   0.843  1.00  0.00     0.014 A 
ATOM     34  C   UNL     1      -6.579  -0.344   2.966  1.00  0.00     0.014 A 
ATOM     35  C   UNL     1      -5.729   1.635   1.218  1.00  0.00     0.010 A 
ATOM     36  C   UNL     1      -6.710   0.985   3.333  1.00  0.00     0.010 A 
ATOM     37  C   UNL     1      -6.201   1.965   2.490  1.00  0.00    -0.014 A 
BRANCH  37  38
ATOM     38  C   UNL     1      -6.217   3.372   2.862  1.00  0.00     0.031 A 
ATOM     39  C   UNL     1      -7.101   4.207   2.003  1.00  0.00     0.074 A 
ATOM     40  C   UNL     1      -5.555   3.842   3.939  1.00  0.00     0.049 A 
ATOM     41  N   UNL     1      -6.766   5.157   1.191  1.00  0.00    -0.248 NA
ATOM     42  C   UNL     1      -8.517   3.814   1.908  1.00  0.00     0.031 C 
ATOM     43  C   UNL     1      -4.866   3.081   4.986  1.00  0.00     0.029 A 
ATOM     44  N   UNL     1      -5.432   5.124   4.377  1.00  0.00    -0.354 N 
ATOM     45  C   UNL     1      -7.962   5.635   0.658  1.00  0.00     0.074 A 
ATOM     46  C   UNL     1      -8.969   4.660   0.982  1.00  0.00     0.031 C 
ATOM     47  C   UNL     1      -4.619   3.890   6.042  1.00  0.00     0.029 A 
ATOM     48  C   UNL     1      -4.998   5.247   5.695  1.00  0.00     0.049 A 
ATOM     49  H   UNL     1      -5.633   5.902   3.809  1.00  0.00     0.167 HD
ATOM     50  C   UNL     1      -8.083   6.913   0.204  1.00  0.00     0.037 A 
ATOM     51  C   UNL     1      -5.030   6.379   6.449  1.00  0.00     0.037 A 
ATOM     52  C   UNL     1      -6.797   7.492  -0.083  1.00  0.00     0.049 A 
ATOM     53  C   UNL     1      -5.121   7.522   5.499  1.00  0.00     0.074 A 
ATOM     54  C   UNL     1      -5.771   7.183  -0.956  1.00  0.00     0.029 A 
ATOM     55  N   UNL     1      -6.249   8.340   0.848  1.00  0.00    -0.354 N 
ATOM     56  N   UNL     1      -4.172   7.846   4.662  1.00  0.00    -0.248 NA
ATOM     57  C   UNL     1      -6.453   7.991   5.144  1.00  0.00     0.031 C 
ATOM     58  C   UNL     1      -4.575   7.448  -0.227  1.00  0.00     0.029 A 
ATOM     59  C   UNL     1      -4.938   7.969   1.015  1.00  0.00     0.049 A 
ATOM     60  H   UNL     1      -6.711   9.077   1.310  1.00  0.00     0.167 HD
ATOM     61  C   UNL     1      -4.830   8.188   3.489  1.00  0.00     0.074 A 
ATOM     62  C   UNL     1      -6.237   8.312   3.866  1.00  0.00     0.031 C 
ATOM     63  C   UNL     1      -4.226   8.064   2.271  1.00  0.00     0.037 A 
BRANCH  50  64
ATOM     64  C   UNL     1      -9.335   7.742   0.372  1.00  0.00     0.058 A 
ATOM     65  C   UNL     1      -9.435   8.994  -0.268  1.00  0.00     0.135 A 
ATOM     66  C   UNL     1     -10.320   7.481   1.352  1.00  0.00     0.135 A 
ATOM     67  F   UNL     1      -8.544   9.357  -1.204  1.00  0.00    -0.206 F 
ATOM     68  C   UNL     1     -10.404   9.937   0.083  1.00  0.00     0.059 A 
ATOM     69  C   UNL     1     -11.325   8.383   1.678  1.00  0.00     0.059 A 
ATOM     70  F   UNL     1     -10.299   6.382   2.114  1.00  0.00    -0.206 F 
ATOM     71  C   UNL     1     -11.338   9.624   1.067  1.00  0.00     0.060 A 
BRANCH  71  72
ATOM     72  S   UNL     1     -12.527  10.869   1.593  1.00  0.00     0.124 S 
ATOM     73  O   UNL     1     -11.657  11.856   2.221  1.00  0.00    -0.237 OA
ATOM     74  O   UNL     1     -13.130  11.262   0.324  1.00  0.00    -0.237 OA
ATOM     75  O   UNL     1     -13.406  10.134   2.497  1.00  0.00    -0.744 OA
ENDBRANCH  71  72
ENDBRANCH  50  64
BRANCH  51  76
ATOM     76  C   UNL     1      -5.418   6.504   7.885  1.00  0.00     0.058 A 
ATOM     77  C   UNL     1      -5.248   7.715   8.584  1.00  0.00     0.135 A 
ATOM     78  C   UNL     1      -6.231   5.540   8.515  1.00  0.00     0.135 A 
ATOM     79  F   UNL     1      -4.508   8.701   8.054  1.00  0.00    -0.206 F 
ATOM     80  C   UNL     1      -5.888   7.973   9.804  1.00  0.00     0.059 A 
ATOM     81  C   UNL     1      -6.871   5.771   9.733  1.00  0.00     0.059 A 
ATOM     82  F   UNL     1      -6.507   4.370   7.921  1.00  0.00    -0.206 F 
ATOM     83  C   UNL     1      -6.719   7.001  10.360  1.00  0.00     0.060 A 
BRANCH  83  84
ATOM     84  S   UNL     1      -7.688   7.391  11.838  1.00  0.00     0.124 S 
ATOM     85  O   UNL     1      -6.649   7.536  12.852  1.00  0.00    -0.237 OA
ATOM     86  O   UNL     1      -8.370   8.618  11.444  1.00  0.00    -0.237 OA
ATOM     87  O   UNL     1      -8.552   6.223  11.995  1.00  0.00    -0.744 OA
ENDBRANCH  83  84
ENDBRANCH  51  76
BRANCH  63  88
ATOM     88  C   UNL     1      -2.742   7.794   2.225  1.00  0.00     0.058 A 
ATOM     89  C   UNL     1      -2.128   6.614   2.686  1.00  0.00     0.135 A 
ATOM     90  C   UNL     1      -1.932   8.701   1.525  1.00  0.00     0.135 A 
ATOM     91  F   UNL     1      -2.849   5.651   3.278  1.00  0.00    -0.206 F 
ATOM     92  C   UNL     1      -0.766   6.366   2.489  1.00  0.00     0.059 A 
ATOM     93  C   UNL     1      -0.581   8.461   1.292  1.00  0.00     0.059 A 
ATOM     94  F   UNL     1      -2.469   9.817   1.006  1.00  0.00    -0.206 F 
ATOM     95  C   UNL     1       0.001   7.297   1.787  1.00  0.00     0.060 A 
BRANCH  95  96
ATOM     96  S   UNL     1       1.752   6.967   1.486  1.00  0.00     0.124 S 
ATOM     97  O   UNL     1       2.318   7.054   2.829  1.00  0.00    -0.237 OA
ATOM     98  O   UNL     1       1.733   5.635   0.893  1.00  0.00    -0.237 OA
ATOM     99  O   UNL     1       2.151   8.037   0.573  1.00  0.00    -0.744 OA
ENDBRANCH  95  96
ENDBRANCH  63  88
ENDBRANCH  37  38
ENDBRANCH  29  32
ENDBRANCH  27  28
ENDBRANCH   1  27
TORSDOF 16
