REMARK SMILES COc1ccc(CCc2nnc(NC(=O)[C@@H]3[C@@H](C(=O)NCCCNC(=O)c4ccc(-c5c6nc(c(-c7c(F)cc(S(=O)(=O)[O-])cc7F)c7ccc([nH]7)c(-c7c(F)cc(S(=O)(=O)[O-])cc7F)c7nc(c(-c8c(F)cc(S(=O)(=O)[O-])cc8F)c8ccc5[nH]8)C=C7)C=C6)cc4)C3(C)C)s2)cc1
REMARK SMILES IDX 18 1 19 2 20 3 17 5 16 6 93 7 94 8 95 9 14 10 13 11 15 13
REMARK SMILES IDX 12 14 9 15 10 16 96 17 11 18 8 19 7 20 6 21 3 22 4 23 98 24
REMARK SMILES IDX 5 25 97 26 2 27 1 28 21 29 22 30 23 31 24 32 25 33 26 35
REMARK SMILES IDX 27 36 28 37 92 38 29 39 91 40 30 41 31 42 32 43 85 44 33 45
REMARK SMILES IDX 90 46 84 47 86 48 34 49 89 50 83 51 82 52 35 54 69 55 48 56
REMARK SMILES IDX 68 57 49 58 52 59 67 60 87 61 50 62 51 63 66 65 88 66 53 67
REMARK SMILES IDX 36 68 37 69 46 70 38 71 39 72 45 73 47 74 40 75 41 76 42 77
REMARK SMILES IDX 43 78 44 79 70 80 71 81 80 82 72 83 73 84 79 85 81 86 74 87
REMARK SMILES IDX 75 88 76 89 77 90 78 91 54 92 55 93 64 94 56 95 57 96 63 97
REMARK SMILES IDX 65 98 58 99 59 100 60 101 61 102 62 103
REMARK H PARENT 20 4 13 12 24 34 86 53 52 64
REMARK Flexibility Score: inf
ROOT
ATOM      1  C   UNL     1      -1.966  -4.479  -5.111  1.00  0.00     0.224 C 
ATOM      2  O   UNL     1      -0.735  -4.474  -5.066  1.00  0.00    -0.275 OA
ATOM      3  N   UNL     1      -2.598  -3.498  -4.409  1.00  0.00    -0.356 N 
ATOM      4  H   UNL     1      -1.970  -2.878  -3.974  1.00  0.00     0.163 HD
ENDROOT
BRANCH   1   5
ATOM      5  C   UNL     1      -2.598  -5.516  -5.959  1.00  0.00     0.098 C 
ATOM      6  C   UNL     1      -3.997  -5.573  -6.518  1.00  0.00     0.098 C 
ATOM      7  C   UNL     1      -3.528  -6.622  -5.497  1.00  0.00    -0.011 C 
ATOM      8  C   UNL     1      -4.143  -6.569  -4.115  1.00  0.00     0.013 C 
ATOM      9  C   UNL     1      -3.223  -8.030  -5.947  1.00  0.00     0.013 C 
BRANCH   6  10
ATOM     10  C   UNL     1      -4.086  -5.752  -7.996  1.00  0.00     0.230 C 
ATOM     11  N   UNL     1      -4.050  -4.651  -8.817  1.00  0.00    -0.300 N 
ATOM     12  H   UNL     1      -3.985  -4.811  -9.786  1.00  0.00     0.172 HD
ATOM     13  O   UNL     1      -4.170  -6.874  -8.492  1.00  0.00    -0.274 OA
BRANCH  11  14
ATOM     14  C   UNL     1      -4.096  -3.352  -8.398  1.00  0.00     0.212 A 
ATOM     15  C   UNL     1      -4.470  -1.013  -8.377  1.00  0.00     0.119 A 
ATOM     16  N   UNL     1      -4.402  -1.521  -7.165  1.00  0.00    -0.142 NA
ATOM     17  S   UNL     1      -4.111  -2.159  -9.623  1.00  0.00    -0.080 S 
ATOM     18  N   UNL     1      -4.190  -2.878  -7.184  1.00  0.00    -0.120 NA
BRANCH  15  19
ATOM     19  C   UNL     1      -4.827   0.413  -8.649  1.00  0.00     0.074 C 
BRANCH  19  20
ATOM     20  C   UNL     1      -6.036   0.626  -9.571  1.00  0.00     0.043 C 
BRANCH  20  21
ATOM     21  C   UNL     1      -7.389   0.168  -9.064  1.00  0.00    -0.047 A 
ATOM     22  C   UNL     1      -9.963  -0.677  -8.275  1.00  0.00     0.118 A 
ATOM     23  C   UNL     1      -8.949  -1.606  -8.470  1.00  0.00     0.046 A 
ATOM     24  C   UNL     1      -9.693   0.679  -8.439  1.00  0.00     0.046 A 
ATOM     25  C   UNL     1      -7.683  -1.190  -8.883  1.00  0.00     0.007 A 
ATOM     26  C   UNL     1      -8.413   1.099  -8.830  1.00  0.00     0.007 A 
BRANCH  22  27
ATOM     27  O   UNL     1     -11.166  -1.185  -7.870  1.00  0.00    -0.497 OA
ATOM     28  C   UNL     1     -12.290  -0.611  -8.529  1.00  0.00     0.278 C 
ENDBRANCH  22  27
ENDBRANCH  20  21
ENDBRANCH  19  20
ENDBRANCH  15  19
ENDBRANCH  11  14
ENDBRANCH   6  10
ENDBRANCH   1   5
BRANCH   3  29
ATOM     29  C   UNL     1      -3.985  -3.160  -4.156  1.00  0.00     0.117 C 
BRANCH  29  30
ATOM     30  C   UNL     1      -4.319  -3.224  -2.672  1.00  0.00     0.042 C 
BRANCH  30  31
ATOM     31  C   UNL     1      -3.659  -2.122  -1.857  1.00  0.00     0.118 C 
BRANCH  31  32
ATOM     32  N   UNL     1      -4.222  -0.810  -2.144  1.00  0.00    -0.352 N 
ATOM     33  C   UNL     1      -5.002   0.011  -1.367  1.00  0.00     0.251 C 
ATOM     34  H   UNL     1      -4.010  -0.456  -3.038  1.00  0.00     0.163 HD
ATOM     35  O   UNL     1      -5.554   0.979  -1.884  1.00  0.00    -0.269 OA
BRANCH  33  36
ATOM     36  C   UNL     1      -5.193  -0.265   0.075  1.00  0.00     0.039 A 
ATOM     37  C   UNL     1      -6.443  -0.014   0.648  1.00  0.00     0.014 A 
ATOM     38  C   UNL     1      -4.145  -0.725   0.876  1.00  0.00     0.014 A 
ATOM     39  C   UNL     1      -6.649  -0.269   2.007  1.00  0.00     0.010 A 
ATOM     40  C   UNL     1      -4.381  -1.080   2.202  1.00  0.00     0.010 A 
ATOM     41  C   UNL     1      -5.628  -0.832   2.791  1.00  0.00    -0.014 A 
BRANCH  41  42
ATOM     42  C   UNL     1      -5.842  -1.134   4.231  1.00  0.00     0.031 A 
ATOM     43  C   UNL     1      -5.005  -0.449   5.281  1.00  0.00     0.074 A 
ATOM     44  C   UNL     1      -6.761  -2.052   4.592  1.00  0.00     0.049 A 
ATOM     45  N   UNL     1      -5.028  -0.597   6.582  1.00  0.00    -0.248 NA
ATOM     46  C   UNL     1      -3.989   0.506   4.809  1.00  0.00     0.031 C 
ATOM     47  C   UNL     1      -7.592  -2.825   3.666  1.00  0.00     0.029 A 
ATOM     48  N   UNL     1      -7.149  -2.494   5.832  1.00  0.00    -0.354 N 
ATOM     49  C   UNL     1      -4.026   0.230   7.077  1.00  0.00     0.074 A 
ATOM     50  C   UNL     1      -3.372   0.830   5.935  1.00  0.00     0.031 C 
ATOM     51  C   UNL     1      -8.413  -3.621   4.370  1.00  0.00     0.029 A 
ATOM     52  C   UNL     1      -8.140  -3.447   5.793  1.00  0.00     0.049 A 
ATOM     53  H   UNL     1      -6.754  -2.161   6.670  1.00  0.00     0.167 HD
ATOM     54  C   UNL     1      -3.697   0.489   8.365  1.00  0.00     0.037 A 
ATOM     55  C   UNL     1      -8.758  -4.109   6.791  1.00  0.00     0.037 A 
ATOM     56  C   UNL     1      -4.372  -0.092   9.497  1.00  0.00     0.049 A 
ATOM     57  C   UNL     1      -8.384  -3.797   8.215  1.00  0.00     0.074 A 
ATOM     58  C   UNL     1      -4.160   0.153  10.843  1.00  0.00     0.029 A 
ATOM     59  N   UNL     1      -5.385  -1.037   9.418  1.00  0.00    -0.354 N 
ATOM     60  N   UNL     1      -7.485  -2.955   8.667  1.00  0.00    -0.248 NA
ATOM     61  C   UNL     1      -9.115  -4.517   9.267  1.00  0.00     0.031 C 
ATOM     62  C   UNL     1      -5.007  -0.684  11.577  1.00  0.00     0.029 A 
ATOM     63  C   UNL     1      -5.791  -1.405  10.690  1.00  0.00     0.049 A 
ATOM     64  H   UNL     1      -5.759  -1.394   8.580  1.00  0.00     0.167 HD
ATOM     65  C   UNL     1      -7.562  -3.022  10.054  1.00  0.00     0.074 A 
ATOM     66  C   UNL     1      -8.607  -3.976  10.365  1.00  0.00     0.031 C 
ATOM     67  C   UNL     1      -6.835  -2.355  10.985  1.00  0.00     0.037 A 
BRANCH  54  68
ATOM     68  C   UNL     1      -2.561   1.444   8.621  1.00  0.00     0.058 A 
ATOM     69  C   UNL     1      -2.663   2.814   8.329  1.00  0.00     0.135 A 
ATOM     70  C   UNL     1      -1.363   0.989   9.198  1.00  0.00     0.135 A 
ATOM     71  F   UNL     1      -3.777   3.304   7.762  1.00  0.00    -0.206 F 
ATOM     72  C   UNL     1      -1.611   3.692   8.570  1.00  0.00     0.059 A 
ATOM     73  C   UNL     1      -0.310   1.855   9.478  1.00  0.00     0.059 A 
ATOM     74  F   UNL     1      -1.208  -0.310   9.499  1.00  0.00    -0.206 F 
ATOM     75  C   UNL     1      -0.438   3.203   9.146  1.00  0.00     0.060 A 
BRANCH  75  76
ATOM     76  S   UNL     1       0.914   4.358   9.459  1.00  0.00     0.124 S 
ATOM     77  O   UNL     1       1.385   4.630   8.104  1.00  0.00    -0.237 OA
ATOM     78  O   UNL     1       0.232   5.462  10.126  1.00  0.00    -0.237 OA
ATOM     79  O   UNL     1       1.830   3.591  10.298  1.00  0.00    -0.744 OA
ENDBRANCH  75  76
ENDBRANCH  54  68
BRANCH  55  80
ATOM     80  C   UNL     1      -9.811  -5.113   6.476  1.00  0.00     0.058 A 
ATOM     81  C   UNL     1     -11.159  -4.871   6.782  1.00  0.00     0.135 A 
ATOM     82  C   UNL     1      -9.492  -6.327   5.848  1.00  0.00     0.135 A 
ATOM     83  F   UNL     1     -11.514  -3.728   7.388  1.00  0.00    -0.206 F 
ATOM     84  C   UNL     1     -12.151  -5.803   6.493  1.00  0.00     0.059 A 
ATOM     85  C   UNL     1     -10.470  -7.262   5.522  1.00  0.00     0.059 A 
ATOM     86  F   UNL     1      -8.220  -6.600   5.518  1.00  0.00    -0.206 F 
ATOM     87  C   UNL     1     -11.796  -6.995   5.858  1.00  0.00     0.060 A 
BRANCH  87  88
ATOM     88  S   UNL     1     -13.099  -8.175   5.444  1.00  0.00     0.124 S 
ATOM     89  O   UNL     1     -13.455  -8.694   6.759  1.00  0.00    -0.237 OA
ATOM     90  O   UNL     1     -14.093  -7.320   4.803  1.00  0.00    -0.237 OA
ATOM     91  O   UNL     1     -12.427  -9.117   4.554  1.00  0.00    -0.744 OA
ENDBRANCH  87  88
ENDBRANCH  55  80
BRANCH  67  92
ATOM     92  C   UNL     1      -7.169  -2.604  12.431  1.00  0.00     0.058 A 
ATOM     93  C   UNL     1      -6.871  -3.822  13.063  1.00  0.00     0.135 A 
ATOM     94  C   UNL     1      -7.760  -1.592  13.206  1.00  0.00     0.135 A 
ATOM     95  F   UNL     1      -6.310  -4.824  12.369  1.00  0.00    -0.206 F 
ATOM     96  C   UNL     1      -7.180  -4.040  14.402  1.00  0.00     0.059 A 
ATOM     97  C   UNL     1      -8.047  -1.777  14.555  1.00  0.00     0.059 A 
ATOM     98  F   UNL     1      -8.054  -0.403  12.656  1.00  0.00    -0.206 F 
ATOM     99  C   UNL     1      -7.768  -3.011  15.139  1.00  0.00     0.060 A 
BRANCH  99 100
ATOM    100  S   UNL     1      -8.148  -3.302  16.880  1.00  0.00     0.124 S 
ATOM    101  O   UNL     1      -9.297  -4.197  16.784  1.00  0.00    -0.237 OA
ATOM    102  O   UNL     1      -6.914  -3.904  17.373  1.00  0.00    -0.237 OA
ATOM    103  O   UNL     1      -8.435  -1.966  17.394  1.00  0.00    -0.744 OA
ENDBRANCH  99 100
ENDBRANCH  67  92
ENDBRANCH  41  42
ENDBRANCH  33  36
ENDBRANCH  31  32
ENDBRANCH  30  31
ENDBRANCH  29  30
ENDBRANCH   3  29
TORSDOF 19
