REMARK SMILES Cc1ccc([C@@]23C[C@@H]4C[C@@H](C[C@@](C(=O)N5CCC(C(=O)NCCCNC(=O)c6ccc(-c7c8nc(c(-c9c(F)cc(S(=O)(=O)[O-])cc9F)c9ccc([nH]9)c(-c9c(F)cc(S(=O)(=O)[O-])cc9F)c9nc(c(-c%10c(F)cc(S(=O)(=O)[O-])cc%10F)c%10ccc7[nH]%10)C=C9)C=C8)cc6)CC5)(C4)C2)C3)cc1
REMARK SMILES IDX 23 1 22 2 21 3 19 4 20 5 18 7 13 8 14 9 15 10 16 11 95 12
REMARK SMILES IDX 17 13 94 14 12 15 6 16 7 17 97 18 98 19 8 20 10 21 9 22
REMARK SMILES IDX 96 23 11 24 5 25 1 26 2 27 3 28 100 29 4 30 99 31 24 32
REMARK SMILES IDX 25 33 26 34 27 36 28 37 29 38 93 39 30 40 92 41 31 42 32 43
REMARK SMILES IDX 33 44 86 45 34 46 91 47 85 48 87 49 35 50 90 51 84 52 83 53
REMARK SMILES IDX 36 55 70 56 49 57 69 58 50 59 53 60 68 61 88 62 51 63 52 64
REMARK SMILES IDX 67 66 89 67 54 68 37 69 38 70 47 71 39 72 40 73 46 74 48 75
REMARK SMILES IDX 41 76 42 77 43 78 44 79 45 80 71 81 72 82 81 83 73 84 74 85
REMARK SMILES IDX 80 86 82 87 75 88 76 89 77 90 78 91 79 92 55 93 56 94 65 95
REMARK SMILES IDX 57 96 58 97 64 98 66 99 59 100 60 101 61 102 62 103 63 104
REMARK H PARENT 21 6 25 35 87 54 53 65
REMARK Flexibility Score: inf
ROOT
ATOM      1  C   UNL     1      -8.935  -1.886  -3.241  1.00  0.00     0.042 C 
ENDROOT
BRANCH   1   2
ATOM      2  C   UNL     1      -8.809  -3.379  -2.973  1.00  0.00     0.117 C 
BRANCH   2   3
ATOM      3  N   UNL     1      -8.446  -4.140  -4.168  1.00  0.00    -0.356 N 
ATOM      4  C   UNL     1      -7.278  -4.740  -4.535  1.00  0.00     0.223 C 
ATOM      5  O   UNL     1      -7.238  -5.342  -5.612  1.00  0.00    -0.275 OA
ATOM      6  H   UNL     1      -9.174  -4.236  -4.824  1.00  0.00     0.163 HD
BRANCH   4   7
ATOM      7  C   UNL     1      -6.024  -4.656  -3.673  1.00  0.00     0.082 C 
ATOM      8  C   UNL     1      -5.725  -2.523  -0.312  1.00  0.00     0.228 C 
ATOM      9  O   UNL     1      -6.507  -2.990   0.522  1.00  0.00    -0.274 OA
ATOM     10  N   UNL     1      -5.159  -3.350  -1.284  1.00  0.00    -0.342 N 
ATOM     11  C   UNL     1      -5.345  -4.792  -1.186  1.00  0.00     0.120 C 
ATOM     12  C   UNL     1      -4.518  -2.964  -2.537  1.00  0.00     0.120 C 
ATOM     13  C   UNL     1      -6.223  -5.337  -2.305  1.00  0.00     0.035 C 
ATOM     14  C   UNL     1      -5.486  -3.219  -3.672  1.00  0.00     0.035 C 
BRANCH   8  15
ATOM     15  C   UNL     1      -5.289  -1.040  -0.196  1.00  0.00     0.051 C 
ATOM     16  C   UNL     1      -3.160   0.392   0.068  1.00  0.00    -0.003 C 
ATOM     17  C   UNL     1      -3.663   1.197  -1.169  1.00  0.00     0.015 C 
ATOM     18  C   UNL     1      -3.758  -1.026  -0.043  1.00  0.00     0.028 C 
ATOM     19  C   UNL     1      -3.752   1.029   1.350  1.00  0.00     0.015 C 
ATOM     20  C   UNL     1      -5.202   1.269  -1.212  1.00  0.00    -0.009 C 
ATOM     21  C   UNL     1      -5.293   1.046   1.285  1.00  0.00    -0.009 C 
ATOM     22  C   UNL     1      -5.725   1.901   0.085  1.00  0.00     0.007 C 
ATOM     23  C   UNL     1      -5.786  -0.145  -1.348  1.00  0.00     0.020 C 
ATOM     24  C   UNL     1      -5.839  -0.390   1.113  1.00  0.00     0.020 C 
BRANCH  16  25
ATOM     25  C   UNL     1      -1.621   0.341   0.116  1.00  0.00    -0.042 A 
ATOM     26  C   UNL     1       2.719   0.182   0.010  1.00  0.00     0.044 C 
ATOM     27  C   UNL     1       1.224   0.257   0.075  1.00  0.00    -0.051 A 
ATOM     28  C   UNL     1       0.484  -0.920   0.143  1.00  0.00     0.004 A 
ATOM     29  C   UNL     1       0.544   1.477   0.051  1.00  0.00     0.004 A 
ATOM     30  C   UNL     1      -0.911  -0.875   0.172  1.00  0.00     0.004 A 
ATOM     31  C   UNL     1      -0.858   1.518   0.076  1.00  0.00     0.004 A 
ENDBRANCH  16  25
ENDBRANCH   8  15
ENDBRANCH   4   7
ENDBRANCH   2   3
ENDBRANCH   1   2
BRANCH   1  32
ATOM     32  C   UNL     1     -10.263  -1.507  -3.870  1.00  0.00     0.118 C 
BRANCH  32  33
ATOM     33  N   UNL     1     -11.097  -0.705  -2.981  1.00  0.00    -0.352 N 
ATOM     34  C   UNL     1     -12.189   0.066  -3.328  1.00  0.00     0.251 C 
ATOM     35  H   UNL     1     -10.853  -0.714  -2.027  1.00  0.00     0.163 HD
ATOM     36  O   UNL     1     -12.718   0.859  -2.556  1.00  0.00    -0.269 OA
BRANCH  34  37
ATOM     37  C   UNL     1     -12.769  -0.194  -4.656  1.00  0.00     0.039 A 
ATOM     38  C   UNL     1     -13.919  -0.989  -4.698  1.00  0.00     0.014 A 
ATOM     39  C   UNL     1     -11.989   0.022  -5.788  1.00  0.00     0.014 A 
ATOM     40  C   UNL     1     -14.191  -1.728  -5.844  1.00  0.00     0.010 A 
ATOM     41  C   UNL     1     -12.204  -0.789  -6.884  1.00  0.00     0.010 A 
ATOM     42  C   UNL     1     -13.278  -1.695  -6.896  1.00  0.00    -0.014 A 
BRANCH  42  43
ATOM     43  C   UNL     1     -13.314  -2.620  -8.024  1.00  0.00     0.031 A 
ATOM     44  C   UNL     1     -13.677  -2.124  -9.369  1.00  0.00     0.074 A 
ATOM     45  C   UNL     1     -12.913  -3.901  -7.871  1.00  0.00     0.049 A 
ATOM     46  N   UNL     1     -14.042  -2.883 -10.347  1.00  0.00    -0.248 NA
ATOM     47  C   UNL     1     -13.681  -0.703  -9.709  1.00  0.00     0.031 C 
ATOM     48  C   UNL     1     -12.571  -4.851  -8.928  1.00  0.00     0.029 A 
ATOM     49  N   UNL     1     -12.937  -4.675  -6.706  1.00  0.00    -0.354 N 
ATOM     50  C   UNL     1     -14.061  -2.111 -11.481  1.00  0.00     0.074 A 
ATOM     51  C   UNL     1     -13.872  -0.752 -11.029  1.00  0.00     0.031 C 
ATOM     52  C   UNL     1     -12.678  -6.096  -8.443  1.00  0.00     0.029 A 
ATOM     53  C   UNL     1     -13.239  -5.996  -7.109  1.00  0.00     0.049 A 
ATOM     54  H   UNL     1     -12.775  -4.362  -5.787  1.00  0.00     0.167 HD
ATOM     55  C   UNL     1     -14.115  -2.697 -12.707  1.00  0.00     0.037 A 
ATOM     56  C   UNL     1     -14.402  -6.590  -6.705  1.00  0.00     0.037 A 
ATOM     57  C   UNL     1     -14.256  -4.145 -12.630  1.00  0.00     0.049 A 
ATOM     58  C   UNL     1     -15.380  -6.891  -7.824  1.00  0.00     0.074 A 
ATOM     59  C   UNL     1     -13.388  -5.220 -12.723  1.00  0.00     0.029 A 
ATOM     60  N   UNL     1     -15.427  -4.655 -12.097  1.00  0.00    -0.354 N 
ATOM     61  N   UNL     1     -15.167  -6.643  -9.089  1.00  0.00    -0.248 NA
ATOM     62  C   UNL     1     -16.719  -7.435  -7.588  1.00  0.00     0.031 C 
ATOM     63  C   UNL     1     -14.043  -6.372 -12.195  1.00  0.00     0.029 A 
ATOM     64  C   UNL     1     -15.313  -5.999 -11.797  1.00  0.00     0.049 A 
ATOM     65  H   UNL     1     -16.243  -4.125 -11.949  1.00  0.00     0.167 HD
ATOM     66  C   UNL     1     -16.303  -6.913  -9.805  1.00  0.00     0.074 A 
ATOM     67  C   UNL     1     -17.243  -7.426  -8.826  1.00  0.00     0.031 C 
ATOM     68  C   UNL     1     -16.427  -6.662 -11.141  1.00  0.00     0.037 A 
BRANCH  55  69
ATOM     69  C   UNL     1     -13.784  -1.907 -13.940  1.00  0.00     0.058 A 
ATOM     70  C   UNL     1     -12.870  -2.399 -14.889  1.00  0.00     0.135 A 
ATOM     71  C   UNL     1     -14.275  -0.608 -14.176  1.00  0.00     0.135 A 
ATOM     72  F   UNL     1     -12.363  -3.635 -14.793  1.00  0.00    -0.206 F 
ATOM     73  C   UNL     1     -12.403  -1.622 -15.949  1.00  0.00     0.059 A 
ATOM     74  C   UNL     1     -13.783   0.208 -15.197  1.00  0.00     0.059 A 
ATOM     75  F   UNL     1     -15.235  -0.087 -13.394  1.00  0.00    -0.206 F 
ATOM     76  C   UNL     1     -12.838  -0.307 -16.076  1.00  0.00     0.060 A 
BRANCH  76  77
ATOM     77  S   UNL     1     -12.105   0.728 -17.360  1.00  0.00     0.124 S 
ATOM     78  O   UNL     1     -10.684   0.407 -17.248  1.00  0.00    -0.237 OA
ATOM     79  O   UNL     1     -12.773   0.236 -18.559  1.00  0.00    -0.237 OA
ATOM     80  O   UNL     1     -12.463   2.082 -16.947  1.00  0.00    -0.744 OA
ENDBRANCH  76  77
ENDBRANCH  55  69
BRANCH  56  81
ATOM     81  C   UNL     1     -14.755  -6.235  -5.301  1.00  0.00     0.058 A 
ATOM     82  C   UNL     1     -13.874  -6.657  -4.283  1.00  0.00     0.135 A 
ATOM     83  C   UNL     1     -15.621  -5.174  -5.010  1.00  0.00     0.135 A 
ATOM     84  F   UNL     1     -13.037  -7.685  -4.502  1.00  0.00    -0.206 F 
ATOM     85  C   UNL     1     -13.729  -5.943  -3.100  1.00  0.00     0.059 A 
ATOM     86  C   UNL     1     -15.502  -4.452  -3.821  1.00  0.00     0.059 A 
ATOM     87  F   UNL     1     -16.486  -4.734  -5.935  1.00  0.00    -0.206 F 
ATOM     88  C   UNL     1     -14.501  -4.799  -2.913  1.00  0.00     0.060 A 
BRANCH  88  89
ATOM     89  S   UNL     1     -14.034  -3.680  -1.570  1.00  0.00     0.124 S 
ATOM     90  O   UNL     1     -14.220  -4.524  -0.395  1.00  0.00    -0.237 OA
ATOM     91  O   UNL     1     -12.646  -3.367  -1.912  1.00  0.00    -0.237 OA
ATOM     92  O   UNL     1     -14.977  -2.577  -1.712  1.00  0.00    -0.744 OA
ENDBRANCH  88  89
ENDBRANCH  56  81
BRANCH  68  93
ATOM     93  C   UNL     1     -17.651  -7.026 -11.932  1.00  0.00     0.058 A 
ATOM     94  C   UNL     1     -18.230  -8.304 -11.856  1.00  0.00     0.135 A 
ATOM     95  C   UNL     1     -18.204  -6.146 -12.885  1.00  0.00     0.135 A 
ATOM     96  F   UNL     1     -17.736  -9.231 -11.020  1.00  0.00    -0.206 F 
ATOM     97  C   UNL     1     -19.323  -8.671 -12.642  1.00  0.00     0.059 A 
ATOM     98  C   UNL     1     -19.263  -6.506 -13.714  1.00  0.00     0.059 A 
ATOM     99  F   UNL     1     -17.747  -4.892 -13.023  1.00  0.00    -0.206 F 
ATOM    100  C   UNL     1     -19.833  -7.763 -13.567  1.00  0.00     0.060 A 
BRANCH 100 101
ATOM    101  S   UNL     1     -21.233  -8.237 -14.601  1.00  0.00     0.124 S 
ATOM    102  O   UNL     1     -21.005  -9.663 -14.818  1.00  0.00    -0.237 OA
ATOM    103  O   UNL     1     -22.358  -7.903 -13.734  1.00  0.00    -0.237 OA
ATOM    104  O   UNL     1     -21.076  -7.398 -15.784  1.00  0.00    -0.744 OA
ENDBRANCH 100 101
ENDBRANCH  68  93
ENDBRANCH  42  43
ENDBRANCH  34  37
ENDBRANCH  32  33
ENDBRANCH   1  32
TORSDOF 15
