REMARK SMILES Cc1sc(C(=O)NCCCNC(=O)c2ccc(-c3c4nc(c(-c5c(F)cc(S(=O)(=O)[O-])cc5F)c5ccc([nH]5)c(-c5c(F)cc(S(=O)(=O)[O-])cc5F)c5nc(c(-c6c(F)cc(S(=O)(=O)[O-])cc6F)c6ccc3[nH]6)C=C5)C=C4)cc2)cc1S(=O)(=O)N1C[C@@H](C)[C@H](C)C1
REMARK SMILES IDX 9 1 8 2 7 3 5 4 6 5 4 7 1 8 2 9 3 10 81 11 80 12 82 13 83 14
REMARK SMILES IDX 84 15 85 16 86 17 91 18 87 19 89 20 88 21 90 22 10 23 11 24
REMARK SMILES IDX 12 25 13 27 14 28 15 29 79 30 16 31 78 32 17 33 18 34 19 35
REMARK SMILES IDX 72 36 20 37 77 38 71 39 73 40 21 41 76 42 70 43 69 44 22 46
REMARK SMILES IDX 56 47 35 48 55 49 36 50 39 51 54 52 74 53 37 54 38 55 53 57
REMARK SMILES IDX 75 58 40 59 23 60 24 61 33 62 25 63 26 64 32 65 34 66 27 67
REMARK SMILES IDX 28 68 29 69 30 70 31 71 57 72 58 73 67 74 59 75 60 76 66 77
REMARK SMILES IDX 68 78 61 79 62 80 63 81 64 82 65 83 41 84 42 85 51 86 43 87
REMARK SMILES IDX 44 88 50 89 52 90 45 91 46 92 47 93 48 94 49 95
REMARK H PARENT 7 6 11 26 73 45 39 56
REMARK Flexibility Score: inf
ROOT
ATOM      1  C   UNL     1      -4.681  -2.245   0.797  1.00  0.00     0.042 C 
ENDROOT
BRANCH   1   2
ATOM      2  C   UNL     1      -4.289  -1.522  -0.488  1.00  0.00     0.118 C 
BRANCH   2   3
ATOM      3  N   UNL     1      -4.196  -0.094  -0.267  1.00  0.00    -0.351 N 
ATOM      4  C   UNL     1      -3.136   0.722   0.032  1.00  0.00     0.261 C 
ATOM      5  O   UNL     1      -3.423   1.915   0.169  1.00  0.00    -0.268 OA
ATOM      6  H   UNL     1      -5.056   0.380  -0.347  1.00  0.00     0.163 HD
BRANCH   4   7
ATOM      7  C   UNL     1      -1.778   0.208   0.124  1.00  0.00     0.093 A 
ATOM      8  C   UNL     1       2.106   0.683  -0.009  1.00  0.00     0.058 C 
ATOM      9  C   UNL     1       0.723   0.160   0.060  1.00  0.00     0.022 A 
ATOM     10  S   UNL     1      -0.509   1.357   0.054  1.00  0.00    -0.134 S 
ATOM     11  C   UNL     1       0.181  -1.110   0.132  1.00  0.00     0.097 A 
ATOM     12  C   UNL     1      -1.249  -1.058   0.275  1.00  0.00     0.047 A 
BRANCH  11  13
ATOM     13  S   UNL     1       0.952  -2.675   0.045  1.00  0.00     0.244 S 
ATOM     14  O   UNL     1       0.529  -3.308   1.272  1.00  0.00    -0.207 OA
ATOM     15  O   UNL     1       0.511  -3.160  -1.250  1.00  0.00    -0.207 OA
BRANCH  13  16
ATOM     16  N   UNL     1       2.607  -2.628   0.030  1.00  0.00    -0.197 NA
ATOM     17  C   UNL     1       3.377  -2.396  -1.188  1.00  0.00     0.106 C 
ATOM     18  C   UNL     1       3.393  -2.475   1.248  1.00  0.00     0.106 C 
ATOM     19  C   UNL     1       4.792  -2.056  -0.701  1.00  0.00     0.005 C 
ATOM     20  C   UNL     1       4.650  -1.731   0.798  1.00  0.00     0.005 C 
ATOM     21  C   UNL     1       5.393  -0.892  -1.488  1.00  0.00     0.009 C 
ATOM     22  C   UNL     1       5.874  -2.130   1.611  1.00  0.00     0.009 C 
ENDBRANCH  13  16
ENDBRANCH  11  13
ENDBRANCH   4   7
ENDBRANCH   2   3
ENDBRANCH   1   2
BRANCH   1  23
ATOM     23  C   UNL     1      -6.120  -1.954   1.219  1.00  0.00     0.118 C 
BRANCH  23  24
ATOM     24  N   UNL     1      -7.073  -2.391   0.208  1.00  0.00    -0.352 N 
ATOM     25  C   UNL     1      -8.085  -3.310   0.290  1.00  0.00     0.251 C 
ATOM     26  H   UNL     1      -6.975  -1.958  -0.671  1.00  0.00     0.163 HD
ATOM     27  O   UNL     1      -8.579  -3.752  -0.744  1.00  0.00    -0.269 OA
BRANCH  25  28
ATOM     28  C   UNL     1      -8.588  -3.752   1.606  1.00  0.00     0.039 A 
ATOM     29  C   UNL     1      -8.994  -5.078   1.762  1.00  0.00     0.014 A 
ATOM     30  C   UNL     1      -8.722  -2.846   2.662  1.00  0.00     0.014 A 
ATOM     31  C   UNL     1      -9.511  -5.501   2.986  1.00  0.00     0.010 A 
ATOM     32  C   UNL     1      -9.154  -3.289   3.906  1.00  0.00     0.010 A 
ATOM     33  C   UNL     1      -9.577  -4.614   4.074  1.00  0.00    -0.014 A 
BRANCH  33  34
ATOM     34  C   UNL     1     -10.116  -5.052   5.384  1.00  0.00     0.031 A 
ATOM     35  C   UNL     1     -11.365  -4.418   5.936  1.00  0.00     0.074 A 
ATOM     36  C   UNL     1      -9.455  -5.989   6.090  1.00  0.00     0.049 A 
ATOM     37  N   UNL     1     -11.970  -4.641   7.074  1.00  0.00    -0.248 NA
ATOM     38  C   UNL     1     -12.003  -3.375   5.116  1.00  0.00     0.031 C 
ATOM     39  C   UNL     1      -8.205  -6.633   5.677  1.00  0.00     0.029 A 
ATOM     40  N   UNL     1      -9.736  -6.561   7.304  1.00  0.00    -0.354 N 
ATOM     41  C   UNL     1     -13.047  -3.762   7.111  1.00  0.00     0.074 A 
ATOM     42  C   UNL     1     -12.976  -2.958   5.911  1.00  0.00     0.031 C 
ATOM     43  C   UNL     1      -7.846  -7.534   6.605  1.00  0.00     0.029 A 
ATOM     44  C   UNL     1      -8.815  -7.503   7.696  1.00  0.00     0.049 A 
ATOM     45  H   UNL     1     -10.524  -6.321   7.843  1.00  0.00     0.167 HD
ATOM     46  C   UNL     1     -14.020  -3.655   8.046  1.00  0.00     0.037 A 
ATOM     47  C   UNL     1      -8.758  -8.256   8.811  1.00  0.00     0.037 A 
ATOM     48  C   UNL     1     -14.090  -4.478   9.225  1.00  0.00     0.049 A 
ATOM     49  C   UNL     1      -9.855  -8.124   9.832  1.00  0.00     0.074 A 
ATOM     50  C   UNL     1     -15.061  -4.490  10.211  1.00  0.00     0.029 A 
ATOM     51  N   UNL     1     -13.151  -5.437   9.578  1.00  0.00    -0.354 N 
ATOM     52  N   UNL     1     -10.902  -7.331   9.821  1.00  0.00    -0.248 NA
ATOM     53  C   UNL     1      -9.773  -8.997  11.009  1.00  0.00     0.031 C 
ATOM     54  C   UNL     1     -14.682  -5.420  11.185  1.00  0.00     0.029 A 
ATOM     55  C   UNL     1     -13.509  -6.033  10.776  1.00  0.00     0.049 A 
ATOM     56  H   UNL     1     -12.348  -5.661   9.054  1.00  0.00     0.167 HD
ATOM     57  C   UNL     1     -11.620  -7.634  10.973  1.00  0.00     0.074 A 
ATOM     58  C   UNL     1     -10.894  -8.691  11.648  1.00  0.00     0.031 C 
ATOM     59  C   UNL     1     -12.775  -7.089  11.430  1.00  0.00     0.037 A 
BRANCH  46  60
ATOM     60  C   UNL     1     -15.087  -2.614   7.830  1.00  0.00     0.058 A 
ATOM     61  C   UNL     1     -16.032  -2.725   6.797  1.00  0.00     0.135 A 
ATOM     62  C   UNL     1     -15.188  -1.505   8.687  1.00  0.00     0.135 A 
ATOM     63  F   UNL     1     -15.976  -3.755   5.937  1.00  0.00    -0.206 F 
ATOM     64  C   UNL     1     -17.017  -1.762   6.601  1.00  0.00     0.059 A 
ATOM     65  C   UNL     1     -16.184  -0.545   8.529  1.00  0.00     0.059 A 
ATOM     66  F   UNL     1     -14.312  -1.344   9.691  1.00  0.00    -0.206 F 
ATOM     67  C   UNL     1     -17.086  -0.675   7.474  1.00  0.00     0.060 A 
BRANCH  67  68
ATOM     68  S   UNL     1     -18.375   0.560   7.211  1.00  0.00     0.124 S 
ATOM     69  O   UNL     1     -17.897   1.229   6.005  1.00  0.00    -0.237 OA
ATOM     70  O   UNL     1     -19.568  -0.265   7.046  1.00  0.00    -0.237 OA
ATOM     71  O   UNL     1     -18.334   1.361   8.430  1.00  0.00    -0.744 OA
ENDBRANCH  67  68
ENDBRANCH  46  60
BRANCH  47  72
ATOM     72  C   UNL     1      -7.640  -9.219   9.002  1.00  0.00     0.058 A 
ATOM     73  C   UNL     1      -7.862 -10.603   8.954  1.00  0.00     0.135 A 
ATOM     74  C   UNL     1      -6.326  -8.775   9.220  1.00  0.00     0.135 A 
ATOM     75  F   UNL     1      -9.100 -11.077   8.750  1.00  0.00    -0.206 F 
ATOM     76  C   UNL     1      -6.827 -11.514   9.138  1.00  0.00     0.059 A 
ATOM     77  C   UNL     1      -5.270  -9.667   9.377  1.00  0.00     0.059 A 
ATOM     78  F   UNL     1      -6.056  -7.461   9.254  1.00  0.00    -0.206 F 
ATOM     79  C   UNL     1      -5.533 -11.036   9.347  1.00  0.00     0.060 A 
BRANCH  79  80
ATOM     80  S   UNL     1      -4.191 -12.228   9.545  1.00  0.00     0.124 S 
ATOM     81  O   UNL     1      -4.471 -12.767  10.871  1.00  0.00    -0.237 OA
ATOM     82  O   UNL     1      -4.420 -13.135   8.425  1.00  0.00    -0.237 OA
ATOM     83  O   UNL     1      -2.991 -11.403   9.440  1.00  0.00    -0.744 OA
ENDBRANCH  79  80
ENDBRANCH  47  72
BRANCH  59  84
ATOM     84  C   UNL     1     -13.350  -7.660  12.698  1.00  0.00     0.058 A 
ATOM     85  C   UNL     1     -12.747  -7.452  13.948  1.00  0.00     0.135 A 
ATOM     86  C   UNL     1     -14.543  -8.402  12.661  1.00  0.00     0.135 A 
ATOM     87  F   UNL     1     -11.604  -6.754  14.039  1.00  0.00    -0.206 F 
ATOM     88  C   UNL     1     -13.283  -7.993  15.112  1.00  0.00     0.059 A 
ATOM     89  C   UNL     1     -15.115  -8.922  13.817  1.00  0.00     0.059 A 
ATOM     90  F   UNL     1     -15.170  -8.618  11.494  1.00  0.00    -0.206 F 
ATOM     91  C   UNL     1     -14.468  -8.728  15.036  1.00  0.00     0.060 A 
BRANCH  91  92
ATOM     92  S   UNL     1     -15.159  -9.416  16.554  1.00  0.00     0.124 S 
ATOM     93  O   UNL     1     -14.237 -10.514  16.825  1.00  0.00    -0.237 OA
ATOM     94  O   UNL     1     -15.083  -8.284  17.473  1.00  0.00    -0.237 OA
ATOM     95  O   UNL     1     -16.509  -9.811  16.166  1.00  0.00    -0.744 OA
ENDBRANCH  91  92
ENDBRANCH  59  84
ENDBRANCH  33  34
ENDBRANCH  25  28
ENDBRANCH  23  24
ENDBRANCH   1  23
TORSDOF 15
