REMARK SMILES COCc1nc2ccccc2n1CC(=O)NCCCNC(=O)c1ccc(-c2c3nc(c(-c4c(F)cc(S(=O)(=O)[O-])cc4F)c4ccc([nH]4)c(-c4c(F)cc(S(=O)(=O)[O-])cc4F)c4nc(c(-c5c(F)cc(S(=O)(=O)[O-])cc5F)c5ccc2[nH]5)C=C4)C=C3)cc1
REMARK SMILES IDX 18 1 17 2 16 3 14 4 15 5 13 7 12 8 4 9 5 10 6 11 11 12 7 13
REMARK SMILES IDX 10 14 8 15 9 16 3 17 2 18 1 19 19 20 20 21 21 22 22 24 23 25
REMARK SMILES IDX 24 26 88 27 25 28 87 29 26 30 27 31 28 32 81 33 29 34 86 35
REMARK SMILES IDX 80 36 82 37 30 38 85 39 79 40 78 41 31 43 65 44 44 45 64 46
REMARK SMILES IDX 45 47 48 48 63 49 83 50 46 51 47 52 62 54 84 55 49 56 32 57
REMARK SMILES IDX 33 58 42 59 34 60 35 61 41 62 43 63 36 64 37 65 38 66 39 67
REMARK SMILES IDX 40 68 66 69 67 70 76 71 68 72 69 73 75 74 77 75 70 76 71 77
REMARK SMILES IDX 72 78 73 79 74 80 50 81 51 82 60 83 52 84 53 85 59 86 61 87
REMARK SMILES IDX 54 88 55 89 56 90 57 91 58 92
REMARK H PARENT 16 6 20 23 82 42 48 53
REMARK Flexibility Score: inf
ROOT
ATOM      1  C   UNL     1       3.386   3.675   0.717  1.00  0.00     0.042 C 
ENDROOT
BRANCH   1   2
ATOM      2  C   UNL     1       3.839   4.255  -0.624  1.00  0.00     0.117 C 
BRANCH   2   3
ATOM      3  N   UNL     1       4.141   3.223  -1.604  1.00  0.00    -0.354 N 
ATOM      4  C   UNL     1       3.434   2.795  -2.683  1.00  0.00     0.240 C 
ATOM      5  O   UNL     1       3.916   1.877  -3.355  1.00  0.00    -0.273 OA
ATOM      6  H   UNL     1       4.997   2.759  -1.462  1.00  0.00     0.163 HD
BRANCH   4   7
ATOM      7  C   UNL     1       2.130   3.442  -3.092  1.00  0.00     0.223 C 
BRANCH   7   8
ATOM      8  N   UNL     1       1.054   3.301  -2.127  1.00  0.00    -0.316 N 
ATOM      9  C   UNL     1       0.494   2.122  -1.668  1.00  0.00     0.136 A 
ATOM     10  N   UNL     1      -0.465   2.386  -0.798  1.00  0.00    -0.231 NA
ATOM     11  C   UNL     1      -0.525   3.748  -0.682  1.00  0.00     0.089 A 
ATOM     12  C   UNL     1       0.392   4.356  -1.532  1.00  0.00     0.069 A 
ATOM     13  C   UNL     1      -1.336   4.538   0.145  1.00  0.00     0.030 A 
ATOM     14  C   UNL     1       0.517   5.751  -1.622  1.00  0.00     0.028 A 
ATOM     15  C   UNL     1      -1.197   5.930   0.098  1.00  0.00     0.002 A 
ATOM     16  C   UNL     1      -0.287   6.523  -0.776  1.00  0.00     0.002 A 
BRANCH   9  17
ATOM     17  C   UNL     1       0.938   0.752  -2.094  1.00  0.00     0.235 C 
BRANCH  17  18
ATOM     18  O   UNL     1       0.456  -0.248  -1.188  1.00  0.00    -0.377 OA
ATOM     19  C   UNL     1       1.099  -0.208   0.081  1.00  0.00     0.195 C 
ENDBRANCH  17  18
ENDBRANCH   9  17
ENDBRANCH   7   8
ENDBRANCH   4   7
ENDBRANCH   2   3
ENDBRANCH   1   2
BRANCH   1  20
ATOM     20  C   UNL     1       4.400   2.711   1.337  1.00  0.00     0.118 C 
BRANCH  20  21
ATOM     21  N   UNL     1       5.723   3.277   1.515  1.00  0.00    -0.352 N 
ATOM     22  C   UNL     1       6.327   4.050   2.467  1.00  0.00     0.251 C 
ATOM     23  H   UNL     1       6.330   3.052   0.774  1.00  0.00     0.163 HD
ATOM     24  O   UNL     1       7.523   4.289   2.277  1.00  0.00    -0.269 OA
BRANCH  22  25
ATOM     25  C   UNL     1       5.647   4.655   3.642  1.00  0.00     0.039 A 
ATOM     26  C   UNL     1       4.340   4.388   4.054  1.00  0.00     0.014 A 
ATOM     27  C   UNL     1       6.394   5.614   4.352  1.00  0.00     0.014 A 
ATOM     28  C   UNL     1       3.749   5.144   5.061  1.00  0.00     0.010 A 
ATOM     29  C   UNL     1       5.818   6.352   5.377  1.00  0.00     0.010 A 
ATOM     30  C   UNL     1       4.473   6.161   5.680  1.00  0.00    -0.014 A 
BRANCH  30  31
ATOM     31  C   UNL     1       3.779   7.010   6.644  1.00  0.00     0.031 A 
ATOM     32  C   UNL     1       3.314   6.348   7.902  1.00  0.00     0.074 A 
ATOM     33  C   UNL     1       3.690   8.343   6.459  1.00  0.00     0.049 A 
ATOM     34  N   UNL     1       2.125   6.308   8.415  1.00  0.00    -0.248 NA
ATOM     35  C   UNL     1       4.310   5.559   8.647  1.00  0.00     0.031 C 
ATOM     36  C   UNL     1       4.345   9.156   5.427  1.00  0.00     0.029 A 
ATOM     37  N   UNL     1       3.086   9.277   7.241  1.00  0.00    -0.354 N 
ATOM     38  C   UNL     1       2.253   5.644   9.637  1.00  0.00     0.074 A 
ATOM     39  C   UNL     1       3.588   5.103   9.670  1.00  0.00     0.031 C 
ATOM     40  C   UNL     1       4.309  10.455   5.797  1.00  0.00     0.029 A 
ATOM     41  C   UNL     1       3.519  10.575   7.009  1.00  0.00     0.049 A 
ATOM     42  H   UNL     1       2.403   9.053   7.913  1.00  0.00     0.167 HD
ATOM     43  C   UNL     1       1.323   5.719  10.630  1.00  0.00     0.037 A 
ATOM     44  C   UNL     1       3.323  11.646   7.818  1.00  0.00     0.037 A 
ATOM     45  C   UNL     1       0.051   6.185  10.157  1.00  0.00     0.049 A 
ATOM     46  C   UNL     1       2.190  11.315   8.721  1.00  0.00     0.074 A 
ATOM     47  C   UNL     1      -0.887   5.704   9.265  1.00  0.00     0.029 A 
ATOM     48  N   UNL     1      -0.284   7.499  10.369  1.00  0.00    -0.354 N 
ATOM     49  N   UNL     1       0.958  11.147   8.323  1.00  0.00    -0.248 NA
ATOM     50  C   UNL     1       2.506  10.741  10.021  1.00  0.00     0.031 C 
ATOM     51  C   UNL     1      -1.412   6.861   8.619  1.00  0.00     0.029 A 
ATOM     52  C   UNL     1      -0.788   7.974   9.184  1.00  0.00     0.049 A 
ATOM     53  H   UNL     1      -0.183   8.003  11.209  1.00  0.00     0.167 HD
ATOM     54  C   UNL     1       0.460  10.121   9.114  1.00  0.00     0.074 A 
ATOM     55  C   UNL     1       1.429   9.973  10.196  1.00  0.00     0.031 C 
ATOM     56  C   UNL     1      -0.545   9.306   8.676  1.00  0.00     0.037 A 
BRANCH  43  57
ATOM     57  C   UNL     1       1.662   5.636  12.096  1.00  0.00     0.058 A 
ATOM     58  C   UNL     1       0.662   5.374  13.053  1.00  0.00     0.135 A 
ATOM     59  C   UNL     1       2.906   6.065  12.610  1.00  0.00     0.135 A 
ATOM     60  F   UNL     1      -0.565   4.988  12.670  1.00  0.00    -0.206 F 
ATOM     61  C   UNL     1       0.874   5.561  14.422  1.00  0.00     0.059 A 
ATOM     62  C   UNL     1       3.155   6.208  13.970  1.00  0.00     0.059 A 
ATOM     63  F   UNL     1       3.903   6.454  11.803  1.00  0.00    -0.206 F 
ATOM     64  C   UNL     1       2.123   5.990  14.868  1.00  0.00     0.060 A 
BRANCH  64  65
ATOM     65  S   UNL     1       2.368   6.338  16.620  1.00  0.00     0.124 S 
ATOM     66  O   UNL     1       1.534   7.520  16.802  1.00  0.00    -0.237 OA
ATOM     67  O   UNL     1       1.884   5.111  17.244  1.00  0.00    -0.237 OA
ATOM     68  O   UNL     1       3.808   6.559  16.721  1.00  0.00    -0.744 OA
ENDBRANCH  64  65
ENDBRANCH  43  57
BRANCH  44  69
ATOM     69  C   UNL     1       4.298  12.729   8.118  1.00  0.00     0.058 A 
ATOM     70  C   UNL     1       3.896  13.904   8.775  1.00  0.00     0.135 A 
ATOM     71  C   UNL     1       5.689  12.517   8.020  1.00  0.00     0.135 A 
ATOM     72  F   UNL     1       2.591  14.174   8.935  1.00  0.00    -0.206 F 
ATOM     73  C   UNL     1       4.816  14.791   9.345  1.00  0.00     0.059 A 
ATOM     74  C   UNL     1       6.625  13.392   8.566  1.00  0.00     0.059 A 
ATOM     75  F   UNL     1       6.185  11.398   7.472  1.00  0.00    -0.206 F 
ATOM     76  C   UNL     1       6.180  14.514   9.253  1.00  0.00     0.060 A 
BRANCH  76  77
ATOM     77  S   UNL     1       7.362  15.556  10.140  1.00  0.00     0.124 S 
ATOM     78  O   UNL     1       7.250  16.819   9.420  1.00  0.00    -0.237 OA
ATOM     79  O   UNL     1       6.822  15.543  11.496  1.00  0.00    -0.237 OA
ATOM     80  O   UNL     1       8.630  14.852   9.971  1.00  0.00    -0.744 OA
ENDBRANCH  76  77
ENDBRANCH  44  69
BRANCH  56  81
ATOM     81  C   UNL     1      -1.272   9.692   7.412  1.00  0.00     0.058 A 
ATOM     82  C   UNL     1      -0.664   9.722   6.143  1.00  0.00     0.135 A 
ATOM     83  C   UNL     1      -2.661   9.873   7.457  1.00  0.00     0.135 A 
ATOM     84  F   UNL     1       0.638   9.449   5.997  1.00  0.00    -0.206 F 
ATOM     85  C   UNL     1      -1.396   9.960   4.979  1.00  0.00     0.059 A 
ATOM     86  C   UNL     1      -3.418  10.081   6.304  1.00  0.00     0.059 A 
ATOM     87  F   UNL     1      -3.312   9.789   8.630  1.00  0.00    -0.206 F 
ATOM     88  C   UNL     1      -2.775  10.133   5.068  1.00  0.00     0.060 A 
BRANCH  88  89
ATOM     89  S   UNL     1      -3.730  10.340   3.549  1.00  0.00     0.124 S 
ATOM     90  O   UNL     1      -3.334  11.681   3.119  1.00  0.00    -0.237 OA
ATOM     91  O   UNL     1      -3.236   9.243   2.714  1.00  0.00    -0.237 OA
ATOM     92  O   UNL     1      -5.110  10.207   3.988  1.00  0.00    -0.744 OA
ENDBRANCH  88  89
ENDBRANCH  56  81
ENDBRANCH  30  31
ENDBRANCH  22  25
ENDBRANCH  20  21
ENDBRANCH   1  20
TORSDOF 16
