REMARK SMILES COc1ncccc1C[N@@H+]1CCC[C@H]1C(=O)NCCCNC(=O)c1ccc(-c2c3nc(c(-c4c(F)cc(S(=O)(=O)[O-])cc4F)c4ccc([nH]4)c(-c4c(F)cc(S(=O)(=O)[O-])cc4F)c4nc(c(-c5c(F)cc(S(=O)(=O)[O-])cc5F)c5ccc2[nH]5)C=C4)C=C3)cc1
REMARK SMILES IDX 19 1 18 2 17 3 15 4 16 5 14 7 10 8 11 9 12 11 13 12 9 13
REMARK SMILES IDX 8 14 3 15 4 16 5 17 7 18 6 19 2 20 1 21 20 22 21 23 22 24
REMARK SMILES IDX 23 26 24 27 25 28 89 29 26 30 88 31 27 32 28 33 29 34 82 35
REMARK SMILES IDX 30 36 87 37 81 38 83 39 31 40 86 41 80 42 79 43 32 45 66 46
REMARK SMILES IDX 45 47 65 48 46 49 49 50 64 51 84 52 47 53 48 54 63 56 85 57
REMARK SMILES IDX 50 58 33 59 34 60 43 61 35 62 36 63 42 64 44 65 37 66 38 67
REMARK SMILES IDX 39 68 40 69 41 70 67 71 68 72 77 73 69 74 70 75 76 76 78 77
REMARK SMILES IDX 71 78 72 79 73 80 74 81 75 82 51 83 52 84 61 85 53 86 54 87
REMARK SMILES IDX 60 88 62 89 55 90 56 91 57 92 58 93 59 94
REMARK H PARENT 17 6 10 10 21 25 83 44 49 55
REMARK Flexibility Score: inf
ROOT
ATOM      1  C   UNL     1       6.727   3.156   0.364  1.00  0.00     0.042 C 
ENDROOT
BRANCH   1   2
ATOM      2  C   UNL     1       5.544   2.347   0.858  1.00  0.00     0.118 C 
BRANCH   2   3
ATOM      3  N   UNL     1       4.639   3.155   1.652  1.00  0.00    -0.351 N 
ATOM      4  C   UNL     1       3.383   3.598   1.351  1.00  0.00     0.278 C 
ATOM      5  O   UNL     1       2.842   4.354   2.162  1.00  0.00    -0.268 OA
ATOM      6  H   UNL     1       4.980   3.423   2.536  1.00  0.00     0.163 HD
BRANCH   4   7
ATOM      7  C   UNL     1       2.714   3.164   0.019  1.00  0.00     0.274 C 
ATOM      8  N   UNL     1       2.718   1.689  -0.042  1.00  0.00    -0.321 N 
ATOM      9  C   UNL     1       1.525   1.262   0.675  1.00  0.00     0.263 C 
ATOM     10  H   UNL     1       3.545   1.313   0.421  1.00  0.00     0.349 HD
ATOM     11  C   UNL     1       0.459   2.280   0.315  1.00  0.00     0.068 C 
ATOM     12  C   UNL     1       1.230   3.559  -0.004  1.00  0.00     0.081 C 
BRANCH   8  13
ATOM     13  C   UNL     1       2.977   1.084  -1.355  1.00  0.00     0.305 C 
BRANCH  13  14
ATOM     14  C   UNL     1       1.948   1.260  -2.433  1.00  0.00     0.068 A 
ATOM     15  C   UNL     1       0.935   0.324  -2.627  1.00  0.00     0.221 A 
ATOM     16  N   UNL     1      -0.074   0.463  -3.514  1.00  0.00    -0.222 NA
ATOM     17  C   UNL     1      -0.047   1.582  -4.275  1.00  0.00     0.115 A 
ATOM     18  C   UNL     1       1.959   2.379  -3.272  1.00  0.00     0.017 A 
ATOM     19  C   UNL     1       0.948   2.545  -4.210  1.00  0.00     0.021 A 
BRANCH  15  20
ATOM     20  O   UNL     1       1.045  -0.878  -1.964  1.00  0.00    -0.481 OA
ATOM     21  C   UNL     1      -0.137  -1.206  -1.250  1.00  0.00     0.280 C 
ENDBRANCH  15  20
ENDBRANCH  13  14
ENDBRANCH   8  13
ENDBRANCH   4   7
ENDBRANCH   2   3
ENDBRANCH   1   2
BRANCH   1  22
ATOM     22  C   UNL     1       7.583   3.692   1.497  1.00  0.00     0.118 C 
BRANCH  22  23
ATOM     23  N   UNL     1       8.163   2.625   2.303  1.00  0.00    -0.352 N 
ATOM     24  C   UNL     1       9.483   2.304   2.510  1.00  0.00     0.251 C 
ATOM     25  H   UNL     1       7.513   2.049   2.767  1.00  0.00     0.163 HD
ATOM     26  O   UNL     1       9.778   1.244   3.045  1.00  0.00    -0.269 OA
BRANCH  24  27
ATOM     27  C   UNL     1      10.534   3.239   2.059  1.00  0.00     0.039 A 
ATOM     28  C   UNL     1      11.659   2.730   1.410  1.00  0.00     0.014 A 
ATOM     29  C   UNL     1      10.392   4.615   2.252  1.00  0.00     0.014 A 
ATOM     30  C   UNL     1      12.606   3.611   0.887  1.00  0.00     0.010 A 
ATOM     31  C   UNL     1      11.278   5.492   1.641  1.00  0.00     0.010 A 
ATOM     32  C   UNL     1      12.399   5.000   0.956  1.00  0.00    -0.014 A 
BRANCH  32  33
ATOM     33  C   UNL     1      13.337   5.953   0.313  1.00  0.00     0.031 A 
ATOM     34  C   UNL     1      14.065   6.973   1.147  1.00  0.00     0.074 A 
ATOM     35  C   UNL     1      13.473   5.944  -1.029  1.00  0.00     0.049 A 
ATOM     36  N   UNL     1      14.866   7.931   0.760  1.00  0.00    -0.248 NA
ATOM     37  C   UNL     1      13.843   6.931   2.602  1.00  0.00     0.031 C 
ATOM     38  C   UNL     1      12.768   5.045  -1.947  1.00  0.00     0.029 A 
ATOM     39  N   UNL     1      14.239   6.725  -1.859  1.00  0.00    -0.354 N 
ATOM     40  C   UNL     1      15.225   8.615   1.915  1.00  0.00     0.074 A 
ATOM     41  C   UNL     1      14.519   7.994   3.013  1.00  0.00     0.031 C 
ATOM     42  C   UNL     1      13.148   5.313  -3.207  1.00  0.00     0.029 A 
ATOM     43  C   UNL     1      14.086   6.430  -3.194  1.00  0.00     0.049 A 
ATOM     44  H   UNL     1      14.841   7.431  -1.529  1.00  0.00     0.167 HD
ATOM     45  C   UNL     1      16.083   9.653   2.048  1.00  0.00     0.037 A 
ATOM     46  C   UNL     1      14.625   7.006  -4.286  1.00  0.00     0.037 A 
ATOM     47  C   UNL     1      16.810  10.238   0.953  1.00  0.00     0.049 A 
ATOM     48  C   UNL     1      15.587   8.151  -4.105  1.00  0.00     0.074 A 
ATOM     49  C   UNL     1      17.770  11.234   0.997  1.00  0.00     0.029 A 
ATOM     50  N   UNL     1      16.656   9.890  -0.381  1.00  0.00    -0.354 N 
ATOM     51  N   UNL     1      15.987   8.723  -2.994  1.00  0.00    -0.248 NA
ATOM     52  C   UNL     1      16.177   8.724  -5.322  1.00  0.00     0.031 C 
ATOM     53  C   UNL     1      18.151  11.531  -0.314  1.00  0.00     0.029 A 
ATOM     54  C   UNL     1      17.477  10.675  -1.171  1.00  0.00     0.049 A 
ATOM     55  H   UNL     1      16.052   9.188  -0.715  1.00  0.00     0.167 HD
ATOM     56  C   UNL     1      16.893   9.705  -3.378  1.00  0.00     0.074 A 
ATOM     57  C   UNL     1      16.998   9.636  -4.820  1.00  0.00     0.031 C 
ATOM     58  C   UNL     1      17.576  10.587  -2.607  1.00  0.00     0.037 A 
BRANCH  45  59
ATOM     59  C   UNL     1      16.297  10.227   3.421  1.00  0.00     0.058 A 
ATOM     60  C   UNL     1      17.003   9.531   4.415  1.00  0.00     0.135 A 
ATOM     61  C   UNL     1      15.864  11.530   3.719  1.00  0.00     0.135 A 
ATOM     62  F   UNL     1      17.423   8.275   4.192  1.00  0.00    -0.206 F 
ATOM     63  C   UNL     1      17.267  10.102   5.655  1.00  0.00     0.059 A 
ATOM     64  C   UNL     1      16.141  12.132   4.942  1.00  0.00     0.059 A 
ATOM     65  F   UNL     1      15.178  12.239   2.807  1.00  0.00    -0.206 F 
ATOM     66  C   UNL     1      16.840  11.408   5.906  1.00  0.00     0.060 A 
BRANCH  66  67
ATOM     67  S   UNL     1      17.240  12.151   7.501  1.00  0.00     0.124 S 
ATOM     68  O   UNL     1      16.369  11.400   8.400  1.00  0.00    -0.237 OA
ATOM     69  O   UNL     1      18.667  11.873   7.624  1.00  0.00    -0.237 OA
ATOM     70  O   UNL     1      16.891  13.557   7.319  1.00  0.00    -0.744 OA
ENDBRANCH  66  67
ENDBRANCH  45  59
BRANCH  46  71
ATOM     71  C   UNL     1      14.264   6.521  -5.646  1.00  0.00     0.058 A 
ATOM     72  C   UNL     1      15.208   5.888  -6.469  1.00  0.00     0.135 A 
ATOM     73  C   UNL     1      12.969   6.697  -6.158  1.00  0.00     0.135 A 
ATOM     74  F   UNL     1      16.462   5.697  -6.028  1.00  0.00    -0.206 F 
ATOM     75  C   UNL     1      14.893   5.478  -7.761  1.00  0.00     0.059 A 
ATOM     76  C   UNL     1      12.621   6.268  -7.435  1.00  0.00     0.059 A 
ATOM     77  F   UNL     1      12.021   7.278  -5.407  1.00  0.00    -0.206 F 
ATOM     78  C   UNL     1      13.595   5.675  -8.235  1.00  0.00     0.060 A 
BRANCH  78  79
ATOM     79  S   UNL     1      13.190   5.126  -9.907  1.00  0.00     0.124 S 
ATOM     80  O   UNL     1      13.887   6.118 -10.718  1.00  0.00    -0.237 OA
ATOM     81  O   UNL     1      13.745   3.777  -9.930  1.00  0.00    -0.237 OA
ATOM     82  O   UNL     1      11.732   5.197  -9.938  1.00  0.00    -0.744 OA
ENDBRANCH  78  79
ENDBRANCH  46  71
BRANCH  58  83
ATOM     83  C   UNL     1      18.524  11.528  -3.299  1.00  0.00     0.058 A 
ATOM     84  C   UNL     1      18.063  12.588  -4.095  1.00  0.00     0.135 A 
ATOM     85  C   UNL     1      19.911  11.398  -3.118  1.00  0.00     0.135 A 
ATOM     86  F   UNL     1      16.748  12.754  -4.306  1.00  0.00    -0.206 F 
ATOM     87  C   UNL     1      18.946  13.473  -4.707  1.00  0.00     0.059 A 
ATOM     88  C   UNL     1      20.809  12.290  -3.693  1.00  0.00     0.059 A 
ATOM     89  F   UNL     1      20.404  10.407  -2.357  1.00  0.00    -0.206 F 
ATOM     90  C   UNL     1      20.317  13.317  -4.497  1.00  0.00     0.060 A 
BRANCH  90  91
ATOM     91  S   UNL     1      21.448  14.493  -5.269  1.00  0.00     0.124 S 
ATOM     92  O   UNL     1      21.373  14.095  -6.671  1.00  0.00    -0.237 OA
ATOM     93  O   UNL     1      20.835  15.776  -4.940  1.00  0.00    -0.237 OA
ATOM     94  O   UNL     1      22.722  14.225  -4.608  1.00  0.00    -0.744 OA
ENDBRANCH  90  91
ENDBRANCH  58  83
ENDBRANCH  32  33
ENDBRANCH  24  27
ENDBRANCH  22  23
ENDBRANCH   1  22
TORSDOF 16
