REMARK SMILES O=C(NCCCNC(=O)c1cn(C2CC2)c2cc(N3CC[NH2+]CC3)ccc2c1=O)c1ccc(-c2c3nc(c(-c4c(F)cc(S(=O)(=O)[O-])cc4F)c4ccc([nH]4)c(-c4c(F)cc(S(=O)(=O)[O-])cc4F)c4nc(c(-c5c(F)cc(S(=O)(=O)[O-])cc5F)c5ccc2[nH]5)C=C4)C=C3)cc1
REMARK SMILES IDX 4 1 3 2 1 3 2 4 30 6 31 7 95 8 32 9 94 10 33 11 34 12 35 13
REMARK SMILES IDX 88 14 36 15 93 16 87 17 89 18 37 19 92 20 86 21 85 22 38 24
REMARK SMILES IDX 72 25 51 26 71 27 52 28 55 29 70 30 90 31 53 32 54 33 69 35
REMARK SMILES IDX 91 36 56 37 39 38 40 39 49 40 41 41 42 42 48 43 50 44 43 45
REMARK SMILES IDX 44 46 45 47 46 48 47 49 73 50 74 51 83 52 75 53 76 54 82 55
REMARK SMILES IDX 84 56 77 57 78 58 79 59 80 60 81 61 57 62 58 63 67 64 59 65
REMARK SMILES IDX 60 66 66 67 68 68 61 69 62 70 63 71 64 72 65 73 5 74 6 75
REMARK SMILES IDX 7 76 8 77 9 79 10 80 11 81 28 82 12 83 27 84 29 85 16 86
REMARK SMILES IDX 26 87 17 88 25 89 18 90 13 91 14 92 15 93 19 94 20 95 24 96
REMARK SMILES IDX 21 97 23 98 22 99
REMARK H PARENT 3 5 89 23 55 34 7 78 22 100 22 101
REMARK Flexibility Score: inf
ROOT
ATOM      1  C   UNL     1       4.600  -0.796   1.018  1.00  0.00     0.118 C 
ENDROOT
BRANCH   1   2
ATOM      2  N   UNL     1       3.152  -0.772   0.878  1.00  0.00    -0.352 N 
ATOM      3  O   UNL     1       1.137  -0.066   0.205  1.00  0.00    -0.269 OA
ATOM      4  C   UNL     1       2.349  -0.096  -0.004  1.00  0.00     0.251 C 
ATOM      5  H   UNL     1       2.668  -1.335   1.525  1.00  0.00     0.163 HD
BRANCH   4   6
ATOM      6  C   UNL     1       2.909   0.591  -1.191  1.00  0.00     0.039 A 
ATOM      7  C   UNL     1       2.305   1.775  -1.629  1.00  0.00     0.014 A 
ATOM      8  C   UNL     1       3.959   0.037  -1.929  1.00  0.00     0.014 A 
ATOM      9  C   UNL     1       2.765   2.412  -2.785  1.00  0.00     0.010 A 
ATOM     10  C   UNL     1       4.467   0.711  -3.037  1.00  0.00     0.010 A 
ATOM     11  C   UNL     1       3.854   1.887  -3.494  1.00  0.00    -0.014 A 
BRANCH  11  12
ATOM     12  C   UNL     1       4.303   2.476  -4.780  1.00  0.00     0.031 A 
ATOM     13  C   UNL     1       4.130   1.686  -6.049  1.00  0.00     0.074 A 
ATOM     14  C   UNL     1       4.887   3.688  -4.814  1.00  0.00     0.049 A 
ATOM     15  N   UNL     1       4.572   1.940  -7.253  1.00  0.00    -0.248 NA
ATOM     16  C   UNL     1       3.373   0.428  -5.939  1.00  0.00     0.031 C 
ATOM     17  C   UNL     1       5.096   4.562  -3.659  1.00  0.00     0.029 A 
ATOM     18  N   UNL     1       5.412   4.392  -5.867  1.00  0.00    -0.354 N 
ATOM     19  C   UNL     1       4.166   0.867  -8.038  1.00  0.00     0.074 A 
ATOM     20  C   UNL     1       3.484  -0.063  -7.163  1.00  0.00     0.031 C 
ATOM     21  C   UNL     1       5.675   5.701  -4.073  1.00  0.00     0.029 A 
ATOM     22  C   UNL     1       5.920   5.618  -5.511  1.00  0.00     0.049 A 
ATOM     23  H   UNL     1       5.424   4.052  -6.790  1.00  0.00     0.167 HD
ATOM     24  C   UNL     1       4.324   0.680  -9.370  1.00  0.00     0.037 A 
ATOM     25  C   UNL     1       6.522   6.562  -6.260  1.00  0.00     0.037 A 
ATOM     26  C   UNL     1       4.982   1.615 -10.242  1.00  0.00     0.049 A 
ATOM     27  C   UNL     1       6.729   6.318  -7.729  1.00  0.00     0.074 A 
ATOM     28  C   UNL     1       5.205   1.518 -11.604  1.00  0.00     0.029 A 
ATOM     29  N   UNL     1       5.513   2.832  -9.836  1.00  0.00    -0.354 N 
ATOM     30  N   UNL     1       6.381   5.278  -8.449  1.00  0.00    -0.248 NA
ATOM     31  C   UNL     1       7.422   7.370  -8.484  1.00  0.00     0.031 C 
ATOM     32  C   UNL     1       5.888   2.669 -12.018  1.00  0.00     0.029 A 
ATOM     33  C   UNL     1       6.063   3.495 -10.919  1.00  0.00     0.049 A 
ATOM     34  H   UNL     1       5.500   3.173  -8.912  1.00  0.00     0.167 HD
ATOM     35  C   UNL     1       6.800   5.556  -9.745  1.00  0.00     0.074 A 
ATOM     36  C   UNL     1       7.418   6.867  -9.711  1.00  0.00     0.031 C 
ATOM     37  C   UNL     1       6.683   4.795 -10.862  1.00  0.00     0.037 A 
BRANCH  24  38
ATOM     38  C   UNL     1       3.771  -0.592  -9.946  1.00  0.00     0.058 A 
ATOM     39  C   UNL     1       2.387  -0.795 -10.075  1.00  0.00     0.135 A 
ATOM     40  C   UNL     1       4.626  -1.633 -10.341  1.00  0.00     0.135 A 
ATOM     41  F   UNL     1       1.526   0.160  -9.692  1.00  0.00    -0.206 F 
ATOM     42  C   UNL     1       1.869  -2.003 -10.530  1.00  0.00     0.059 A 
ATOM     43  C   UNL     1       4.129  -2.841 -10.823  1.00  0.00     0.059 A 
ATOM     44  F   UNL     1       5.957  -1.492 -10.237  1.00  0.00    -0.206 F 
ATOM     45  C   UNL     1       2.748  -3.024 -10.891  1.00  0.00     0.060 A 
BRANCH  45  46
ATOM     46  S   UNL     1       2.063  -4.602 -11.438  1.00  0.00     0.124 S 
ATOM     47  O   UNL     1       1.644  -5.191 -10.170  1.00  0.00    -0.237 OA
ATOM     48  O   UNL     1       0.985  -4.186 -12.329  1.00  0.00    -0.237 OA
ATOM     49  O   UNL     1       3.194  -5.254 -12.091  1.00  0.00    -0.744 OA
ENDBRANCH  45  46
ENDBRANCH  24  38
BRANCH  25  50
ATOM     50  C   UNL     1       6.935   7.842  -5.631  1.00  0.00     0.058 A 
ATOM     51  C   UNL     1       6.193   9.011  -5.848  1.00  0.00     0.135 A 
ATOM     52  C   UNL     1       8.037   7.914  -4.765  1.00  0.00     0.135 A 
ATOM     53  F   UNL     1       5.138   8.990  -6.677  1.00  0.00    -0.206 F 
ATOM     54  C   UNL     1       6.519  10.207  -5.220  1.00  0.00     0.059 A 
ATOM     55  C   UNL     1       8.373   9.096  -4.112  1.00  0.00     0.059 A 
ATOM     56  F   UNL     1       8.772   6.819  -4.519  1.00  0.00    -0.206 F 
ATOM     57  C   UNL     1       7.606  10.237  -4.345  1.00  0.00     0.060 A 
BRANCH  57  58
ATOM     58  S   UNL     1       7.961  11.773  -3.463  1.00  0.00     0.124 S 
ATOM     59  O   UNL     1       8.508  12.606  -4.528  1.00  0.00    -0.237 OA
ATOM     60  O   UNL     1       6.641  12.153  -2.969  1.00  0.00    -0.237 OA
ATOM     61  O   UNL     1       8.910  11.358  -2.434  1.00  0.00    -0.744 OA
ENDBRANCH  57  58
ENDBRANCH  25  50
BRANCH  37  62
ATOM     62  C   UNL     1       7.226   5.368 -12.140  1.00  0.00     0.058 A 
ATOM     63  C   UNL     1       8.604   5.399 -12.401  1.00  0.00     0.135 A 
ATOM     64  C   UNL     1       6.357   5.854 -13.129  1.00  0.00     0.135 A 
ATOM     65  F   UNL     1       9.475   4.951 -11.483  1.00  0.00    -0.206 F 
ATOM     66  C   UNL     1       9.105   5.912 -13.592  1.00  0.00     0.059 A 
ATOM     67  C   UNL     1       6.835   6.354 -14.336  1.00  0.00     0.059 A 
ATOM     68  F   UNL     1       5.029   5.838 -12.930  1.00  0.00    -0.206 F 
ATOM     69  C   UNL     1       8.212   6.390 -14.554  1.00  0.00     0.060 A 
BRANCH  69  70
ATOM     70  S   UNL     1       8.872   7.034 -16.106  1.00  0.00     0.124 S 
ATOM     71  O   UNL     1       9.376   8.339 -15.691  1.00  0.00    -0.237 OA
ATOM     72  O   UNL     1       9.886   6.043 -16.451  1.00  0.00    -0.237 OA
ATOM     73  O   UNL     1       7.707   7.060 -16.985  1.00  0.00    -0.744 OA
ENDBRANCH  69  70
ENDBRANCH  37  62
ENDBRANCH  11  12
ENDBRANCH   4   6
ENDBRANCH   1   2
BRANCH   1  74
ATOM     74  C   UNL     1       5.066  -0.257   2.363  1.00  0.00     0.042 C 
BRANCH  74  75
ATOM     75  C   UNL     1       4.525  -1.007   3.571  1.00  0.00     0.118 C 
BRANCH  75  76
ATOM     76  N   UNL     1       4.941  -2.403   3.619  1.00  0.00    -0.352 N 
ATOM     77  C   UNL     1       5.620  -3.077   4.599  1.00  0.00     0.256 C 
ATOM     78  H   UNL     1       4.697  -2.941   2.831  1.00  0.00     0.163 HD
ATOM     79  O   UNL     1       5.867  -4.273   4.466  1.00  0.00    -0.269 OA
BRANCH  77  80
ATOM     80  C   UNL     1       5.993  -2.344   5.821  1.00  0.00     0.104 A 
ATOM     81  C   UNL     1       5.020  -1.817   6.578  1.00  0.00     0.104 A 
ATOM     82  C   UNL     1       7.392  -2.143   6.244  1.00  0.00     0.202 A 
ATOM     83  N   UNL     1       5.196  -1.004   7.680  1.00  0.00    -0.343 N 
ATOM     84  C   UNL     1       7.613  -1.399   7.510  1.00  0.00     0.047 A 
ATOM     85  O   UNL     1       8.343  -2.542   5.580  1.00  0.00    -0.288 OA
ATOM     86  C   UNL     1       6.516  -0.854   8.206  1.00  0.00     0.054 A 
ATOM     87  C   UNL     1       8.921  -1.222   7.972  1.00  0.00     0.016 A 
ATOM     88  C   UNL     1       6.784  -0.164   9.399  1.00  0.00     0.053 A 
ATOM     89  C   UNL     1       9.154  -0.485   9.133  1.00  0.00     0.027 A 
ATOM     90  C   UNL     1       8.093   0.056   9.863  1.00  0.00     0.039 A 
BRANCH  83  91
ATOM     91  C   UNL     1       4.074  -0.150   8.152  1.00  0.00     0.087 C 
ATOM     92  C   UNL     1       2.788   0.096   7.399  1.00  0.00     0.027 C 
ATOM     93  C   UNL     1       2.782  -0.745   8.643  1.00  0.00     0.027 C 
ENDBRANCH  83  91
BRANCH  90  94
ATOM     94  N   UNL     1       8.297   0.802  11.006  1.00  0.00    -0.360 N 
ATOM     95  C   UNL     1       7.799   0.303  12.291  1.00  0.00     0.178 C 
ATOM     96  C   UNL     1       9.308   1.863  11.055  1.00  0.00     0.178 C 
ATOM     97  C   UNL     1       8.982   0.001  13.240  1.00  0.00     0.282 C 
ATOM     98  C   UNL     1      10.427   1.518  12.061  1.00  0.00     0.282 C 
ATOM     99  N   UNL     1       9.921   1.135  13.400  1.00  0.00    -0.343 N 
ATOM    100  H   UNL     1      10.701   0.855  13.995  1.00  0.00     0.346 HD
ATOM    101  H   UNL     1       9.444   1.925  13.833  1.00  0.00     0.346 HD
ENDBRANCH  90  94
ENDBRANCH  77  80
ENDBRANCH  75  76
ENDBRANCH  74  75
ENDBRANCH   1  74
TORSDOF 15
