REMARK SMILES O=C(NCCCNC(=O)c1cc(S(=O)(=O)Nc2cc(F)ccc2F)cc2c1OCCO2)c1ccc(-c2c3nc(c(-c4c(F)cc(S(=O)(=O)[O-])cc4F)c4ccc([nH]4)c(-c4c(F)cc(S(=O)(=O)[O-])cc4F)c4nc(c(-c5c(F)cc(S(=O)(=O)[O-])cc5F)c5ccc2[nH]5)C=C4)C=C3)cc1
REMARK SMILES IDX 5 1 4 2 3 3 1 4 2 5 32 7 33 8 97 9 34 10 96 11 35 12 36 13
REMARK SMILES IDX 37 14 90 15 38 16 95 17 89 18 91 19 39 20 94 21 88 22 87 23
REMARK SMILES IDX 40 25 74 26 53 27 73 28 54 29 57 30 72 31 92 32 55 33 56 34
REMARK SMILES IDX 71 36 93 37 58 38 41 39 42 40 51 41 43 42 44 43 50 44 52 45
REMARK SMILES IDX 45 46 46 47 47 48 48 49 49 50 75 51 76 52 85 53 77 54 78 55
REMARK SMILES IDX 84 56 86 57 79 58 80 59 81 60 82 61 83 62 59 63 60 64 69 65
REMARK SMILES IDX 61 66 62 67 68 68 70 69 63 70 64 71 65 72 66 73 67 74 6 75
REMARK SMILES IDX 7 76 8 77 9 79 10 80 11 81 27 82 12 83 26 84 28 85 25 86
REMARK SMILES IDX 31 87 29 88 30 89 13 90 14 91 15 92 16 93 17 95 18 96 23 97
REMARK SMILES IDX 19 98 22 99 24 100 20 101 21 102
REMARK H PARENT 3 6 91 24 57 35 7 78 16 94
REMARK Flexibility Score: inf
ROOT
ATOM      1  C   UNL     1       5.133   1.193  -2.264  1.00  0.00     0.042 C 
ENDROOT
BRANCH   1   2
ATOM      2  C   UNL     1       4.652   1.328  -0.832  1.00  0.00     0.118 C 
BRANCH   2   3
ATOM      3  N   UNL     1       3.224   1.070  -0.673  1.00  0.00    -0.352 N 
ATOM      4  O   UNL     1       1.330  -0.042  -0.194  1.00  0.00    -0.269 OA
ATOM      5  C   UNL     1       2.551   0.025  -0.078  1.00  0.00     0.251 C 
ATOM      6  H   UNL     1       2.640   1.763  -1.057  1.00  0.00     0.163 HD
BRANCH   5   7
ATOM      7  C   UNL     1       3.282  -1.027   0.667  1.00  0.00     0.039 A 
ATOM      8  C   UNL     1       4.384  -0.711   1.455  1.00  0.00     0.014 A 
ATOM      9  C   UNL     1       2.848  -2.357   0.595  1.00  0.00     0.014 A 
ATOM     10  C   UNL     1       5.174  -1.723   1.980  1.00  0.00     0.010 A 
ATOM     11  C   UNL     1       3.570  -3.368   1.245  1.00  0.00     0.010 A 
ATOM     12  C   UNL     1       4.766  -3.065   1.910  1.00  0.00    -0.014 A 
BRANCH  12  13
ATOM     13  C   UNL     1       5.585  -4.087   2.617  1.00  0.00     0.031 A 
ATOM     14  C   UNL     1       6.258  -5.213   1.879  1.00  0.00     0.074 A 
ATOM     15  C   UNL     1       5.790  -3.928   3.941  1.00  0.00     0.049 A 
ATOM     16  N   UNL     1       7.076  -6.124   2.345  1.00  0.00    -0.248 NA
ATOM     17  C   UNL     1       5.974  -5.348   0.442  1.00  0.00     0.031 C 
ATOM     18  C   UNL     1       5.165  -2.890   4.769  1.00  0.00     0.029 A 
ATOM     19  N   UNL     1       6.604  -4.598   4.817  1.00  0.00    -0.354 N 
ATOM     20  C   UNL     1       7.396  -6.942   1.268  1.00  0.00     0.074 A 
ATOM     21  C   UNL     1       6.660  -6.440   0.128  1.00  0.00     0.031 C 
ATOM     22  C   UNL     1       5.676  -2.943   6.006  1.00  0.00     0.029 A 
ATOM     23  C   UNL     1       6.606  -4.062   6.084  1.00  0.00     0.049 A 
ATOM     24  H   UNL     1       7.137  -5.386   4.564  1.00  0.00     0.167 HD
ATOM     25  C   UNL     1       8.236  -8.007   1.234  1.00  0.00     0.037 A 
ATOM     26  C   UNL     1       7.270  -4.433   7.194  1.00  0.00     0.037 A 
ATOM     27  C   UNL     1       8.976  -8.491   2.373  1.00  0.00     0.049 A 
ATOM     28  C   UNL     1       8.199  -5.608   7.122  1.00  0.00     0.074 A 
ATOM     29  C   UNL     1       9.857  -9.558   2.437  1.00  0.00     0.029 A 
ATOM     30  N   UNL     1       8.931  -7.939   3.645  1.00  0.00    -0.354 N 
ATOM     31  N   UNL     1       8.493  -6.360   6.088  1.00  0.00    -0.248 NA
ATOM     32  C   UNL     1       8.883  -5.988   8.363  1.00  0.00     0.031 C 
ATOM     33  C   UNL     1      10.318  -9.671   3.754  1.00  0.00     0.029 A 
ATOM     34  C   UNL     1       9.758  -8.649   4.502  1.00  0.00     0.049 A 
ATOM     35  H   UNL     1       8.390  -7.158   3.902  1.00  0.00     0.167 HD
ATOM     36  C   UNL     1       9.394  -7.308   6.557  1.00  0.00     0.074 A 
ATOM     37  C   UNL     1       9.626  -7.007   7.955  1.00  0.00     0.031 C 
ATOM     38  C   UNL     1       9.966  -8.342   5.894  1.00  0.00     0.037 A 
BRANCH  25  39
ATOM     39  C   UNL     1       8.406  -8.730  -0.075  1.00  0.00     0.058 A 
ATOM     40  C   UNL     1       9.148  -8.177  -1.130  1.00  0.00     0.135 A 
ATOM     41  C   UNL     1       7.886 -10.024  -0.250  1.00  0.00     0.135 A 
ATOM     42  F   UNL     1       9.654  -6.938  -1.023  1.00  0.00    -0.206 F 
ATOM     43  C   UNL     1       9.362  -8.875  -2.315  1.00  0.00     0.059 A 
ATOM     44  C   UNL     1       8.106 -10.749  -1.418  1.00  0.00     0.059 A 
ATOM     45  F   UNL     1       7.168 -10.601   0.726  1.00  0.00    -0.206 F 
ATOM     46  C   UNL     1       8.839 -10.163  -2.449  1.00  0.00     0.060 A 
BRANCH  46  47
ATOM     47  S   UNL     1       9.152 -11.067  -3.981  1.00  0.00     0.124 S 
ATOM     48  O   UNL     1       8.280 -10.364  -4.916  1.00  0.00    -0.237 OA
ATOM     49  O   UNL     1      10.584 -10.864  -4.176  1.00  0.00    -0.237 OA
ATOM     50  O   UNL     1       8.754 -12.433  -3.658  1.00  0.00    -0.744 OA
ENDBRANCH  46  47
ENDBRANCH  25  39
BRANCH  26  51
ATOM     51  C   UNL     1       7.052  -3.699   8.468  1.00  0.00     0.058 A 
ATOM     52  C   UNL     1       8.063  -2.918   9.045  1.00  0.00     0.135 A 
ATOM     53  C   UNL     1       5.813  -3.757   9.127  1.00  0.00     0.135 A 
ATOM     54  F   UNL     1       9.264  -2.831   8.453  1.00  0.00    -0.206 F 
ATOM     55  C   UNL     1       7.863  -2.239  10.243  1.00  0.00     0.059 A 
ATOM     56  C   UNL     1       5.579  -3.063  10.307  1.00  0.00     0.059 A 
ATOM     57  F   UNL     1       4.805  -4.473   8.604  1.00  0.00    -0.206 F 
ATOM     58  C   UNL     1       6.617  -2.320  10.867  1.00  0.00     0.060 A 
BRANCH  58  59
ATOM     59  S   UNL     1       6.348  -1.410  12.403  1.00  0.00     0.124 S 
ATOM     60  O   UNL     1       7.019  -2.270  13.371  1.00  0.00    -0.237 OA
ATOM     61  O   UNL     1       6.997  -0.132  12.125  1.00  0.00    -0.237 OA
ATOM     62  O   UNL     1       4.893  -1.354  12.506  1.00  0.00    -0.744 OA
ENDBRANCH  58  59
ENDBRANCH  26  51
BRANCH  38  63
ATOM     63  C   UNL     1      10.900  -9.214   6.684  1.00  0.00     0.058 A 
ATOM     64  C   UNL     1      10.421 -10.107   7.655  1.00  0.00     0.135 A 
ATOM     65  C   UNL     1      12.286  -9.153   6.471  1.00  0.00     0.135 A 
ATOM     66  F   UNL     1       9.105 -10.195   7.901  1.00  0.00    -0.206 F 
ATOM     67  C   UNL     1      11.288 -10.881   8.419  1.00  0.00     0.059 A 
ATOM     68  C   UNL     1      13.170  -9.938   7.205  1.00  0.00     0.059 A 
ATOM     69  F   UNL     1      12.793  -8.323   5.547  1.00  0.00    -0.206 F 
ATOM     70  C   UNL     1      12.662 -10.784   8.190  1.00  0.00     0.060 A 
BRANCH  70  71
ATOM     71  S   UNL     1      13.779 -11.788   9.191  1.00  0.00     0.124 S 
ATOM     72  O   UNL     1      13.785 -11.052  10.451  1.00  0.00    -0.237 OA
ATOM     73  O   UNL     1      13.104 -13.082   9.216  1.00  0.00    -0.237 OA
ATOM     74  O   UNL     1      15.030 -11.755   8.438  1.00  0.00    -0.744 OA
ENDBRANCH  70  71
ENDBRANCH  38  63
ENDBRANCH  12  13
ENDBRANCH   5   7
ENDBRANCH   2   3
ENDBRANCH   1   2
BRANCH   1  75
ATOM     75  C   UNL     1       4.567   2.227  -3.220  1.00  0.00     0.118 C 
BRANCH  75  76
ATOM     76  N   UNL     1       4.921   3.604  -2.893  1.00  0.00    -0.352 N 
ATOM     77  C   UNL     1       5.457   4.582  -3.700  1.00  0.00     0.255 C 
ATOM     78  H   UNL     1       4.752   3.873  -1.961  1.00  0.00     0.163 HD
ATOM     79  O   UNL     1       5.712   5.695  -3.247  1.00  0.00    -0.269 OA
BRANCH  77  80
ATOM     80  C   UNL     1       5.867   4.250  -5.081  1.00  0.00     0.087 A 
ATOM     81  C   UNL     1       7.229   4.417  -5.377  1.00  0.00     0.040 A 
ATOM     82  C   UNL     1       5.002   3.658  -6.003  1.00  0.00     0.174 A 
ATOM     83  C   UNL     1       7.772   3.799  -6.494  1.00  0.00     0.092 A 
ATOM     84  C   UNL     1       5.535   3.116  -7.173  1.00  0.00     0.163 A 
ATOM     85  O   UNL     1       3.662   3.605  -5.712  1.00  0.00    -0.485 OA
ATOM     86  C   UNL     1       6.914   3.145  -7.395  1.00  0.00     0.072 A 
ATOM     87  O   UNL     1       4.777   2.480  -8.121  1.00  0.00    -0.486 OA
ATOM     88  C   UNL     1       2.999   2.587  -6.469  1.00  0.00     0.271 C 
ATOM     89  C   UNL     1       3.374   2.705  -7.933  1.00  0.00     0.271 C 
BRANCH  83  90
ATOM     90  S   UNL     1       9.512   3.655  -6.841  1.00  0.00     0.262 S 
ATOM     91  O   UNL     1       9.759   2.239  -7.037  1.00  0.00    -0.201 OA
ATOM     92  O   UNL     1       9.770   4.600  -7.905  1.00  0.00    -0.201 OA
BRANCH  90  93
ATOM     93  N   UNL     1      10.531   4.146  -5.599  1.00  0.00    -0.277 N 
ATOM     94  H   UNL     1      11.477   4.301  -5.826  1.00  0.00     0.180 HD
BRANCH  93  95
ATOM     95  C   UNL     1      10.142   4.359  -4.248  1.00  0.00     0.087 A 
ATOM     96  C   UNL     1       9.574   3.373  -3.447  1.00  0.00     0.069 A 
ATOM     97  C   UNL     1      10.300   5.661  -3.743  1.00  0.00     0.147 A 
ATOM     98  C   UNL     1       9.098   3.734  -2.184  1.00  0.00     0.125 A 
ATOM     99  C   UNL     1       9.834   6.012  -2.484  1.00  0.00     0.044 A 
ATOM    100  F   UNL     1      10.862   6.601  -4.519  1.00  0.00    -0.205 F 
ATOM    101  F   UNL     1       8.478   2.818  -1.429  1.00  0.00    -0.207 F 
ATOM    102  C   UNL     1       9.211   5.041  -1.704  1.00  0.00     0.042 A 
ENDBRANCH  93  95
ENDBRANCH  90  93
ENDBRANCH  83  90
ENDBRANCH  77  80
ENDBRANCH  75  76
ENDBRANCH   1  75
TORSDOF 16
