REMARK SMILES Cc1cccc([C@@H](CC(=O)NCCCNC(=O)c2ccc(-c3c4nc(c(-c5c(F)cc(S(=O)(=O)[O-])cc5F)c5ccc([nH]5)c(-c5c(F)cc(S(=O)(=O)[O-])cc5F)c5nc(c(-c6c(F)cc(S(=O)(=O)[O-])cc6F)c6ccc3[nH]6)C=C5)C=C4)cc2)NC(=O)OC(C)(C)C)c1
REMARK SMILES IDX 12 1 11 2 9 3 10 4 8 6 7 7 6 8 1 9 2 10 3 11 92 12 4 13 5 14
REMARK SMILES IDX 84 15 85 16 86 18 87 19 88 20 89 21 90 22 91 23 13 24 14 25
REMARK SMILES IDX 15 26 16 27 17 29 18 30 19 31 83 32 20 33 82 34 21 35 22 36
REMARK SMILES IDX 23 37 76 38 24 39 81 40 75 41 77 42 25 43 80 44 74 45 73 46
REMARK SMILES IDX 26 48 60 49 39 50 59 51 40 52 43 53 58 54 78 55 41 56 42 57
REMARK SMILES IDX 57 59 79 60 44 61 27 62 28 63 37 64 29 65 30 66 36 67 38 68
REMARK SMILES IDX 31 69 32 70 33 71 34 72 35 73 61 74 62 75 71 76 63 77 64 78
REMARK SMILES IDX 70 79 72 80 65 81 66 82 67 83 68 84 69 85 45 86 46 87 55 88
REMARK SMILES IDX 47 89 48 90 54 91 56 92 49 93 50 94 51 95 52 96 53 97
REMARK H PARENT 11 5 84 17 15 28 77 47 43 58
REMARK Flexibility Score: inf
ROOT
ATOM      1  C   UNL     1      -2.522  -0.332  -2.345  1.00  0.00     0.117 C 
ENDROOT
BRANCH   1   2
ATOM      2  N   UNL     1      -3.640   0.528  -1.984  1.00  0.00    -0.356 N 
ATOM      3  C   UNL     1      -3.605   1.697  -1.282  1.00  0.00     0.222 C 
ATOM      4  O   UNL     1      -4.654   2.105  -0.778  1.00  0.00    -0.275 OA
ATOM      5  H   UNL     1      -4.529   0.229  -2.283  1.00  0.00     0.163 HD
BRANCH   3   6
ATOM      6  C   UNL     1      -2.326   2.509  -1.181  1.00  0.00     0.130 C 
BRANCH   6   7
ATOM      7  C   UNL     1      -1.691   2.634   0.218  1.00  0.00     0.125 C 
BRANCH   7   8
ATOM      8  C   UNL     1      -0.715   1.521   0.592  1.00  0.00    -0.025 A 
ATOM      9  C   UNL     1       2.824   0.403  -0.367  1.00  0.00     0.044 C 
ATOM     10  C   UNL     1       1.465   0.440   0.269  1.00  0.00    -0.051 A 
ATOM     11  C   UNL     1       1.060  -0.613   1.093  1.00  0.00     0.003 A 
ATOM     12  C   UNL     1       0.565   1.485   0.002  1.00  0.00     0.009 A 
ATOM     13  C   UNL     1      -0.178  -0.568   1.728  1.00  0.00     0.001 A 
ATOM     14  C   UNL     1      -1.047   0.504   1.503  1.00  0.00     0.006 A 
ENDBRANCH   7   8
BRANCH   7  15
ATOM     15  N   UNL     1      -2.673   2.873   1.261  1.00  0.00    -0.314 N 
ATOM     16  C   UNL     1      -2.593   3.783   2.271  1.00  0.00     0.408 C 
ATOM     17  H   UNL     1      -3.486   2.318   1.234  1.00  0.00     0.167 HD
ATOM     18  O   UNL     1      -3.397   3.796   3.182  1.00  0.00    -0.225 OA
BRANCH  16  19
ATOM     19  O   UNL     1      -1.560   4.646   2.106  1.00  0.00    -0.444 OA
BRANCH  19  20
ATOM     20  C   UNL     1      -1.345   5.717   3.054  1.00  0.00     0.106 C 
ATOM     21  C   UNL     1      -2.564   6.643   3.150  1.00  0.00     0.056 C 
ATOM     22  C   UNL     1      -0.929   5.158   4.417  1.00  0.00     0.056 C 
ATOM     23  C   UNL     1      -0.174   6.522   2.470  1.00  0.00     0.056 C 
ENDBRANCH  19  20
ENDBRANCH  16  19
ENDBRANCH   7  15
ENDBRANCH   6   7
ENDBRANCH   3   6
ENDBRANCH   1   2
BRANCH   1  24
ATOM     24  C   UNL     1      -2.040  -1.070  -1.111  1.00  0.00     0.042 C 
BRANCH  24  25
ATOM     25  C   UNL     1      -2.321  -2.562  -1.074  1.00  0.00     0.118 C 
BRANCH  25  26
ATOM     26  N   UNL     1      -1.052  -3.283  -1.139  1.00  0.00    -0.352 N 
ATOM     27  C   UNL     1      -0.459  -4.150  -0.245  1.00  0.00     0.251 C 
ATOM     28  H   UNL     1      -0.532  -3.123  -1.960  1.00  0.00     0.163 HD
ATOM     29  O   UNL     1       0.747  -4.325  -0.146  1.00  0.00    -0.269 OA
BRANCH  27  30
ATOM     30  C   UNL     1      -1.389  -4.987   0.525  1.00  0.00     0.039 A 
ATOM     31  C   UNL     1      -1.822  -6.140  -0.152  1.00  0.00     0.014 A 
ATOM     32  C   UNL     1      -2.166  -4.335   1.472  1.00  0.00     0.014 A 
ATOM     33  C   UNL     1      -3.163  -6.465  -0.118  1.00  0.00     0.010 A 
ATOM     34  C   UNL     1      -3.510  -4.604   1.434  1.00  0.00     0.010 A 
ATOM     35  C   UNL     1      -4.001  -5.602   0.570  1.00  0.00    -0.014 A 
BRANCH  35  36
ATOM     36  C   UNL     1      -5.442  -5.649   0.496  1.00  0.00     0.031 A 
ATOM     37  C   UNL     1      -6.116  -6.254   1.650  1.00  0.00     0.074 A 
ATOM     38  C   UNL     1      -6.068  -4.944  -0.471  1.00  0.00     0.049 A 
ATOM     39  N   UNL     1      -7.364  -6.528   1.703  1.00  0.00    -0.248 NA
ATOM     40  C   UNL     1      -5.389  -6.644   2.858  1.00  0.00     0.031 C 
ATOM     41  C   UNL     1      -7.455  -4.500  -0.513  1.00  0.00     0.029 A 
ATOM     42  N   UNL     1      -5.578  -4.642  -1.749  1.00  0.00    -0.354 N 
ATOM     43  C   UNL     1      -7.666  -6.807   3.019  1.00  0.00     0.074 A 
ATOM     44  C   UNL     1      -6.393  -6.988   3.664  1.00  0.00     0.031 C 
ATOM     45  C   UNL     1      -7.799  -4.270  -1.793  1.00  0.00     0.029 A 
ATOM     46  C   UNL     1      -6.689  -4.715  -2.621  1.00  0.00     0.049 A 
ATOM     47  H   UNL     1      -4.649  -4.423  -1.991  1.00  0.00     0.167 HD
ATOM     48  C   UNL     1      -8.968  -6.691   3.399  1.00  0.00     0.037 A 
ATOM     49  C   UNL     1      -6.753  -5.739  -3.527  1.00  0.00     0.037 A 
ATOM     50  C   UNL     1      -9.806  -6.514   2.207  1.00  0.00     0.049 A 
ATOM     51  C   UNL     1      -7.830  -6.764  -3.206  1.00  0.00     0.074 A 
ATOM     52  C   UNL     1     -10.344  -5.418   1.553  1.00  0.00     0.029 A 
ATOM     53  N   UNL     1      -9.857  -7.556   1.301  1.00  0.00    -0.354 N 
ATOM     54  N   UNL     1      -8.549  -6.753  -2.114  1.00  0.00    -0.248 NA
ATOM     55  C   UNL     1      -8.164  -7.899  -4.066  1.00  0.00     0.031 C 
ATOM     56  C   UNL     1     -10.621  -5.809   0.204  1.00  0.00     0.029 A 
ATOM     57  C   UNL     1     -10.277  -7.143   0.054  1.00  0.00     0.049 A 
ATOM     58  H   UNL     1      -9.620  -8.486   1.520  1.00  0.00     0.167 HD
ATOM     59  C   UNL     1      -9.382  -7.838  -2.087  1.00  0.00     0.074 A 
ATOM     60  C   UNL     1      -9.093  -8.536  -3.329  1.00  0.00     0.031 C 
ATOM     61  C   UNL     1     -10.235  -8.097  -1.050  1.00  0.00     0.037 A 
BRANCH  48  62
ATOM     62  C   UNL     1      -9.481  -6.527   4.814  1.00  0.00     0.058 A 
ATOM     63  C   UNL     1     -10.811  -6.095   5.012  1.00  0.00     0.135 A 
ATOM     64  C   UNL     1      -8.743  -6.692   6.007  1.00  0.00     0.135 A 
ATOM     65  F   UNL     1     -11.655  -5.931   3.983  1.00  0.00    -0.206 F 
ATOM     66  C   UNL     1     -11.341  -5.798   6.267  1.00  0.00     0.059 A 
ATOM     67  C   UNL     1      -9.248  -6.391   7.275  1.00  0.00     0.059 A 
ATOM     68  F   UNL     1      -7.498  -7.170   6.025  1.00  0.00    -0.206 F 
ATOM     69  C   UNL     1     -10.547  -5.935   7.396  1.00  0.00     0.060 A 
BRANCH  69  70
ATOM     70  S   UNL     1     -11.245  -5.532   9.003  1.00  0.00     0.124 S 
ATOM     71  O   UNL     1     -11.561  -4.116   8.848  1.00  0.00    -0.237 OA
ATOM     72  O   UNL     1     -12.388  -6.437   9.072  1.00  0.00    -0.237 OA
ATOM     73  O   UNL     1     -10.158  -5.829   9.932  1.00  0.00    -0.744 OA
ENDBRANCH  69  70
ENDBRANCH  48  62
BRANCH  49  74
ATOM     74  C   UNL     1      -5.411  -6.004  -4.137  1.00  0.00     0.058 A 
ATOM     75  C   UNL     1      -4.842  -4.973  -4.917  1.00  0.00     0.135 A 
ATOM     76  C   UNL     1      -4.533  -6.951  -3.591  1.00  0.00     0.135 A 
ATOM     77  F   UNL     1      -5.632  -4.041  -5.476  1.00  0.00    -0.206 F 
ATOM     78  C   UNL     1      -3.464  -4.788  -5.006  1.00  0.00     0.059 A 
ATOM     79  C   UNL     1      -3.145  -6.789  -3.678  1.00  0.00     0.059 A 
ATOM     80  F   UNL     1      -5.008  -7.958  -2.843  1.00  0.00    -0.206 F 
ATOM     81  C   UNL     1      -2.624  -5.673  -4.337  1.00  0.00     0.060 A 
BRANCH  81  82
ATOM     82  S   UNL     1      -0.869  -5.245  -4.208  1.00  0.00     0.124 S 
ATOM     83  O   UNL     1      -0.397  -5.501  -5.563  1.00  0.00    -0.237 OA
ATOM     84  O   UNL     1      -0.916  -3.835  -3.815  1.00  0.00    -0.237 OA
ATOM     85  O   UNL     1      -0.379  -6.158  -3.183  1.00  0.00    -0.744 OA
ENDBRANCH  81  82
ENDBRANCH  49  74
BRANCH  61  86
ATOM     86  C   UNL     1     -11.124  -9.309  -1.005  1.00  0.00     0.058 A 
ATOM     87  C   UNL     1     -11.934  -9.677  -2.088  1.00  0.00     0.135 A 
ATOM     88  C   UNL     1     -11.277 -10.076   0.173  1.00  0.00     0.135 A 
ATOM     89  F   UNL     1     -11.914  -8.972  -3.231  1.00  0.00    -0.206 F 
ATOM     90  C   UNL     1     -12.792 -10.775  -2.029  1.00  0.00     0.059 A 
ATOM     91  C   UNL     1     -12.181 -11.124   0.281  1.00  0.00     0.059 A 
ATOM     92  F   UNL     1     -10.517  -9.862   1.258  1.00  0.00    -0.206 F 
ATOM     93  C   UNL     1     -12.908 -11.491  -0.840  1.00  0.00     0.060 A 
BRANCH  93  94
ATOM     94  S   UNL     1     -14.006 -12.915  -0.764  1.00  0.00     0.124 S 
ATOM     95  O   UNL     1     -15.166 -12.461  -1.526  1.00  0.00    -0.237 OA
ATOM     96  O   UNL     1     -13.189 -13.940  -1.407  1.00  0.00    -0.237 OA
ATOM     97  O   UNL     1     -14.233 -13.095   0.666  1.00  0.00    -0.744 OA
ENDBRANCH  93  94
ENDBRANCH  61  86
ENDBRANCH  35  36
ENDBRANCH  27  30
ENDBRANCH  25  26
ENDBRANCH  24  25
ENDBRANCH   1  24
TORSDOF 18
