REMARK SMILES CC[NH2+]C(C)(C)C(=O)N[C@@](C)(C(=O)NCCCNC(=O)c1ccc(-c2c3nc(c(-c4c(F)cc(S(=O)(=O)[O-])cc4F)c4ccc([nH]4)c(-c4c(F)cc(S(=O)(=O)[O-])cc4F)c4nc(c(-c5c(F)cc(S(=O)(=O)[O-])cc5F)c5ccc2[nH]5)C=C4)C=C3)cc1)C(F)(F)F
REMARK SMILES IDX 15 1 14 2 12 3 13 4 10 6 11 7 9 8 7 9 8 10 4 12 5 13 6 14
REMARK SMILES IDX 3 15 2 18 1 19 87 20 88 21 89 22 90 23 16 24 17 25 18 26
REMARK SMILES IDX 19 27 20 29 21 30 22 31 86 32 23 33 85 34 24 35 25 36 26 37
REMARK SMILES IDX 79 38 27 39 84 40 78 41 80 42 28 43 83 44 77 45 76 46 29 48
REMARK SMILES IDX 63 49 42 50 62 51 43 52 46 53 61 54 81 55 44 56 45 57 60 59
REMARK SMILES IDX 82 60 47 61 30 62 31 63 40 64 32 65 33 66 39 67 41 68 34 69
REMARK SMILES IDX 35 70 36 71 37 72 38 73 64 74 65 75 74 76 66 77 67 78 73 79
REMARK SMILES IDX 75 80 68 81 69 82 70 83 71 84 72 85 48 86 49 87 58 88 50 89
REMARK SMILES IDX 51 90 57 91 59 92 52 93 53 94 54 95 55 96 56 97
REMARK H PARENT 14 5 9 11 3 16 3 17 18 28 80 47 46 58
REMARK Flexibility Score: inf
ROOT
ATOM      1  C   UNL     1      -3.861   6.514  -2.589  1.00  0.00     0.117 C 
ENDROOT
BRANCH   1   2
ATOM      2  N   UNL     1      -2.711   7.076  -1.898  1.00  0.00    -0.354 N 
ATOM      3  C   UNL     1      -1.362   6.920  -2.020  1.00  0.00     0.254 C 
ATOM      4  O   UNL     1      -0.695   7.595  -1.230  1.00  0.00    -0.272 OA
ATOM      5  H   UNL     1      -2.962   7.707  -1.185  1.00  0.00     0.163 HD
BRANCH   3   6
ATOM      6  C   UNL     1      -0.707   5.948  -3.029  1.00  0.00     0.212 C 
ATOM      7  C   UNL     1      -1.193   6.197  -4.476  1.00  0.00     0.056 C 
BRANCH   6   8
ATOM      8  N   UNL     1      -1.187   4.564  -2.615  1.00  0.00    -0.329 N 
ATOM      9  C   UNL     1      -0.781   3.394  -2.049  1.00  0.00     0.281 C 
ATOM     10  O   UNL     1      -1.725   2.654  -1.743  1.00  0.00    -0.268 OA
ATOM     11  H   UNL     1      -2.142   4.486  -2.839  1.00  0.00     0.165 HD
BRANCH   9  12
ATOM     12  C   UNL     1       0.700   2.986  -1.831  1.00  0.00     0.169 C 
ATOM     13  C   UNL     1       1.335   3.905  -0.781  1.00  0.00     0.090 C 
ATOM     14  C   UNL     1       1.382   3.045  -3.216  1.00  0.00     0.090 C 
BRANCH  12  15
ATOM     15  N   UNL     1       0.901   1.554  -1.457  1.00  0.00    -0.334 N 
ATOM     16  H   UNL     1       0.491   0.990  -2.202  1.00  0.00     0.347 HD
ATOM     17  H   UNL     1       1.909   1.473  -1.329  1.00  0.00     0.347 HD
BRANCH  15  18
ATOM     18  C   UNL     1       0.345   1.070  -0.197  1.00  0.00     0.257 C 
ATOM     19  C   UNL     1       0.861  -0.348   0.042  1.00  0.00     0.071 C 
ENDBRANCH  15  18
ENDBRANCH  12  15
ENDBRANCH   9  12
ENDBRANCH   6   8
BRANCH   6  20
ATOM     20  C   UNL     1       0.793   6.380  -3.070  1.00  0.00     0.420 C 
ATOM     21  F   UNL     1       1.475   6.250  -1.922  1.00  0.00    -0.168 F 
ATOM     22  F   UNL     1       1.485   5.694  -4.014  1.00  0.00    -0.168 F 
ATOM     23  F   UNL     1       0.908   7.685  -3.446  1.00  0.00    -0.168 F 
ENDBRANCH   6  20
ENDBRANCH   3   6
ENDBRANCH   1   2
BRANCH   1  24
ATOM     24  C   UNL     1      -4.865   5.888  -1.634  1.00  0.00     0.042 C 
BRANCH  24  25
ATOM     25  C   UNL     1      -5.484   6.861  -0.643  1.00  0.00     0.118 C 
BRANCH  25  26
ATOM     26  N   UNL     1      -6.202   7.950  -1.292  1.00  0.00    -0.352 N 
ATOM     27  C   UNL     1      -7.523   8.309  -1.203  1.00  0.00     0.251 C 
ATOM     28  H   UNL     1      -5.655   8.514  -1.885  1.00  0.00     0.163 HD
ATOM     29  O   UNL     1      -7.970   9.148  -1.987  1.00  0.00    -0.269 OA
BRANCH  27  30
ATOM     30  C   UNL     1      -8.406   7.690  -0.193  1.00  0.00     0.039 A 
ATOM     31  C   UNL     1      -9.726   7.387  -0.539  1.00  0.00     0.014 A 
ATOM     32  C   UNL     1      -7.949   7.428   1.101  1.00  0.00     0.014 A 
ATOM     33  C   UNL     1     -10.566   6.780   0.398  1.00  0.00     0.010 A 
ATOM     34  C   UNL     1      -8.751   6.728   1.995  1.00  0.00     0.010 A 
ATOM     35  C   UNL     1     -10.077   6.421   1.665  1.00  0.00    -0.014 A 
BRANCH  35  36
ATOM     36  C   UNL     1     -10.951   5.768   2.673  1.00  0.00     0.031 A 
ATOM     37  C   UNL     1     -11.225   6.454   3.986  1.00  0.00     0.074 A 
ATOM     38  C   UNL     1     -11.450   4.540   2.434  1.00  0.00     0.049 A 
ATOM     39  N   UNL     1     -11.917   6.029   5.012  1.00  0.00    -0.248 NA
ATOM     40  C   UNL     1     -10.610   7.776   4.186  1.00  0.00     0.031 C 
ATOM     41  C   UNL     1     -11.199   3.745   1.230  1.00  0.00     0.029 A 
ATOM     42  N   UNL     1     -12.262   3.741   3.197  1.00  0.00    -0.354 N 
ATOM     43  C   UNL     1     -11.810   7.024   5.978  1.00  0.00     0.074 A 
ATOM     44  C   UNL     1     -10.923   8.034   5.446  1.00  0.00     0.031 C 
ATOM     45  C   UNL     1     -11.861   2.581   1.327  1.00  0.00     0.029 A 
ATOM     46  C   UNL     1     -12.554   2.532   2.611  1.00  0.00     0.049 A 
ATOM     47  H   UNL     1     -12.604   4.007   4.081  1.00  0.00     0.167 HD
ATOM     48  C   UNL     1     -12.421   7.108   7.184  1.00  0.00     0.037 A 
ATOM     49  C   UNL     1     -13.294   1.499   3.059  1.00  0.00     0.037 A 
ATOM     50  C   UNL     1     -13.315   6.105   7.700  1.00  0.00     0.049 A 
ATOM     51  C   UNL     1     -13.983   1.617   4.390  1.00  0.00     0.074 A 
ATOM     52  C   UNL     1     -14.022   6.109   8.889  1.00  0.00     0.029 A 
ATOM     53  N   UNL     1     -13.623   4.914   7.056  1.00  0.00    -0.354 N 
ATOM     54  N   UNL     1     -13.925   2.595   5.264  1.00  0.00    -0.248 NA
ATOM     55  C   UNL     1     -14.851   0.502   4.790  1.00  0.00     0.031 C 
ATOM     56  C   UNL     1     -14.724   4.902   8.983  1.00  0.00     0.029 A 
ATOM     57  C   UNL     1     -14.499   4.170   7.828  1.00  0.00     0.049 A 
ATOM     58  H   UNL     1     -13.269   4.639   6.179  1.00  0.00     0.167 HD
ATOM     59  C   UNL     1     -14.769   2.225   6.306  1.00  0.00     0.074 A 
ATOM     60  C   UNL     1     -15.334   0.940   5.945  1.00  0.00     0.031 C 
ATOM     61  C   UNL     1     -15.053   2.890   7.454  1.00  0.00     0.037 A 
BRANCH  48  62
ATOM     62  C   UNL     1     -12.136   8.332   8.016  1.00  0.00     0.058 A 
ATOM     63  C   UNL     1     -12.567   9.610   7.619  1.00  0.00     0.135 A 
ATOM     64  C   UNL     1     -11.413   8.233   9.215  1.00  0.00     0.135 A 
ATOM     65  F   UNL     1     -13.251   9.768   6.474  1.00  0.00    -0.206 F 
ATOM     66  C   UNL     1     -12.243  10.749   8.348  1.00  0.00     0.059 A 
ATOM     67  C   UNL     1     -11.107   9.357   9.980  1.00  0.00     0.059 A 
ATOM     68  F   UNL     1     -10.979   7.039   9.648  1.00  0.00    -0.206 F 
ATOM     69  C   UNL     1     -11.505  10.613   9.524  1.00  0.00     0.060 A 
BRANCH  69  70
ATOM     70  S   UNL     1     -11.061  12.103  10.440  1.00  0.00     0.124 S 
ATOM     71  O   UNL     1     -10.017  12.666   9.589  1.00  0.00    -0.237 OA
ATOM     72  O   UNL     1     -12.320  12.840  10.468  1.00  0.00    -0.237 OA
ATOM     73  O   UNL     1     -10.610  11.588  11.729  1.00  0.00    -0.744 OA
ENDBRANCH  69  70
ENDBRANCH  48  62
BRANCH  49  74
ATOM     74  C   UNL     1     -13.440   0.284   2.214  1.00  0.00     0.058 A 
ATOM     75  C   UNL     1     -14.646  -0.004   1.558  1.00  0.00     0.135 A 
ATOM     76  C   UNL     1     -12.357  -0.583   2.001  1.00  0.00     0.135 A 
ATOM     77  F   UNL     1     -15.711   0.792   1.734  1.00  0.00    -0.206 F 
ATOM     78  C   UNL     1     -14.775  -1.110   0.725  1.00  0.00     0.059 A 
ATOM     79  C   UNL     1     -12.454  -1.681   1.152  1.00  0.00     0.059 A 
ATOM     80  F   UNL     1     -11.175  -0.340   2.590  1.00  0.00    -0.206 F 
ATOM     81  C   UNL     1     -13.670  -1.938   0.520  1.00  0.00     0.060 A 
BRANCH  81  82
ATOM     82  S   UNL     1     -13.827  -3.323  -0.629  1.00  0.00     0.124 S 
ATOM     83  O   UNL     1     -14.667  -4.242   0.130  1.00  0.00    -0.237 OA
ATOM     84  O   UNL     1     -14.454  -2.690  -1.785  1.00  0.00    -0.237 OA
ATOM     85  O   UNL     1     -12.445  -3.749  -0.831  1.00  0.00    -0.744 OA
ENDBRANCH  81  82
ENDBRANCH  49  74
BRANCH  61  86
ATOM     86  C   UNL     1     -16.046   2.258   8.391  1.00  0.00     0.058 A 
ATOM     87  C   UNL     1     -15.735   1.113   9.140  1.00  0.00     0.135 A 
ATOM     88  C   UNL     1     -17.315   2.834   8.571  1.00  0.00     0.135 A 
ATOM     89  F   UNL     1     -14.538   0.520   9.005  1.00  0.00    -0.206 F 
ATOM     90  C   UNL     1     -16.658   0.541  10.011  1.00  0.00     0.059 A 
ATOM     91  C   UNL     1     -18.242   2.297   9.458  1.00  0.00     0.059 A 
ATOM     92  F   UNL     1     -17.659   3.938   7.889  1.00  0.00    -0.206 F 
ATOM     93  C   UNL     1     -17.910   1.141  10.162  1.00  0.00     0.060 A 
BRANCH  93  94
ATOM     94  S   UNL     1     -19.093   0.400  11.306  1.00  0.00     0.124 S 
ATOM     95  O   UNL     1     -19.517  -0.783  10.565  1.00  0.00    -0.237 OA
ATOM     96  O   UNL     1     -18.271   0.148  12.486  1.00  0.00    -0.237 OA
ATOM     97  O   UNL     1     -20.107   1.438  11.466  1.00  0.00    -0.744 OA
ENDBRANCH  93  94
ENDBRANCH  61  86
ENDBRANCH  35  36
ENDBRANCH  27  30
ENDBRANCH  25  26
ENDBRANCH  24  25
ENDBRANCH   1  24
TORSDOF 18
