REMARK SMILES O=C(NCCCNC(=O)[C@H]1[C@@H](C(=O)Nc2ccccc2-c2ccccc2)[C@@H]2C=C[C@H]1O2)c1ccc(-c2c3nc(c(-c4c(F)cc(S(=O)(=O)[O-])cc4F)c4ccc([nH]4)c(-c4c(F)cc(S(=O)(=O)[O-])cc4F)c4nc(c(-c5c(F)cc(S(=O)(=O)[O-])cc5F)c5ccc2[nH]5)C=C4)C=C3)cc1
REMARK SMILES IDX 5 1 4 2 3 3 1 4 2 5 32 7 33 8 97 9 34 10 96 11 35 12 36 13
REMARK SMILES IDX 37 14 90 15 38 16 95 17 89 18 91 19 39 20 94 21 88 22 87 23
REMARK SMILES IDX 40 25 74 26 53 27 73 28 54 29 57 30 72 31 92 32 55 33 56 34
REMARK SMILES IDX 71 36 93 37 58 38 41 39 42 40 51 41 43 42 44 43 50 44 52 45
REMARK SMILES IDX 45 46 46 47 47 48 48 49 49 50 75 51 76 52 85 53 77 54 78 55
REMARK SMILES IDX 84 56 86 57 79 58 80 59 81 60 82 61 83 62 59 63 60 64 69 65
REMARK SMILES IDX 61 66 62 67 68 68 70 69 63 70 64 71 65 72 66 73 67 74 6 75
REMARK SMILES IDX 7 76 8 77 9 79 10 80 11 81 30 82 27 83 29 84 31 85 28 86
REMARK SMILES IDX 12 87 13 88 14 89 15 91 16 92 20 93 17 94 19 95 18 96 21 97
REMARK SMILES IDX 22 98 26 99 23 100 25 101 24 102
REMARK H PARENT 3 6 91 24 57 35 7 78 14 90
REMARK Flexibility Score: inf
ROOT
ATOM      1  C   UNL     1       2.477   1.356   3.937  1.00  0.00     0.042 C 
ENDROOT
BRANCH   1   2
ATOM      2  C   UNL     1       1.330   2.143   4.548  1.00  0.00     0.118 C 
BRANCH   2   3
ATOM      3  N   UNL     1       1.381   3.570   4.250  1.00  0.00    -0.352 N 
ATOM      4  O   UNL     1       0.913   5.499   3.181  1.00  0.00    -0.269 OA
ATOM      5  C   UNL     1       0.617   4.334   3.394  1.00  0.00     0.251 C 
ATOM      6  H   UNL     1       2.074   4.069   4.740  1.00  0.00     0.163 HD
BRANCH   5   7
ATOM      7  C   UNL     1      -0.541   3.721   2.709  1.00  0.00     0.039 A 
ATOM      8  C   UNL     1      -1.394   2.865   3.401  1.00  0.00     0.014 A 
ATOM      9  C   UNL     1      -0.762   3.984   1.355  1.00  0.00     0.014 A 
ATOM     10  C   UNL     1      -2.308   2.096   2.702  1.00  0.00     0.010 A 
ATOM     11  C   UNL     1      -1.790   3.318   0.680  1.00  0.00     0.010 A 
ATOM     12  C   UNL     1      -2.542   2.334   1.339  1.00  0.00    -0.014 A 
BRANCH  12  13
ATOM     13  C   UNL     1      -3.634   1.585   0.666  1.00  0.00     0.031 A 
ATOM     14  C   UNL     1      -3.364   0.689  -0.510  1.00  0.00     0.074 A 
ATOM     15  C   UNL     1      -4.880   1.695   1.169  1.00  0.00     0.049 A 
ATOM     16  N   UNL     1      -4.208  -0.037  -1.197  1.00  0.00    -0.248 NA
ATOM     17  C   UNL     1      -1.975   0.603  -0.989  1.00  0.00     0.031 C 
ATOM     18  C   UNL     1      -5.257   2.553   2.298  1.00  0.00     0.029 A 
ATOM     19  N   UNL     1      -6.050   1.073   0.826  1.00  0.00    -0.354 N 
ATOM     20  C   UNL     1      -3.466  -0.637  -2.207  1.00  0.00     0.074 A 
ATOM     21  C   UNL     1      -2.101  -0.180  -2.052  1.00  0.00     0.031 C 
ATOM     22  C   UNL     1      -6.548   2.356   2.592  1.00  0.00     0.029 A 
ATOM     23  C   UNL     1      -7.113   1.428   1.622  1.00  0.00     0.049 A 
ATOM     24  H   UNL     1      -6.123   0.433   0.081  1.00  0.00     0.167 HD
ATOM     25  C   UNL     1      -3.888  -1.491  -3.171  1.00  0.00     0.037 A 
ATOM     26  C   UNL     1      -8.409   1.075   1.564  1.00  0.00     0.037 A 
ATOM     27  C   UNL     1      -5.247  -1.956  -3.295  1.00  0.00     0.049 A 
ATOM     28  C   UNL     1      -8.848   0.125   0.493  1.00  0.00     0.074 A 
ATOM     29  C   UNL     1      -5.771  -2.853  -4.209  1.00  0.00     0.029 A 
ATOM     30  N   UNL     1      -6.300  -1.558  -2.481  1.00  0.00    -0.354 N 
ATOM     31  N   UNL     1      -8.126  -0.449  -0.439  1.00  0.00    -0.248 NA
ATOM     32  C   UNL     1     -10.274  -0.220   0.458  1.00  0.00     0.031 C 
ATOM     33  C   UNL     1      -7.146  -2.966  -3.974  1.00  0.00     0.029 A 
ATOM     34  C   UNL     1      -7.473  -2.174  -2.885  1.00  0.00     0.049 A 
ATOM     35  H   UNL     1      -6.223  -0.930  -1.726  1.00  0.00     0.167 HD
ATOM     36  C   UNL     1      -9.009  -1.225  -1.176  1.00  0.00     0.074 A 
ATOM     37  C   UNL     1     -10.314  -1.066  -0.563  1.00  0.00     0.031 C 
ATOM     38  C   UNL     1      -8.763  -1.994  -2.265  1.00  0.00     0.037 A 
BRANCH  25  39
ATOM     39  C   UNL     1      -2.879  -1.954  -4.187  1.00  0.00     0.058 A 
ATOM     40  C   UNL     1      -1.863  -2.868  -3.864  1.00  0.00     0.135 A 
ATOM     41  C   UNL     1      -2.948  -1.498  -5.514  1.00  0.00     0.135 A 
ATOM     42  F   UNL     1      -1.742  -3.328  -2.609  1.00  0.00    -0.206 F 
ATOM     43  C   UNL     1      -0.933  -3.287  -4.811  1.00  0.00     0.059 A 
ATOM     44  C   UNL     1      -2.043  -1.922  -6.484  1.00  0.00     0.059 A 
ATOM     45  F   UNL     1      -3.900  -0.625  -5.880  1.00  0.00    -0.206 F 
ATOM     46  C   UNL     1      -1.028  -2.804  -6.118  1.00  0.00     0.060 A 
BRANCH  46  47
ATOM     47  S   UNL     1       0.195  -3.346  -7.332  1.00  0.00     0.124 S 
ATOM     48  O   UNL     1       1.368  -2.579  -6.924  1.00  0.00    -0.237 OA
ATOM     49  O   UNL     1       0.264  -4.783  -7.089  1.00  0.00    -0.237 OA
ATOM     50  O   UNL     1      -0.397  -2.957  -8.608  1.00  0.00    -0.744 OA
ENDBRANCH  46  47
ENDBRANCH  25  39
BRANCH  26  51
ATOM     51  C   UNL     1      -9.365   1.659   2.540  1.00  0.00     0.058 A 
ATOM     52  C   UNL     1      -9.916   0.885   3.569  1.00  0.00     0.135 A 
ATOM     53  C   UNL     1      -9.683   3.026   2.503  1.00  0.00     0.135 A 
ATOM     54  F   UNL     1      -9.640  -0.426   3.645  1.00  0.00    -0.206 F 
ATOM     55  C   UNL     1     -10.749   1.445   4.532  1.00  0.00     0.059 A 
ATOM     56  C   UNL     1     -10.491   3.615   3.470  1.00  0.00     0.059 A 
ATOM     57  F   UNL     1      -9.160   3.814   1.550  1.00  0.00    -0.206 F 
ATOM     58  C   UNL     1     -11.024   2.814   4.477  1.00  0.00     0.060 A 
BRANCH  58  59
ATOM     59  S   UNL     1     -12.039   3.550   5.777  1.00  0.00     0.124 S 
ATOM     60  O   UNL     1     -13.375   3.119   5.384  1.00  0.00    -0.237 OA
ATOM     61  O   UNL     1     -11.495   2.930   6.981  1.00  0.00    -0.237 OA
ATOM     62  O   UNL     1     -11.769   4.979   5.642  1.00  0.00    -0.744 OA
ENDBRANCH  58  59
ENDBRANCH  26  51
BRANCH  38  63
ATOM     63  C   UNL     1      -9.933  -2.728  -2.855  1.00  0.00     0.058 A 
ATOM     64  C   UNL     1     -10.914  -2.061  -3.604  1.00  0.00     0.135 A 
ATOM     65  C   UNL     1     -10.054  -4.117  -2.697  1.00  0.00     0.135 A 
ATOM     66  F   UNL     1     -10.847  -0.730  -3.773  1.00  0.00    -0.206 F 
ATOM     67  C   UNL     1     -11.989  -2.744  -4.161  1.00  0.00     0.059 A 
ATOM     68  C   UNL     1     -11.107  -4.824  -3.265  1.00  0.00     0.059 A 
ATOM     69  F   UNL     1      -9.137  -4.800  -1.993  1.00  0.00    -0.206 F 
ATOM     70  C   UNL     1     -12.076  -4.127  -3.986  1.00  0.00     0.060 A 
BRANCH  70  71
ATOM     71  S   UNL     1     -13.459  -5.009  -4.739  1.00  0.00     0.124 S 
ATOM     72  O   UNL     1     -14.553  -4.662  -3.839  1.00  0.00    -0.237 OA
ATOM     73  O   UNL     1     -13.521  -4.417  -6.072  1.00  0.00    -0.237 OA
ATOM     74  O   UNL     1     -13.031  -6.405  -4.700  1.00  0.00    -0.744 OA
ENDBRANCH  70  71
ENDBRANCH  38  63
ENDBRANCH  12  13
ENDBRANCH   5   7
ENDBRANCH   2   3
ENDBRANCH   1   2
BRANCH   1  75
ATOM     75  C   UNL     1       3.824   1.735   4.511  1.00  0.00     0.117 C 
BRANCH  75  76
ATOM     76  N   UNL     1       3.905   1.491   5.943  1.00  0.00    -0.356 N 
ATOM     77  C   UNL     1       4.920   0.949   6.664  1.00  0.00     0.227 C 
ATOM     78  H   UNL     1       3.112   1.757   6.463  1.00  0.00     0.163 HD
ATOM     79  O   UNL     1       4.839   0.999   7.891  1.00  0.00    -0.275 OA
BRANCH  77  80
ATOM     80  C   UNL     1       6.106   0.364   5.940  1.00  0.00     0.127 C 
ATOM     81  C   UNL     1       6.999   1.370   5.159  1.00  0.00     0.127 C 
ATOM     82  C   UNL     1       7.121  -0.234   6.936  1.00  0.00     0.155 C 
ATOM     83  C   UNL     1       8.368   1.138   5.807  1.00  0.00     0.155 C 
ATOM     84  C   UNL     1       8.105  -1.085   6.184  1.00  0.00     0.004 C 
ATOM     85  O   UNL     1       7.974   0.914   7.186  1.00  0.00    -0.365 OA
ATOM     86  C   UNL     1       8.866  -0.238   5.478  1.00  0.00     0.004 C 
BRANCH  81  87
ATOM     87  C   UNL     1       6.665   2.853   5.212  1.00  0.00     0.231 C 
ATOM     88  O   UNL     1       6.401   3.455   4.173  1.00  0.00    -0.274 OA
ATOM     89  N   UNL     1       6.564   3.408   6.457  1.00  0.00    -0.325 N 
ATOM     90  H   UNL     1       5.957   2.941   7.076  1.00  0.00     0.169 HD
BRANCH  89  91
ATOM     91  C   UNL     1       7.200   4.551   6.986  1.00  0.00     0.049 A 
ATOM     92  C   UNL     1       6.703   4.919   8.253  1.00  0.00     0.027 A 
ATOM     93  C   UNL     1       8.347   5.196   6.467  1.00  0.00     0.005 A 
ATOM     94  C   UNL     1       7.351   5.862   9.042  1.00  0.00     0.002 A 
ATOM     95  C   UNL     1       8.997   6.130   7.304  1.00  0.00     0.011 A 
ATOM     96  C   UNL     1       8.517   6.450   8.577  1.00  0.00     0.001 A 
BRANCH  93  97
ATOM     97  C   UNL     1       8.969   4.918   5.160  1.00  0.00    -0.016 A 
ATOM     98  C   UNL     1      10.183   4.216   5.067  1.00  0.00     0.009 A 
ATOM     99  C   UNL     1       8.376   5.362   3.970  1.00  0.00     0.009 A 
ATOM    100  C   UNL     1      10.730   3.885   3.824  1.00  0.00     0.001 A 
ATOM    101  C   UNL     1       8.912   5.019   2.726  1.00  0.00     0.001 A 
ATOM    102  C   UNL     1      10.082   4.270   2.653  1.00  0.00     0.000 A 
ENDBRANCH  93  97
ENDBRANCH  89  91
ENDBRANCH  81  87
ENDBRANCH  77  80
ENDBRANCH  75  76
ENDBRANCH   1  75
TORSDOF 16
