REMARK SMILES CC1(C)CCC[C@H]1NS(=O)(=O)c1ccc(O)c(C(=O)NCCCNC(=O)c2ccc(-c3c4nc(c(-c5c(F)cc(S(=O)(=O)[O-])cc5F)c5ccc([nH]5)c(-c5c(F)cc(S(=O)(=O)[O-])cc5F)c5nc(c(-c6c(F)cc(S(=O)(=O)[O-])cc6F)c6ccc3[nH]6)C=C5)C=C4)cc2)c1
REMARK SMILES IDX 22 1 21 2 20 3 18 4 19 5 17 7 12 8 13 9 93 10 14 11 15 12
REMARK SMILES IDX 9 13 10 14 11 15 8 16 7 18 1 19 2 20 3 21 4 22 5 23 6 24
REMARK SMILES IDX 16 25 23 27 24 28 25 29 26 31 27 32 28 33 92 34 29 35 91 36
REMARK SMILES IDX 30 37 31 38 32 39 85 40 33 41 90 42 84 43 86 44 34 45 89 46
REMARK SMILES IDX 83 47 82 48 35 50 69 51 48 52 68 53 49 54 52 55 67 56 87 57
REMARK SMILES IDX 50 58 51 59 66 61 88 62 53 63 36 64 37 65 46 66 38 67 39 68
REMARK SMILES IDX 45 69 47 70 40 71 41 72 42 73 43 74 44 75 70 76 71 77 80 78
REMARK SMILES IDX 72 79 73 80 79 81 81 82 74 83 75 84 76 85 77 86 78 87 54 88
REMARK SMILES IDX 55 89 64 90 56 91 57 92 63 93 65 94 58 95 59 96 60 97 61 98
REMARK SMILES IDX 62 99
REMARK H PARENT 20 6 8 17 16 26 24 30 86 49 52 60
REMARK Flexibility Score: inf
ROOT
ATOM      1  C   UNL     1      -0.837  10.014  -1.929  1.00  0.00     0.042 C 
ENDROOT
BRANCH   1   2
ATOM      2  C   UNL     1      -0.100   9.637  -0.643  1.00  0.00     0.118 C 
BRANCH   2   3
ATOM      3  N   UNL     1      -1.038   9.187   0.366  1.00  0.00    -0.352 N 
ATOM      4  C   UNL     1      -1.477   7.941   0.732  1.00  0.00     0.255 C 
ATOM      5  O   UNL     1      -2.346   7.907   1.608  1.00  0.00    -0.269 OA
ATOM      6  H   UNL     1      -1.438   9.918   0.891  1.00  0.00     0.163 HD
BRANCH   4   7
ATOM      7  C   UNL     1      -0.918   6.646   0.237  1.00  0.00     0.082 A 
ATOM      8  C   UNL     1      -0.553   4.297   0.826  1.00  0.00     0.083 A 
ATOM      9  C   UNL     1       0.125   4.082  -0.367  1.00  0.00     0.025 A 
ATOM     10  C   UNL     1      -1.020   5.578   1.149  1.00  0.00     0.039 A 
ATOM     11  C   UNL     1       0.173   5.105  -1.308  1.00  0.00     0.048 A 
ATOM     12  C   UNL     1      -0.400   6.353  -1.030  1.00  0.00     0.128 A 
BRANCH   8  13
ATOM     13  S   UNL     1      -1.005   2.977   1.915  1.00  0.00     0.240 S 
ATOM     14  O   UNL     1      -2.409   2.708   1.706  1.00  0.00    -0.207 OA
ATOM     15  O   UNL     1      -0.477   3.311   3.219  1.00  0.00    -0.207 OA
BRANCH  13  16
ATOM     16  N   UNL     1      -0.128   1.624   1.446  1.00  0.00    -0.208 NA
ATOM     17  H   UNL     1       0.818   1.955   1.256  1.00  0.00     0.141 HD
BRANCH  16  18
ATOM     18  C   UNL     1      -0.501   0.782   0.297  1.00  0.00     0.075 C 
ATOM     19  C   UNL     1       1.901  -0.175   0.798  1.00  0.00     0.013 C 
ATOM     20  C   UNL     1       0.561  -0.345   0.061  1.00  0.00    -0.019 C 
ATOM     21  C   UNL     1       0.881  -0.450  -1.446  1.00  0.00     0.013 C 
ATOM     22  C   UNL     1      -0.154  -1.619   0.547  1.00  0.00     0.008 C 
ATOM     23  C   UNL     1      -1.604  -1.398   0.157  1.00  0.00     0.002 C 
ATOM     24  C   UNL     1      -1.842   0.061   0.510  1.00  0.00     0.020 C 
ENDBRANCH  16  18
ENDBRANCH  13  16
ENDBRANCH   8  13
BRANCH  12  25
ATOM     25  O   UNL     1      -0.488   7.223  -2.074  1.00  0.00    -0.507 OA
ATOM     26  H   UNL     1      -0.129   6.992  -2.908  1.00  0.00     0.293 HD
ENDBRANCH  12  25
ENDBRANCH   4   7
ENDBRANCH   2   3
ENDBRANCH   1   2
BRANCH   1  27
ATOM     27  C   UNL     1      -1.496  11.385  -1.872  1.00  0.00     0.118 C 
BRANCH  27  28
ATOM     28  N   UNL     1      -0.536  12.452  -2.103  1.00  0.00    -0.352 N 
ATOM     29  C   UNL     1      -0.509  13.402  -3.095  1.00  0.00     0.251 C 
ATOM     30  H   UNL     1       0.203  12.501  -1.454  1.00  0.00     0.163 HD
ATOM     31  O   UNL     1       0.512  14.063  -3.264  1.00  0.00    -0.269 OA
BRANCH  29  32
ATOM     32  C   UNL     1      -1.689  13.628  -3.965  1.00  0.00     0.039 A 
ATOM     33  C   UNL     1      -1.482  13.902  -5.321  1.00  0.00     0.014 A 
ATOM     34  C   UNL     1      -2.988  13.626  -3.449  1.00  0.00     0.014 A 
ATOM     35  C   UNL     1      -2.573  14.135  -6.163  1.00  0.00     0.010 A 
ATOM     36  C   UNL     1      -4.079  13.791  -4.301  1.00  0.00     0.010 A 
ATOM     37  C   UNL     1      -3.883  14.063  -5.663  1.00  0.00    -0.014 A 
BRANCH  37  38
ATOM     38  C   UNL     1      -5.058  14.309  -6.537  1.00  0.00     0.031 A 
ATOM     39  C   UNL     1      -5.930  15.513  -6.303  1.00  0.00     0.074 A 
ATOM     40  C   UNL     1      -5.375  13.424  -7.502  1.00  0.00     0.049 A 
ATOM     41  N   UNL     1      -7.037  15.863  -6.907  1.00  0.00    -0.248 NA
ATOM     42  C   UNL     1      -5.515  16.431  -5.231  1.00  0.00     0.031 C 
ATOM     43  C   UNL     1      -4.630  12.201  -7.807  1.00  0.00     0.029 A 
ATOM     44  N   UNL     1      -6.413  13.414  -8.399  1.00  0.00    -0.354 N 
ATOM     45  C   UNL     1      -7.467  17.020  -6.269  1.00  0.00     0.074 A 
ATOM     46  C   UNL     1      -6.519  17.295  -5.210  1.00  0.00     0.031 C 
ATOM     47  C   UNL     1      -5.218  11.575  -8.839  1.00  0.00     0.029 A 
ATOM     48  C   UNL     1      -6.399  12.332  -9.246  1.00  0.00     0.049 A 
ATOM     49  H   UNL     1      -7.102  14.116  -8.434  1.00  0.00     0.167 HD
ATOM     50  C   UNL     1      -8.543  17.794  -6.548  1.00  0.00     0.037 A 
ATOM     51  C   UNL     1      -7.243  11.988 -10.239  1.00  0.00     0.037 A 
ATOM     52  C   UNL     1      -9.459  17.545  -7.629  1.00  0.00     0.049 A 
ATOM     53  C   UNL     1      -8.421  12.870 -10.543  1.00  0.00     0.074 A 
ATOM     54  C   UNL     1     -10.534  18.312  -8.044  1.00  0.00     0.029 A 
ATOM     55  N   UNL     1      -9.405  16.443  -8.470  1.00  0.00    -0.354 N 
ATOM     56  N   UNL     1      -8.784  13.988  -9.962  1.00  0.00    -0.248 NA
ATOM     57  C   UNL     1      -9.305  12.442 -11.636  1.00  0.00     0.031 C 
ATOM     58  C   UNL     1     -11.146  17.659  -9.121  1.00  0.00     0.029 A 
ATOM     59  C   UNL     1     -10.436  16.500  -9.393  1.00  0.00     0.049 A 
ATOM     60  H   UNL     1      -8.732  15.726  -8.418  1.00  0.00     0.167 HD
ATOM     61  C   UNL     1      -9.926  14.410 -10.633  1.00  0.00     0.074 A 
ATOM     62  C   UNL     1     -10.192  13.428 -11.665  1.00  0.00     0.031 C 
ATOM     63  C   UNL     1     -10.683  15.514 -10.415  1.00  0.00     0.037 A 
BRANCH  50  64
ATOM     64  C   UNL     1      -8.783  18.980  -5.657  1.00  0.00     0.058 A 
ATOM     65  C   UNL     1      -7.968  20.123  -5.717  1.00  0.00     0.135 A 
ATOM     66  C   UNL     1      -9.827  18.967  -4.719  1.00  0.00     0.135 A 
ATOM     67  F   UNL     1      -6.947  20.179  -6.585  1.00  0.00    -0.206 F 
ATOM     68  C   UNL     1      -8.152  21.192  -4.846  1.00  0.00     0.059 A 
ATOM     69  C   UNL     1     -10.043  20.036  -3.854  1.00  0.00     0.059 A 
ATOM     70  F   UNL     1     -10.636  17.901  -4.623  1.00  0.00    -0.206 F 
ATOM     71  C   UNL     1      -9.185  21.133  -3.909  1.00  0.00     0.060 A 
BRANCH  71  72
ATOM     72  S   UNL     1      -9.392  22.506  -2.755  1.00  0.00     0.124 S 
ATOM     73  O   UNL     1      -8.367  22.205  -1.761  1.00  0.00    -0.237 OA
ATOM     74  O   UNL     1      -9.134  23.671  -3.596  1.00  0.00    -0.237 OA
ATOM     75  O   UNL     1     -10.771  22.359  -2.301  1.00  0.00    -0.744 OA
ENDBRANCH  71  72
ENDBRANCH  50  64
BRANCH  51  76
ATOM     76  C   UNL     1      -6.970  10.772 -11.045  1.00  0.00     0.058 A 
ATOM     77  C   UNL     1      -6.445  10.881 -12.341  1.00  0.00     0.135 A 
ATOM     78  C   UNL     1      -7.181   9.486 -10.527  1.00  0.00     0.135 A 
ATOM     79  F   UNL     1      -6.234  12.092 -12.879  1.00  0.00    -0.206 F 
ATOM     80  C   UNL     1      -6.134   9.756 -13.097  1.00  0.00     0.059 A 
ATOM     81  C   UNL     1      -6.862   8.345 -11.258  1.00  0.00     0.059 A 
ATOM     82  F   UNL     1      -7.668   9.332  -9.286  1.00  0.00    -0.206 F 
ATOM     83  C   UNL     1      -6.341   8.491 -12.544  1.00  0.00     0.060 A 
BRANCH  83  84
ATOM     84  S   UNL     1      -5.853   7.037 -13.498  1.00  0.00     0.124 S 
ATOM     85  O   UNL     1      -6.945   6.934 -14.457  1.00  0.00    -0.237 OA
ATOM     86  O   UNL     1      -4.560   7.442 -14.041  1.00  0.00    -0.237 OA
ATOM     87  O   UNL     1      -5.794   5.982 -12.490  1.00  0.00    -0.744 OA
ENDBRANCH  83  84
ENDBRANCH  51  76
BRANCH  63  88
ATOM     88  C   UNL     1     -11.857  15.730 -11.324  1.00  0.00     0.058 A 
ATOM     89  C   UNL     1     -13.050  15.010 -11.163  1.00  0.00     0.135 A 
ATOM     90  C   UNL     1     -11.803  16.700 -12.337  1.00  0.00     0.135 A 
ATOM     91  F   UNL     1     -13.147  14.066 -10.213  1.00  0.00    -0.206 F 
ATOM     92  C   UNL     1     -14.149  15.234 -11.986  1.00  0.00     0.059 A 
ATOM     93  C   UNL     1     -12.895  16.953 -13.161  1.00  0.00     0.059 A 
ATOM     94  F   UNL     1     -10.685  17.419 -12.526  1.00  0.00    -0.206 F 
ATOM     95  C   UNL     1     -14.061  16.208 -12.984  1.00  0.00     0.060 A 
BRANCH  95  96
ATOM     96  S   UNL     1     -15.502  16.520 -14.026  1.00  0.00     0.124 S 
ATOM     97  O   UNL     1     -15.421  15.415 -14.976  1.00  0.00    -0.237 OA
ATOM     98  O   UNL     1     -16.604  16.455 -13.071  1.00  0.00    -0.237 OA
ATOM     99  O   UNL     1     -15.238  17.845 -14.578  1.00  0.00    -0.744 OA
ENDBRANCH  95  96
ENDBRANCH  63  88
ENDBRANCH  37  38
ENDBRANCH  29  32
ENDBRANCH  27  28
ENDBRANCH   1  27
TORSDOF 17
