REMARK SMILES C[C@@H](C(=O)NCCCNC(=O)c1ccc(-c2c3nc(c(-c4c(F)cc(S(=O)(=O)[O-])cc4F)c4ccc([nH]4)c(-c4c(F)cc(S(=O)(=O)[O-])cc4F)c4nc(c(-c5c(F)cc(S(=O)(=O)[O-])cc5F)c5ccc2[nH]5)C=C4)C=C3)cc1)c1ccc(C[C@H]2CCC[C@@H]2O)cc1Br
REMARK SMILES IDX 6 1 5 2 3 3 4 4 2 6 1 7 78 8 79 9 90 10 80 11 89 12 91 13
REMARK SMILES IDX 81 14 82 15 83 16 84 17 87 18 85 19 86 20 88 21 7 23 8 24
REMARK SMILES IDX 9 25 10 26 11 28 12 29 13 30 77 31 14 32 76 33 15 34 16 35
REMARK SMILES IDX 17 36 70 37 18 38 75 39 69 40 71 41 19 42 74 43 68 44 67 45
REMARK SMILES IDX 20 47 54 48 33 49 53 50 34 51 37 52 52 53 72 54 35 55 36 56
REMARK SMILES IDX 51 58 73 59 38 60 21 61 22 62 31 63 23 64 24 65 30 66 32 67
REMARK SMILES IDX 25 68 26 69 27 70 28 71 29 72 55 73 56 74 65 75 57 76 58 77
REMARK SMILES IDX 64 78 66 79 59 80 60 81 61 82 62 83 63 84 39 85 40 86 49 87
REMARK SMILES IDX 41 88 42 89 48 90 50 91 43 92 44 93 45 94 46 95 47 96
REMARK H PARENT 5 5 88 22 9 27 71 46 37 57
REMARK Flexibility Score: inf
ROOT
ATOM      1  C   UNL     1       3.514  -0.570   2.033  1.00  0.00     0.117 C 
ENDROOT
BRANCH   1   2
ATOM      2  N   UNL     1       2.423   0.113   2.701  1.00  0.00    -0.356 N 
ATOM      3  C   UNL     1       1.106   0.216   2.364  1.00  0.00     0.227 C 
ATOM      4  O   UNL     1       0.410   0.926   3.094  1.00  0.00    -0.274 OA
ATOM      5  H   UNL     1       2.674   0.577   3.532  1.00  0.00     0.163 HD
BRANCH   3   6
ATOM      6  C   UNL     1       0.549  -0.550   1.149  1.00  0.00     0.106 C 
ATOM      7  C   UNL     1       1.023   0.047  -0.181  1.00  0.00     0.023 C 
BRANCH   6   8
ATOM      8  C   UNL     1      -0.979  -0.616   1.185  1.00  0.00    -0.022 A 
ATOM      9  C   UNL     1      -1.712   0.566   0.959  1.00  0.00     0.006 A 
ATOM     10  C   UNL     1      -1.700  -1.783   1.480  1.00  0.00     0.022 A 
ATOM     11  C   UNL     1      -3.103   0.593   1.048  1.00  0.00     0.004 A 
ATOM     12  C   UNL     1      -3.099  -1.749   1.583  1.00  0.00     0.019 A 
ATOM     13  Br  UNL     1      -0.874  -3.469   1.780  1.00  0.00    -0.051 Br
ATOM     14  C   UNL     1      -3.810  -0.554   1.403  1.00  0.00    -0.047 A 
BRANCH  14  15
ATOM     15  C   UNL     1      -5.301  -0.507   1.631  1.00  0.00     0.041 C 
BRANCH  15  16
ATOM     16  C   UNL     1      -5.756   0.058   2.990  1.00  0.00     0.022 C 
ATOM     17  C   UNL     1      -5.162  -0.620   4.237  1.00  0.00     0.007 C 
ATOM     18  C   UNL     1      -5.511   1.555   3.209  1.00  0.00     0.117 C 
ATOM     19  C   UNL     1      -4.917   0.499   5.254  1.00  0.00     0.003 C 
ATOM     20  C   UNL     1      -5.664   1.707   4.714  1.00  0.00     0.032 C 
BRANCH  18  21
ATOM     21  O   UNL     1      -6.469   2.347   2.529  1.00  0.00    -0.393 OA
ATOM     22  H   UNL     1      -7.359   2.101   2.824  1.00  0.00     0.210 HD
ENDBRANCH  18  21
ENDBRANCH  15  16
ENDBRANCH  14  15
ENDBRANCH   6   8
ENDBRANCH   3   6
ENDBRANCH   1   2
BRANCH   1  23
ATOM     23  C   UNL     1       4.395   0.404   1.256  1.00  0.00     0.042 C 
BRANCH  23  24
ATOM     24  C   UNL     1       5.119   1.421   2.132  1.00  0.00     0.118 C 
BRANCH  24  25
ATOM     25  N   UNL     1       6.129   0.810   2.984  1.00  0.00    -0.352 N 
ATOM     26  C   UNL     1       7.481   1.048   3.038  1.00  0.00     0.251 C 
ATOM     27  H   UNL     1       5.795   0.128   3.611  1.00  0.00     0.163 HD
ATOM     28  O   UNL     1       8.208   0.303   3.690  1.00  0.00    -0.269 OA
BRANCH  26  29
ATOM     29  C   UNL     1       8.059   2.188   2.295  1.00  0.00     0.039 A 
ATOM     30  C   UNL     1       9.211   1.991   1.528  1.00  0.00     0.014 A 
ATOM     31  C   UNL     1       7.458   3.448   2.352  1.00  0.00     0.014 A 
ATOM     32  C   UNL     1       9.722   3.043   0.762  1.00  0.00     0.010 A 
ATOM     33  C   UNL     1       7.924   4.471   1.534  1.00  0.00     0.010 A 
ATOM     34  C   UNL     1       9.061   4.280   0.732  1.00  0.00    -0.014 A 
BRANCH  34  35
ATOM     35  C   UNL     1       9.530   5.410  -0.110  1.00  0.00     0.031 A 
ATOM     36  C   UNL     1       9.962   6.691   0.547  1.00  0.00     0.074 A 
ATOM     37  C   UNL     1       9.451   5.330  -1.452  1.00  0.00     0.049 A 
ATOM     38  N   UNL     1      10.207   7.856   0.009  1.00  0.00    -0.248 NA
ATOM     39  C   UNL     1      10.095   6.662   2.012  1.00  0.00     0.031 C 
ATOM     40  C   UNL     1       9.016   4.153  -2.206  1.00  0.00     0.029 A 
ATOM     41  N   UNL     1       9.700   6.271  -2.420  1.00  0.00    -0.354 N 
ATOM     42  C   UNL     1      10.487   8.709   1.070  1.00  0.00     0.074 A 
ATOM     43  C   UNL     1      10.342   7.934   2.284  1.00  0.00     0.031 C 
ATOM     44  C   UNL     1       9.023   4.444  -3.517  1.00  0.00     0.029 A 
ATOM     45  C   UNL     1       9.417   5.840  -3.694  1.00  0.00     0.049 A 
ATOM     46  H   UNL     1      10.049   7.170  -2.220  1.00  0.00     0.167 HD
ATOM     47  C   UNL     1      10.844  10.015   1.035  1.00  0.00     0.037 A 
ATOM     48  C   UNL     1       9.443   6.499  -4.869  1.00  0.00     0.037 A 
ATOM     49  C   UNL     1      11.013  10.768  -0.179  1.00  0.00     0.049 A 
ATOM     50  C   UNL     1       9.858   7.944  -4.893  1.00  0.00     0.074 A 
ATOM     51  C   UNL     1      11.425  12.080  -0.329  1.00  0.00     0.029 A 
ATOM     52  N   UNL     1      10.777  10.274  -1.455  1.00  0.00    -0.354 N 
ATOM     53  N   UNL     1      10.163   8.727  -3.886  1.00  0.00    -0.248 NA
ATOM     54  C   UNL     1       9.940   8.595  -6.207  1.00  0.00     0.031 C 
ATOM     55  C   UNL     1      11.405  12.390  -1.693  1.00  0.00     0.029 A 
ATOM     56  C   UNL     1      11.025  11.258  -2.397  1.00  0.00     0.049 A 
ATOM     57  H   UNL     1      10.478   9.359  -1.659  1.00  0.00     0.167 HD
ATOM     58  C   UNL     1      10.501   9.954  -4.445  1.00  0.00     0.074 A 
ATOM     59  C   UNL     1      10.361   9.810  -5.880  1.00  0.00     0.031 C 
ATOM     60  C   UNL     1      10.899  11.092  -3.825  1.00  0.00     0.037 A 
BRANCH  47  61
ATOM     61  C   UNL     1      11.057  10.705   2.354  1.00  0.00     0.058 A 
ATOM     62  C   UNL     1      12.141  10.388   3.189  1.00  0.00     0.135 A 
ATOM     63  C   UNL     1      10.153  11.683   2.801  1.00  0.00     0.135 A 
ATOM     64  F   UNL     1      13.029   9.452   2.817  1.00  0.00    -0.206 F 
ATOM     65  C   UNL     1      12.290  10.972   4.442  1.00  0.00     0.059 A 
ATOM     66  C   UNL     1      10.300  12.303   4.038  1.00  0.00     0.059 A 
ATOM     67  F   UNL     1       9.102  12.030   2.042  1.00  0.00    -0.206 F 
ATOM     68  C   UNL     1      11.357  11.920   4.863  1.00  0.00     0.060 A 
BRANCH  68  69
ATOM     69  S   UNL     1      11.532  12.635   6.511  1.00  0.00     0.124 S 
ATOM     70  O   UNL     1      11.045  11.545   7.351  1.00  0.00    -0.237 OA
ATOM     71  O   UNL     1      12.965  12.901   6.589  1.00  0.00    -0.237 OA
ATOM     72  O   UNL     1      10.680  13.818   6.460  1.00  0.00    -0.744 OA
ENDBRANCH  68  69
ENDBRANCH  47  61
BRANCH  48  73
ATOM     73  C   UNL     1       9.078   5.777  -6.115  1.00  0.00     0.058 A 
ATOM     74  C   UNL     1      10.062   5.378  -7.030  1.00  0.00     0.135 A 
ATOM     75  C   UNL     1       7.749   5.407  -6.380  1.00  0.00     0.135 A 
ATOM     76  F   UNL     1      11.345   5.714  -6.823  1.00  0.00    -0.206 F 
ATOM     77  C   UNL     1       9.746   4.631  -8.160  1.00  0.00     0.059 A 
ATOM     78  C   UNL     1       7.411   4.643  -7.493  1.00  0.00     0.059 A 
ATOM     79  F   UNL     1       6.773   5.751  -5.525  1.00  0.00    -0.206 F 
ATOM     80  C   UNL     1       8.418   4.259  -8.377  1.00  0.00     0.060 A 
BRANCH  80  81
ATOM     81  S   UNL     1       8.035   3.204  -9.793  1.00  0.00     0.124 S 
ATOM     82  O   UNL     1       8.165   4.142 -10.902  1.00  0.00    -0.237 OA
ATOM     83  O   UNL     1       9.068   2.178  -9.699  1.00  0.00    -0.237 OA
ATOM     84  O   UNL     1       6.679   2.744  -9.510  1.00  0.00    -0.744 OA
ENDBRANCH  80  81
ENDBRANCH  48  73
BRANCH  60  85
ATOM     85  C   UNL     1      11.263  12.269  -4.684  1.00  0.00     0.058 A 
ATOM     86  C   UNL     1      10.287  13.071  -5.293  1.00  0.00     0.135 A 
ATOM     87  C   UNL     1      12.607  12.658  -4.811  1.00  0.00     0.135 A 
ATOM     88  F   UNL     1       8.989  12.737  -5.208  1.00  0.00    -0.206 F 
ATOM     89  C   UNL     1      10.630  14.222  -5.995  1.00  0.00     0.059 A 
ATOM     90  C   UNL     1      12.971  13.816  -5.490  1.00  0.00     0.059 A 
ATOM     91  F   UNL     1      13.578  11.927  -4.241  1.00  0.00    -0.206 F 
ATOM     92  C   UNL     1      11.974  14.591  -6.081  1.00  0.00     0.060 A 
BRANCH  92  93
ATOM     93  S   UNL     1      12.400  16.129  -6.926  1.00  0.00     0.124 S 
ATOM     94  O   UNL     1      12.223  15.755  -8.325  1.00  0.00    -0.237 OA
ATOM     95  O   UNL     1      11.414  17.063  -6.390  1.00  0.00    -0.237 OA
ATOM     96  O   UNL     1      13.777  16.375  -6.510  1.00  0.00    -0.744 OA
ENDBRANCH  92  93
ENDBRANCH  60  85
ENDBRANCH  34  35
ENDBRANCH  26  29
ENDBRANCH  24  25
ENDBRANCH  23  24
ENDBRANCH   1  23
TORSDOF 17
