REMARK SMILES Cc1ccccc1-c1nc(CC(=O)NCCCNC(=O)c2ccc(-c3c4nc(c(-c5c(F)cc(S(=O)(=O)[O-])cc5F)c5ccc([nH]5)c(-c5c(F)cc(S(=O)(=O)[O-])cc5F)c5nc(c(-c6c(F)cc(S(=O)(=O)[O-])cc6F)c6ccc3[nH]6)C=C5)C=C4)cc2)cs1
REMARK SMILES IDX 16 1 15 2 14 3 12 4 13 5 11 7 10 8 8 9 9 10 88 11 87 12 7 13
REMARK SMILES IDX 1 14 2 15 3 16 4 17 6 18 5 19 17 20 18 21 19 22 20 24 21 25
REMARK SMILES IDX 22 26 86 27 23 28 85 29 24 30 25 31 26 32 79 33 27 34 84 35
REMARK SMILES IDX 78 36 80 37 28 38 83 39 77 40 76 41 29 43 63 44 42 45 62 46
REMARK SMILES IDX 43 47 46 48 61 49 81 50 44 51 45 52 60 54 82 55 47 56 30 57
REMARK SMILES IDX 31 58 40 59 32 60 33 61 39 62 41 63 34 64 35 65 36 66 37 67
REMARK SMILES IDX 38 68 64 69 65 70 74 71 66 72 67 73 73 74 75 75 68 76 69 77
REMARK SMILES IDX 70 78 71 79 72 80 48 81 49 82 58 83 50 84 51 85 57 86 59 87
REMARK SMILES IDX 52 88 53 89 54 90 55 91 56 92
REMARK H PARENT 14 6 18 23 80 42 46 53
REMARK Flexibility Score: inf
ROOT
ATOM      1  C   UNL     1       0.061   4.077  -2.997  1.00  0.00     0.042 C 
ENDROOT
BRANCH   1   2
ATOM      2  C   UNL     1       1.314   4.501  -3.756  1.00  0.00     0.117 C 
BRANCH   2   3
ATOM      3  N   UNL     1       1.896   5.731  -3.232  1.00  0.00    -0.356 N 
ATOM      4  C   UNL     1       2.834   5.887  -2.249  1.00  0.00     0.226 C 
ATOM      5  O   UNL     1       3.169   7.027  -1.919  1.00  0.00    -0.275 OA
ATOM      6  H   UNL     1       1.568   6.564  -3.643  1.00  0.00     0.163 HD
BRANCH   4   7
ATOM      7  C   UNL     1       3.461   4.675  -1.585  1.00  0.00     0.157 C 
BRANCH   7   8
ATOM      8  C   UNL     1       2.556   4.069  -0.568  1.00  0.00     0.061 A 
ATOM      9  C   UNL     1       1.208   2.448   0.137  1.00  0.00     0.123 A 
ATOM     10  N   UNL     1       2.088   2.780  -0.786  1.00  0.00    -0.241 NA
ATOM     11  S   UNL     1       0.994   3.610   1.389  1.00  0.00    -0.122 S 
ATOM     12  C   UNL     1       2.089   4.659   0.593  1.00  0.00     0.091 A 
BRANCH   9  13
ATOM     13  C   UNL     1       0.441   1.196   0.141  1.00  0.00     0.013 A 
ATOM     14  C   UNL     1       2.573  -0.225   0.100  1.00  0.00     0.045 C 
ATOM     15  C   UNL     1       1.076  -0.064   0.117  1.00  0.00    -0.041 A 
ATOM     16  C   UNL     1       0.289  -1.228   0.055  1.00  0.00     0.004 A 
ATOM     17  C   UNL     1      -1.103  -1.154   0.029  1.00  0.00     0.000 A 
ATOM     18  C   UNL     1      -0.966   1.251   0.107  1.00  0.00     0.011 A 
ATOM     19  C   UNL     1      -1.732   0.086   0.054  1.00  0.00     0.001 A 
ENDBRANCH   9  13
ENDBRANCH   7   8
ENDBRANCH   4   7
ENDBRANCH   2   3
ENDBRANCH   1   2
BRANCH   1  20
ATOM     20  C   UNL     1      -1.174   4.891  -3.352  1.00  0.00     0.118 C 
BRANCH  20  21
ATOM     21  N   UNL     1      -2.176   4.149  -4.106  1.00  0.00    -0.352 N 
ATOM     22  C   UNL     1      -3.408   4.585  -4.572  1.00  0.00     0.251 C 
ATOM     23  H   UNL     1      -1.949   3.214  -4.312  1.00  0.00     0.163 HD
ATOM     24  O   UNL     1      -4.184   3.803  -5.091  1.00  0.00    -0.269 OA
BRANCH  22  25
ATOM     25  C   UNL     1      -3.736   6.027  -4.460  1.00  0.00     0.039 A 
ATOM     26  C   UNL     1      -4.113   6.733  -5.609  1.00  0.00     0.014 A 
ATOM     27  C   UNL     1      -3.513   6.700  -3.265  1.00  0.00     0.014 A 
ATOM     28  C   UNL     1      -4.080   8.131  -5.604  1.00  0.00     0.010 A 
ATOM     29  C   UNL     1      -3.375   8.071  -3.289  1.00  0.00     0.010 A 
ATOM     30  C   UNL     1      -3.629   8.793  -4.465  1.00  0.00    -0.014 A 
BRANCH  30  31
ATOM     31  C   UNL     1      -3.304  10.215  -4.379  1.00  0.00     0.031 A 
ATOM     32  C   UNL     1      -4.062  11.103  -3.459  1.00  0.00     0.074 A 
ATOM     33  C   UNL     1      -2.155  10.658  -4.933  1.00  0.00     0.049 A 
ATOM     34  N   UNL     1      -3.917  12.383  -3.376  1.00  0.00    -0.248 NA
ATOM     35  C   UNL     1      -5.100  10.599  -2.567  1.00  0.00     0.031 C 
ATOM     36  C   UNL     1      -1.370  11.816  -4.513  1.00  0.00     0.029 A 
ATOM     37  N   UNL     1      -1.533  10.239  -6.100  1.00  0.00    -0.354 N 
ATOM     38  C   UNL     1      -4.592  12.824  -2.256  1.00  0.00     0.074 A 
ATOM     39  C   UNL     1      -5.368  11.683  -1.834  1.00  0.00     0.031 C 
ATOM     40  C   UNL     1      -0.512  12.145  -5.491  1.00  0.00     0.029 A 
ATOM     41  C   UNL     1      -0.846  11.332  -6.647  1.00  0.00     0.049 A 
ATOM     42  H   UNL     1      -1.568   9.332  -6.479  1.00  0.00     0.167 HD
ATOM     43  C   UNL     1      -4.309  14.065  -1.757  1.00  0.00     0.037 A 
ATOM     44  C   UNL     1      -1.188  11.855  -7.864  1.00  0.00     0.037 A 
ATOM     45  C   UNL     1      -3.412  14.792  -2.660  1.00  0.00     0.049 A 
ATOM     46  C   UNL     1      -1.659  13.292  -7.816  1.00  0.00     0.074 A 
ATOM     47  C   UNL     1      -2.045  15.017  -2.651  1.00  0.00     0.029 A 
ATOM     48  N   UNL     1      -3.866  15.174  -3.918  1.00  0.00    -0.354 N 
ATOM     49  N   UNL     1      -2.060  13.895  -6.732  1.00  0.00    -0.248 NA
ATOM     50  C   UNL     1      -1.731  14.156  -8.991  1.00  0.00     0.031 C 
ATOM     51  C   UNL     1      -1.669  15.487  -3.934  1.00  0.00     0.029 A 
ATOM     52  C   UNL     1      -2.809  15.563  -4.718  1.00  0.00     0.049 A 
ATOM     53  H   UNL     1      -4.809  15.168  -4.199  1.00  0.00     0.167 HD
ATOM     54  C   UNL     1      -2.482  15.163  -7.038  1.00  0.00     0.074 A 
ATOM     55  C   UNL     1      -2.221  15.290  -8.460  1.00  0.00     0.031 C 
ATOM     56  C   UNL     1      -3.026  15.989  -6.094  1.00  0.00     0.037 A 
BRANCH  43  57
ATOM     57  C   UNL     1      -4.606  14.541  -0.337  1.00  0.00     0.058 A 
ATOM     58  C   UNL     1      -3.853  15.594   0.241  1.00  0.00     0.135 A 
ATOM     59  C   UNL     1      -5.554  13.976   0.538  1.00  0.00     0.135 A 
ATOM     60  F   UNL     1      -2.981  16.311  -0.479  1.00  0.00    -0.206 F 
ATOM     61  C   UNL     1      -3.950  15.963   1.587  1.00  0.00     0.059 A 
ATOM     62  C   UNL     1      -5.642  14.297   1.898  1.00  0.00     0.059 A 
ATOM     63  F   UNL     1      -6.491  13.125   0.112  1.00  0.00    -0.206 F 
ATOM     64  C   UNL     1      -4.823  15.283   2.421  1.00  0.00     0.060 A 
BRANCH  64  65
ATOM     65  S   UNL     1      -4.889  15.713   4.169  1.00  0.00     0.124 S 
ATOM     66  O   UNL     1      -3.516  15.461   4.598  1.00  0.00    -0.237 OA
ATOM     67  O   UNL     1      -5.295  17.113   4.126  1.00  0.00    -0.237 OA
ATOM     68  O   UNL     1      -5.884  14.791   4.710  1.00  0.00    -0.744 OA
ENDBRANCH  64  65
ENDBRANCH  43  57
BRANCH  44  69
ATOM     69  C   UNL     1      -1.692  10.831  -8.819  1.00  0.00     0.058 A 
ATOM     70  C   UNL     1      -0.769   9.881  -9.292  1.00  0.00     0.135 A 
ATOM     71  C   UNL     1      -3.055  10.501  -8.863  1.00  0.00     0.135 A 
ATOM     72  F   UNL     1       0.544  10.161  -9.290  1.00  0.00    -0.206 F 
ATOM     73  C   UNL     1      -1.161   8.587  -9.610  1.00  0.00     0.059 A 
ATOM     74  C   UNL     1      -3.471   9.210  -9.189  1.00  0.00     0.059 A 
ATOM     75  F   UNL     1      -3.978  11.375  -8.436  1.00  0.00    -0.206 F 
ATOM     76  C   UNL     1      -2.506   8.245  -9.480  1.00  0.00     0.060 A 
BRANCH  76  77
ATOM     77  S   UNL     1      -2.920   6.485  -9.460  1.00  0.00     0.124 S 
ATOM     78  O   UNL     1      -2.500   6.057 -10.789  1.00  0.00    -0.237 OA
ATOM     79  O   UNL     1      -2.096   6.011  -8.351  1.00  0.00    -0.237 OA
ATOM     80  O   UNL     1      -4.358   6.479  -9.216  1.00  0.00    -0.744 OA
ENDBRANCH  76  77
ENDBRANCH  44  69
BRANCH  56  81
ATOM     81  C   UNL     1      -3.729  17.304  -6.355  1.00  0.00     0.058 A 
ATOM     82  C   UNL     1      -4.392  17.622  -7.553  1.00  0.00     0.135 A 
ATOM     83  C   UNL     1      -3.867  18.260  -5.318  1.00  0.00     0.135 A 
ATOM     84  F   UNL     1      -4.451  16.753  -8.572  1.00  0.00    -0.206 F 
ATOM     85  C   UNL     1      -5.069  18.830  -7.741  1.00  0.00     0.059 A 
ATOM     86  C   UNL     1      -4.586  19.445  -5.464  1.00  0.00     0.059 A 
ATOM     87  F   UNL     1      -3.315  18.068  -4.110  1.00  0.00    -0.206 F 
ATOM     88  C   UNL     1      -5.159  19.738  -6.692  1.00  0.00     0.060 A 
BRANCH  88  89
ATOM     89  S   UNL     1      -6.074  21.275  -6.906  1.00  0.00     0.124 S 
ATOM     90  O   UNL     1      -5.018  22.185  -7.338  1.00  0.00    -0.237 OA
ATOM     91  O   UNL     1      -7.061  20.928  -7.926  1.00  0.00    -0.237 OA
ATOM     92  O   UNL     1      -6.622  21.524  -5.577  1.00  0.00    -0.744 OA
ENDBRANCH  88  89
ENDBRANCH  56  81
ENDBRANCH  30  31
ENDBRANCH  22  25
ENDBRANCH  20  21
ENDBRANCH   1  20
TORSDOF 15
