REMARK SMILES C#CCN(CC(=O)NCCCNC(=O)c1ccc(-c2c3nc(c(-c4c(F)cc(S(=O)(=O)[O-])cc4F)c4ccc([nH]4)c(-c4c(F)cc(S(=O)(=O)[O-])cc4F)c4nc(c(-c5c(F)cc(S(=O)(=O)[O-])cc5F)c5ccc2[nH]5)C=C4)C=C3)cc1)C(=O)[C@H](c1ccc(Cl)cc1)C(C)C
REMARK SMILES IDX 9 1 8 2 6 3 7 4 5 6 4 7 3 8 2 9 1 10 81 11 82 12 83 13 91 14
REMARK SMILES IDX 92 15 93 16 84 17 85 18 90 19 86 20 89 21 87 22 88 23 10 24
REMARK SMILES IDX 11 25 12 26 13 27 14 29 15 30 16 31 80 32 17 33 79 34 18 35
REMARK SMILES IDX 19 36 20 37 73 38 21 39 78 40 72 41 74 42 22 43 77 44 71 45
REMARK SMILES IDX 70 46 23 48 57 49 36 50 56 51 37 52 40 53 55 54 75 55 38 56
REMARK SMILES IDX 39 57 54 59 76 60 41 61 24 62 25 63 34 64 26 65 27 66 33 67
REMARK SMILES IDX 35 68 28 69 29 70 30 71 31 72 32 73 58 74 59 75 68 76 60 77
REMARK SMILES IDX 61 78 67 79 69 80 62 81 63 82 64 83 65 84 66 85 42 86 43 87
REMARK SMILES IDX 52 88 44 89 45 90 51 91 53 92 46 93 47 94 48 95 49 96 50 97
REMARK H PARENT 8 5 12 28 74 47 40 58
REMARK Flexibility Score: inf
ROOT
ATOM      1  C   UNL     1       1.924  -1.627   6.242  1.00  0.00     0.117 C 
ENDROOT
BRANCH   1   2
ATOM      2  N   UNL     1       1.415  -2.567   5.268  1.00  0.00    -0.354 N 
ATOM      3  C   UNL     1       0.823  -2.350   4.066  1.00  0.00     0.239 C 
ATOM      4  O   UNL     1       0.412  -3.341   3.458  1.00  0.00    -0.273 OA
ATOM      5  H   UNL     1       1.514  -3.514   5.516  1.00  0.00     0.163 HD
BRANCH   3   6
ATOM      6  C   UNL     1       0.722  -0.940   3.471  1.00  0.00     0.220 C 
BRANCH   6   7
ATOM      7  N   UNL     1      -0.232  -0.020   4.096  1.00  0.00    -0.322 N 
BRANCH   7   8
ATOM      8  C   UNL     1       0.346   1.100   4.845  1.00  0.00     0.209 C 
BRANCH   8   9
ATOM      9  C   UNL     1      -0.206   2.459   4.445  1.00  0.00    -0.085 C 
ATOM     10  C   UNL     1      -0.679   3.625   4.103  1.00  0.00     0.006 C 
ENDBRANCH   8   9
ENDBRANCH   7   8
BRANCH   7  11
ATOM     11  C   UNL     1      -1.629  -0.122   4.026  1.00  0.00     0.231 C 
ATOM     12  O   UNL     1      -2.340   0.714   4.594  1.00  0.00    -0.274 OA
BRANCH  11  13
ATOM     13  C   UNL     1      -2.310  -1.290   3.247  1.00  0.00     0.111 C 
BRANCH  13  14
ATOM     14  C   UNL     1      -3.849  -1.396   3.559  1.00  0.00    -0.000 C 
ATOM     15  C   UNL     1      -4.509  -2.569   2.813  1.00  0.00     0.008 C 
ATOM     16  C   UNL     1      -4.154  -1.581   5.056  1.00  0.00     0.008 C 
ENDBRANCH  13  14
BRANCH  13  17
ATOM     17  C   UNL     1      -2.073  -1.135   1.740  1.00  0.00    -0.035 A 
ATOM     18  C   UNL     1      -1.338  -2.106   1.038  1.00  0.00     0.006 A 
ATOM     19  C   UNL     1      -2.542  -0.015   1.038  1.00  0.00     0.006 A 
ATOM     20  C   UNL     1      -0.980  -1.908  -0.296  1.00  0.00     0.021 A 
ATOM     21  C   UNL     1      -2.225   0.161  -0.313  1.00  0.00     0.021 A 
ATOM     22  C   UNL     1      -1.419  -0.770  -0.964  1.00  0.00     0.041 A 
ATOM     23  Cl  UNL     1      -0.951  -0.507  -2.599  1.00  0.00    -0.084 Cl
ENDBRANCH  13  17
ENDBRANCH  11  13
ENDBRANCH   7  11
ENDBRANCH   6   7
ENDBRANCH   3   6
ENDBRANCH   1   2
BRANCH   1  24
ATOM     24  C   UNL     1       0.949  -1.443   7.398  1.00  0.00     0.042 C 
BRANCH  24  25
ATOM     25  C   UNL     1       0.595  -2.743   8.115  1.00  0.00     0.118 C 
BRANCH  25  26
ATOM     26  N   UNL     1       1.776  -3.471   8.557  1.00  0.00    -0.352 N 
ATOM     27  C   UNL     1       2.225  -3.735   9.826  1.00  0.00     0.251 C 
ATOM     28  H   UNL     1       2.339  -3.830   7.833  1.00  0.00     0.163 HD
ATOM     29  O   UNL     1       3.371  -4.139   9.991  1.00  0.00    -0.269 OA
BRANCH  27  30
ATOM     30  C   UNL     1       1.331  -3.523  10.981  1.00  0.00     0.039 A 
ATOM     31  C   UNL     1       1.841  -2.922  12.133  1.00  0.00     0.014 A 
ATOM     32  C   UNL     1      -0.003  -3.935  10.929  1.00  0.00     0.014 A 
ATOM     33  C   UNL     1       0.992  -2.678  13.214  1.00  0.00     0.010 A 
ATOM     34  C   UNL     1      -0.864  -3.618  11.973  1.00  0.00     0.010 A 
ATOM     35  C   UNL     1      -0.374  -2.993  13.128  1.00  0.00    -0.014 A 
BRANCH  35  36
ATOM     36  C   UNL     1      -1.310  -2.676  14.234  1.00  0.00     0.031 A 
ATOM     37  C   UNL     1      -2.023  -3.785  14.958  1.00  0.00     0.074 A 
ATOM     38  C   UNL     1      -1.571  -1.388  14.530  1.00  0.00     0.049 A 
ATOM     39  N   UNL     1      -2.933  -3.708  15.894  1.00  0.00    -0.248 NA
ATOM     40  C   UNL     1      -1.691  -5.162  14.556  1.00  0.00     0.031 C 
ATOM     41  C   UNL     1      -0.981  -0.229  13.856  1.00  0.00     0.029 A 
ATOM     42  N   UNL     1      -2.409  -0.836  15.465  1.00  0.00    -0.354 N 
ATOM     43  C   UNL     1      -3.295  -5.019  16.179  1.00  0.00     0.074 A 
ATOM     44  C   UNL     1      -2.545  -5.870  15.281  1.00  0.00     0.031 C 
ATOM     45  C   UNL     1      -1.460   0.895  14.412  1.00  0.00     0.029 A 
ATOM     46  C   UNL     1      -2.418   0.539  15.454  1.00  0.00     0.049 A 
ATOM     47  H   UNL     1      -2.953  -1.373  16.085  1.00  0.00     0.167 HD
ATOM     48  C   UNL     1      -4.157  -5.472  17.120  1.00  0.00     0.037 A 
ATOM     49  C   UNL     1      -3.125   1.414  16.195  1.00  0.00     0.037 A 
ATOM     50  C   UNL     1      -4.877  -4.616  18.026  1.00  0.00     0.049 A 
ATOM     51  C   UNL     1      -4.067   0.887  17.242  1.00  0.00     0.074 A 
ATOM     52  C   UNL     1      -5.724  -4.975  19.059  1.00  0.00     0.029 A 
ATOM     53  N   UNL     1      -4.837  -3.229  18.006  1.00  0.00    -0.354 N 
ATOM     54  N   UNL     1      -4.345  -0.359  17.547  1.00  0.00    -0.248 NA
ATOM     55  C   UNL     1      -4.784   1.880  18.052  1.00  0.00     0.031 C 
ATOM     56  C   UNL     1      -6.229  -3.805  19.636  1.00  0.00     0.029 A 
ATOM     57  C   UNL     1      -5.659  -2.716  18.996  1.00  0.00     0.049 A 
ATOM     58  H   UNL     1      -4.302  -2.689  17.380  1.00  0.00     0.167 HD
ATOM     59  C   UNL     1      -5.252  -0.299  18.600  1.00  0.00     0.074 A 
ATOM     60  C   UNL     1      -5.463   1.106  18.887  1.00  0.00     0.031 C 
ATOM     61  C   UNL     1      -5.853  -1.314  19.269  1.00  0.00     0.037 A 
BRANCH  48  62
ATOM     62  C   UNL     1      -4.363  -6.959  17.219  1.00  0.00     0.058 A 
ATOM     63  C   UNL     1      -3.355  -7.814  17.695  1.00  0.00     0.135 A 
ATOM     64  C   UNL     1      -5.592  -7.536  16.861  1.00  0.00     0.135 A 
ATOM     65  F   UNL     1      -2.155  -7.319  18.037  1.00  0.00    -0.206 F 
ATOM     66  C   UNL     1      -3.546  -9.189  17.781  1.00  0.00     0.059 A 
ATOM     67  C   UNL     1      -5.816  -8.906  16.967  1.00  0.00     0.059 A 
ATOM     68  F   UNL     1      -6.591  -6.767  16.399  1.00  0.00    -0.206 F 
ATOM     69  C   UNL     1      -4.780  -9.726  17.413  1.00  0.00     0.060 A 
BRANCH  69  70
ATOM     70  S   UNL     1      -5.012 -11.512  17.532  1.00  0.00     0.124 S 
ATOM     71  O   UNL     1      -4.218 -11.984  16.401  1.00  0.00    -0.237 OA
ATOM     72  O   UNL     1      -4.471 -11.810  18.854  1.00  0.00    -0.237 OA
ATOM     73  O   UNL     1      -6.456 -11.678  17.397  1.00  0.00    -0.744 OA
ENDBRANCH  69  70
ENDBRANCH  48  62
BRANCH  49  74
ATOM     74  C   UNL     1      -2.944   2.875  15.988  1.00  0.00     0.058 A 
ATOM     75  C   UNL     1      -2.282   3.661  16.943  1.00  0.00     0.135 A 
ATOM     76  C   UNL     1      -3.402   3.509  14.823  1.00  0.00     0.135 A 
ATOM     77  F   UNL     1      -1.829   3.101  18.075  1.00  0.00    -0.206 F 
ATOM     78  C   UNL     1      -2.091   5.026  16.757  1.00  0.00     0.059 A 
ATOM     79  C   UNL     1      -3.201   4.868  14.603  1.00  0.00     0.059 A 
ATOM     80  F   UNL     1      -4.024   2.797  13.870  1.00  0.00    -0.206 F 
ATOM     81  C   UNL     1      -2.551   5.620  15.581  1.00  0.00     0.060 A 
BRANCH  81  82
ATOM     82  S   UNL     1      -2.246   7.382  15.325  1.00  0.00     0.124 S 
ATOM     83  O   UNL     1      -3.199   7.982  16.251  1.00  0.00    -0.237 OA
ATOM     84  O   UNL     1      -0.838   7.505  15.689  1.00  0.00    -0.237 OA
ATOM     85  O   UNL     1      -2.537   7.570  13.907  1.00  0.00    -0.744 OA
ENDBRANCH  81  82
ENDBRANCH  49  74
BRANCH  61  86
ATOM     86  C   UNL     1      -6.773  -0.945  20.399  1.00  0.00     0.058 A 
ATOM     87  C   UNL     1      -8.041  -0.392  20.167  1.00  0.00     0.135 A 
ATOM     88  C   UNL     1      -6.400  -1.199  21.729  1.00  0.00     0.135 A 
ATOM     89  F   UNL     1      -8.443  -0.124  18.914  1.00  0.00    -0.206 F 
ATOM     90  C   UNL     1      -8.900  -0.082  21.216  1.00  0.00     0.059 A 
ATOM     91  C   UNL     1      -7.253  -0.922  22.791  1.00  0.00     0.059 A 
ATOM     92  F   UNL     1      -5.201  -1.737  22.004  1.00  0.00    -0.206 F 
ATOM     93  C   UNL     1      -8.498  -0.352  22.525  1.00  0.00     0.060 A 
BRANCH  93  94
ATOM     94  S   UNL     1      -9.635   0.022  23.876  1.00  0.00     0.124 S 
ATOM     95  O   UNL     1      -9.543   1.477  23.942  1.00  0.00    -0.237 OA
ATOM     96  O   UNL     1     -10.899  -0.511  23.378  1.00  0.00    -0.237 OA
ATOM     97  O   UNL     1      -9.063  -0.696  25.011  1.00  0.00    -0.744 OA
ENDBRANCH  93  94
ENDBRANCH  61  86
ENDBRANCH  35  36
ENDBRANCH  27  30
ENDBRANCH  25  26
ENDBRANCH  24  25
ENDBRANCH   1  24
TORSDOF 20
