REMARK SMILES [NH3+]C1(C(=O)N2[C@@H](C(=O)NCCCNC(=O)c3ccc(-c4c5nc(c(-c6c(F)cc(S(=O)(=O)[O-])cc6F)c6ccc([nH]6)c(-c6c(F)cc(S(=O)(=O)[O-])cc6F)c6nc(c(-c7c(F)cc(S(=O)(=O)[O-])cc7F)c7ccc4[nH]7)C=C6)C=C5)cc3)CC[C@@H]3CCCC[C@@H]32)CC1
REMARK SMILES IDX 11 1 10 2 9 3 7 4 8 5 6 7 5 8 89 9 82 10 84 11 88 12 83 13
REMARK SMILES IDX 85 14 87 15 86 16 3 17 4 18 2 19 90 20 91 21 1 22 12 26
REMARK SMILES IDX 13 27 14 28 15 30 16 31 17 32 81 33 18 34 80 35 19 36 20 37
REMARK SMILES IDX 21 38 74 39 22 40 79 41 73 42 75 43 23 44 78 45 72 46 71 47
REMARK SMILES IDX 24 49 58 50 37 51 57 52 38 53 41 54 56 55 76 56 39 57 40 58
REMARK SMILES IDX 55 60 77 61 42 62 25 63 26 64 35 65 27 66 28 67 34 68 36 69
REMARK SMILES IDX 29 70 30 71 31 72 32 73 33 74 59 75 60 76 69 77 61 78 62 79
REMARK SMILES IDX 68 80 70 81 63 82 64 83 65 84 66 85 67 86 43 87 44 88 53 89
REMARK SMILES IDX 45 90 46 91 52 92 54 93 47 94 48 95 49 96 50 97 51 98
REMARK H PARENT 9 6 1 23 1 24 1 25 13 29 75 48 41 59
REMARK Flexibility Score: inf
ROOT
ATOM      1  C   UNL     1       4.617  -1.291   3.657  1.00  0.00     0.042 C 
ENDROOT
BRANCH   1   2
ATOM      2  C   UNL     1       3.382  -1.156   2.779  1.00  0.00     0.117 C 
BRANCH   2   3
ATOM      3  N   UNL     1       3.217  -2.328   1.941  1.00  0.00    -0.354 N 
ATOM      4  C   UNL     1       2.294  -3.321   2.023  1.00  0.00     0.242 C 
ATOM      5  O   UNL     1       2.550  -4.385   1.449  1.00  0.00    -0.273 OA
ATOM      6  H   UNL     1       3.867  -2.417   1.208  1.00  0.00     0.163 HD
BRANCH   4   7
ATOM      7  C   UNL     1       1.040  -3.197   2.906  1.00  0.00     0.175 C 
ATOM      8  N   UNL     1       0.266  -1.925   2.860  1.00  0.00    -0.322 N 
ATOM      9  C   UNL     1      -0.747  -1.749   3.927  1.00  0.00     0.089 C 
ATOM     10  C   UNL     1       1.526  -3.534   4.341  1.00  0.00     0.036 C 
ATOM     11  C   UNL     1      -0.162  -1.968   5.318  1.00  0.00     0.012 C 
ATOM     12  C   UNL     1      -1.983  -2.632   3.643  1.00  0.00     0.025 C 
ATOM     13  C   UNL     1       0.474  -3.354   5.423  1.00  0.00     0.008 C 
ATOM     14  C   UNL     1      -1.263  -1.733   6.354  1.00  0.00     0.006 C 
ATOM     15  C   UNL     1      -2.899  -2.983   4.820  1.00  0.00     0.002 C 
ATOM     16  C   UNL     1      -2.386  -2.750   6.239  1.00  0.00     0.000 C 
BRANCH   8  17
ATOM     17  C   UNL     1       0.045  -1.111   1.732  1.00  0.00     0.284 C 
ATOM     18  O   UNL     1      -0.560  -0.042   1.829  1.00  0.00    -0.268 OA
BRANCH  17  19
ATOM     19  C   UNL     1       0.547  -1.456   0.341  1.00  0.00     0.174 C 
ATOM     20  C   UNL     1      -0.560  -1.808  -0.648  1.00  0.00     0.086 C 
ATOM     21  C   UNL     1       0.486  -2.813  -0.307  1.00  0.00     0.086 C 
BRANCH  19  22
ATOM     22  N   UNL     1       1.522  -0.461  -0.185  1.00  0.00    -0.345 N 
ATOM     23  H   UNL     1       1.448   0.404   0.350  1.00  0.00     0.345 HD
ATOM     24  H   UNL     1       1.319  -0.273  -1.167  1.00  0.00     0.345 HD
ATOM     25  H   UNL     1       2.468  -0.834  -0.100  1.00  0.00     0.345 HD
ENDBRANCH  19  22
ENDBRANCH  17  19
ENDBRANCH   8  17
ENDBRANCH   4   7
ENDBRANCH   2   3
ENDBRANCH   1   2
BRANCH   1  26
ATOM     26  C   UNL     1       5.908  -1.446   2.863  1.00  0.00     0.118 C 
BRANCH  26  27
ATOM     27  N   UNL     1       6.155  -0.316   1.978  1.00  0.00    -0.352 N 
ATOM     28  C   UNL     1       7.206   0.564   1.969  1.00  0.00     0.251 C 
ATOM     29  H   UNL     1       5.470  -0.162   1.288  1.00  0.00     0.163 HD
ATOM     30  O   UNL     1       7.132   1.595   1.301  1.00  0.00    -0.269 OA
BRANCH  28  31
ATOM     31  C   UNL     1       8.409   0.276   2.772  1.00  0.00     0.039 A 
ATOM     32  C   UNL     1       9.005   1.308   3.499  1.00  0.00     0.014 A 
ATOM     33  C   UNL     1       8.945  -1.015   2.812  1.00  0.00     0.014 A 
ATOM     34  C   UNL     1      10.103   1.029   4.312  1.00  0.00     0.010 A 
ATOM     35  C   UNL     1       9.976  -1.309   3.695  1.00  0.00     0.010 A 
ATOM     36  C   UNL     1      10.574  -0.288   4.446  1.00  0.00    -0.014 A 
BRANCH  36  37
ATOM     37  C   UNL     1      11.698  -0.613   5.359  1.00  0.00     0.031 A 
ATOM     38  C   UNL     1      12.976  -1.185   4.806  1.00  0.00     0.074 A 
ATOM     39  C   UNL     1      11.546  -0.441   6.687  1.00  0.00     0.049 A 
ATOM     40  N   UNL     1      14.047  -1.579   5.446  1.00  0.00    -0.248 NA
ATOM     41  C   UNL     1      13.053  -1.361   3.346  1.00  0.00     0.031 C 
ATOM     42  C   UNL     1      10.334   0.058   7.343  1.00  0.00     0.029 A 
ATOM     43  N   UNL     1      12.411  -0.669   7.726  1.00  0.00    -0.354 N 
ATOM     44  C   UNL     1      14.917  -2.054   4.471  1.00  0.00     0.074 A 
ATOM     45  C   UNL     1      14.227  -1.959   3.204  1.00  0.00     0.031 C 
ATOM     46  C   UNL     1      10.545   0.126   8.667  1.00  0.00     0.029 A 
ATOM     47  C   UNL     1      11.887  -0.365   8.960  1.00  0.00     0.049 A 
ATOM     48  H   UNL     1      13.323  -1.019   7.600  1.00  0.00     0.167 HD
ATOM     49  C   UNL     1      16.187  -2.500   4.616  1.00  0.00     0.037 A 
ATOM     50  C   UNL     1      12.425  -0.476  10.190  1.00  0.00     0.037 A 
ATOM     51  C   UNL     1      16.874  -2.570   5.880  1.00  0.00     0.049 A 
ATOM     52  C   UNL     1      13.834  -0.990  10.325  1.00  0.00     0.074 A 
ATOM     53  C   UNL     1      18.177  -2.962   6.129  1.00  0.00     0.029 A 
ATOM     54  N   UNL     1      16.314  -2.240   7.106  1.00  0.00    -0.354 N 
ATOM     55  N   UNL     1      14.665  -1.374   9.384  1.00  0.00    -0.248 NA
ATOM     56  C   UNL     1      14.382  -1.079  11.684  1.00  0.00     0.031 C 
ATOM     57  C   UNL     1      18.390  -2.918   7.510  1.00  0.00     0.029 A 
ATOM     58  C   UNL     1      17.239  -2.441   8.117  1.00  0.00     0.049 A 
ATOM     59  H   UNL     1      15.395  -1.912   7.237  1.00  0.00     0.167 HD
ATOM     60  C   UNL     1      15.844  -1.719  10.037  1.00  0.00     0.074 A 
ATOM     61  C   UNL     1      15.622  -1.482  11.449  1.00  0.00     0.031 C 
ATOM     62  C   UNL     1      17.005  -2.189   9.517  1.00  0.00     0.037 A 
BRANCH  49  63
ATOM     63  C   UNL     1      16.924  -2.936   3.379  1.00  0.00     0.058 A 
ATOM     64  C   UNL     1      17.334  -2.013   2.402  1.00  0.00     0.135 A 
ATOM     65  C   UNL     1      17.275  -4.283   3.191  1.00  0.00     0.135 A 
ATOM     66  F   UNL     1      17.011  -0.715   2.520  1.00  0.00    -0.206 F 
ATOM     67  C   UNL     1      18.047  -2.411   1.277  1.00  0.00     0.059 A 
ATOM     68  C   UNL     1      18.014  -4.700   2.088  1.00  0.00     0.059 A 
ATOM     69  F   UNL     1      16.906  -5.209   4.090  1.00  0.00    -0.206 F 
ATOM     70  C   UNL     1      18.387  -3.757   1.131  1.00  0.00     0.060 A 
BRANCH  70  71
ATOM     71  S   UNL     1      19.337  -4.250  -0.323  1.00  0.00     0.124 S 
ATOM     72  O   UNL     1      18.344  -4.104  -1.383  1.00  0.00    -0.237 OA
ATOM     73  O   UNL     1      20.421  -3.274  -0.331  1.00  0.00    -0.237 OA
ATOM     74  O   UNL     1      19.733  -5.622  -0.021  1.00  0.00    -0.744 OA
ENDBRANCH  70  71
ENDBRANCH  49  63
BRANCH  50  75
ATOM     75  C   UNL     1      11.640  -0.082  11.392  1.00  0.00     0.058 A 
ATOM     76  C   UNL     1      12.008   1.030  12.165  1.00  0.00     0.135 A 
ATOM     77  C   UNL     1      10.515  -0.815  11.800  1.00  0.00     0.135 A 
ATOM     78  F   UNL     1      13.078   1.762  11.819  1.00  0.00    -0.206 F 
ATOM     79  C   UNL     1      11.310   1.382  13.316  1.00  0.00     0.059 A 
ATOM     80  C   UNL     1       9.782  -0.464  12.930  1.00  0.00     0.059 A 
ATOM     81  F   UNL     1      10.106  -1.876  11.086  1.00  0.00    -0.206 F 
ATOM     82  C   UNL     1      10.198   0.627  13.691  1.00  0.00     0.060 A 
BRANCH  82  83
ATOM     83  S   UNL     1       9.287   1.104  15.175  1.00  0.00     0.124 S 
ATOM     84  O   UNL     1      10.213   0.704  16.228  1.00  0.00    -0.237 OA
ATOM     85  O   UNL     1       9.120   2.541  14.983  1.00  0.00    -0.237 OA
ATOM     86  O   UNL     1       8.060   0.319  15.081  1.00  0.00    -0.744 OA
ENDBRANCH  82  83
ENDBRANCH  50  75
BRANCH  62  87
ATOM     87  C   UNL     1      18.141  -2.437  10.471  1.00  0.00     0.058 A 
ATOM     88  C   UNL     1      18.122  -3.502  11.385  1.00  0.00     0.135 A 
ATOM     89  C   UNL     1      19.285  -1.622  10.437  1.00  0.00     0.135 A 
ATOM     90  F   UNL     1      17.051  -4.308  11.463  1.00  0.00    -0.206 F 
ATOM     91  C   UNL     1      19.185  -3.733  12.252  1.00  0.00     0.059 A 
ATOM     92  C   UNL     1      20.373  -1.855  11.272  1.00  0.00     0.059 A 
ATOM     93  F   UNL     1      19.360  -0.596   9.574  1.00  0.00    -0.206 F 
ATOM     94  C   UNL     1      20.307  -2.905  12.186  1.00  0.00     0.060 A 
BRANCH  94  95
ATOM     95  S   UNL     1      21.690  -3.234  13.298  1.00  0.00     0.124 S 
ATOM     96  O   UNL     1      21.149  -2.792  14.579  1.00  0.00    -0.237 OA
ATOM     97  O   UNL     1      21.873  -4.675  13.150  1.00  0.00    -0.237 OA
ATOM     98  O   UNL     1      22.768  -2.413  12.754  1.00  0.00    -0.744 OA
ENDBRANCH  94  95
ENDBRANCH  62  87
ENDBRANCH  36  37
ENDBRANCH  28  31
ENDBRANCH  26  27
ENDBRANCH   1  26
TORSDOF 16
