REMARK SMILES CC(C)(C[NH2+]C[C@](C)(O)CO)C(=O)NCCCNC(=O)c1ccc(-c2c3nc(c(-c4c(F)cc(S(=O)(=O)[O-])cc4F)c4ccc([nH]4)c(-c4c(F)cc(S(=O)(=O)[O-])cc4F)c4nc(c(-c5c(F)cc(S(=O)(=O)[O-])cc5F)c5ccc2[nH]5)C=C4)C=C3)cc1
REMARK SMILES IDX 12 1 13 2 14 3 2 5 1 6 3 7 4 8 5 9 6 12 7 13 8 14 9 15 10 17
REMARK SMILES IDX 11 18 15 20 16 21 17 22 18 23 19 24 20 26 21 27 22 28 86 29
REMARK SMILES IDX 23 30 85 31 24 32 25 33 26 34 79 35 27 36 84 37 78 38 80 39
REMARK SMILES IDX 28 40 83 41 77 42 76 43 29 45 63 46 42 47 62 48 43 49 46 50
REMARK SMILES IDX 61 51 81 52 44 53 45 54 60 56 82 57 47 58 30 59 31 60 40 61
REMARK SMILES IDX 32 62 33 63 39 64 41 65 34 66 35 67 36 68 37 69 38 70 64 71
REMARK SMILES IDX 65 72 74 73 66 74 67 75 73 76 75 77 68 78 69 79 70 80 71 81
REMARK SMILES IDX 72 82 48 83 49 84 58 85 50 86 51 87 57 88 59 89 52 90 53 91
REMARK SMILES IDX 54 92 55 93 56 94
REMARK H PARENT 14 4 5 10 5 11 9 16 11 19 18 25 80 44 46 55
REMARK Flexibility Score: inf
ROOT
ATOM      1  C   UNL     1      -4.044   5.259  -0.389  1.00  0.00     0.231 C 
ATOM      2  O   UNL     1      -3.206   5.913  -1.022  1.00  0.00    -0.274 OA
ATOM      3  N   UNL     1      -4.271   5.671   0.886  1.00  0.00    -0.355 N 
ATOM      4  H   UNL     1      -3.721   6.443   1.155  1.00  0.00     0.163 HD
ENDROOT
BRANCH   1   5
ATOM      5  C   UNL     1      -4.812   4.096  -1.049  1.00  0.00     0.092 C 
ATOM      6  C   UNL     1      -4.303   3.935  -2.506  1.00  0.00     0.027 C 
ATOM      7  C   UNL     1      -6.306   4.459  -1.169  1.00  0.00     0.027 C 
BRANCH   5   8
ATOM      8  C   UNL     1      -4.626   2.748  -0.301  1.00  0.00     0.277 C 
BRANCH   8   9
ATOM      9  N   UNL     1      -3.229   2.336  -0.176  1.00  0.00    -0.343 N 
ATOM     10  H   UNL     1      -2.716   3.091   0.279  1.00  0.00     0.346 HD
ATOM     11  H   UNL     1      -2.905   2.137  -1.123  1.00  0.00     0.346 HD
BRANCH   9  12
ATOM     12  C   UNL     1      -3.009   1.104   0.598  1.00  0.00     0.298 C 
BRANCH  12  13
ATOM     13  C   UNL     1      -3.421  -0.251  -0.047  1.00  0.00     0.133 C 
ATOM     14  C   UNL     1      -2.935  -0.385  -1.497  1.00  0.00     0.051 C 
BRANCH  13  15
ATOM     15  O   UNL     1      -4.855  -0.403  -0.021  1.00  0.00    -0.382 OA
ATOM     16  H   UNL     1      -5.098  -1.250  -0.426  1.00  0.00     0.211 HD
ENDBRANCH  13  15
BRANCH  13  17
ATOM     17  C   UNL     1      -2.859  -1.404   0.813  1.00  0.00     0.196 C 
BRANCH  17  18
ATOM     18  O   UNL     1      -3.346  -2.657   0.328  1.00  0.00    -0.393 OA
ATOM     19  H   UNL     1      -4.315  -2.668   0.378  1.00  0.00     0.210 HD
ENDBRANCH  17  18
ENDBRANCH  13  17
ENDBRANCH  12  13
ENDBRANCH   9  12
ENDBRANCH   8   9
ENDBRANCH   5   8
ENDBRANCH   1   5
BRANCH   3  20
ATOM     20  C   UNL     1      -5.163   5.199   1.928  1.00  0.00     0.117 C 
BRANCH  20  21
ATOM     21  C   UNL     1      -4.420   4.532   3.077  1.00  0.00     0.042 C 
BRANCH  21  22
ATOM     22  C   UNL     1      -3.527   5.478   3.870  1.00  0.00     0.118 C 
BRANCH  22  23
ATOM     23  N   UNL     1      -4.277   6.559   4.501  1.00  0.00    -0.352 N 
ATOM     24  C   UNL     1      -4.473   6.848   5.827  1.00  0.00     0.251 C 
ATOM     25  H   UNL     1      -4.712   7.180   3.874  1.00  0.00     0.163 HD
ATOM     26  O   UNL     1      -5.320   7.686   6.141  1.00  0.00    -0.269 OA
BRANCH  24  27
ATOM     27  C   UNL     1      -3.693   6.157   6.875  1.00  0.00     0.039 A 
ATOM     28  C   UNL     1      -4.333   5.777   8.059  1.00  0.00     0.014 A 
ATOM     29  C   UNL     1      -2.329   5.905   6.709  1.00  0.00     0.014 A 
ATOM     30  C   UNL     1      -3.621   5.082   9.040  1.00  0.00     0.010 A 
ATOM     31  C   UNL     1      -1.646   5.134   7.644  1.00  0.00     0.010 A 
ATOM     32  C   UNL     1      -2.281   4.719   8.823  1.00  0.00    -0.014 A 
BRANCH  32  33
ATOM     33  C   UNL     1      -1.528   3.907   9.814  1.00  0.00     0.031 A 
ATOM     34  C   UNL     1      -0.298   4.470  10.475  1.00  0.00     0.074 A 
ATOM     35  C   UNL     1      -1.912   2.639  10.064  1.00  0.00     0.049 A 
ATOM     36  N   UNL     1       0.534   3.890  11.300  1.00  0.00    -0.248 NA
ATOM     37  C   UNL     1       0.060   5.859  10.142  1.00  0.00     0.031 C 
ATOM     38  C   UNL     1      -3.057   1.964   9.448  1.00  0.00     0.029 A 
ATOM     39  N   UNL     1      -1.374   1.685  10.892  1.00  0.00    -0.354 N 
ATOM     40  C   UNL     1       1.518   4.833  11.573  1.00  0.00     0.074 A 
ATOM     41  C   UNL     1       1.211   6.004  10.781  1.00  0.00     0.031 C 
ATOM     42  C   UNL     1      -3.149   0.717   9.936  1.00  0.00     0.029 A 
ATOM     43  C   UNL     1      -2.047   0.486  10.864  1.00  0.00     0.049 A 
ATOM     44  H   UNL     1      -0.581   1.845  11.453  1.00  0.00     0.167 HD
ATOM     45  C   UNL     1       2.568   4.741  12.424  1.00  0.00     0.037 A 
ATOM     46  C   UNL     1      -1.798  -0.673  11.505  1.00  0.00     0.037 A 
ATOM     47  C   UNL     1       2.852   3.580  13.227  1.00  0.00     0.049 A 
ATOM     48  C   UNL     1      -0.622  -0.753  12.441  1.00  0.00     0.074 A 
ATOM     49  C   UNL     1       3.856   3.407  14.163  1.00  0.00     0.029 A 
ATOM     50  N   UNL     1       2.135   2.392  13.186  1.00  0.00    -0.354 N 
ATOM     51  N   UNL     1       0.260   0.172  12.737  1.00  0.00    -0.248 NA
ATOM     52  C   UNL     1      -0.409  -2.031  13.134  1.00  0.00     0.031 C 
ATOM     53  C   UNL     1       3.778   2.099  14.652  1.00  0.00     0.029 A 
ATOM     54  C   UNL     1       2.690   1.474  14.063  1.00  0.00     0.049 A 
ATOM     55  H   UNL     1       1.349   2.226  12.617  1.00  0.00     0.167 HD
ATOM     56  C   UNL     1       1.114  -0.402  13.672  1.00  0.00     0.074 A 
ATOM     57  C   UNL     1       0.634  -1.749  13.902  1.00  0.00     0.031 C 
ATOM     58  C   UNL     1       2.195   0.138  14.287  1.00  0.00     0.037 A 
BRANCH  45  59
ATOM     59  C   UNL     1       3.486   5.929  12.536  1.00  0.00     0.058 A 
ATOM     60  C   UNL     1       3.070   7.131  13.132  1.00  0.00     0.135 A 
ATOM     61  C   UNL     1       4.812   5.853  12.080  1.00  0.00     0.135 A 
ATOM     62  F   UNL     1       1.809   7.266  13.573  1.00  0.00    -0.206 F 
ATOM     63  C   UNL     1       3.924   8.222  13.245  1.00  0.00     0.059 A 
ATOM     64  C   UNL     1       5.694   6.922  12.210  1.00  0.00     0.059 A 
ATOM     65  F   UNL     1       5.265   4.729  11.501  1.00  0.00    -0.206 F 
ATOM     66  C   UNL     1       5.236   8.108  12.783  1.00  0.00     0.060 A 
BRANCH  66  67
ATOM     67  S   UNL     1       6.334   9.531  12.947  1.00  0.00     0.124 S 
ATOM     68  O   UNL     1       5.787  10.439  11.944  1.00  0.00    -0.237 OA
ATOM     69  O   UNL     1       6.127   9.925  14.337  1.00  0.00    -0.237 OA
ATOM     70  O   UNL     1       7.652   8.982  12.644  1.00  0.00    -0.744 OA
ENDBRANCH  66  67
ENDBRANCH  45  59
BRANCH  46  71
ATOM     71  C   UNL     1      -2.692  -1.845  11.298  1.00  0.00     0.058 A 
ATOM     72  C   UNL     1      -3.531  -2.304  12.324  1.00  0.00     0.135 A 
ATOM     73  C   UNL     1      -2.732  -2.524  10.069  1.00  0.00     0.135 A 
ATOM     74  F   UNL     1      -3.525  -1.693  13.518  1.00  0.00    -0.206 F 
ATOM     75  C   UNL     1      -4.364  -3.404  12.148  1.00  0.00     0.059 A 
ATOM     76  C   UNL     1      -3.577  -3.609   9.860  1.00  0.00     0.059 A 
ATOM     77  F   UNL     1      -1.962  -2.114   9.049  1.00  0.00    -0.206 F 
ATOM     78  C   UNL     1      -4.381  -4.049  10.910  1.00  0.00     0.060 A 
BRANCH  78  79
ATOM     79  S   UNL     1      -5.498  -5.449  10.680  1.00  0.00     0.124 S 
ATOM     80  O   UNL     1      -4.844  -6.481  11.476  1.00  0.00    -0.237 OA
ATOM     81  O   UNL     1      -6.753  -4.930  11.215  1.00  0.00    -0.237 OA
ATOM     82  O   UNL     1      -5.480  -5.659   9.236  1.00  0.00    -0.744 OA
ENDBRANCH  78  79
ENDBRANCH  46  71
BRANCH  58  83
ATOM     83  C   UNL     1       2.916  -0.712  15.298  1.00  0.00     0.058 A 
ATOM     84  C   UNL     1       3.701  -1.811  14.917  1.00  0.00     0.135 A 
ATOM     85  C   UNL     1       2.862  -0.388  16.664  1.00  0.00     0.135 A 
ATOM     86  F   UNL     1       3.782  -2.169  13.625  1.00  0.00    -0.206 F 
ATOM     87  C   UNL     1       4.389  -2.573  15.856  1.00  0.00     0.059 A 
ATOM     88  C   UNL     1       3.566  -1.116  17.617  1.00  0.00     0.059 A 
ATOM     89  F   UNL     1       2.134   0.660  17.082  1.00  0.00    -0.206 F 
ATOM     90  C   UNL     1       4.318  -2.215  17.204  1.00  0.00     0.060 A 
BRANCH  90  91
ATOM     91  S   UNL     1       5.244  -3.190  18.407  1.00  0.00     0.124 S 
ATOM     92  O   UNL     1       4.459  -4.419  18.457  1.00  0.00    -0.237 OA
ATOM     93  O   UNL     1       6.556  -3.300  17.776  1.00  0.00    -0.237 OA
ATOM     94  O   UNL     1       5.203  -2.370  19.614  1.00  0.00    -0.744 OA
ENDBRANCH  90  91
ENDBRANCH  58  83
ENDBRANCH  32  33
ENDBRANCH  24  27
ENDBRANCH  22  23
ENDBRANCH  21  22
ENDBRANCH  20  21
ENDBRANCH   3  20
TORSDOF 20
