REMARK SMILES O=C(NCCCNC(=O)[C@H]1CC=CC[C@@H]1C(=O)N[C@@H]1CCCN(c2ccccc2F)C1=O)c1ccc(-c2c3nc(c(-c4c(F)cc(S(=O)(=O)[O-])cc4F)c4ccc([nH]4)c(-c4c(F)cc(S(=O)(=O)[O-])cc4F)c4nc(c(-c5c(F)cc(S(=O)(=O)[O-])cc5F)c5ccc2[nH]5)C=C4)C=C3)cc1
REMARK SMILES IDX 5 1 4 2 3 3 1 4 2 5 33 7 34 8 98 9 35 10 97 11 36 12 37 13
REMARK SMILES IDX 38 14 91 15 39 16 96 17 90 18 92 19 40 20 95 21 89 22 88 23
REMARK SMILES IDX 41 25 75 26 54 27 74 28 55 29 58 30 73 31 93 32 56 33 57 34
REMARK SMILES IDX 72 36 94 37 59 38 42 39 43 40 52 41 44 42 45 43 51 44 53 45
REMARK SMILES IDX 46 46 47 47 48 48 49 49 50 50 76 51 77 52 86 53 78 54 79 55
REMARK SMILES IDX 85 56 87 57 80 58 81 59 82 60 83 61 84 62 60 63 61 64 70 65
REMARK SMILES IDX 62 66 63 67 69 68 71 69 64 70 65 71 66 72 67 73 68 74 6 75
REMARK SMILES IDX 7 76 8 77 9 79 10 80 11 81 15 82 12 83 14 84 13 85 16 86
REMARK SMILES IDX 17 87 18 88 19 90 20 91 31 92 21 93 23 94 32 95 22 96 24 97
REMARK SMILES IDX 25 98 29 99 26 100 28 101 30 102 27 103
REMARK H PARENT 3 6 92 24 58 35 7 78 18 89
REMARK Flexibility Score: inf
ROOT
ATOM      1  C   UNL     1       9.699   9.205   5.768  1.00  0.00     0.042 C 
ENDROOT
BRANCH   1   2
ATOM      2  C   UNL     1       8.888   9.433   7.036  1.00  0.00     0.118 C 
BRANCH   2   3
ATOM      3  N   UNL     1       9.446   8.715   8.173  1.00  0.00    -0.352 N 
ATOM      4  O   UNL     1      10.965   8.223   9.750  1.00  0.00    -0.269 OA
ATOM      5  C   UNL     1      10.430   9.084   9.058  1.00  0.00     0.251 C 
ATOM      6  H   UNL     1       9.057   7.825   8.332  1.00  0.00     0.163 HD
BRANCH   5   7
ATOM      7  C   UNL     1      10.848  10.500   9.182  1.00  0.00     0.039 A 
ATOM      8  C   UNL     1       9.907  11.528   9.127  1.00  0.00     0.014 A 
ATOM      9  C   UNL     1      12.185  10.803   9.462  1.00  0.00     0.014 A 
ATOM     10  C   UNL     1      10.311  12.853   9.221  1.00  0.00     0.010 A 
ATOM     11  C   UNL     1      12.574  12.132   9.675  1.00  0.00     0.010 A 
ATOM     12  C   UNL     1      11.636  13.168   9.557  1.00  0.00    -0.014 A 
BRANCH  12  13
ATOM     13  C   UNL     1      11.957  14.568   9.933  1.00  0.00     0.031 A 
ATOM     14  C   UNL     1      12.920  15.398   9.136  1.00  0.00     0.074 A 
ATOM     15  C   UNL     1      11.320  15.091  11.002  1.00  0.00     0.049 A 
ATOM     16  N   UNL     1      13.287  16.637   9.336  1.00  0.00    -0.248 NA
ATOM     17  C   UNL     1      13.558  14.764   7.972  1.00  0.00     0.031 C 
ATOM     18  C   UNL     1      10.376  14.361  11.857  1.00  0.00     0.029 A 
ATOM     19  N   UNL     1      11.336  16.352  11.541  1.00  0.00    -0.354 N 
ATOM     20  C   UNL     1      14.210  16.929   8.340  1.00  0.00     0.074 A 
ATOM     21  C   UNL     1      14.359  15.732   7.540  1.00  0.00     0.031 C 
ATOM     22  C   UNL     1       9.857  15.199  12.764  1.00  0.00     0.029 A 
ATOM     23  C   UNL     1      10.489  16.503  12.614  1.00  0.00     0.049 A 
ATOM     24  H   UNL     1      11.901  17.079  11.193  1.00  0.00     0.167 HD
ATOM     25  C   UNL     1      14.863  18.094   8.118  1.00  0.00     0.037 A 
ATOM     26  C   UNL     1      10.260  17.563  13.411  1.00  0.00     0.037 A 
ATOM     27  C   UNL     1      14.683  19.283   8.914  1.00  0.00     0.049 A 
ATOM     28  C   UNL     1      11.014  18.832  13.150  1.00  0.00     0.074 A 
ATOM     29  C   UNL     1      15.277  20.523   8.749  1.00  0.00     0.029 A 
ATOM     30  N   UNL     1      13.850  19.384  10.019  1.00  0.00    -0.354 N 
ATOM     31  N   UNL     1      11.873  19.091  12.193  1.00  0.00    -0.248 NA
ATOM     32  C   UNL     1      10.789  19.945  14.080  1.00  0.00     0.031 C 
ATOM     33  C   UNL     1      14.835  21.360   9.778  1.00  0.00     0.029 A 
ATOM     34  C   UNL     1      13.932  20.657  10.559  1.00  0.00     0.049 A 
ATOM     35  H   UNL     1      13.284  18.658  10.368  1.00  0.00     0.167 HD
ATOM     36  C   UNL     1      12.296  20.395  12.409  1.00  0.00     0.074 A 
ATOM     37  C   UNL     1      11.575  20.882  13.567  1.00  0.00     0.031 C 
ATOM     38  C   UNL     1      13.209  21.118  11.717  1.00  0.00     0.037 A 
BRANCH  25  39
ATOM     39  C   UNL     1      15.838  18.165   6.976  1.00  0.00     0.058 A 
ATOM     40  C   UNL     1      17.218  18.247   7.224  1.00  0.00     0.135 A 
ATOM     41  C   UNL     1      15.403  18.276   5.646  1.00  0.00     0.135 A 
ATOM     42  F   UNL     1      17.687  18.140   8.477  1.00  0.00    -0.206 F 
ATOM     43  C   UNL     1      18.130  18.471   6.198  1.00  0.00     0.059 A 
ATOM     44  C   UNL     1      16.301  18.480   4.601  1.00  0.00     0.059 A 
ATOM     45  F   UNL     1      14.097  18.182   5.353  1.00  0.00    -0.206 F 
ATOM     46  C   UNL     1      17.660  18.598   4.890  1.00  0.00     0.060 A 
BRANCH  46  47
ATOM     47  S   UNL     1      18.855  18.912   3.572  1.00  0.00     0.124 S 
ATOM     48  O   UNL     1      19.288  20.271   3.876  1.00  0.00    -0.237 OA
ATOM     49  O   UNL     1      19.844  17.862   3.800  1.00  0.00    -0.237 OA
ATOM     50  O   UNL     1      18.063  18.760   2.355  1.00  0.00    -0.744 OA
ENDBRANCH  46  47
ENDBRANCH  25  39
BRANCH  26  51
ATOM     51  C   UNL     1       9.301  17.446  14.541  1.00  0.00     0.058 A 
ATOM     52  C   UNL     1       9.573  16.613  15.638  1.00  0.00     0.135 A 
ATOM     53  C   UNL     1       8.078  18.133  14.531  1.00  0.00     0.135 A 
ATOM     54  F   UNL     1      10.724  15.924  15.691  1.00  0.00    -0.206 F 
ATOM     55  C   UNL     1       8.659  16.442  16.669  1.00  0.00     0.059 A 
ATOM     56  C   UNL     1       7.158  18.001  15.568  1.00  0.00     0.059 A 
ATOM     57  F   UNL     1       7.776  18.949  13.510  1.00  0.00    -0.206 F 
ATOM     58  C   UNL     1       7.452  17.139  16.625  1.00  0.00     0.060 A 
BRANCH  58  59
ATOM     59  S   UNL     1       6.281  16.912  17.980  1.00  0.00     0.124 S 
ATOM     60  O   UNL     1       5.763  15.578  17.697  1.00  0.00    -0.237 OA
ATOM     61  O   UNL     1       7.141  17.025  19.153  1.00  0.00    -0.237 OA
ATOM     62  O   UNL     1       5.335  18.008  17.792  1.00  0.00    -0.744 OA
ENDBRANCH  58  59
ENDBRANCH  26  51
BRANCH  38  63
ATOM     63  C   UNL     1      13.482  22.514  12.195  1.00  0.00     0.058 A 
ATOM     64  C   UNL     1      13.025  23.622  11.466  1.00  0.00     0.135 A 
ATOM     65  C   UNL     1      14.255  22.751  13.343  1.00  0.00     0.135 A 
ATOM     66  F   UNL     1      12.283  23.445  10.361  1.00  0.00    -0.206 F 
ATOM     67  C   UNL     1      13.341  24.920  11.847  1.00  0.00     0.059 A 
ATOM     68  C   UNL     1      14.563  24.043  13.756  1.00  0.00     0.059 A 
ATOM     69  F   UNL     1      14.700  21.723  14.081  1.00  0.00    -0.206 F 
ATOM     70  C   UNL     1      14.116  25.120  12.991  1.00  0.00     0.060 A 
BRANCH  70  71
ATOM     71  S   UNL     1      14.510  26.813  13.477  1.00  0.00     0.124 S 
ATOM     72  O   UNL     1      15.481  27.197  12.459  1.00  0.00    -0.237 OA
ATOM     73  O   UNL     1      13.209  27.469  13.393  1.00  0.00    -0.237 OA
ATOM     74  O   UNL     1      15.041  26.662  14.828  1.00  0.00    -0.744 OA
ENDBRANCH  70  71
ENDBRANCH  38  63
ENDBRANCH  12  13
ENDBRANCH   5   7
ENDBRANCH   2   3
ENDBRANCH   1   2
BRANCH   1  75
ATOM     75  C   UNL     1       9.546   7.793   5.223  1.00  0.00     0.117 C 
BRANCH  75  76
ATOM     76  N   UNL     1       8.184   7.515   4.811  1.00  0.00    -0.356 N 
ATOM     77  C   UNL     1       7.427   7.888   3.759  1.00  0.00     0.224 C 
ATOM     78  H   UNL     1       7.707   6.923   5.436  1.00  0.00     0.163 HD
ATOM     79  O   UNL     1       6.211   7.681   3.893  1.00  0.00    -0.275 OA
BRANCH  77  80
ATOM     80  C   UNL     1       7.899   8.638   2.508  1.00  0.00     0.095 C 
ATOM     81  C   UNL     1       7.405  10.094   2.662  1.00  0.00     0.041 C 
ATOM     82  C   UNL     1       9.317   8.406   1.973  1.00  0.00     0.095 C 
ATOM     83  C   UNL     1       8.376  11.169   2.320  1.00  0.00    -0.030 C 
ATOM     84  C   UNL     1      10.290   9.582   2.241  1.00  0.00     0.041 C 
ATOM     85  C   UNL     1       9.679  10.942   2.143  1.00  0.00    -0.030 C 
BRANCH  82  86
ATOM     86  C   UNL     1       9.602   7.907   0.540  1.00  0.00     0.224 C 
ATOM     87  O   UNL     1      10.785   7.642   0.257  1.00  0.00    -0.275 OA
ATOM     88  N   UNL     1       8.769   7.655  -0.481  1.00  0.00    -0.344 N 
ATOM     89  H   UNL     1       9.278   7.356  -1.269  1.00  0.00     0.164 HD
BRANCH  88  90
ATOM     90  C   UNL     1       7.338   7.686  -0.785  1.00  0.00     0.172 C 
ATOM     91  C   UNL     1       6.728   9.071  -0.763  1.00  0.00     0.037 C 
ATOM     92  C   UNL     1       6.574   6.516  -0.135  1.00  0.00     0.249 C 
ATOM     93  C   UNL     1       5.218   8.987  -0.688  1.00  0.00     0.025 C 
ATOM     94  N   UNL     1       5.416   6.819   0.580  1.00  0.00    -0.308 N 
ATOM     95  O   UNL     1       6.990   5.366  -0.307  1.00  0.00    -0.272 OA
ATOM     96  C   UNL     1       4.758   8.126   0.481  1.00  0.00     0.126 C 
BRANCH  94  97
ATOM     97  C   UNL     1       4.936   5.899   1.585  1.00  0.00     0.080 A 
ATOM     98  C   UNL     1       3.574   5.832   1.918  1.00  0.00     0.029 A 
ATOM     99  C   UNL     1       5.818   5.085   2.326  1.00  0.00     0.146 A 
ATOM    100  C   UNL     1       3.115   4.970   2.924  1.00  0.00     0.002 A 
ATOM    101  C   UNL     1       5.364   4.229   3.331  1.00  0.00     0.041 A 
ATOM    102  F   UNL     1       7.150   5.202   2.191  1.00  0.00    -0.205 F 
ATOM    103  C   UNL     1       4.008   4.167   3.628  1.00  0.00     0.003 A 
ENDBRANCH  94  97
ENDBRANCH  88  90
ENDBRANCH  82  86
ENDBRANCH  77  80
ENDBRANCH  75  76
ENDBRANCH   1  75
TORSDOF 16
