REMARK SMILES O=C(NCCCNC(=O)c1ccc2c(=O)n(CCc3c[nH]c4ccccc34)c(=O)[nH]c2c1)c1ccc(-c2c3nc(c(-c4c(F)cc(S(=O)(=O)[O-])cc4F)c4ccc([nH]4)c(-c4c(F)cc(S(=O)(=O)[O-])cc4F)c4nc(c(-c5c(F)cc(S(=O)(=O)[O-])cc5F)c5ccc2[nH]5)C=C4)C=C3)cc1
REMARK SMILES IDX 5 1 4 2 3 3 1 4 2 5 33 7 34 8 98 9 35 10 97 11 36 12 37 13
REMARK SMILES IDX 38 14 91 15 39 16 96 17 90 18 92 19 40 20 95 21 89 22 88 23
REMARK SMILES IDX 41 25 75 26 54 27 74 28 55 29 58 30 73 31 93 32 56 33 57 34
REMARK SMILES IDX 72 36 94 37 59 38 42 39 43 40 52 41 44 42 45 43 51 44 53 45
REMARK SMILES IDX 46 46 47 47 48 48 49 49 50 50 76 51 77 52 86 53 78 54 79 55
REMARK SMILES IDX 85 56 87 57 80 58 81 59 82 60 83 61 84 62 60 63 61 64 70 65
REMARK SMILES IDX 62 66 63 67 69 68 71 69 64 70 65 71 66 72 67 73 68 74 6 75
REMARK SMILES IDX 7 76 8 77 9 79 10 80 11 81 32 82 12 83 31 84 13 85 30 86
REMARK SMILES IDX 14 87 28 88 15 90 16 91 29 92 17 93 18 94 19 95 20 96 27 97
REMARK SMILES IDX 21 98 22 99 26 100 23 102 25 103 24 104
REMARK H PARENT 3 6 92 24 58 35 7 78 30 89 21 101
REMARK Flexibility Score: inf
ROOT
ATOM      1  C   UNL     1       4.982  -1.556   2.007  1.00  0.00     0.042 C 
ENDROOT
BRANCH   1   2
ATOM      2  C   UNL     1       4.553  -1.371   0.548  1.00  0.00     0.118 C 
BRANCH   2   3
ATOM      3  N   UNL     1       3.119  -1.155   0.420  1.00  0.00    -0.352 N 
ATOM      4  O   UNL     1       1.188  -0.072   0.138  1.00  0.00    -0.269 OA
ATOM      5  C   UNL     1       2.395  -0.110  -0.097  1.00  0.00     0.251 C 
ATOM      6  H   UNL     1       2.568  -1.894   0.768  1.00  0.00     0.163 HD
BRANCH   5   7
ATOM      7  C   UNL     1       3.009   0.948  -0.936  1.00  0.00     0.039 A 
ATOM      8  C   UNL     1       2.433   2.227  -0.928  1.00  0.00     0.014 A 
ATOM      9  C   UNL     1       4.051   0.674  -1.824  1.00  0.00     0.014 A 
ATOM     10  C   UNL     1       2.893   3.218  -1.803  1.00  0.00     0.010 A 
ATOM     11  C   UNL     1       4.561   1.683  -2.640  1.00  0.00     0.010 A 
ATOM     12  C   UNL     1       3.961   2.952  -2.670  1.00  0.00    -0.014 A 
BRANCH  12  13
ATOM     13  C   UNL     1       4.393   3.921  -3.711  1.00  0.00     0.031 A 
ATOM     14  C   UNL     1       4.221   3.559  -5.165  1.00  0.00     0.074 A 
ATOM     15  C   UNL     1       4.971   5.088  -3.374  1.00  0.00     0.049 A 
ATOM     16  N   UNL     1       4.672   4.163  -6.234  1.00  0.00    -0.248 NA
ATOM     17  C   UNL     1       3.463   2.329  -5.444  1.00  0.00     0.031 C 
ATOM     18  C   UNL     1       5.170   5.572  -2.009  1.00  0.00     0.029 A 
ATOM     19  N   UNL     1       5.504   6.078  -4.162  1.00  0.00    -0.354 N 
ATOM     20  C   UNL     1       4.269   3.377  -7.309  1.00  0.00     0.074 A 
ATOM     21  C   UNL     1       3.602   2.219  -6.756  1.00  0.00     0.031 C 
ATOM     22  C   UNL     1       5.761   6.778  -2.055  1.00  0.00     0.029 A 
ATOM     23  C   UNL     1       6.029   7.127  -3.448  1.00  0.00     0.049 A 
ATOM     24  H   UNL     1       5.509   6.039  -5.146  1.00  0.00     0.167 HD
ATOM     25  C   UNL     1       4.415   3.609  -8.636  1.00  0.00     0.037 A 
ATOM     26  C   UNL     1       6.664   8.238  -3.870  1.00  0.00     0.037 A 
ATOM     27  C   UNL     1       5.070   4.770  -9.180  1.00  0.00     0.049 A 
ATOM     28  C   UNL     1       6.881   8.447  -5.344  1.00  0.00     0.074 A 
ATOM     29  C   UNL     1       5.274   5.106 -10.507  1.00  0.00     0.029 A 
ATOM     30  N   UNL     1       5.625   5.792  -8.421  1.00  0.00    -0.354 N 
ATOM     31  N   UNL     1       6.519   7.685  -6.349  1.00  0.00    -0.248 NA
ATOM     32  C   UNL     1       7.599   9.665  -5.738  1.00  0.00     0.031 C 
ATOM     33  C   UNL     1       5.989   6.309 -10.549  1.00  0.00     0.029 A 
ATOM     34  C   UNL     1       6.186   6.751  -9.250  1.00  0.00     0.049 A 
ATOM     35  H   UNL     1       5.620   5.830  -7.437  1.00  0.00     0.167 HD
ATOM     36  C   UNL     1       6.950   8.340  -7.499  1.00  0.00     0.074 A 
ATOM     37  C   UNL     1       7.581   9.570  -7.061  1.00  0.00     0.031 C 
ATOM     38  C   UNL     1       6.835   7.959  -8.797  1.00  0.00     0.037 A 
BRANCH  25  39
ATOM     39  C   UNL     1       3.857   2.571  -9.577  1.00  0.00     0.058 A 
ATOM     40  C   UNL     1       2.475   2.340  -9.684  1.00  0.00     0.135 A 
ATOM     41  C   UNL     1       4.711   1.774 -10.357  1.00  0.00     0.135 A 
ATOM     42  F   UNL     1       1.610   3.059  -8.950  1.00  0.00    -0.206 F 
ATOM     43  C   UNL     1       1.964   1.319 -10.480  1.00  0.00     0.059 A 
ATOM     44  C   UNL     1       4.220   0.771 -11.190  1.00  0.00     0.059 A 
ATOM     45  F   UNL     1       6.041   1.951 -10.301  1.00  0.00    -0.206 F 
ATOM     46  C   UNL     1       2.847   0.534 -11.223  1.00  0.00     0.060 A 
BRANCH  46  47
ATOM     47  S   UNL     1       2.171  -0.816 -12.212  1.00  0.00     0.124 S 
ATOM     48  O   UNL     1       1.762  -1.759 -11.175  1.00  0.00    -0.237 OA
ATOM     49  O   UNL     1       1.086  -0.160 -12.935  1.00  0.00    -0.237 OA
ATOM     50  O   UNL     1       3.302  -1.238 -13.031  1.00  0.00    -0.744 OA
ENDBRANCH  46  47
ENDBRANCH  25  39
BRANCH  26  51
ATOM     51  C   UNL     1       7.093   9.255  -2.874  1.00  0.00     0.058 A 
ATOM     52  C   UNL     1       6.407  10.473  -2.765  1.00  0.00     0.135 A 
ATOM     53  C   UNL     1       8.138   9.008  -1.968  1.00  0.00     0.135 A 
ATOM     54  F   UNL     1       5.413  10.760  -3.618  1.00  0.00    -0.206 F 
ATOM     55  C   UNL     1       6.725  11.403  -1.781  1.00  0.00     0.059 A 
ATOM     56  C   UNL     1       8.460   9.914  -0.961  1.00  0.00     0.059 A 
ATOM     57  F   UNL     1       8.821   7.854  -2.028  1.00  0.00    -0.206 F 
ATOM     58  C   UNL     1       7.742  11.106  -0.872  1.00  0.00     0.060 A 
BRANCH  58  59
ATOM     59  S   UNL     1       8.060  12.272   0.470  1.00  0.00     0.124 S 
ATOM     60  O   UNL     1       8.595  13.419  -0.254  1.00  0.00    -0.237 OA
ATOM     61  O   UNL     1       6.729  12.441   1.043  1.00  0.00    -0.237 OA
ATOM     62  O   UNL     1       9.013  11.560   1.316  1.00  0.00    -0.744 OA
ENDBRANCH  58  59
ENDBRANCH  26  51
BRANCH  38  63
ATOM     63  C   UNL     1       7.405   8.888  -9.836  1.00  0.00     0.058 A 
ATOM     64  C   UNL     1       8.790   9.067  -9.983  1.00  0.00     0.135 A 
ATOM     65  C   UNL     1       6.559   9.595 -10.706  1.00  0.00     0.135 A 
ATOM     66  F   UNL     1       9.645   8.417  -9.177  1.00  0.00    -0.206 F 
ATOM     67  C   UNL     1       9.314   9.948 -10.924  1.00  0.00     0.059 A 
ATOM     68  C   UNL     1       7.062  10.457 -11.677  1.00  0.00     0.059 A 
ATOM     69  F   UNL     1       5.227   9.450 -10.623  1.00  0.00    -0.206 F 
ATOM     70  C   UNL     1       8.441  10.642 -11.763  1.00  0.00     0.060 A 
BRANCH  70  71
ATOM     71  S   UNL     1       9.136  11.792 -12.969  1.00  0.00     0.124 S 
ATOM     72  O   UNL     1       9.598  12.876 -12.108  1.00  0.00    -0.237 OA
ATOM     73  O   UNL     1      10.183  10.990 -13.596  1.00  0.00    -0.237 OA
ATOM     74  O   UNL     1       8.001  12.113 -13.828  1.00  0.00    -0.744 OA
ENDBRANCH  70  71
ENDBRANCH  38  63
ENDBRANCH  12  13
ENDBRANCH   5   7
ENDBRANCH   2   3
ENDBRANCH   1   2
BRANCH   1  75
ATOM     75  C   UNL     1       4.413  -2.806   2.692  1.00  0.00     0.118 C 
BRANCH  75  76
ATOM     76  N   UNL     1       5.061  -4.034   2.258  1.00  0.00    -0.352 N 
ATOM     77  C   UNL     1       5.750  -4.998   2.950  1.00  0.00     0.251 C 
ATOM     78  H   UNL     1       4.994  -4.204   1.291  1.00  0.00     0.163 HD
ATOM     79  O   UNL     1       6.243  -5.945   2.342  1.00  0.00    -0.269 OA
BRANCH  77  80
ATOM     80  C   UNL     1       5.981  -4.919   4.407  1.00  0.00     0.041 A 
ATOM     81  C   UNL     1       4.933  -4.925   5.335  1.00  0.00     0.015 A 
ATOM     82  C   UNL     1       7.315  -4.925   4.845  1.00  0.00     0.040 A 
ATOM     83  C   UNL     1       5.221  -4.865   6.705  1.00  0.00     0.017 A 
ATOM     84  C   UNL     1       7.591  -4.816   6.206  1.00  0.00     0.056 A 
ATOM     85  C   UNL     1       6.551  -4.776   7.129  1.00  0.00     0.064 A 
ATOM     86  N   UNL     1       8.906  -4.642   6.640  1.00  0.00    -0.307 N 
ATOM     87  C   UNL     1       6.881  -4.493   8.542  1.00  0.00     0.264 A 
ATOM     88  C   UNL     1       9.223  -4.194   7.894  1.00  0.00     0.328 A 
ATOM     89  H   UNL     1       9.638  -4.850   6.016  1.00  0.00     0.171 HD
ATOM     90  O   UNL     1       6.040  -4.673   9.411  1.00  0.00    -0.268 OA
ATOM     91  N   UNL     1       8.166  -4.003   8.767  1.00  0.00    -0.260 N 
ATOM     92  O   UNL     1      10.398  -3.939   8.166  1.00  0.00    -0.248 OA
BRANCH  91  93
ATOM     93  C   UNL     1       8.411  -3.251   9.991  1.00  0.00     0.136 C 
BRANCH  93  94
ATOM     94  C   UNL     1       8.547  -1.744   9.721  1.00  0.00     0.060 C 
BRANCH  94  95
ATOM     95  C   UNL     1       7.304  -1.029   9.280  1.00  0.00    -0.021 A 
ATOM     96  C   UNL     1       6.476  -0.293  10.110  1.00  0.00     0.087 A 
ATOM     97  C   UNL     1       6.731  -0.924   7.966  1.00  0.00     0.003 A 
ATOM     98  N   UNL     1       5.766   0.538   9.288  1.00  0.00    -0.361 N 
ATOM     99  C   UNL     1       5.649  -0.050   8.056  1.00  0.00     0.046 A 
ATOM    100  C   UNL     1       7.012  -1.470   6.705  1.00  0.00     0.010 A 
ATOM    101  H   UNL     1       5.400   1.416   9.541  1.00  0.00     0.166 HD
ATOM    102  C   UNL     1       4.744   0.182   7.015  1.00  0.00     0.026 A 
ATOM    103  C   UNL     1       6.084  -1.313   5.669  1.00  0.00     0.001 A 
ATOM    104  C   UNL     1       4.942  -0.535   5.837  1.00  0.00     0.002 A 
ENDBRANCH  94  95
ENDBRANCH  93  94
ENDBRANCH  91  93
ENDBRANCH  77  80
ENDBRANCH  75  76
ENDBRANCH   1  75
TORSDOF 16
