REMARK SMILES Cc1ccc(S(=O)(=O)Nc2cnc(N(C)C)c(C(=O)NCCCNC(=O)c3ccc(-c4c5nc(c(-c6c(F)cc(S(=O)(=O)[O-])cc6F)c6ccc([nH]6)c(-c6c(F)cc(S(=O)(=O)[O-])cc6F)c6nc(c(-c7c(F)cc(S(=O)(=O)[O-])cc7F)c7ccc4[nH]7)C=C6)C=C5)cc3)c2)c(C)c1
REMARK SMILES IDX 22 1 21 2 20 3 18 4 19 5 17 7 10 8 11 9 93 10 12 11 13 12
REMARK SMILES IDX 9 13 6 15 7 16 8 17 5 18 1 19 2 20 3 21 96 22 4 23 94 24
REMARK SMILES IDX 95 25 14 26 15 27 16 28 23 29 24 30 25 31 26 33 27 34 28 35
REMARK SMILES IDX 92 36 29 37 91 38 30 39 31 40 32 41 85 42 33 43 90 44 84 45
REMARK SMILES IDX 86 46 34 47 89 48 83 49 82 50 35 52 69 53 48 54 68 55 49 56
REMARK SMILES IDX 52 57 67 58 87 59 50 60 51 61 66 63 88 64 53 65 36 66 37 67
REMARK SMILES IDX 46 68 38 69 39 70 45 71 47 72 40 73 41 74 42 75 43 76 44 77
REMARK SMILES IDX 70 78 71 79 80 80 72 81 73 82 79 83 81 84 74 85 75 86 76 87
REMARK SMILES IDX 77 88 78 89 54 90 55 91 64 92 56 93 57 94 63 95 65 96 58 97
REMARK SMILES IDX 59 98 60 99 61 100 62 101
REMARK H PARENT 20 6 9 14 24 32 86 51 52 62
REMARK Flexibility Score: inf
ROOT
ATOM      1  C   UNL     1      -0.003  -1.577   3.663  1.00  0.00     0.042 C 
ENDROOT
BRANCH   1   2
ATOM      2  C   UNL     1       1.037  -1.714   2.548  1.00  0.00     0.118 C 
BRANCH   2   3
ATOM      3  N   UNL     1       1.878  -2.878   2.779  1.00  0.00    -0.352 N 
ATOM      4  C   UNL     1       1.819  -4.169   2.307  1.00  0.00     0.255 C 
ATOM      5  O   UNL     1       2.448  -5.020   2.933  1.00  0.00    -0.269 OA
ATOM      6  H   UNL     1       2.632  -2.710   3.389  1.00  0.00     0.163 HD
BRANCH   4   7
ATOM      7  C   UNL     1       1.057  -4.549   1.090  1.00  0.00     0.084 A 
ATOM      8  C   UNL     1      -1.028  -4.396  -0.139  1.00  0.00     0.068 A 
ATOM      9  C   UNL     1      -0.484  -5.291  -1.034  1.00  0.00     0.140 A 
ATOM     10  C   UNL     1      -0.291  -4.134   1.003  1.00  0.00     0.046 A 
ATOM     11  N   UNL     1       0.775  -5.758  -0.950  1.00  0.00    -0.236 NA
ATOM     12  C   UNL     1       1.601  -5.350   0.057  1.00  0.00     0.141 A 
BRANCH   8  13
ATOM     13  N   UNL     1      -2.239  -3.744  -0.496  1.00  0.00    -0.278 N 
ATOM     14  H   UNL     1      -2.896  -4.259  -1.018  1.00  0.00     0.180 HD
BRANCH  13  15
ATOM     15  S   UNL     1      -2.638  -2.165  -0.094  1.00  0.00     0.262 S 
ATOM     16  O   UNL     1      -2.763  -2.112   1.349  1.00  0.00    -0.201 OA
ATOM     17  O   UNL     1      -3.737  -1.827  -0.970  1.00  0.00    -0.201 OA
BRANCH  15  18
ATOM     18  C   UNL     1      -1.285  -1.065  -0.524  1.00  0.00     0.090 A 
ATOM     19  C   UNL     1       2.351   1.251  -0.465  1.00  0.00     0.044 C 
ATOM     20  C   UNL     1       1.072   0.471  -0.560  1.00  0.00    -0.051 A 
ATOM     21  C   UNL     1       1.045  -0.791  -1.153  1.00  0.00     0.005 A 
ATOM     22  C   UNL     1      -0.124   1.017  -0.082  1.00  0.00     0.008 A 
ATOM     23  C   UNL     1      -0.132  -1.548  -1.155  1.00  0.00     0.023 A 
ATOM     24  C   UNL     1      -1.313   0.264  -0.054  1.00  0.00    -0.030 A 
ATOM     25  C   UNL     1      -2.558   0.972   0.416  1.00  0.00     0.046 C 
ENDBRANCH  15  18
ENDBRANCH  13  15
ENDBRANCH   8  13
BRANCH  12  26
ATOM     26  N   UNL     1       2.919  -5.717  -0.141  1.00  0.00    -0.362 N 
ATOM     27  C   UNL     1       3.168  -6.850  -1.033  1.00  0.00     0.145 C 
ATOM     28  C   UNL     1       4.049  -5.290   0.664  1.00  0.00     0.145 C 
ENDBRANCH  12  26
ENDBRANCH   4   7
ENDBRANCH   2   3
ENDBRANCH   1   2
BRANCH   1  29
ATOM     29  C   UNL     1       0.596  -1.123   4.991  1.00  0.00     0.118 C 
BRANCH  29  30
ATOM     30  N   UNL     1       0.959   0.285   4.969  1.00  0.00    -0.352 N 
ATOM     31  C   UNL     1       0.720   1.252   5.913  1.00  0.00     0.251 C 
ATOM     32  H   UNL     1       1.442   0.586   4.166  1.00  0.00     0.163 HD
ATOM     33  O   UNL     1       0.925   2.430   5.631  1.00  0.00    -0.269 OA
BRANCH  31  34
ATOM     34  C   UNL     1       0.209   0.886   7.254  1.00  0.00     0.039 A 
ATOM     35  C   UNL     1      -0.787   1.681   7.831  1.00  0.00     0.014 A 
ATOM     36  C   UNL     1       0.736  -0.197   7.964  1.00  0.00     0.014 A 
ATOM     37  C   UNL     1      -1.275   1.373   9.103  1.00  0.00     0.010 A 
ATOM     38  C   UNL     1       0.212  -0.535   9.211  1.00  0.00     0.010 A 
ATOM     39  C   UNL     1      -0.787   0.255   9.799  1.00  0.00    -0.014 A 
BRANCH  39  40
ATOM     40  C   UNL     1      -1.288  -0.076  11.157  1.00  0.00     0.031 A 
ATOM     41  C   UNL     1      -0.376   0.053  12.347  1.00  0.00     0.074 A 
ATOM     42  C   UNL     1      -2.544  -0.535  11.314  1.00  0.00     0.049 A 
ATOM     43  N   UNL     1      -0.608  -0.236  13.602  1.00  0.00    -0.248 NA
ATOM     44  C   UNL     1       0.985   0.548  12.088  1.00  0.00     0.031 C 
ATOM     45  C   UNL     1      -3.508  -0.751  10.233  1.00  0.00     0.029 A 
ATOM     46  N   UNL     1      -3.224  -0.910  12.445  1.00  0.00    -0.354 N 
ATOM     47  C   UNL     1       0.581   0.015  14.276  1.00  0.00     0.074 A 
ATOM     48  C   UNL     1       1.543   0.450  13.286  1.00  0.00     0.031 C 
ATOM     49  C   UNL     1      -4.659  -1.205  10.755  1.00  0.00     0.029 A 
ATOM     50  C   UNL     1      -4.509  -1.331  12.202  1.00  0.00     0.049 A 
ATOM     51  H   UNL     1      -2.828  -0.882  13.346  1.00  0.00     0.167 HD
ATOM     52  C   UNL     1       0.843  -0.088  15.601  1.00  0.00     0.037 A 
ATOM     53  C   UNL     1      -5.460  -1.765  13.051  1.00  0.00     0.037 A 
ATOM     54  C   UNL     1      -0.127  -0.479  16.589  1.00  0.00     0.049 A 
ATOM     55  C   UNL     1      -5.166  -1.813  14.524  1.00  0.00     0.074 A 
ATOM     56  C   UNL     1       0.024  -0.561  17.962  1.00  0.00     0.029 A 
ATOM     57  N   UNL     1      -1.436  -0.843  16.309  1.00  0.00    -0.354 N 
ATOM     58  N   UNL     1      -4.050  -1.525  15.150  1.00  0.00    -0.248 NA
ATOM     59  C   UNL     1      -6.263  -2.232  15.408  1.00  0.00     0.031 C 
ATOM     60  C   UNL     1      -1.191  -0.990  18.512  1.00  0.00     0.029 A 
ATOM     61  C   UNL     1      -2.104  -1.150  17.482  1.00  0.00     0.049 A 
ATOM     62  H   UNL     1      -1.832  -0.877  15.408  1.00  0.00     0.167 HD
ATOM     63  C   UNL     1      -4.314  -1.710  16.502  1.00  0.00     0.074 A 
ATOM     64  C   UNL     1      -5.699  -2.123  16.604  1.00  0.00     0.031 C 
ATOM     65  C   UNL     1      -3.486  -1.551  17.563  1.00  0.00     0.037 A 
BRANCH  52  66
ATOM     66  C   UNL     1       2.239   0.233  16.053  1.00  0.00     0.058 A 
ATOM     67  C   UNL     1       2.711   1.555  16.094  1.00  0.00     0.135 A 
ATOM     68  C   UNL     1       3.114  -0.788  16.456  1.00  0.00     0.135 A 
ATOM     69  F   UNL     1       1.919   2.567  15.704  1.00  0.00    -0.206 F 
ATOM     70  C   UNL     1       4.013   1.851  16.484  1.00  0.00     0.059 A 
ATOM     71  C   UNL     1       4.414  -0.513  16.871  1.00  0.00     0.059 A 
ATOM     72  F   UNL     1       2.713  -2.069  16.435  1.00  0.00    -0.206 F 
ATOM     73  C   UNL     1       4.860   0.808  16.863  1.00  0.00     0.060 A 
BRANCH  73  74
ATOM     74  S   UNL     1       6.554   1.199  17.352  1.00  0.00     0.124 S 
ATOM     75  O   UNL     1       7.196   1.377  16.053  1.00  0.00    -0.237 OA
ATOM     76  O   UNL     1       6.384   2.413  18.145  1.00  0.00    -0.237 OA
ATOM     77  O   UNL     1       6.969   0.018  18.103  1.00  0.00    -0.744 OA
ENDBRANCH  73  74
ENDBRANCH  52  66
BRANCH  53  78
ATOM     78  C   UNL     1      -6.796  -2.147  12.528  1.00  0.00     0.058 A 
ATOM     79  C   UNL     1      -7.900  -1.298  12.692  1.00  0.00     0.135 A 
ATOM     80  C   UNL     1      -6.989  -3.350  11.832  1.00  0.00     0.135 A 
ATOM     81  F   UNL     1      -7.762  -0.140  13.354  1.00  0.00    -0.206 F 
ATOM     82  C   UNL     1      -9.155  -1.632  12.193  1.00  0.00     0.059 A 
ATOM     83  C   UNL     1      -8.231  -3.697  11.309  1.00  0.00     0.059 A 
ATOM     84  F   UNL     1      -5.959  -4.187  11.637  1.00  0.00    -0.206 F 
ATOM     85  C   UNL     1      -9.310  -2.834  11.502  1.00  0.00     0.060 A 
BRANCH  85  86
ATOM     86  S   UNL     1     -10.928  -3.234  10.804  1.00  0.00     0.124 S 
ATOM     87  O   UNL     1     -11.644  -3.711  11.981  1.00  0.00    -0.237 OA
ATOM     88  O   UNL     1     -11.363  -1.947  10.270  1.00  0.00    -0.237 OA
ATOM     89  O   UNL     1     -10.615  -4.245   9.799  1.00  0.00    -0.744 OA
ENDBRANCH  85  86
ENDBRANCH  53  78
BRANCH  65  90
ATOM     90  C   UNL     1      -4.063  -1.799  18.925  1.00  0.00     0.058 A 
ATOM     91  C   UNL     1      -4.270  -3.100  19.407  1.00  0.00     0.135 A 
ATOM     92  C   UNL     1      -4.376  -0.724  19.771  1.00  0.00     0.135 A 
ATOM     93  F   UNL     1      -3.991  -4.160  18.632  1.00  0.00    -0.206 F 
ATOM     94  C   UNL     1      -4.788  -3.328  20.678  1.00  0.00     0.059 A 
ATOM     95  C   UNL     1      -4.878  -0.929  21.052  1.00  0.00     0.059 A 
ATOM     96  F   UNL     1      -4.188   0.539  19.358  1.00  0.00    -0.206 F 
ATOM     97  C   UNL     1      -5.092  -2.236  21.492  1.00  0.00     0.060 A 
BRANCH  97  98
ATOM     98  S   UNL     1      -5.738  -2.537  23.151  1.00  0.00     0.124 S 
ATOM     99  O   UNL     1      -7.144  -2.806  22.873  1.00  0.00    -0.237 OA
ATOM    100  O   UNL     1      -4.949  -3.682  23.596  1.00  0.00    -0.237 OA
ATOM    101  O   UNL     1      -5.462  -1.286  23.852  1.00  0.00    -0.744 OA
ENDBRANCH  97  98
ENDBRANCH  65  90
ENDBRANCH  39  40
ENDBRANCH  31  34
ENDBRANCH  29  30
ENDBRANCH   1  29
TORSDOF 17
