REMARK SMILES O=C(NCCCNC(=O)c1cccn1CC(=O)N1CC[C@H]2CCCC[C@H]2C1)c1ccc(-c2c3nc(c(-c4c(F)cc(S(=O)(=O)[O-])cc4F)c4ccc([nH]4)c(-c4c(F)cc(S(=O)(=O)[O-])cc4F)c4nc(c(-c5c(F)cc(S(=O)(=O)[O-])cc5F)c5ccc2[nH]5)C=C4)C=C3)cc1
REMARK SMILES IDX 5 1 4 2 3 3 1 4 2 5 28 7 29 8 93 9 30 10 92 11 31 12 32 13
REMARK SMILES IDX 33 14 86 15 34 16 91 17 85 18 87 19 35 20 90 21 84 22 83 23
REMARK SMILES IDX 36 25 70 26 49 27 69 28 50 29 53 30 68 31 88 32 51 33 52 34
REMARK SMILES IDX 67 36 89 37 54 38 37 39 38 40 47 41 39 42 40 43 46 44 48 45
REMARK SMILES IDX 41 46 42 47 43 48 44 49 45 50 71 51 72 52 81 53 73 54 74 55
REMARK SMILES IDX 80 56 82 57 75 58 76 59 77 60 78 61 79 62 55 63 56 64 65 65
REMARK SMILES IDX 57 66 58 67 64 68 66 69 59 70 60 71 61 72 62 73 63 74 6 75
REMARK SMILES IDX 7 76 8 77 9 79 10 80 11 81 14 82 12 83 13 84 15 85 16 86
REMARK SMILES IDX 17 87 18 88 19 89 27 90 20 91 26 92 21 93 25 94 22 95 24 96
REMARK SMILES IDX 23 97
REMARK H PARENT 3 6 87 24 53 35 7 78
REMARK Flexibility Score: inf
ROOT
ATOM      1  C   UNL     1       4.555   1.659   1.398  1.00  0.00     0.042 C 
ENDROOT
BRANCH   1   2
ATOM      2  C   UNL     1       4.139   0.209   1.206  1.00  0.00     0.118 C 
BRANCH   2   3
ATOM      3  N   UNL     1       2.768  -0.011   0.812  1.00  0.00    -0.352 N 
ATOM      4  O   UNL     1       0.969  -0.282  -0.458  1.00  0.00    -0.269 OA
ATOM      5  C   UNL     1       2.076   0.245  -0.345  1.00  0.00     0.251 C 
ATOM      6  H   UNL     1       2.218  -0.428   1.514  1.00  0.00     0.163 HD
BRANCH   5   7
ATOM      7  C   UNL     1       2.543   1.177  -1.409  1.00  0.00     0.039 A 
ATOM      8  C   UNL     1       3.874   1.352  -1.799  1.00  0.00     0.014 A 
ATOM      9  C   UNL     1       1.541   1.898  -2.084  1.00  0.00     0.014 A 
ATOM     10  C   UNL     1       4.198   2.272  -2.801  1.00  0.00     0.010 A 
ATOM     11  C   UNL     1       1.857   2.808  -3.096  1.00  0.00     0.010 A 
ATOM     12  C   UNL     1       3.191   2.990  -3.466  1.00  0.00    -0.014 A 
BRANCH  12  13
ATOM     13  C   UNL     1       3.556   3.685  -4.733  1.00  0.00     0.031 A 
ATOM     14  C   UNL     1       3.662   2.656  -5.899  1.00  0.00     0.074 A 
ATOM     15  C   UNL     1       3.817   5.034  -4.680  1.00  0.00     0.049 A 
ATOM     16  N   UNL     1       4.439   2.641  -6.938  1.00  0.00    -0.248 NA
ATOM     17  C   UNL     1       2.846   1.405  -5.848  1.00  0.00     0.031 C 
ATOM     18  C   UNL     1       3.561   5.903  -3.506  1.00  0.00     0.029 A 
ATOM     19  N   UNL     1       4.335   5.960  -5.575  1.00  0.00    -0.354 N 
ATOM     20  C   UNL     1       4.065   1.538  -7.752  1.00  0.00     0.074 A 
ATOM     21  C   UNL     1       3.172   0.750  -6.966  1.00  0.00     0.031 C 
ATOM     22  C   UNL     1       3.998   7.168  -3.723  1.00  0.00     0.029 A 
ATOM     23  C   UNL     1       4.576   7.271  -5.050  1.00  0.00     0.049 A 
ATOM     24  H   UNL     1       4.525   5.730  -6.513  1.00  0.00     0.167 HD
ATOM     25  C   UNL     1       4.420   1.425  -9.070  1.00  0.00     0.037 A 
ATOM     26  C   UNL     1       5.227   8.340  -5.628  1.00  0.00     0.037 A 
ATOM     27  C   UNL     1       5.225   2.541  -9.425  1.00  0.00     0.049 A 
ATOM     28  C   UNL     1       5.466   7.912  -7.008  1.00  0.00     0.074 A 
ATOM     29  C   UNL     1       6.511   2.883  -9.105  1.00  0.00     0.029 A 
ATOM     30  N   UNL     1       4.559   3.640  -9.911  1.00  0.00    -0.354 N 
ATOM     31  N   UNL     1       4.557   7.869  -7.932  1.00  0.00    -0.248 NA
ATOM     32  C   UNL     1       6.809   7.442  -7.375  1.00  0.00     0.031 C 
ATOM     33  C   UNL     1       6.428   4.275  -8.933  1.00  0.00     0.029 A 
ATOM     34  C   UNL     1       5.195   4.742  -9.407  1.00  0.00     0.049 A 
ATOM     35  H   UNL     1       3.776   3.635 -10.507  1.00  0.00     0.167 HD
ATOM     36  C   UNL     1       5.140   7.048  -8.861  1.00  0.00     0.074 A 
ATOM     37  C   UNL     1       6.569   7.116  -8.641  1.00  0.00     0.031 C 
ATOM     38  C   UNL     1       4.448   5.971  -9.308  1.00  0.00     0.037 A 
BRANCH  25  39
ATOM     39  C   UNL     1       3.957   0.559 -10.220  1.00  0.00     0.058 A 
ATOM     40  C   UNL     1       4.752   0.550 -11.401  1.00  0.00     0.135 A 
ATOM     41  C   UNL     1       2.657   0.060 -10.359  1.00  0.00     0.135 A 
ATOM     42  F   UNL     1       6.042   0.925 -11.367  1.00  0.00    -0.206 F 
ATOM     43  C   UNL     1       4.239   0.242 -12.655  1.00  0.00     0.059 A 
ATOM     44  C   UNL     1       2.135  -0.307 -11.608  1.00  0.00     0.059 A 
ATOM     45  F   UNL     1       1.832  -0.017  -9.307  1.00  0.00    -0.206 F 
ATOM     46  C   UNL     1       2.913  -0.151 -12.755  1.00  0.00     0.060 A 
BRANCH  46  47
ATOM     47  S   UNL     1       2.230  -0.420 -14.405  1.00  0.00     0.124 S 
ATOM     48  O   UNL     1       2.127   0.944 -14.911  1.00  0.00    -0.237 OA
ATOM     49  O   UNL     1       3.256  -1.250 -15.032  1.00  0.00    -0.237 OA
ATOM     50  O   UNL     1       0.966  -1.097 -14.138  1.00  0.00    -0.744 OA
ENDBRANCH  46  47
ENDBRANCH  25  39
BRANCH  26  51
ATOM     51  C   UNL     1       5.817   9.712  -5.291  1.00  0.00     0.058 A 
ATOM     52  C   UNL     1       5.698  10.409  -4.084  1.00  0.00     0.135 A 
ATOM     53  C   UNL     1       6.694  10.352  -6.228  1.00  0.00     0.135 A 
ATOM     54  F   UNL     1       4.805  10.029  -3.161  1.00  0.00    -0.206 F 
ATOM     55  C   UNL     1       6.506  11.531  -3.772  1.00  0.00     0.059 A 
ATOM     56  C   UNL     1       7.542  11.414  -5.926  1.00  0.00     0.059 A 
ATOM     57  F   UNL     1       6.795   9.949  -7.502  1.00  0.00    -0.206 F 
ATOM     58  C   UNL     1       7.473  11.981  -4.674  1.00  0.00     0.060 A 
BRANCH  58  59
ATOM     59  S   UNL     1       8.736  13.186  -4.194  1.00  0.00     0.124 S 
ATOM     60  O   UNL     1       8.046  14.454  -4.393  1.00  0.00    -0.237 OA
ATOM     61  O   UNL     1       9.008  12.816  -2.809  1.00  0.00    -0.237 OA
ATOM     62  O   UNL     1       9.830  12.913  -5.124  1.00  0.00    -0.744 OA
ENDBRANCH  58  59
ENDBRANCH  26  51
BRANCH  38  63
ATOM     63  C   UNL     1       2.937   6.123  -9.273  1.00  0.00     0.058 A 
ATOM     64  C   UNL     1       2.326   7.121 -10.052  1.00  0.00     0.135 A 
ATOM     65  C   UNL     1       2.079   5.390  -8.434  1.00  0.00     0.135 A 
ATOM     66  F   UNL     1       3.072   7.870 -10.880  1.00  0.00    -0.206 F 
ATOM     67  C   UNL     1       0.953   7.372 -10.006  1.00  0.00     0.059 A 
ATOM     68  C   UNL     1       0.698   5.614  -8.373  1.00  0.00     0.059 A 
ATOM     69  F   UNL     1       2.563   4.435  -7.636  1.00  0.00    -0.206 F 
ATOM     70  C   UNL     1       0.141   6.610  -9.167  1.00  0.00     0.060 A 
BRANCH  70  71
ATOM     71  S   UNL     1      -1.639   6.928  -9.155  1.00  0.00     0.124 S 
ATOM     72  O   UNL     1      -1.708   8.320  -8.722  1.00  0.00    -0.237 OA
ATOM     73  O   UNL     1      -2.002   6.683 -10.547  1.00  0.00    -0.237 OA
ATOM     74  O   UNL     1      -2.160   5.955  -8.197  1.00  0.00    -0.744 OA
ENDBRANCH  70  71
ENDBRANCH  38  63
ENDBRANCH  12  13
ENDBRANCH   5   7
ENDBRANCH   2   3
ENDBRANCH   1   2
BRANCH   1  75
ATOM     75  C   UNL     1       4.228   2.318   2.738  1.00  0.00     0.118 C 
BRANCH  75  76
ATOM     76  N   UNL     1       4.911   1.701   3.864  1.00  0.00    -0.351 N 
ATOM     77  C   UNL     1       5.806   2.198   4.781  1.00  0.00     0.267 C 
ATOM     78  H   UNL     1       4.690   0.750   3.994  1.00  0.00     0.163 HD
ATOM     79  O   UNL     1       6.293   1.384   5.563  1.00  0.00    -0.268 OA
BRANCH  77  80
ATOM     80  C   UNL     1       6.152   3.609   4.810  1.00  0.00     0.107 A 
ATOM     81  C   UNL     1       5.317   4.716   4.722  1.00  0.00     0.033 A 
ATOM     82  N   UNL     1       7.430   4.114   5.045  1.00  0.00    -0.334 N 
ATOM     83  C   UNL     1       6.088   5.887   4.908  1.00  0.00     0.020 A 
ATOM     84  C   UNL     1       7.382   5.486   5.141  1.00  0.00     0.087 A 
BRANCH  82  85
ATOM     85  C   UNL     1       8.650   3.338   5.234  1.00  0.00     0.222 C 
BRANCH  85  86
ATOM     86  C   UNL     1       9.826   3.539   4.280  1.00  0.00     0.242 C 
ATOM     87  O   UNL     1      10.968   3.544   4.759  1.00  0.00    -0.273 OA
BRANCH  86  88
ATOM     88  N   UNL     1       9.646   3.453   2.911  1.00  0.00    -0.341 N 
ATOM     89  C   UNL     1       8.513   3.955   2.159  1.00  0.00     0.120 C 
ATOM     90  C   UNL     1      10.672   2.844   2.064  1.00  0.00     0.123 C 
ATOM     91  C   UNL     1       7.813   2.792   1.491  1.00  0.00     0.025 C 
ATOM     92  C   UNL     1      10.062   1.648   1.291  1.00  0.00     0.012 C 
ATOM     93  C   UNL     1       8.751   2.004   0.562  1.00  0.00    -0.005 C 
ATOM     94  C   UNL     1      11.034   1.008   0.302  1.00  0.00     0.006 C 
ATOM     95  C   UNL     1       8.919   2.757  -0.767  1.00  0.00     0.004 C 
ATOM     96  C   UNL     1      11.401   1.952  -0.829  1.00  0.00     0.000 C 
ATOM     97  C   UNL     1      10.201   2.536  -1.564  1.00  0.00     0.000 C 
ENDBRANCH  86  88
ENDBRANCH  85  86
ENDBRANCH  82  85
ENDBRANCH  77  80
ENDBRANCH  75  76
ENDBRANCH   1  75
TORSDOF 16
