REMARK SMILES Cc1cc2c(=O)c3ccccc3oc2c(C(=O)NCCCNC(=O)c2ccc(-c3c4nc(c(-c5c(F)cc(S(=O)(=O)[O-])cc5F)c5ccc([nH]5)c(-c5c(F)cc(S(=O)(=O)[O-])cc5F)c5nc(c(-c6c(F)cc(S(=O)(=O)[O-])cc6F)c6ccc3[nH]6)C=C5)C=C4)cc2)c1C
REMARK SMILES IDX 22 1 23 2 24 3 21 5 20 6 19 7 18 8 16 9 17 10 15 12 1 13
REMARK SMILES IDX 2 14 3 15 91 16 4 17 92 18 5 19 14 20 6 21 7 22 13 23 8 24
REMARK SMILES IDX 12 25 9 26 11 27 10 28 25 29 26 30 90 31 27 32 89 33 28 34
REMARK SMILES IDX 29 35 30 36 83 37 31 38 88 39 82 40 84 41 32 42 87 43 81 44
REMARK SMILES IDX 80 45 33 47 67 48 46 49 66 50 47 51 50 52 65 53 85 54 48 55
REMARK SMILES IDX 49 56 64 58 86 59 51 60 34 61 35 62 44 63 36 64 37 65 43 66
REMARK SMILES IDX 45 67 38 68 39 69 40 70 41 71 42 72 68 73 69 74 78 75 70 76
REMARK SMILES IDX 71 77 77 78 79 79 72 80 73 81 74 82 75 83 76 84 52 85 53 86
REMARK SMILES IDX 62 87 54 88 55 89 61 90 63 91 56 92 57 93 58 94 59 95 60 96
REMARK H PARENT 22 4 18 11 84 46 50 57
REMARK Flexibility Score: inf
ROOT
ATOM      1  N   UNL     1      -0.064  -7.006  -1.887  1.00  0.00    -0.352 N 
ATOM      2  C   UNL     1      -0.046  -8.083  -1.026  1.00  0.00     0.251 C 
ATOM      3  O   UNL     1       0.978  -8.743  -0.914  1.00  0.00    -0.269 OA
ATOM      4  H   UNL     1       0.716  -6.936  -2.484  1.00  0.00     0.163 HD
ENDROOT
BRANCH   1   5
ATOM      5  C   UNL     1      -1.059  -5.956  -2.048  1.00  0.00     0.118 C 
BRANCH   5   6
ATOM      6  C   UNL     1      -0.474  -4.569  -1.829  1.00  0.00     0.042 C 
BRANCH   6   7
ATOM      7  C   UNL     1       0.393  -4.052  -2.981  1.00  0.00     0.118 C 
BRANCH   7   8
ATOM      8  N   UNL     1      -0.350  -3.113  -3.801  1.00  0.00    -0.352 N 
ATOM      9  C   UNL     1      -0.616  -1.774  -3.888  1.00  0.00     0.255 C 
ATOM     10  O   UNL     1      -1.488  -1.557  -4.743  1.00  0.00    -0.269 OA
ATOM     11  H   UNL     1      -0.809  -3.593  -4.527  1.00  0.00     0.163 HD
BRANCH   9  12
ATOM     12  C   UNL     1      -0.043  -0.580  -3.133  1.00  0.00     0.086 A 
ATOM     13  C   UNL     1       1.128   0.865   0.280  1.00  0.00     0.044 C 
ATOM     14  C   UNL     1       0.690   0.735  -1.161  1.00  0.00    -0.046 A 
ATOM     15  C   UNL     1       0.536   1.919  -1.879  1.00  0.00     0.019 A 
ATOM     16  C   UNL     1       0.414  -0.525  -1.779  1.00  0.00    -0.032 A 
ATOM     17  C   UNL     1       0.137   1.881  -3.205  1.00  0.00     0.066 A 
ATOM     18  C   UNL     1       0.621  -1.735  -0.925  1.00  0.00     0.045 C 
ATOM     19  C   UNL     1      -0.025   3.153  -3.929  1.00  0.00     0.200 A 
ATOM     20  C   UNL     1      -0.138   0.665  -3.840  1.00  0.00     0.151 A 
ATOM     21  O   UNL     1       0.242   4.231  -3.412  1.00  0.00    -0.288 OA
ATOM     22  C   UNL     1      -0.530   3.075  -5.298  1.00  0.00     0.065 A 
ATOM     23  O   UNL     1      -0.482   0.645  -5.182  1.00  0.00    -0.455 OA
ATOM     24  C   UNL     1      -0.791   4.235  -6.035  1.00  0.00     0.016 A 
ATOM     25  C   UNL     1      -0.744   1.817  -5.842  1.00  0.00     0.138 A 
ATOM     26  C   UNL     1      -1.278   4.126  -7.337  1.00  0.00     0.001 A 
ATOM     27  C   UNL     1      -1.239   1.712  -7.142  1.00  0.00     0.048 A 
ATOM     28  C   UNL     1      -1.506   2.864  -7.888  1.00  0.00     0.004 A 
ENDBRANCH   9  12
ENDBRANCH   7   8
ENDBRANCH   6   7
ENDBRANCH   5   6
ENDBRANCH   1   5
BRANCH   2  29
ATOM     29  C   UNL     1      -1.245  -8.422  -0.220  1.00  0.00     0.039 A 
ATOM     30  C   UNL     1      -2.527  -8.324  -0.761  1.00  0.00     0.014 A 
ATOM     31  C   UNL     1      -1.083  -8.854   1.101  1.00  0.00     0.014 A 
ATOM     32  C   UNL     1      -3.639  -8.475   0.059  1.00  0.00     0.010 A 
ATOM     33  C   UNL     1      -2.207  -9.108   1.898  1.00  0.00     0.010 A 
ATOM     34  C   UNL     1      -3.497  -8.877   1.397  1.00  0.00    -0.014 A 
BRANCH  34  35
ATOM     35  C   UNL     1      -4.713  -9.046   2.240  1.00  0.00     0.031 A 
ATOM     36  C   UNL     1      -4.931  -8.184   3.458  1.00  0.00     0.074 A 
ATOM     37  C   UNL     1      -5.660  -9.926   1.856  1.00  0.00     0.049 A 
ATOM     38  N   UNL     1      -5.926  -8.199   4.308  1.00  0.00    -0.248 NA
ATOM     39  C   UNL     1      -3.904  -7.174   3.765  1.00  0.00     0.031 C 
ATOM     40  C   UNL     1      -5.575 -10.798   0.679  1.00  0.00     0.029 A 
ATOM     41  N   UNL     1      -6.895 -10.210   2.382  1.00  0.00    -0.354 N 
ATOM     42  C   UNL     1      -5.643  -7.216   5.250  1.00  0.00     0.074 A 
ATOM     43  C   UNL     1      -4.366  -6.642   4.889  1.00  0.00     0.031 C 
ATOM     44  C   UNL     1      -6.733 -11.458   0.532  1.00  0.00     0.029 A 
ATOM     45  C   UNL     1      -7.614 -11.123   1.644  1.00  0.00     0.049 A 
ATOM     46  H   UNL     1      -7.235  -9.799   3.210  1.00  0.00     0.167 HD
ATOM     47  C   UNL     1      -6.389  -6.817   6.309  1.00  0.00     0.037 A 
ATOM     48  C   UNL     1      -8.838 -11.646   1.847  1.00  0.00     0.037 A 
ATOM     49  C   UNL     1      -7.674  -7.373   6.646  1.00  0.00     0.049 A 
ATOM     50  C   UNL     1      -9.610 -11.230   3.068  1.00  0.00     0.074 A 
ATOM     51  C   UNL     1      -8.497  -7.051   7.712  1.00  0.00     0.029 A 
ATOM     52  N   UNL     1      -8.334  -8.348   5.914  1.00  0.00    -0.354 N 
ATOM     53  N   UNL     1      -9.300 -10.333   3.972  1.00  0.00    -0.248 NA
ATOM     54  C   UNL     1     -10.888 -11.914   3.308  1.00  0.00     0.031 C 
ATOM     55  C   UNL     1      -9.641  -7.851   7.640  1.00  0.00     0.029 A 
ATOM     56  C   UNL     1      -9.549  -8.644   6.508  1.00  0.00     0.049 A 
ATOM     57  H   UNL     1      -7.989  -8.768   5.093  1.00  0.00     0.167 HD
ATOM     58  C   UNL     1     -10.351 -10.334   4.880  1.00  0.00     0.074 A 
ATOM     59  C   UNL     1     -11.315 -11.305   4.406  1.00  0.00     0.031 C 
ATOM     60  C   UNL     1     -10.501  -9.604   6.011  1.00  0.00     0.037 A 
BRANCH  47  61
ATOM     61  C   UNL     1      -5.855  -5.717   7.184  1.00  0.00     0.058 A 
ATOM     62  C   UNL     1      -5.882  -4.377   6.769  1.00  0.00     0.135 A 
ATOM     63  C   UNL     1      -5.412  -5.990   8.489  1.00  0.00     0.135 A 
ATOM     64  F   UNL     1      -6.278  -4.063   5.525  1.00  0.00    -0.206 F 
ATOM     65  C   UNL     1      -5.494  -3.345   7.618  1.00  0.00     0.059 A 
ATOM     66  C   UNL     1      -5.037  -4.973   9.362  1.00  0.00     0.059 A 
ATOM     67  F   UNL     1      -5.362  -7.256   8.934  1.00  0.00    -0.206 F 
ATOM     68  C   UNL     1      -5.082  -3.652   8.916  1.00  0.00     0.060 A 
BRANCH  68  69
ATOM     69  S   UNL     1      -4.634  -2.294  10.018  1.00  0.00     0.124 S 
ATOM     70  O   UNL     1      -3.391  -1.825   9.413  1.00  0.00    -0.237 OA
ATOM     71  O   UNL     1      -5.778  -1.398   9.888  1.00  0.00    -0.237 OA
ATOM     72  O   UNL     1      -4.491  -2.941  11.319  1.00  0.00    -0.744 OA
ENDBRANCH  68  69
ENDBRANCH  47  61
BRANCH  48  73
ATOM     73  C   UNL     1      -9.404 -12.636   0.892  1.00  0.00     0.058 A 
ATOM     74  C   UNL     1     -10.529 -12.326   0.116  1.00  0.00     0.135 A 
ATOM     75  C   UNL     1      -8.846 -13.917   0.752  1.00  0.00     0.135 A 
ATOM     76  F   UNL     1     -11.103 -11.117   0.218  1.00  0.00    -0.206 F 
ATOM     77  C   UNL     1     -11.099 -13.257  -0.747  1.00  0.00     0.059 A 
ATOM     78  C   UNL     1      -9.379 -14.855  -0.125  1.00  0.00     0.059 A 
ATOM     79  F   UNL     1      -7.759 -14.260   1.462  1.00  0.00    -0.206 F 
ATOM     80  C   UNL     1     -10.517 -14.521  -0.857  1.00  0.00     0.060 A 
BRANCH  80  81
ATOM     81  S   UNL     1     -11.255 -15.722  -1.986  1.00  0.00     0.124 S 
ATOM     82  O   UNL     1     -12.450 -16.117  -1.250  1.00  0.00    -0.237 OA
ATOM     83  O   UNL     1     -11.479 -14.920  -3.185  1.00  0.00    -0.237 OA
ATOM     84  O   UNL     1     -10.221 -16.745  -2.109  1.00  0.00    -0.744 OA
ENDBRANCH  80  81
ENDBRANCH  48  73
BRANCH  60  85
ATOM     85  C   UNL     1     -11.761  -9.807   6.801  1.00  0.00     0.058 A 
ATOM     86  C   UNL     1     -11.954 -10.952   7.588  1.00  0.00     0.135 A 
ATOM     87  C   UNL     1     -12.759  -8.819   6.816  1.00  0.00     0.135 A 
ATOM     88  F   UNL     1     -11.032 -11.927   7.599  1.00  0.00    -0.206 F 
ATOM     89  C   UNL     1     -13.101 -11.118   8.354  1.00  0.00     0.059 A 
ATOM     90  C   UNL     1     -13.904  -8.954   7.594  1.00  0.00     0.059 A 
ATOM     91  F   UNL     1     -12.616  -7.702   6.085  1.00  0.00    -0.206 F 
ATOM     92  C   UNL     1     -14.069 -10.111   8.354  1.00  0.00     0.060 A 
BRANCH  92  93
ATOM     93  S   UNL     1     -15.532 -10.323   9.389  1.00  0.00     0.124 S 
ATOM     94  O   UNL     1     -16.267 -11.347   8.654  1.00  0.00    -0.237 OA
ATOM     95  O   UNL     1     -14.955 -10.746  10.661  1.00  0.00    -0.237 OA
ATOM     96  O   UNL     1     -16.140  -8.996   9.395  1.00  0.00    -0.744 OA
ENDBRANCH  92  93
ENDBRANCH  60  85
ENDBRANCH  34  35
ENDBRANCH   2  29
TORSDOF 13
