REMARK SMILES C[N@H+]1CCO[C@H](c2noc(-c3ccccc3C(=O)NCCCNC(=O)c3ccc(-c4c5nc(c(-c6c(F)cc(S(=O)(=O)[O-])cc6F)c6ccc([nH]6)c(-c6c(F)cc(S(=O)(=O)[O-])cc6F)c6nc(c(-c7c(F)cc(S(=O)(=O)[O-])cc7F)c7ccc4[nH]7)C=C6)C=C5)cc3)n2)C1
REMARK SMILES IDX 21 1 20 2 19 3 17 4 18 5 16 7 11 8 12 9 13 10 15 11 14 12
REMARK SMILES IDX 10 13 7 14 8 15 92 16 9 17 6 18 1 19 2 20 3 21 93 22 4 24
REMARK SMILES IDX 5 25 22 26 23 27 24 28 25 30 26 31 27 32 91 33 28 34 90 35
REMARK SMILES IDX 29 36 30 37 31 38 84 39 32 40 89 41 83 42 85 43 33 44 88 45
REMARK SMILES IDX 82 46 81 47 34 49 68 50 47 51 67 52 48 53 51 54 66 55 86 56
REMARK SMILES IDX 49 57 50 58 65 60 87 61 52 62 35 63 36 64 45 65 37 66 38 67
REMARK SMILES IDX 44 68 46 69 39 70 40 71 41 72 42 73 43 74 69 75 70 76 79 77
REMARK SMILES IDX 71 78 72 79 78 80 80 81 73 82 74 83 75 84 76 85 77 86 53 87
REMARK SMILES IDX 54 88 63 89 55 90 56 91 62 92 64 93 57 94 58 95 59 96 60 97
REMARK SMILES IDX 61 98
REMARK H PARENT 19 6 2 23 23 29 85 48 51 59
REMARK Flexibility Score: inf
ROOT
ATOM      1  C   UNL     1      -5.106   2.081   2.255  1.00  0.00     0.042 C 
ENDROOT
BRANCH   1   2
ATOM      2  C   UNL     1      -4.886   0.619   2.602  1.00  0.00     0.118 C 
BRANCH   2   3
ATOM      3  N   UNL     1      -4.409   0.372   3.951  1.00  0.00    -0.352 N 
ATOM      4  C   UNL     1      -4.525  -0.767   4.716  1.00  0.00     0.252 C 
ATOM      5  O   UNL     1      -4.030  -0.801   5.841  1.00  0.00    -0.269 OA
ATOM      6  H   UNL     1      -3.939   1.124   4.379  1.00  0.00     0.163 HD
BRANCH   4   7
ATOM      7  C   UNL     1      -5.343  -1.920   4.259  1.00  0.00     0.052 A 
ATOM      8  C   UNL     1      -5.130  -2.626   3.061  1.00  0.00     0.053 A 
ATOM      9  C   UNL     1      -6.046  -3.633   2.704  1.00  0.00     0.015 A 
ATOM     10  C   UNL     1      -7.103  -3.978   3.552  1.00  0.00     0.001 A 
ATOM     11  C   UNL     1      -6.382  -2.302   5.125  1.00  0.00     0.014 A 
ATOM     12  C   UNL     1      -7.256  -3.329   4.774  1.00  0.00     0.001 A 
BRANCH   8  13
ATOM     13  C   UNL     1      -3.982  -2.362   2.210  1.00  0.00     0.258 A 
ATOM     14  C   UNL     1      -2.238  -1.639   1.301  1.00  0.00     0.206 A 
ATOM     15  N   UNL     1      -3.016  -1.956   0.255  1.00  0.00    -0.059 NA
ATOM     16  N   UNL     1      -2.782  -1.937   2.528  1.00  0.00    -0.189 NA
ATOM     17  O   UNL     1      -4.185  -2.432   0.859  1.00  0.00    -0.334 OA
BRANCH  14  18
ATOM     18  C   UNL     1      -0.923  -0.934   1.165  1.00  0.00     0.245 C 
ATOM     19  C   UNL     1       2.041  -1.062   0.135  1.00  0.00     0.332 C 
ATOM     20  N   UNL     1       1.591  -1.282   1.510  1.00  0.00    -0.333 N 
ATOM     21  C   UNL     1       1.549  -0.019   2.280  1.00  0.00     0.290 C 
ATOM     22  C   UNL     1       0.236  -1.892   1.538  1.00  0.00     0.303 C 
ATOM     23  H   UNL     1       2.265  -1.917   1.937  1.00  0.00     0.348 HD
ATOM     24  C   UNL     1       0.388   0.904   1.893  1.00  0.00     0.222 C 
ATOM     25  O   UNL     1      -0.876   0.237   2.023  1.00  0.00    -0.358 OA
ENDBRANCH  14  18
ENDBRANCH   8  13
ENDBRANCH   4   7
ENDBRANCH   2   3
ENDBRANCH   1   2
BRANCH   1  26
ATOM     26  C   UNL     1      -3.852   2.957   2.279  1.00  0.00     0.118 C 
BRANCH  26  27
ATOM     27  N   UNL     1      -2.740   2.429   1.495  1.00  0.00    -0.352 N 
ATOM     28  C   UNL     1      -2.159   2.783   0.304  1.00  0.00     0.251 C 
ATOM     29  H   UNL     1      -2.313   1.647   1.914  1.00  0.00     0.163 HD
ATOM     30  O   UNL     1      -1.383   1.990  -0.233  1.00  0.00    -0.269 OA
BRANCH  28  31
ATOM     31  C   UNL     1      -2.431   4.046  -0.408  1.00  0.00     0.039 A 
ATOM     32  C   UNL     1      -2.169   4.066  -1.788  1.00  0.00     0.014 A 
ATOM     33  C   UNL     1      -2.911   5.196   0.210  1.00  0.00     0.014 A 
ATOM     34  C   UNL     1      -2.536   5.162  -2.559  1.00  0.00     0.010 A 
ATOM     35  C   UNL     1      -3.390   6.240  -0.568  1.00  0.00     0.010 A 
ATOM     36  C   UNL     1      -3.250   6.203  -1.961  1.00  0.00    -0.014 A 
BRANCH  36  37
ATOM     37  C   UNL     1      -3.971   7.199  -2.779  1.00  0.00     0.031 A 
ATOM     38  C   UNL     1      -3.649   8.652  -2.633  1.00  0.00     0.074 A 
ATOM     39  C   UNL     1      -5.005   6.764  -3.528  1.00  0.00     0.049 A 
ATOM     40  N   UNL     1      -4.306   9.688  -3.075  1.00  0.00    -0.248 NA
ATOM     41  C   UNL     1      -2.454   8.986  -1.840  1.00  0.00     0.031 C 
ATOM     42  C   UNL     1      -5.419   5.361  -3.667  1.00  0.00     0.029 A 
ATOM     43  N   UNL     1      -5.914   7.446  -4.291  1.00  0.00    -0.354 N 
ATOM     44  C   UNL     1      -3.633  10.798  -2.580  1.00  0.00     0.074 A 
ATOM     45  C   UNL     1      -2.532  10.308  -1.780  1.00  0.00     0.031 C 
ATOM     46  C   UNL     1      -6.482   5.287  -4.479  1.00  0.00     0.029 A 
ATOM     47  C   UNL     1      -6.863   6.635  -4.871  1.00  0.00     0.049 A 
ATOM     48  H   UNL     1      -5.891   8.423  -4.413  1.00  0.00     0.167 HD
ATOM     49  C   UNL     1      -3.918  12.105  -2.788  1.00  0.00     0.037 A 
ATOM     50  C   UNL     1      -7.938   6.953  -5.614  1.00  0.00     0.037 A 
ATOM     51  C   UNL     1      -5.007  12.546  -3.621  1.00  0.00     0.049 A 
ATOM     52  C   UNL     1      -8.196   8.407  -5.877  1.00  0.00     0.074 A 
ATOM     53  C   UNL     1      -5.370  13.834  -3.963  1.00  0.00     0.029 A 
ATOM     54  N   UNL     1      -5.906  11.693  -4.252  1.00  0.00    -0.354 N 
ATOM     55  N   UNL     1      -7.530   9.448  -5.433  1.00  0.00    -0.248 NA
ATOM     56  C   UNL     1      -9.341   8.735  -6.731  1.00  0.00     0.031 C 
ATOM     57  C   UNL     1      -6.502  13.761  -4.784  1.00  0.00     0.029 A 
ATOM     58  C   UNL     1      -6.828  12.426  -4.977  1.00  0.00     0.049 A 
ATOM     59  H   UNL     1      -5.889  10.710  -4.191  1.00  0.00     0.167 HD
ATOM     60  C   UNL     1      -8.176  10.560  -5.951  1.00  0.00     0.074 A 
ATOM     61  C   UNL     1      -9.270  10.060  -6.765  1.00  0.00     0.031 C 
ATOM     62  C   UNL     1      -7.903  11.875  -5.766  1.00  0.00     0.037 A 
BRANCH  49  63
ATOM     63  C   UNL     1      -3.047  13.123  -2.103  1.00  0.00     0.058 A 
ATOM     64  C   UNL     1      -1.708  13.320  -2.477  1.00  0.00     0.135 A 
ATOM     65  C   UNL     1      -3.548  13.901  -1.046  1.00  0.00     0.135 A 
ATOM     66  F   UNL     1      -1.169  12.592  -3.468  1.00  0.00    -0.206 F 
ATOM     67  C   UNL     1      -0.885  14.217  -1.802  1.00  0.00     0.059 A 
ATOM     68  C   UNL     1      -2.750  14.824  -0.373  1.00  0.00     0.059 A 
ATOM     69  F   UNL     1      -4.820  13.755  -0.643  1.00  0.00    -0.206 F 
ATOM     70  C   UNL     1      -1.413  14.959  -0.745  1.00  0.00     0.060 A 
BRANCH  70  71
ATOM     71  S   UNL     1      -0.327  16.099   0.139  1.00  0.00     0.124 S 
ATOM     72  O   UNL     1       0.462  15.178   0.951  1.00  0.00    -0.237 OA
ATOM     73  O   UNL     1       0.391  16.757  -0.948  1.00  0.00    -0.237 OA
ATOM     74  O   UNL     1      -1.256  16.950   0.877  1.00  0.00    -0.744 OA
ENDBRANCH  70  71
ENDBRANCH  49  63
BRANCH  50  75
ATOM     75  C   UNL     1      -8.816   5.880  -6.151  1.00  0.00     0.058 A 
ATOM     76  C   UNL     1      -8.793   5.551  -7.514  1.00  0.00     0.135 A 
ATOM     77  C   UNL     1      -9.642   5.114  -5.311  1.00  0.00     0.135 A 
ATOM     78  F   UNL     1      -8.019   6.251  -8.358  1.00  0.00    -0.206 F 
ATOM     79  C   UNL     1      -9.559   4.509  -8.028  1.00  0.00     0.059 A 
ATOM     80  C   UNL     1     -10.401   4.053  -5.798  1.00  0.00     0.059 A 
ATOM     81  F   UNL     1      -9.682   5.369  -3.994  1.00  0.00    -0.206 F 
ATOM     82  C   UNL     1     -10.357   3.762  -7.161  1.00  0.00     0.060 A 
BRANCH  82  83
ATOM     83  S   UNL     1     -11.293   2.365  -7.825  1.00  0.00     0.124 S 
ATOM     84  O   UNL     1     -12.380   3.047  -8.523  1.00  0.00    -0.237 OA
ATOM     85  O   UNL     1     -10.303   1.708  -8.677  1.00  0.00    -0.237 OA
ATOM     86  O   UNL     1     -11.675   1.620  -6.634  1.00  0.00    -0.744 OA
ENDBRANCH  82  83
ENDBRANCH  50  75
BRANCH  62  87
ATOM     87  C   UNL     1      -8.810  12.847  -6.457  1.00  0.00     0.058 A 
ATOM     88  C   UNL     1     -10.088  13.128  -5.952  1.00  0.00     0.135 A 
ATOM     89  C   UNL     1      -8.378  13.536  -7.599  1.00  0.00     0.135 A 
ATOM     90  F   UNL     1     -10.545  12.481  -4.868  1.00  0.00    -0.206 F 
ATOM     91  C   UNL     1     -10.916  14.058  -6.566  1.00  0.00     0.059 A 
ATOM     92  C   UNL     1      -9.182  14.486  -8.217  1.00  0.00     0.059 A 
ATOM     93  F   UNL     1      -7.160  13.300  -8.112  1.00  0.00    -0.206 F 
ATOM     94  C   UNL     1     -10.452  14.734  -7.697  1.00  0.00     0.060 A 
BRANCH  94  95
ATOM     95  S   UNL     1     -11.517  15.976  -8.457  1.00  0.00     0.124 S 
ATOM     96  O   UNL     1     -12.475  15.140  -9.174  1.00  0.00    -0.237 OA
ATOM     97  O   UNL     1     -12.042  16.692  -7.298  1.00  0.00    -0.237 OA
ATOM     98  O   UNL     1     -10.598  16.741  -9.295  1.00  0.00    -0.744 OA
ENDBRANCH  94  95
ENDBRANCH  62  87
ENDBRANCH  36  37
ENDBRANCH  28  31
ENDBRANCH  26  27
ENDBRANCH   1  26
TORSDOF 15
