REMARK SMILES CC(=O)Nc1cccc(-c2ccc(F)c(C(=O)NCCCNC(=O)c3ccc(-c4c5nc(c(-c6c(F)cc(S(=O)(=O)[O-])cc6F)c6ccc([nH]6)c(-c6c(F)cc(S(=O)(=O)[O-])cc6F)c6nc(c(-c7c(F)cc(S(=O)(=O)[O-])cc7F)c7ccc4[nH]7)C=C6)C=C5)cc3)c2)c1
REMARK SMILES IDX 20 1 19 2 18 3 16 4 17 5 15 7 10 8 11 9 91 10 12 11 13 12
REMARK SMILES IDX 14 13 9 14 5 15 6 16 92 17 7 18 8 19 4 20 1 21 2 22 3 23
REMARK SMILES IDX 21 25 22 26 23 27 24 29 25 30 26 31 90 32 27 33 89 34 28 35
REMARK SMILES IDX 29 36 30 37 83 38 31 39 88 40 82 41 84 42 32 43 87 44 81 45
REMARK SMILES IDX 80 46 33 48 67 49 46 50 66 51 47 52 50 53 65 54 85 55 48 56
REMARK SMILES IDX 49 57 64 59 86 60 51 61 34 62 35 63 44 64 36 65 37 66 43 67
REMARK SMILES IDX 45 68 38 69 39 70 40 71 41 72 42 73 68 74 69 75 78 76 70 77
REMARK SMILES IDX 71 78 77 79 79 80 72 81 73 82 74 83 75 84 76 85 52 86 53 87
REMARK SMILES IDX 62 88 54 89 55 90 61 91 63 92 56 93 57 94 58 95 59 96 60 97
REMARK H PARENT 18 6 4 24 22 28 84 47 50 58
REMARK Flexibility Score: inf
ROOT
ATOM      1  C   UNL     1       6.315   1.253  -3.543  1.00  0.00     0.042 C 
ENDROOT
BRANCH   1   2
ATOM      2  C   UNL     1       6.209   0.080  -2.568  1.00  0.00     0.118 C 
BRANCH   2   3
ATOM      3  N   UNL     1       7.408  -0.052  -1.755  1.00  0.00    -0.352 N 
ATOM      4  C   UNL     1       7.789   0.346  -0.497  1.00  0.00     0.254 C 
ATOM      5  O   UNL     1       8.912  -0.024  -0.151  1.00  0.00    -0.269 OA
ATOM      6  H   UNL     1       8.120  -0.548  -2.220  1.00  0.00     0.163 HD
BRANCH   4   7
ATOM      7  C   UNL     1       6.954   1.149   0.445  1.00  0.00     0.076 A 
ATOM      8  C   UNL     1       4.948   2.461   1.023  1.00  0.00    -0.017 A 
ATOM      9  C   UNL     1       5.413   2.610   2.330  1.00  0.00     0.012 A 
ATOM     10  C   UNL     1       5.757   1.774   0.091  1.00  0.00     0.025 A 
ATOM     11  C   UNL     1       6.639   2.052   2.694  1.00  0.00     0.041 A 
ATOM     12  C   UNL     1       7.386   1.318   1.767  1.00  0.00     0.135 A 
ATOM     13  F   UNL     1       8.538   0.789   2.205  1.00  0.00    -0.206 F 
BRANCH   8  14
ATOM     14  C   UNL     1       3.664   3.003   0.558  1.00  0.00    -0.016 A 
ATOM     15  C   UNL     1       1.582   2.638  -0.680  1.00  0.00     0.041 A 
ATOM     16  C   UNL     1       1.416   4.023  -0.762  1.00  0.00     0.026 A 
ATOM     17  C   UNL     1       2.704   2.140  -0.017  1.00  0.00     0.034 A 
ATOM     18  C   UNL     1       2.316   4.889  -0.137  1.00  0.00     0.003 A 
ATOM     19  C   UNL     1       3.432   4.382   0.526  1.00  0.00     0.009 A 
BRANCH  15  20
ATOM     20  N   UNL     1       0.657   1.837  -1.371  1.00  0.00    -0.326 N 
ATOM     21  C   UNL     1       0.744  -0.291  -0.074  1.00  0.00     0.114 C 
ATOM     22  C   UNL     1       0.327   0.517  -1.271  1.00  0.00     0.221 C 
ATOM     23  O   UNL     1      -0.377   0.010  -2.148  1.00  0.00    -0.275 OA
ATOM     24  H   UNL     1       0.149   2.323  -2.061  1.00  0.00     0.169 HD
ENDBRANCH  15  20
ENDBRANCH   8  14
ENDBRANCH   4   7
ENDBRANCH   2   3
ENDBRANCH   1   2
BRANCH   1  25
ATOM     25  C   UNL     1       7.130   0.911  -4.791  1.00  0.00     0.118 C 
BRANCH  25  26
ATOM     26  N   UNL     1       6.464  -0.093  -5.617  1.00  0.00    -0.352 N 
ATOM     27  C   UNL     1       5.961  -0.001  -6.893  1.00  0.00     0.251 C 
ATOM     28  H   UNL     1       6.359  -0.976  -5.193  1.00  0.00     0.163 HD
ATOM     29  O   UNL     1       5.219  -0.877  -7.319  1.00  0.00    -0.269 OA
BRANCH  27  30
ATOM     30  C   UNL     1       6.318   1.152  -7.744  1.00  0.00     0.039 A 
ATOM     31  C   UNL     1       5.334   1.766  -8.524  1.00  0.00     0.014 A 
ATOM     32  C   UNL     1       7.636   1.610  -7.785  1.00  0.00     0.014 A 
ATOM     33  C   UNL     1       5.659   2.888  -9.291  1.00  0.00     0.010 A 
ATOM     34  C   UNL     1       7.939   2.771  -8.483  1.00  0.00     0.010 A 
ATOM     35  C   UNL     1       6.956   3.421  -9.245  1.00  0.00    -0.014 A 
BRANCH  35  36
ATOM     36  C   UNL     1       7.347   4.639  -9.998  1.00  0.00     0.031 A 
ATOM     37  C   UNL     1       8.436   4.542 -11.032  1.00  0.00     0.074 A 
ATOM     38  C   UNL     1       6.818   5.835  -9.672  1.00  0.00     0.049 A 
ATOM     39  N   UNL     1       9.096   5.496 -11.632  1.00  0.00    -0.248 NA
ATOM     40  C   UNL     1       8.866   3.184 -11.409  1.00  0.00     0.031 C 
ATOM     41  C   UNL     1       5.769   6.058  -8.674  1.00  0.00     0.029 A 
ATOM     42  N   UNL     1       7.111   7.096 -10.129  1.00  0.00    -0.354 N 
ATOM     43  C   UNL     1      10.036   4.857 -12.434  1.00  0.00     0.074 A 
ATOM     44  C   UNL     1       9.895   3.437 -12.204  1.00  0.00     0.031 C 
ATOM     45  C   UNL     1       5.503   7.372  -8.600  1.00  0.00     0.029 A 
ATOM     46  C   UNL     1       6.396   8.091  -9.502  1.00  0.00     0.049 A 
ATOM     47  H   UNL     1       7.770   7.272 -10.838  1.00  0.00     0.167 HD
ATOM     48  C   UNL     1      10.920   5.406 -13.300  1.00  0.00     0.037 A 
ATOM     49  C   UNL     1       6.472   9.431  -9.625  1.00  0.00     0.037 A 
ATOM     50  C   UNL     1      11.025   6.820 -13.545  1.00  0.00     0.049 A 
ATOM     51  C   UNL     1       7.476  10.019 -10.583  1.00  0.00     0.074 A 
ATOM     52  C   UNL     1      11.868   7.482 -14.419  1.00  0.00     0.029 A 
ATOM     53  N   UNL     1      10.249   7.788 -12.924  1.00  0.00    -0.354 N 
ATOM     54  N   UNL     1       8.348   9.401 -11.344  1.00  0.00    -0.248 NA
ATOM     55  C   UNL     1       7.508  11.483 -10.701  1.00  0.00     0.031 C 
ATOM     56  C   UNL     1      11.623   8.853 -14.306  1.00  0.00     0.029 A 
ATOM     57  C   UNL     1      10.593   9.042 -13.398  1.00  0.00     0.049 A 
ATOM     58  H   UNL     1       9.556   7.610 -12.248  1.00  0.00     0.167 HD
ATOM     59  C   UNL     1       8.995  10.398 -12.067  1.00  0.00     0.074 A 
ATOM     60  C   UNL     1       8.422  11.659 -11.646  1.00  0.00     0.031 C 
ATOM     61  C   UNL     1       9.973  10.280 -12.998  1.00  0.00     0.037 A 
BRANCH  48  62
ATOM     62  C   UNL     1      11.829   4.478 -14.055  1.00  0.00     0.058 A 
ATOM     63  C   UNL     1      11.338   3.627 -15.059  1.00  0.00     0.135 A 
ATOM     64  C   UNL     1      13.211   4.465 -13.806  1.00  0.00     0.135 A 
ATOM     65  F   UNL     1      10.023   3.586 -15.327  1.00  0.00    -0.206 F 
ATOM     66  C   UNL     1      12.180   2.779 -15.770  1.00  0.00     0.059 A 
ATOM     67  C   UNL     1      14.076   3.646 -14.526  1.00  0.00     0.059 A 
ATOM     68  F   UNL     1      13.735   5.256 -12.856  1.00  0.00    -0.206 F 
ATOM     69  C   UNL     1      13.548   2.797 -15.498  1.00  0.00     0.060 A 
BRANCH  69  70
ATOM     70  S   UNL     1      14.627   1.701 -16.443  1.00  0.00     0.124 S 
ATOM     71  O   UNL     1      14.288   0.399 -15.875  1.00  0.00    -0.237 OA
ATOM     72  O   UNL     1      14.180   1.929 -17.813  1.00  0.00    -0.237 OA
ATOM     73  O   UNL     1      15.966   2.191 -16.133  1.00  0.00    -0.744 OA
ENDBRANCH  69  70
ENDBRANCH  48  62
BRANCH  49  74
ATOM     74  C   UNL     1       5.568  10.312  -8.838  1.00  0.00     0.058 A 
ATOM     75  C   UNL     1       4.558  11.052  -9.473  1.00  0.00     0.135 A 
ATOM     76  C   UNL     1       5.699  10.448  -7.448  1.00  0.00     0.135 A 
ATOM     77  F   UNL     1       4.394  10.959 -10.801  1.00  0.00    -0.206 F 
ATOM     78  C   UNL     1       3.731  11.917  -8.764  1.00  0.00     0.059 A 
ATOM     79  C   UNL     1       4.866  11.286  -6.713  1.00  0.00     0.059 A 
ATOM     80  F   UNL     1       6.635   9.748  -6.788  1.00  0.00    -0.206 F 
ATOM     81  C   UNL     1       3.896  12.030  -7.383  1.00  0.00     0.060 A 
BRANCH  81  82
ATOM     82  S   UNL     1       2.806  13.143  -6.468  1.00  0.00     0.124 S 
ATOM     83  O   UNL     1       3.334  14.448  -6.850  1.00  0.00    -0.237 OA
ATOM     84  O   UNL     1       1.494  12.801  -7.008  1.00  0.00    -0.237 OA
ATOM     85  O   UNL     1       3.023  12.756  -5.077  1.00  0.00    -0.744 OA
ENDBRANCH  81  82
ENDBRANCH  49  74
BRANCH  61  86
ATOM     86  C   UNL     1      10.431  11.528 -13.697  1.00  0.00     0.058 A 
ATOM     87  C   UNL     1      11.267  12.465 -13.072  1.00  0.00     0.135 A 
ATOM     88  C   UNL     1      10.107  11.731 -15.049  1.00  0.00     0.135 A 
ATOM     89  F   UNL     1      11.598  12.320 -11.780  1.00  0.00    -0.206 F 
ATOM     90  C   UNL     1      11.765  13.564 -13.765  1.00  0.00     0.059 A 
ATOM     91  C   UNL     1      10.614  12.808 -15.767  1.00  0.00     0.059 A 
ATOM     92  F   UNL     1       9.316  10.857 -15.693  1.00  0.00    -0.206 F 
ATOM     93  C   UNL     1      11.442  13.720 -15.115  1.00  0.00     0.060 A 
BRANCH  93  94
ATOM     94  S   UNL     1      12.159  15.107 -16.021  1.00  0.00     0.124 S 
ATOM     95  O   UNL     1      11.396  16.232 -15.491  1.00  0.00    -0.237 OA
ATOM     96  O   UNL     1      13.562  15.047 -15.621  1.00  0.00    -0.237 OA
ATOM     97  O   UNL     1      11.897  14.773 -17.418  1.00  0.00    -0.744 OA
ENDBRANCH  93  94
ENDBRANCH  61  86
ENDBRANCH  35  36
ENDBRANCH  27  30
ENDBRANCH  25  26
ENDBRANCH   1  25
TORSDOF 15
