REMARK SMILES CCn1ncc(-c2cc(C(F)(F)F)nc(-n3ccc(C(=O)NCCCNC(=O)c4ccc(-c5c6nc(c(-c7c(F)cc(S(=O)(=O)[O-])cc7F)c7ccc([nH]7)c(-c7c(F)cc(S(=O)(=O)[O-])cc7F)c7nc(c(-c8c(F)cc(S(=O)(=O)[O-])cc8F)c8ccc5[nH]8)C=C7)C=C6)cc4)n3)n2)c1C
REMARK SMILES IDX 24 1 23 2 22 3 20 4 21 5 19 7 16 8 17 9 95 10 18 11 15 12
REMARK SMILES IDX 7 13 8 14 96 15 9 16 14 17 6 18 3 19 4 20 97 21 5 22 98 23
REMARK SMILES IDX 2 24 1 25 10 26 11 27 12 28 13 29 25 30 26 31 27 32 28 34
REMARK SMILES IDX 29 35 30 36 94 37 31 38 93 39 32 40 33 41 34 42 87 43 35 44
REMARK SMILES IDX 92 45 86 46 88 47 36 48 91 49 85 50 84 51 37 53 71 54 50 55
REMARK SMILES IDX 70 56 51 57 54 58 69 59 89 60 52 61 53 62 68 64 90 65 55 66
REMARK SMILES IDX 38 67 39 68 48 69 40 70 41 71 47 72 49 73 42 74 43 75 44 76
REMARK SMILES IDX 45 77 46 78 72 79 73 80 82 81 74 82 75 83 81 84 83 85 76 86
REMARK SMILES IDX 77 87 78 88 79 89 80 90 56 91 57 92 66 93 58 94 59 95 65 96
REMARK SMILES IDX 67 97 60 98 61 99 62 100 63 101 64 102
REMARK H PARENT 22 6 26 33 88 52 54 63
REMARK Flexibility Score: inf
ROOT
ATOM      1  C   UNL     1       4.589  -8.696  -4.285  1.00  0.00     0.042 C 
ENDROOT
BRANCH   1   2
ATOM      2  C   UNL     1       3.676  -7.876  -5.204  1.00  0.00     0.118 C 
BRANCH   2   3
ATOM      3  N   UNL     1       2.995  -8.672  -6.220  1.00  0.00    -0.351 N 
ATOM      4  C   UNL     1       1.700  -9.144  -6.293  1.00  0.00     0.271 C 
ATOM      5  O   UNL     1       1.384  -9.797  -7.288  1.00  0.00    -0.267 OA
ATOM      6  H   UNL     1       3.559  -8.916  -6.989  1.00  0.00     0.163 HD
BRANCH   4   7
ATOM      7  C   UNL     1       0.747  -8.932  -5.192  1.00  0.00     0.150 A 
ATOM      8  N   UNL     1      -0.031  -8.298  -3.301  1.00  0.00    -0.205 N 
ATOM      9  C   UNL     1      -0.893  -9.280  -3.729  1.00  0.00     0.119 A 
ATOM     10  N   UNL     1       0.873  -7.979  -4.255  1.00  0.00    -0.160 NA
ATOM     11  C   UNL     1      -0.444  -9.677  -4.966  1.00  0.00     0.056 A 
BRANCH   8  12
ATOM     12  C   UNL     1       0.036  -7.712  -1.996  1.00  0.00     0.251 A 
ATOM     13  C   UNL     1       0.715  -5.996  -0.637  1.00  0.00     0.080 A 
ATOM     14  C   UNL     1       0.400  -6.715   0.494  1.00  0.00     0.062 A 
ATOM     15  N   UNL     1       0.593  -6.492  -1.877  1.00  0.00    -0.211 NA
ATOM     16  C   UNL     1      -0.156  -7.967   0.294  1.00  0.00     0.150 A 
ATOM     17  N   UNL     1      -0.397  -8.452  -0.953  1.00  0.00    -0.207 NA
BRANCH  13  18
ATOM     18  C   UNL     1       1.095  -4.604  -0.534  1.00  0.00     0.041 A 
ATOM     19  N   UNL     1       1.022  -2.409  -0.696  1.00  0.00    -0.269 N 
ATOM     20  N   UNL     1       2.063  -2.650   0.129  1.00  0.00    -0.181 NA
ATOM     21  C   UNL     1       0.412  -3.561  -1.144  1.00  0.00     0.045 A 
ATOM     22  C   UNL     1       2.106  -3.980   0.220  1.00  0.00     0.145 A 
ATOM     23  C   UNL     1      -0.750  -3.591  -2.073  1.00  0.00     0.067 C 
BRANCH  19  24
ATOM     24  C   UNL     1       0.648  -1.041  -1.014  1.00  0.00     0.141 C 
ATOM     25  C   UNL     1       1.142   0.016  -0.037  1.00  0.00     0.029 C 
ENDBRANCH  19  24
ENDBRANCH  13  18
BRANCH  16  26
ATOM     26  C   UNL     1      -0.469  -8.846   1.494  1.00  0.00     0.433 C 
ATOM     27  F   UNL     1      -1.712  -9.401   1.446  1.00  0.00    -0.165 F 
ATOM     28  F   UNL     1       0.407  -9.881   1.629  1.00  0.00    -0.165 F 
ATOM     29  F   UNL     1      -0.418  -8.168   2.679  1.00  0.00    -0.165 F 
ENDBRANCH  16  26
ENDBRANCH   8  12
ENDBRANCH   4   7
ENDBRANCH   2   3
ENDBRANCH   1   2
BRANCH   1  30
ATOM     30  C   UNL     1       5.899  -9.052  -4.967  1.00  0.00     0.118 C 
BRANCH  30  31
ATOM     31  N   UNL     1       6.749  -7.884  -5.263  1.00  0.00    -0.352 N 
ATOM     32  C   UNL     1       8.012  -7.837  -5.848  1.00  0.00     0.251 C 
ATOM     33  H   UNL     1       6.369  -7.012  -5.010  1.00  0.00     0.163 HD
ATOM     34  O   UNL     1       8.703  -6.838  -5.766  1.00  0.00    -0.269 OA
BRANCH  32  35
ATOM     35  C   UNL     1       8.490  -9.034  -6.569  1.00  0.00     0.039 A 
ATOM     36  C   UNL     1       9.820  -9.462  -6.571  1.00  0.00     0.014 A 
ATOM     37  C   UNL     1       7.519  -9.776  -7.216  1.00  0.00     0.014 A 
ATOM     38  C   UNL     1      10.119 -10.681  -7.182  1.00  0.00     0.010 A 
ATOM     39  C   UNL     1       7.751 -11.088  -7.476  1.00  0.00     0.010 A 
ATOM     40  C   UNL     1       9.062 -11.489  -7.626  1.00  0.00    -0.014 A 
BRANCH  40  41
ATOM     41  C   UNL     1       9.241 -12.795  -8.238  1.00  0.00     0.031 A 
ATOM     42  C   UNL     1       9.958 -13.769  -7.383  1.00  0.00     0.074 A 
ATOM     43  C   UNL     1       8.570 -13.152  -9.360  1.00  0.00     0.049 A 
ATOM     44  N   UNL     1      11.158 -14.215  -7.537  1.00  0.00    -0.248 NA
ATOM     45  C   UNL     1       9.341 -14.153  -6.103  1.00  0.00     0.031 C 
ATOM     46  C   UNL     1       7.551 -12.404 -10.116  1.00  0.00     0.029 A 
ATOM     47  N   UNL     1       8.591 -14.340 -10.015  1.00  0.00    -0.354 N 
ATOM     48  C   UNL     1      11.357 -15.130  -6.508  1.00  0.00     0.074 A 
ATOM     49  C   UNL     1      10.314 -14.880  -5.549  1.00  0.00     0.031 C 
ATOM     50  C   UNL     1       6.896 -13.236 -10.956  1.00  0.00     0.029 A 
ATOM     51  C   UNL     1       7.567 -14.520 -10.942  1.00  0.00     0.049 A 
ATOM     52  H   UNL     1       9.279 -15.024  -9.848  1.00  0.00     0.167 HD
ATOM     53  C   UNL     1      12.214 -16.179  -6.658  1.00  0.00     0.037 A 
ATOM     54  C   UNL     1       7.293 -15.663 -11.622  1.00  0.00     0.037 A 
ATOM     55  C   UNL     1      13.038 -16.000  -7.830  1.00  0.00     0.049 A 
ATOM     56  C   UNL     1       8.536 -16.483 -11.574  1.00  0.00     0.074 A 
ATOM     57  C   UNL     1      13.958 -15.051  -8.229  1.00  0.00     0.029 A 
ATOM     58  N   UNL     1      12.657 -16.661  -8.976  1.00  0.00    -0.354 N 
ATOM     59  N   UNL     1       9.661 -16.122 -12.135  1.00  0.00    -0.248 NA
ATOM     60  C   UNL     1       8.665 -17.433 -10.479  1.00  0.00     0.031 C 
ATOM     61  C   UNL     1      13.707 -14.860  -9.620  1.00  0.00     0.029 A 
ATOM     62  C   UNL     1      12.714 -15.761 -10.011  1.00  0.00     0.049 A 
ATOM     63  H   UNL     1      12.392 -17.607  -9.041  1.00  0.00     0.167 HD
ATOM     64  C   UNL     1      10.648 -16.464 -11.220  1.00  0.00     0.074 A 
ATOM     65  C   UNL     1       9.976 -17.324 -10.245  1.00  0.00     0.031 C 
ATOM     66  C   UNL     1      11.835 -15.789 -11.163  1.00  0.00     0.037 A 
BRANCH  53  67
ATOM     67  C   UNL     1      12.071 -17.523  -5.985  1.00  0.00     0.058 A 
ATOM     68  C   UNL     1      13.114 -18.464  -6.117  1.00  0.00     0.135 A 
ATOM     69  C   UNL     1      10.862 -18.026  -5.457  1.00  0.00     0.135 A 
ATOM     70  F   UNL     1      14.312 -18.097  -6.601  1.00  0.00    -0.206 F 
ATOM     71  C   UNL     1      12.940 -19.818  -5.833  1.00  0.00     0.059 A 
ATOM     72  C   UNL     1      10.685 -19.362  -5.115  1.00  0.00     0.059 A 
ATOM     73  F   UNL     1       9.762 -17.276  -5.337  1.00  0.00    -0.206 F 
ATOM     74  C   UNL     1      11.713 -20.259  -5.349  1.00  0.00     0.060 A 
BRANCH  74  75
ATOM     75  S   UNL     1      11.448 -22.021  -5.090  1.00  0.00     0.124 S 
ATOM     76  O   UNL     1      11.466 -22.521  -6.460  1.00  0.00    -0.237 OA
ATOM     77  O   UNL     1      12.595 -22.379  -4.262  1.00  0.00    -0.237 OA
ATOM     78  O   UNL     1      10.154 -22.070  -4.416  1.00  0.00    -0.744 OA
ENDBRANCH  74  75
ENDBRANCH  53  67
BRANCH  54  79
ATOM     79  C   UNL     1       5.953 -16.235 -11.937  1.00  0.00     0.058 A 
ATOM     80  C   UNL     1       5.801 -17.294 -12.851  1.00  0.00     0.135 A 
ATOM     81  C   UNL     1       4.828 -15.947 -11.136  1.00  0.00     0.135 A 
ATOM     82  F   UNL     1       6.825 -17.652 -13.640  1.00  0.00    -0.206 F 
ATOM     83  C   UNL     1       4.623 -18.051 -12.933  1.00  0.00     0.059 A 
ATOM     84  C   UNL     1       3.644 -16.683 -11.203  1.00  0.00     0.059 A 
ATOM     85  F   UNL     1       4.880 -14.994 -10.193  1.00  0.00    -0.206 F 
ATOM     86  C   UNL     1       3.555 -17.751 -12.087  1.00  0.00     0.060 A 
BRANCH  86  87
ATOM     87  S   UNL     1       2.101 -18.830 -12.063  1.00  0.00     0.124 S 
ATOM     88  O   UNL     1       1.495 -18.551 -13.360  1.00  0.00    -0.237 OA
ATOM     89  O   UNL     1       2.700 -20.152 -11.911  1.00  0.00    -0.237 OA
ATOM     90  O   UNL     1       1.345 -18.356 -10.906  1.00  0.00    -0.744 OA
ENDBRANCH  86  87
ENDBRANCH  54  79
BRANCH  66  91
ATOM     91  C   UNL     1      12.181 -14.829 -12.277  1.00  0.00     0.058 A 
ATOM     92  C   UNL     1      11.516 -13.613 -12.519  1.00  0.00     0.135 A 
ATOM     93  C   UNL     1      13.371 -15.056 -12.984  1.00  0.00     0.135 A 
ATOM     94  F   UNL     1      10.422 -13.276 -11.825  1.00  0.00    -0.206 F 
ATOM     95  C   UNL     1      12.008 -12.672 -13.429  1.00  0.00     0.059 A 
ATOM     96  C   UNL     1      13.894 -14.122 -13.873  1.00  0.00     0.059 A 
ATOM     97  F   UNL     1      14.083 -16.171 -12.755  1.00  0.00    -0.206 F 
ATOM     98  C   UNL     1      13.205 -12.931 -14.095  1.00  0.00     0.060 A 
BRANCH  98  99
ATOM     99  S   UNL     1      13.903 -11.672 -15.186  1.00  0.00     0.124 S 
ATOM    100  O   UNL     1      12.990 -11.710 -16.323  1.00  0.00    -0.237 OA
ATOM    101  O   UNL     1      13.842 -10.467 -14.364  1.00  0.00    -0.237 OA
ATOM    102  O   UNL     1      15.253 -12.163 -15.455  1.00  0.00    -0.744 OA
ENDBRANCH  98  99
ENDBRANCH  66  91
ENDBRANCH  40  41
ENDBRANCH  32  35
ENDBRANCH  30  31
ENDBRANCH   1  30
TORSDOF 17
