REMARK SMILES COCc1cccc(C[NH2+][C@H](C)[C@H](C)C(=O)NCCCNC(=O)c2ccc(-c3c4nc(c(-c5c(F)cc(S(=O)(=O)[O-])cc5F)c5ccc([nH]5)c(-c5c(F)cc(S(=O)(=O)[O-])cc5F)c5nc(c(-c6c(F)cc(S(=O)(=O)[O-])cc6F)c6ccc3[nH]6)C=C5)C=C4)cc2)c1
REMARK SMILES IDX 15 1 16 2 17 3 13 5 14 6 11 7 12 8 10 9 9 12 8 13 4 14 5 15
REMARK SMILES IDX 90 16 6 17 7 18 3 19 2 20 1 21 18 22 19 23 20 24 21 25 22 26
REMARK SMILES IDX 23 28 24 29 25 30 89 31 26 32 88 33 27 34 28 35 29 36 82 37
REMARK SMILES IDX 30 38 87 39 81 40 83 41 31 42 86 43 80 44 79 45 32 47 66 48
REMARK SMILES IDX 45 49 65 50 46 51 49 52 64 53 84 54 47 55 48 56 63 58 85 59
REMARK SMILES IDX 50 60 33 61 34 62 43 63 35 64 36 65 42 66 44 67 37 68 38 69
REMARK SMILES IDX 39 70 40 71 41 72 67 73 68 74 77 75 69 76 70 77 76 78 78 79
REMARK SMILES IDX 71 80 72 81 73 82 74 83 75 84 51 85 52 86 61 87 53 88 54 89
REMARK SMILES IDX 60 90 62 91 55 92 56 93 57 94 58 95 59 96
REMARK H PARENT 17 4 10 10 10 11 21 27 83 46 49 57
REMARK Flexibility Score: inf
ROOT
ATOM      1  C   UNL     1       3.711  -7.523   2.830  1.00  0.00     0.228 C 
ATOM      2  O   UNL     1       4.843  -7.819   2.438  1.00  0.00    -0.275 OA
ATOM      3  N   UNL     1       2.758  -8.497   2.796  1.00  0.00    -0.356 N 
ATOM      4  H   UNL     1       3.054  -9.344   2.392  1.00  0.00     0.163 HD
ENDROOT
BRANCH   1   5
ATOM      5  C   UNL     1       3.409  -6.112   3.333  1.00  0.00     0.133 C 
ATOM      6  C   UNL     1       2.474  -5.389   2.362  1.00  0.00     0.024 C 
BRANCH   5   7
ATOM      7  C   UNL     1       3.016  -6.131   4.843  1.00  0.00     0.191 C 
ATOM      8  C   UNL     1       4.166  -5.555   5.683  1.00  0.00     0.076 C 
BRANCH   7   9
ATOM      9  N   UNL     1       1.774  -5.396   5.144  1.00  0.00    -0.340 N 
ATOM     10  H   UNL     1       1.980  -4.396   5.151  1.00  0.00     0.346 HD
ATOM     11  H   UNL     1       1.091  -5.634   4.425  1.00  0.00     0.346 HD
BRANCH   9  12
ATOM     12  C   UNL     1       1.202  -5.766   6.441  1.00  0.00     0.297 C 
BRANCH  12  13
ATOM     13  C   UNL     1      -0.288  -5.512   6.474  1.00  0.00     0.006 A 
ATOM     14  C   UNL     1      -2.560  -6.369   6.786  1.00  0.00    -0.022 A 
ATOM     15  C   UNL     1      -3.049  -5.063   6.639  1.00  0.00     0.006 A 
ATOM     16  C   UNL     1      -1.179  -6.579   6.667  1.00  0.00     0.015 A 
ATOM     17  C   UNL     1      -2.178  -3.999   6.399  1.00  0.00     0.001 A 
ATOM     18  C   UNL     1      -0.803  -4.220   6.329  1.00  0.00     0.009 A 
BRANCH  14  19
ATOM     19  C   UNL     1      -3.509  -7.520   7.033  1.00  0.00     0.195 C 
BRANCH  19  20
ATOM     20  O   UNL     1      -3.327  -8.137   8.309  1.00  0.00    -0.380 OA
ATOM     21  C   UNL     1      -2.318  -9.136   8.337  1.00  0.00     0.195 C 
ENDBRANCH  19  20
ENDBRANCH  14  19
ENDBRANCH  12  13
ENDBRANCH   9  12
ENDBRANCH   7   9
ENDBRANCH   5   7
ENDBRANCH   1   5
BRANCH   3  22
ATOM     22  C   UNL     1       1.380  -8.495   3.256  1.00  0.00     0.117 C 
BRANCH  22  23
ATOM     23  C   UNL     1       0.375  -8.656   2.126  1.00  0.00     0.042 C 
BRANCH  23  24
ATOM     24  C   UNL     1       0.407 -10.025   1.465  1.00  0.00     0.118 C 
BRANCH  24  25
ATOM     25  N   UNL     1       0.012 -11.094   2.374  1.00  0.00    -0.352 N 
ATOM     26  C   UNL     1      -1.066 -11.947   2.325  1.00  0.00     0.251 C 
ATOM     27  H   UNL     1       0.611 -11.226   3.144  1.00  0.00     0.163 HD
ATOM     28  O   UNL     1      -1.330 -12.635   3.306  1.00  0.00    -0.269 OA
BRANCH  26  29
ATOM     29  C   UNL     1      -1.913 -12.018   1.113  1.00  0.00     0.039 A 
ATOM     30  C   UNL     1      -3.297 -12.139   1.259  1.00  0.00     0.014 A 
ATOM     31  C   UNL     1      -1.349 -11.979  -0.164  1.00  0.00     0.014 A 
ATOM     32  C   UNL     1      -4.116 -12.143   0.126  1.00  0.00     0.010 A 
ATOM     33  C   UNL     1      -2.170 -11.883  -1.284  1.00  0.00     0.010 A 
ATOM     34  C   UNL     1      -3.563 -11.970  -1.153  1.00  0.00    -0.014 A 
BRANCH  34  35
ATOM     35  C   UNL     1      -4.418 -11.886  -2.366  1.00  0.00     0.031 A 
ATOM     36  C   UNL     1      -4.275 -12.908  -3.463  1.00  0.00     0.074 A 
ATOM     37  C   UNL     1      -5.282 -10.859  -2.505  1.00  0.00     0.049 A 
ATOM     38  N   UNL     1      -4.869 -12.960  -4.627  1.00  0.00    -0.248 NA
ATOM     39  C   UNL     1      -3.316 -14.002  -3.233  1.00  0.00     0.031 C 
ATOM     40  C   UNL     1      -5.483  -9.783  -1.532  1.00  0.00     0.029 A 
ATOM     41  N   UNL     1      -6.147 -10.546  -3.524  1.00  0.00    -0.354 N 
ATOM     42  C   UNL     1      -4.359 -14.084  -5.265  1.00  0.00     0.074 A 
ATOM     43  C   UNL     1      -3.354 -14.646  -4.390  1.00  0.00     0.031 C 
ATOM     44  C   UNL     1      -6.432  -8.948  -1.986  1.00  0.00     0.029 A 
ATOM     45  C   UNL     1      -6.873  -9.399  -3.302  1.00  0.00     0.049 A 
ATOM     46  H   UNL     1      -6.239 -11.092  -4.338  1.00  0.00     0.167 HD
ATOM     47  C   UNL     1      -4.717 -14.621  -6.456  1.00  0.00     0.037 A 
ATOM     48  C   UNL     1      -7.784  -8.776  -4.075  1.00  0.00     0.037 A 
ATOM     49  C   UNL     1      -5.728 -14.065  -7.317  1.00  0.00     0.049 A 
ATOM     50  C   UNL     1      -8.134  -9.370  -5.414  1.00  0.00     0.074 A 
ATOM     51  C   UNL     1      -6.184 -14.546  -8.532  1.00  0.00     0.029 A 
ATOM     52  N   UNL     1      -6.443 -12.906  -7.054  1.00  0.00    -0.354 N 
ATOM     53  N   UNL     1      -7.675 -10.463  -5.978  1.00  0.00    -0.248 NA
ATOM     54  C   UNL     1      -9.130  -8.651  -6.220  1.00  0.00     0.031 C 
ATOM     55  C   UNL     1      -7.142 -13.655  -9.024  1.00  0.00     0.029 A 
ATOM     56  C   UNL     1      -7.325 -12.648  -8.091  1.00  0.00     0.049 A 
ATOM     57  H   UNL     1      -6.340 -12.348  -6.249  1.00  0.00     0.167 HD
ATOM     58  C   UNL     1      -8.354 -10.580  -7.186  1.00  0.00     0.074 A 
ATOM     59  C   UNL     1      -9.263  -9.455  -7.265  1.00  0.00     0.031 C 
ATOM     60  C   UNL     1      -8.238 -11.533  -8.144  1.00  0.00     0.037 A 
BRANCH  47  61
ATOM     61  C   UNL     1      -4.023 -15.884  -6.891  1.00  0.00     0.058 A 
ATOM     62  C   UNL     1      -4.242 -17.105  -6.231  1.00  0.00     0.135 A 
ATOM     63  C   UNL     1      -3.164 -15.889  -8.002  1.00  0.00     0.135 A 
ATOM     64  F   UNL     1      -5.040 -17.157  -5.152  1.00  0.00    -0.206 F 
ATOM     65  C   UNL     1      -3.616 -18.277  -6.640  1.00  0.00     0.059 A 
ATOM     66  C   UNL     1      -2.551 -17.057  -8.449  1.00  0.00     0.059 A 
ATOM     67  F   UNL     1      -2.917 -14.751  -8.670  1.00  0.00    -0.206 F 
ATOM     68  C   UNL     1      -2.774 -18.244  -7.752  1.00  0.00     0.060 A 
BRANCH  68  69
ATOM     69  S   UNL     1      -1.983 -19.779  -8.276  1.00  0.00     0.124 S 
ATOM     70  O   UNL     1      -1.014 -19.987  -7.205  1.00  0.00    -0.237 OA
ATOM     71  O   UNL     1      -3.105 -20.712  -8.304  1.00  0.00    -0.237 OA
ATOM     72  O   UNL     1      -1.416 -19.444  -9.578  1.00  0.00    -0.744 OA
ENDBRANCH  68  69
ENDBRANCH  47  61
BRANCH  48  73
ATOM     73  C   UNL     1      -8.444  -7.527  -3.605  1.00  0.00     0.058 A 
ATOM     74  C   UNL     1      -9.816  -7.504  -3.310  1.00  0.00     0.135 A 
ATOM     75  C   UNL     1      -7.728  -6.328  -3.463  1.00  0.00     0.135 A 
ATOM     76  F   UNL     1     -10.547  -8.623  -3.434  1.00  0.00    -0.206 F 
ATOM     77  C   UNL     1     -10.462  -6.333  -2.928  1.00  0.00     0.059 A 
ATOM     78  C   UNL     1      -8.345  -5.151  -3.051  1.00  0.00     0.059 A 
ATOM     79  F   UNL     1      -6.410  -6.297  -3.713  1.00  0.00    -0.206 F 
ATOM     80  C   UNL     1      -9.717  -5.160  -2.803  1.00  0.00     0.060 A 
BRANCH  80  81
ATOM     81  S   UNL     1     -10.563  -3.648  -2.293  1.00  0.00     0.124 S 
ATOM     82  O   UNL     1     -11.327  -3.321  -3.491  1.00  0.00    -0.237 OA
ATOM     83  O   UNL     1     -11.339  -4.104  -1.144  1.00  0.00    -0.237 OA
ATOM     84  O   UNL     1      -9.464  -2.740  -1.977  1.00  0.00    -0.744 OA
ENDBRANCH  80  81
ENDBRANCH  48  73
BRANCH  60  85
ATOM     85  C   UNL     1      -9.149 -11.433  -9.338  1.00  0.00     0.058 A 
ATOM     86  C   UNL     1      -8.982 -10.442 -10.317  1.00  0.00     0.135 A 
ATOM     87  C   UNL     1     -10.172 -12.376  -9.527  1.00  0.00     0.135 A 
ATOM     88  F   UNL     1      -8.024  -9.511 -10.181  1.00  0.00    -0.206 F 
ATOM     89  C   UNL     1      -9.814 -10.373 -11.430  1.00  0.00     0.059 A 
ATOM     90  C   UNL     1     -10.995 -12.346 -10.648  1.00  0.00     0.059 A 
ATOM     91  F   UNL     1     -10.368 -13.352  -8.626  1.00  0.00    -0.206 F 
ATOM     92  C   UNL     1     -10.816 -11.333 -11.588  1.00  0.00     0.060 A 
BRANCH  92  93
ATOM     93  S   UNL     1     -11.864 -11.253 -13.056  1.00  0.00     0.124 S 
ATOM     94  O   UNL     1     -12.696 -10.091 -12.761  1.00  0.00    -0.237 OA
ATOM     95  O   UNL     1     -10.888 -11.079 -14.126  1.00  0.00    -0.237 OA
ATOM     96  O   UNL     1     -12.557 -12.538 -13.050  1.00  0.00    -0.744 OA
ENDBRANCH  92  93
ENDBRANCH  60  85
ENDBRANCH  34  35
ENDBRANCH  26  29
ENDBRANCH  24  25
ENDBRANCH  23  24
ENDBRANCH  22  23
ENDBRANCH   3  22
TORSDOF 19
