REMARK SMILES COc1cc2ccccc2cc1C(=O)Nc1cc(C(=O)NCCCNC(=O)c2ccc(-c3c4nc(c(-c5c(F)cc(S(=O)(=O)[O-])cc5F)c5ccc([nH]5)c(-c5c(F)cc(S(=O)(=O)[O-])cc5F)c5nc(c(-c6c(F)cc(S(=O)(=O)[O-])cc6F)c6ccc3[nH]6)C=C5)C=C4)cc2)ccc1C
REMARK SMILES IDX 23 1 22 2 21 3 19 4 20 5 18 7 16 8 17 9 96 10 95 11 97 12
REMARK SMILES IDX 94 13 15 14 13 15 14 16 12 18 3 19 4 20 5 21 11 22 6 23
REMARK SMILES IDX 10 24 7 25 9 26 8 27 2 28 1 29 24 30 25 31 26 32 27 34 28 35
REMARK SMILES IDX 29 36 93 37 30 38 92 39 31 40 32 41 33 42 86 43 34 44 91 45
REMARK SMILES IDX 85 46 87 47 35 48 90 49 84 50 83 51 36 53 70 54 49 55 69 56
REMARK SMILES IDX 50 57 53 58 68 59 88 60 51 61 52 62 67 64 89 65 54 66 37 67
REMARK SMILES IDX 38 68 47 69 39 70 40 71 46 72 48 73 41 74 42 75 43 76 44 77
REMARK SMILES IDX 45 78 71 79 72 80 81 81 73 82 74 83 80 84 82 85 75 86 76 87
REMARK SMILES IDX 77 88 78 89 79 90 55 91 56 92 65 93 57 94 58 95 64 96 66 97
REMARK SMILES IDX 59 98 60 99 61 100 62 101 63 102
REMARK H PARENT 21 6 15 17 25 33 87 52 53 63
REMARK Flexibility Score: inf
ROOT
ATOM      1  C   UNL     1       1.763  -4.630   0.008  1.00  0.00     0.042 C 
ENDROOT
BRANCH   1   2
ATOM      2  C   UNL     1       0.373  -4.292  -0.532  1.00  0.00     0.118 C 
BRANCH   2   3
ATOM      3  N   UNL     1      -0.616  -4.081   0.516  1.00  0.00    -0.352 N 
ATOM      4  C   UNL     1      -0.955  -2.999   1.293  1.00  0.00     0.251 C 
ATOM      5  O   UNL     1      -1.958  -3.119   2.003  1.00  0.00    -0.269 OA
ATOM      6  H   UNL     1      -1.155  -4.882   0.708  1.00  0.00     0.163 HD
BRANCH   4   7
ATOM      7  C   UNL     1      -0.216  -1.696   1.337  1.00  0.00     0.041 A 
ATOM      8  C   UNL     1       1.570  -0.155   0.702  1.00  0.00     0.045 A 
ATOM      9  C   UNL     1       0.990  -1.430   0.695  1.00  0.00     0.040 A 
ATOM     10  C   UNL     1       1.036   0.857   1.513  1.00  0.00    -0.027 A 
ATOM     11  C   UNL     1      -0.169   0.598   2.179  1.00  0.00     0.006 A 
ATOM     12  C   UNL     1       1.593   2.252   1.562  1.00  0.00     0.046 C 
ATOM     13  C   UNL     1      -0.793  -0.651   2.076  1.00  0.00     0.014 A 
BRANCH   8  14
ATOM     14  N   UNL     1       2.656   0.127  -0.144  1.00  0.00    -0.322 N 
ATOM     15  C   UNL     1       2.959  -0.337  -1.410  1.00  0.00     0.259 C 
ATOM     16  O   UNL     1       4.078  -0.072  -1.859  1.00  0.00    -0.269 OA
ATOM     17  H   UNL     1       3.311   0.761   0.227  1.00  0.00     0.170 HD
BRANCH  15  18
ATOM     18  C   UNL     1       1.992  -1.048  -2.302  1.00  0.00     0.082 A 
ATOM     19  C   UNL     1       0.611  -0.809  -2.372  1.00  0.00     0.132 A 
ATOM     20  C   UNL     1      -0.209  -1.591  -3.195  1.00  0.00     0.056 A 
ATOM     21  C   UNL     1       0.340  -2.546  -4.056  1.00  0.00    -0.015 A 
ATOM     22  C   UNL     1       2.545  -1.986  -3.191  1.00  0.00     0.026 A 
ATOM     23  C   UNL     1      -0.476  -3.325  -4.891  1.00  0.00     0.009 A 
ATOM     24  C   UNL     1       1.740  -2.722  -4.082  1.00  0.00    -0.017 A 
ATOM     25  C   UNL     1       0.090  -4.236  -5.780  1.00  0.00     0.001 A 
ATOM     26  C   UNL     1       2.293  -3.640  -4.986  1.00  0.00     0.009 A 
ATOM     27  C   UNL     1       1.472  -4.380  -5.837  1.00  0.00     0.001 A 
BRANCH  19  28
ATOM     28  O   UNL     1      -0.058   0.109  -1.609  1.00  0.00    -0.496 OA
ATOM     29  C   UNL     1       0.111   1.428  -2.113  1.00  0.00     0.278 C 
ENDBRANCH  19  28
ENDBRANCH  15  18
ENDBRANCH   8  14
ENDBRANCH   4   7
ENDBRANCH   2   3
ENDBRANCH   1   2
BRANCH   1  30
ATOM     30  C   UNL     1       2.014  -6.126   0.093  1.00  0.00     0.118 C 
BRANCH  30  31
ATOM     31  N   UNL     1       3.257  -6.540  -0.554  1.00  0.00    -0.352 N 
ATOM     32  C   UNL     1       3.818  -7.812  -0.564  1.00  0.00     0.251 C 
ATOM     33  H   UNL     1       3.752  -5.840  -1.038  1.00  0.00     0.163 HD
ATOM     34  O   UNL     1       4.896  -8.052  -1.053  1.00  0.00    -0.269 OA
BRANCH  32  35
ATOM     35  C   UNL     1       2.970  -8.886   0.000  1.00  0.00     0.039 A 
ATOM     36  C   UNL     1       2.312  -9.722  -0.907  1.00  0.00     0.014 A 
ATOM     37  C   UNL     1       2.556  -8.778   1.324  1.00  0.00     0.014 A 
ATOM     38  C   UNL     1       1.101 -10.302  -0.538  1.00  0.00     0.010 A 
ATOM     39  C   UNL     1       1.306  -9.269   1.650  1.00  0.00     0.010 A 
ATOM     40  C   UNL     1       0.552  -9.986   0.704  1.00  0.00    -0.014 A 
BRANCH  40  41
ATOM     41  C   UNL     1      -0.833 -10.281   1.077  1.00  0.00     0.031 A 
ATOM     42  C   UNL     1      -1.113 -11.245   2.168  1.00  0.00     0.074 A 
ATOM     43  C   UNL     1      -1.862  -9.626   0.496  1.00  0.00     0.049 A 
ATOM     44  N   UNL     1      -2.267 -11.763   2.423  1.00  0.00    -0.248 NA
ATOM     45  C   UNL     1      -0.060 -11.752   3.037  1.00  0.00     0.031 C 
ATOM     46  C   UNL     1      -3.238  -9.546   0.981  1.00  0.00     0.029 A 
ATOM     47  N   UNL     1      -1.917  -9.071  -0.784  1.00  0.00    -0.354 N 
ATOM     48  C   UNL     1      -2.179 -12.448   3.615  1.00  0.00     0.074 A 
ATOM     49  C   UNL     1      -0.769 -12.453   3.923  1.00  0.00     0.031 C 
ATOM     50  C   UNL     1      -4.044  -9.226  -0.041  1.00  0.00     0.029 A 
ATOM     51  C   UNL     1      -3.241  -9.223  -1.249  1.00  0.00     0.049 A 
ATOM     52  H   UNL     1      -1.171  -8.652  -1.271  1.00  0.00     0.167 HD
ATOM     53  C   UNL     1      -3.327 -12.835   4.247  1.00  0.00     0.037 A 
ATOM     54  C   UNL     1      -3.506  -9.973  -2.361  1.00  0.00     0.037 A 
ATOM     55  C   UNL     1      -4.495 -12.654   3.378  1.00  0.00     0.049 A 
ATOM     56  C   UNL     1      -4.293 -11.241  -2.098  1.00  0.00     0.074 A 
ATOM     57  C   UNL     1      -5.495 -11.703   3.262  1.00  0.00     0.029 A 
ATOM     58  N   UNL     1      -4.588 -13.438   2.241  1.00  0.00    -0.354 N 
ATOM     59  N   UNL     1      -4.768 -11.595  -0.935  1.00  0.00    -0.248 NA
ATOM     60  C   UNL     1      -4.536 -12.256  -3.127  1.00  0.00     0.031 C 
ATOM     61  C   UNL     1      -6.149 -11.895   2.008  1.00  0.00     0.029 A 
ATOM     62  C   UNL     1      -5.550 -12.964   1.369  1.00  0.00     0.049 A 
ATOM     63  H   UNL     1      -4.037 -14.237   2.074  1.00  0.00     0.167 HD
ATOM     64  C   UNL     1      -5.257 -12.872  -1.018  1.00  0.00     0.074 A 
ATOM     65  C   UNL     1      -5.129 -13.231  -2.417  1.00  0.00     0.031 C 
ATOM     66  C   UNL     1      -5.678 -13.587   0.062  1.00  0.00     0.037 A 
BRANCH  53  67
ATOM     67  C   UNL     1      -3.425 -13.177   5.727  1.00  0.00     0.058 A 
ATOM     68  C   UNL     1      -4.647 -13.018   6.419  1.00  0.00     0.135 A 
ATOM     69  C   UNL     1      -2.353 -13.585   6.546  1.00  0.00     0.135 A 
ATOM     70  F   UNL     1      -5.786 -12.731   5.774  1.00  0.00    -0.206 F 
ATOM     71  C   UNL     1      -4.763 -13.136   7.809  1.00  0.00     0.059 A 
ATOM     72  C   UNL     1      -2.426 -13.653   7.940  1.00  0.00     0.059 A 
ATOM     73  F   UNL     1      -1.194 -14.010   6.035  1.00  0.00    -0.206 F 
ATOM     74  C   UNL     1      -3.635 -13.413   8.568  1.00  0.00     0.060 A 
BRANCH  74  75
ATOM     75  S   UNL     1      -3.769 -13.476  10.363  1.00  0.00     0.124 S 
ATOM     76  O   UNL     1      -4.331 -12.165  10.675  1.00  0.00    -0.237 OA
ATOM     77  O   UNL     1      -4.659 -14.614  10.562  1.00  0.00    -0.237 OA
ATOM     78  O   UNL     1      -2.390 -13.677  10.800  1.00  0.00    -0.744 OA
ENDBRANCH  74  75
ENDBRANCH  53  67
BRANCH  54  79
ATOM     79  C   UNL     1      -2.468  -9.800  -3.413  1.00  0.00     0.058 A 
ATOM     80  C   UNL     1      -2.361  -8.528  -4.009  1.00  0.00     0.135 A 
ATOM     81  C   UNL     1      -1.360 -10.653  -3.487  1.00  0.00     0.135 A 
ATOM     82  F   UNL     1      -3.404  -7.682  -3.984  1.00  0.00    -0.206 F 
ATOM     83  C   UNL     1      -1.147  -8.051  -4.485  1.00  0.00     0.059 A 
ATOM     84  C   UNL     1      -0.137 -10.200  -3.978  1.00  0.00     0.059 A 
ATOM     85  F   UNL     1      -1.409 -11.876  -2.939  1.00  0.00    -0.206 F 
ATOM     86  C   UNL     1      -0.027  -8.874  -4.398  1.00  0.00     0.060 A 
BRANCH  86  87
ATOM     87  S   UNL     1       1.595  -8.119  -4.643  1.00  0.00     0.124 S 
ATOM     88  O   UNL     1       1.499  -7.645  -6.019  1.00  0.00    -0.237 OA
ATOM     89  O   UNL     1       1.595  -7.089  -3.605  1.00  0.00    -0.237 OA
ATOM     90  O   UNL     1       2.518  -9.226  -4.424  1.00  0.00    -0.744 OA
ENDBRANCH  86  87
ENDBRANCH  54  79
BRANCH  66  91
ATOM     91  C   UNL     1      -6.239 -14.969  -0.065  1.00  0.00     0.058 A 
ATOM     92  C   UNL     1      -7.335 -15.238  -0.900  1.00  0.00     0.135 A 
ATOM     93  C   UNL     1      -5.780 -16.030   0.740  1.00  0.00     0.135 A 
ATOM     94  F   UNL     1      -7.845 -14.276  -1.686  1.00  0.00    -0.206 F 
ATOM     95  C   UNL     1      -7.939 -16.494  -0.943  1.00  0.00     0.059 A 
ATOM     96  C   UNL     1      -6.392 -17.280   0.744  1.00  0.00     0.059 A 
ATOM     97  F   UNL     1      -4.705 -15.881   1.530  1.00  0.00    -0.206 F 
ATOM     98  C   UNL     1      -7.465 -17.507  -0.111  1.00  0.00     0.060 A 
BRANCH  98  99
ATOM     99  S   UNL     1      -8.278 -19.118  -0.116  1.00  0.00     0.124 S 
ATOM    100  O   UNL     1      -9.664 -18.781  -0.431  1.00  0.00    -0.237 OA
ATOM    101  O   UNL     1      -7.543 -19.811  -1.169  1.00  0.00    -0.237 OA
ATOM    102  O   UNL     1      -8.054 -19.608   1.240  1.00  0.00    -0.744 OA
ENDBRANCH  98  99
ENDBRANCH  66  91
ENDBRANCH  40  41
ENDBRANCH  32  35
ENDBRANCH  30  31
ENDBRANCH   1  30
TORSDOF 16
