REMARK SMILES O=C(C[NH+]1CC(c2nc(-c3cccs3)no2)C1)NCCCNC(=O)c1ccc(-c2c3nc(c(-c4c(F)cc(S(=O)(=O)[O-])cc4F)c4ccc([nH]4)c(-c4c(F)cc(S(=O)(=O)[O-])cc4F)c4nc(c(-c5c(F)cc(S(=O)(=O)[O-])cc5F)c5ccc2[nH]5)C=C4)C=C3)cc1
REMARK SMILES IDX 20 1 19 2 18 3 1 4 2 5 3 7 4 8 5 9 17 10 6 12 7 13 8 14
REMARK SMILES IDX 16 15 9 16 15 17 10 18 11 19 14 20 12 21 13 22 21 23 22 24
REMARK SMILES IDX 23 25 24 27 25 28 26 29 90 30 27 31 89 32 28 33 29 34 30 35
REMARK SMILES IDX 83 36 31 37 88 38 82 39 84 40 32 41 87 42 81 43 80 44 33 46
REMARK SMILES IDX 67 47 46 48 66 49 47 50 50 51 65 52 85 53 48 54 49 55 64 57
REMARK SMILES IDX 86 58 51 59 34 60 35 61 44 62 36 63 37 64 43 65 45 66 38 67
REMARK SMILES IDX 39 68 40 69 41 70 42 71 68 72 69 73 78 74 70 75 71 76 77 77
REMARK SMILES IDX 79 78 72 79 73 80 74 81 75 82 76 83 52 84 53 85 62 86 54 87
REMARK SMILES IDX 55 88 61 89 63 90 56 91 57 92 58 93 59 94 60 95
REMARK H PARENT 18 6 4 11 22 26 84 45 50 56
REMARK Flexibility Score: inf
ROOT
ATOM      1  C   UNL     1       2.439  -0.396  -3.468  1.00  0.00     0.042 C 
ENDROOT
BRANCH   1   2
ATOM      2  C   UNL     1       2.160  -1.189  -2.201  1.00  0.00     0.118 C 
BRANCH   2   3
ATOM      3  N   UNL     1       2.787  -0.620  -1.025  1.00  0.00    -0.351 N 
ATOM      4  O   UNL     1       0.837   0.039  -0.009  1.00  0.00    -0.269 OA
ATOM      5  C   UNL     1       2.054  -0.120   0.029  1.00  0.00     0.275 C 
ATOM      6  H   UNL     1       3.770  -0.589  -0.978  1.00  0.00     0.163 HD
BRANCH   5   7
ATOM      7  C   UNL     1       2.865   0.218   1.286  1.00  0.00     0.363 C 
BRANCH   7   8
ATOM      8  N   UNL     1       3.899  -0.800   1.605  1.00  0.00    -0.325 N 
ATOM      9  C   UNL     1       3.941  -1.036   3.087  1.00  0.00     0.282 C 
ATOM     10  C   UNL     1       3.383  -2.188   1.481  1.00  0.00     0.282 C 
ATOM     11  H   UNL     1       4.701  -0.479   1.062  1.00  0.00     0.348 HD
ATOM     12  C   UNL     1       4.147  -2.540   2.786  1.00  0.00     0.188 C 
BRANCH  12  13
ATOM     13  C   UNL     1       3.343  -3.544   3.583  1.00  0.00     0.241 A 
ATOM     14  N   UNL     1       3.710  -4.800   3.723  1.00  0.00    -0.190 NA
ATOM     15  O   UNL     1       2.088  -3.303   4.067  1.00  0.00    -0.338 OA
ATOM     16  C   UNL     1       2.570  -5.389   4.221  1.00  0.00     0.212 A 
ATOM     17  N   UNL     1       1.581  -4.527   4.493  1.00  0.00    -0.056 NA
BRANCH  16  18
ATOM     18  C   UNL     1       2.434  -6.873   4.341  1.00  0.00     0.075 A 
ATOM     19  C   UNL     1       3.460  -7.759   4.081  1.00  0.00     0.024 A 
ATOM     20  S   UNL     1       0.986  -7.681   4.752  1.00  0.00    -0.140 S 
ATOM     21  C   UNL     1       3.038  -9.117   4.186  1.00  0.00     0.012 A 
ATOM     22  C   UNL     1       1.706  -9.217   4.523  1.00  0.00     0.065 A 
ENDBRANCH  16  18
ENDBRANCH  12  13
ENDBRANCH   7   8
ENDBRANCH   5   7
ENDBRANCH   2   3
ENDBRANCH   1   2
BRANCH   1  23
ATOM     23  C   UNL     1       3.907  -0.361  -3.875  1.00  0.00     0.118 C 
BRANCH  23  24
ATOM     24  N   UNL     1       4.438  -1.671  -4.237  1.00  0.00    -0.352 N 
ATOM     25  C   UNL     1       5.104  -2.063  -5.374  1.00  0.00     0.251 C 
ATOM     26  H   UNL     1       4.298  -2.379  -3.568  1.00  0.00     0.163 HD
ATOM     27  O   UNL     1       5.366  -3.250  -5.548  1.00  0.00    -0.269 OA
BRANCH  25  28
ATOM     28  C   UNL     1       5.477  -1.063  -6.398  1.00  0.00     0.039 A 
ATOM     29  C   UNL     1       5.206  -1.336  -7.742  1.00  0.00     0.014 A 
ATOM     30  C   UNL     1       6.074   0.146  -6.035  1.00  0.00     0.014 A 
ATOM     31  C   UNL     1       5.449  -0.359  -8.712  1.00  0.00     0.010 A 
ATOM     32  C   UNL     1       6.251   1.143  -6.991  1.00  0.00     0.010 A 
ATOM     33  C   UNL     1       5.928   0.906  -8.337  1.00  0.00    -0.014 A 
BRANCH  33  34
ATOM     34  C   UNL     1       6.081   2.013  -9.317  1.00  0.00     0.031 A 
ATOM     35  C   UNL     1       7.440   2.599  -9.581  1.00  0.00     0.074 A 
ATOM     36  C   UNL     1       4.987   2.561  -9.883  1.00  0.00     0.049 A 
ATOM     37  N   UNL     1       7.760   3.673 -10.255  1.00  0.00    -0.248 NA
ATOM     38  C   UNL     1       8.588   1.899  -8.982  1.00  0.00     0.031 C 
ATOM     39  C   UNL     1       3.609   2.105  -9.682  1.00  0.00     0.029 A 
ATOM     40  N   UNL     1       4.858   3.640 -10.722  1.00  0.00    -0.354 N 
ATOM     41  C   UNL     1       9.139   3.795 -10.138  1.00  0.00     0.074 A 
ATOM     42  C   UNL     1       9.591   2.705  -9.300  1.00  0.00     0.031 C 
ATOM     43  C   UNL     1       2.777   2.894 -10.382  1.00  0.00     0.029 A 
ATOM     44  C   UNL     1       3.554   3.938 -11.042  1.00  0.00     0.049 A 
ATOM     45  H   UNL     1       5.627   4.152 -11.063  1.00  0.00     0.167 HD
ATOM     46  C   UNL     1       9.956   4.725 -10.690  1.00  0.00     0.037 A 
ATOM     47  C   UNL     1       3.038   4.952 -11.766  1.00  0.00     0.037 A 
ATOM     48  C   UNL     1       9.504   5.788 -11.549  1.00  0.00     0.049 A 
ATOM     49  C   UNL     1       3.964   5.970 -12.373  1.00  0.00     0.074 A 
ATOM     50  C   UNL     1      10.260   6.750 -12.195  1.00  0.00     0.029 A 
ATOM     51  N   UNL     1       8.180   6.026 -11.886  1.00  0.00    -0.354 N 
ATOM     52  N   UNL     1       5.270   6.050 -12.282  1.00  0.00    -0.248 NA
ATOM     53  C   UNL     1       3.351   7.033 -13.182  1.00  0.00     0.031 C 
ATOM     54  C   UNL     1       9.390   7.590 -12.899  1.00  0.00     0.029 A 
ATOM     55  C   UNL     1       8.096   7.125 -12.724  1.00  0.00     0.049 A 
ATOM     56  H   UNL     1       7.413   5.493 -11.575  1.00  0.00     0.167 HD
ATOM     57  C   UNL     1       5.637   7.150 -13.049  1.00  0.00     0.074 A 
ATOM     58  C   UNL     1       4.417   7.706 -13.595  1.00  0.00     0.031 C 
ATOM     59  C   UNL     1       6.875   7.650 -13.282  1.00  0.00     0.037 A 
BRANCH  46  60
ATOM     60  C   UNL     1      11.424   4.634 -10.380  1.00  0.00     0.058 A 
ATOM     61  C   UNL     1      12.228   3.618 -10.921  1.00  0.00     0.135 A 
ATOM     62  C   UNL     1      12.041   5.591  -9.559  1.00  0.00     0.135 A 
ATOM     63  F   UNL     1      11.686   2.669 -11.700  1.00  0.00    -0.206 F 
ATOM     64  C   UNL     1      13.586   3.537 -10.633  1.00  0.00     0.059 A 
ATOM     65  C   UNL     1      13.403   5.545  -9.279  1.00  0.00     0.059 A 
ATOM     66  F   UNL     1      11.318   6.584  -9.017  1.00  0.00    -0.206 F 
ATOM     67  C   UNL     1      14.164   4.503  -9.808  1.00  0.00     0.060 A 
BRANCH  67  68
ATOM     68  S   UNL     1      15.928   4.383  -9.441  1.00  0.00     0.124 S 
ATOM     69  O   UNL     1      15.948   3.285  -8.479  1.00  0.00    -0.237 OA
ATOM     70  O   UNL     1      16.502   4.088 -10.750  1.00  0.00    -0.237 OA
ATOM     71  O   UNL     1      16.252   5.698  -8.899  1.00  0.00    -0.744 OA
ENDBRANCH  67  68
ENDBRANCH  46  60
BRANCH  47  72
ATOM     72  C   UNL     1       1.568   5.044 -11.968  1.00  0.00     0.058 A 
ATOM     73  C   UNL     1       0.996   4.760 -13.216  1.00  0.00     0.135 A 
ATOM     74  C   UNL     1       0.706   5.399 -10.918  1.00  0.00     0.135 A 
ATOM     75  F   UNL     1       1.780   4.423 -14.251  1.00  0.00    -0.206 F 
ATOM     76  C   UNL     1      -0.377   4.837 -13.423  1.00  0.00     0.059 A 
ATOM     77  C   UNL     1      -0.673   5.461 -11.095  1.00  0.00     0.059 A 
ATOM     78  F   UNL     1       1.203   5.665  -9.700  1.00  0.00    -0.206 F 
ATOM     79  C   UNL     1      -1.204   5.187 -12.355  1.00  0.00     0.060 A 
BRANCH  79  80
ATOM     80  S   UNL     1      -2.990   5.234 -12.621  1.00  0.00     0.124 S 
ATOM     81  O   UNL     1      -3.141   6.474 -13.374  1.00  0.00    -0.237 OA
ATOM     82  O   UNL     1      -3.223   4.002 -13.367  1.00  0.00    -0.237 OA
ATOM     83  O   UNL     1      -3.530   5.248 -11.264  1.00  0.00    -0.744 OA
ENDBRANCH  79  80
ENDBRANCH  47  72
BRANCH  59  84
ATOM     84  C   UNL     1       6.991   8.825 -14.212  1.00  0.00     0.058 A 
ATOM     85  C   UNL     1       6.654  10.124 -13.806  1.00  0.00     0.135 A 
ATOM     86  C   UNL     1       7.531   8.655 -15.497  1.00  0.00     0.135 A 
ATOM     87  F   UNL     1       6.127  10.337 -12.590  1.00  0.00    -0.206 F 
ATOM     88  C   UNL     1       6.845  11.217 -14.646  1.00  0.00     0.059 A 
ATOM     89  C   UNL     1       7.751   9.735 -16.345  1.00  0.00     0.059 A 
ATOM     90  F   UNL     1       7.876   7.431 -15.929  1.00  0.00    -0.206 F 
ATOM     91  C   UNL     1       7.401  11.013 -15.911  1.00  0.00     0.060 A 
BRANCH  91  92
ATOM     92  S   UNL     1       7.708  12.447 -16.964  1.00  0.00     0.124 S 
ATOM     93  O   UNL     1       6.361  12.768 -17.425  1.00  0.00    -0.237 OA
ATOM     94  O   UNL     1       8.304  13.399 -16.032  1.00  0.00    -0.237 OA
ATOM     95  O   UNL     1       8.614  11.930 -17.985  1.00  0.00    -0.744 OA
ENDBRANCH  91  92
ENDBRANCH  59  84
ENDBRANCH  33  34
ENDBRANCH  25  28
ENDBRANCH  23  24
ENDBRANCH   1  23
TORSDOF 16
