REMARK SMILES COc1ccc([C@@H](C(=O)NCCCNC(=O)c2ccc(-c3c4nc(c(-c5c(F)cc(S(=O)(=O)[O-])cc5F)c5ccc([nH]5)c(-c5c(F)cc(S(=O)(=O)[O-])cc5F)c5nc(c(-c6c(F)cc(S(=O)(=O)[O-])cc6F)c6ccc3[nH]6)C=C5)C=C4)cc2)[NH+]2CCC(C(N)=O)CC2)c(C)c1
REMARK SMILES IDX 12 1 11 2 10 3 8 4 9 5 7 7 6 8 3 9 4 10 94 11 5 12 92 13
REMARK SMILES IDX 93 14 2 15 1 16 83 17 84 18 91 19 85 21 90 22 86 23 87 24
REMARK SMILES IDX 88 25 89 26 13 29 14 30 15 31 16 33 17 34 18 35 82 36 19 37
REMARK SMILES IDX 81 38 20 39 21 40 22 41 75 42 23 43 80 44 74 45 76 46 24 47
REMARK SMILES IDX 79 48 73 49 72 50 25 52 59 53 38 54 58 55 39 56 42 57 57 58
REMARK SMILES IDX 77 59 40 60 41 61 56 63 78 64 43 65 26 66 27 67 36 68 28 69
REMARK SMILES IDX 29 70 35 71 37 72 30 73 31 74 32 75 33 76 34 77 60 78 61 79
REMARK SMILES IDX 70 80 62 81 63 82 69 83 71 84 64 85 65 86 66 87 67 88 68 89
REMARK SMILES IDX 44 90 45 91 54 92 46 93 47 94 53 95 55 96 48 97 49 98 50 99
REMARK SMILES IDX 51 100 52 101
REMARK H PARENT 10 6 83 20 88 27 88 28 14 32 76 51 42 62
REMARK Flexibility Score: inf
ROOT
ATOM      1  C   UNL     1       3.334   4.962   2.748  1.00  0.00     0.042 C 
ENDROOT
BRANCH   1   2
ATOM      2  C   UNL     1       3.768   5.021   4.208  1.00  0.00     0.118 C 
BRANCH   2   3
ATOM      3  N   UNL     1       2.703   5.441   5.111  1.00  0.00    -0.351 N 
ATOM      4  C   UNL     1       1.801   4.693   5.833  1.00  0.00     0.283 C 
ATOM      5  O   UNL     1       1.083   5.314   6.623  1.00  0.00    -0.268 OA
ATOM      6  H   UNL     1       2.615   6.415   5.222  1.00  0.00     0.163 HD
BRANCH   4   7
ATOM      7  C   UNL     1       1.752   3.140   5.658  1.00  0.00     0.305 C 
BRANCH   7   8
ATOM      8  C   UNL     1       1.310   2.657   4.266  1.00  0.00     0.022 A 
ATOM      9  C   UNL     1       0.724   1.552   1.711  1.00  0.00     0.119 A 
ATOM     10  C   UNL     1       1.894   1.198   2.365  1.00  0.00     0.047 A 
ATOM     11  C   UNL     1      -0.133   2.472   2.314  1.00  0.00     0.050 A 
ATOM     12  C   UNL     1       2.174   1.734   3.624  1.00  0.00     0.014 A 
ATOM     13  C   UNL     1       0.141   3.046   3.575  1.00  0.00    -0.038 A 
ATOM     14  C   UNL     1      -0.886   4.029   4.071  1.00  0.00     0.045 C 
BRANCH   9  15
ATOM     15  O   UNL     1       0.313   1.092   0.491  1.00  0.00    -0.497 OA
ATOM     16  C   UNL     1       1.012  -0.030  -0.030  1.00  0.00     0.278 C 
ENDBRANCH   9  15
ENDBRANCH   7   8
BRANCH   7  17
ATOM     17  N   UNL     1       1.124   2.411   6.820  1.00  0.00    -0.321 N 
ATOM     18  C   UNL     1      -0.324   2.604   6.955  1.00  0.00     0.263 C 
ATOM     19  C   UNL     1       1.490   0.986   6.824  1.00  0.00     0.263 C 
ATOM     20  H   UNL     1       1.520   2.847   7.652  1.00  0.00     0.349 HD
ATOM     21  C   UNL     1      -0.891   1.900   8.193  1.00  0.00     0.075 C 
ATOM     22  C   UNL     1       0.956   0.246   8.051  1.00  0.00     0.075 C 
ATOM     23  C   UNL     1      -0.558   0.411   8.146  1.00  0.00     0.089 C 
BRANCH  23  24
ATOM     24  C   UNL     1      -1.118  -0.305   9.359  1.00  0.00     0.220 C 
ATOM     25  N   UNL     1      -2.281  -0.984   9.132  1.00  0.00    -0.369 N 
ATOM     26  O   UNL     1      -0.610  -0.296  10.473  1.00  0.00    -0.275 OA
ATOM     27  H   UNL     1      -2.683  -0.986   8.233  1.00  0.00     0.159 HD
ATOM     28  H   UNL     1      -2.718  -1.472   9.867  1.00  0.00     0.159 HD
ENDBRANCH  23  24
ENDBRANCH   7  17
ENDBRANCH   4   7
ENDBRANCH   2   3
ENDBRANCH   1   2
BRANCH   1  29
ATOM     29  C   UNL     1       3.389   6.308   2.034  1.00  0.00     0.118 C 
BRANCH  29  30
ATOM     30  N   UNL     1       4.366   6.309   0.946  1.00  0.00    -0.352 N 
ATOM     31  C   UNL     1       4.405   7.128  -0.170  1.00  0.00     0.251 C 
ATOM     32  H   UNL     1       5.088   5.643   1.016  1.00  0.00     0.163 HD
ATOM     33  O   UNL     1       5.189   6.967  -1.085  1.00  0.00    -0.269 OA
BRANCH  31  34
ATOM     34  C   UNL     1       3.488   8.280  -0.153  1.00  0.00     0.039 A 
ATOM     35  C   UNL     1       4.024   9.507   0.252  1.00  0.00     0.014 A 
ATOM     36  C   UNL     1       2.115   8.049  -0.181  1.00  0.00     0.014 A 
ATOM     37  C   UNL     1       3.185  10.453   0.828  1.00  0.00     0.010 A 
ATOM     38  C   UNL     1       1.296   8.962   0.453  1.00  0.00     0.010 A 
ATOM     39  C   UNL     1       1.843  10.129   1.012  1.00  0.00    -0.014 A 
BRANCH  39  40
ATOM     40  C   UNL     1       0.948  10.908   1.859  1.00  0.00     0.031 A 
ATOM     41  C   UNL     1      -0.072  11.779   1.239  1.00  0.00     0.074 A 
ATOM     42  C   UNL     1       1.000  10.756   3.200  1.00  0.00     0.049 A 
ATOM     43  N   UNL     1      -0.737  12.697   1.852  1.00  0.00    -0.248 NA
ATOM     44  C   UNL     1      -0.363  11.716  -0.187  1.00  0.00     0.031 C 
ATOM     45  C   UNL     1      -0.006  11.161   4.176  1.00  0.00     0.029 A 
ATOM     46  N   UNL     1       2.107  10.383   3.971  1.00  0.00    -0.354 N 
ATOM     47  C   UNL     1      -1.717  13.156   0.997  1.00  0.00     0.074 A 
ATOM     48  C   UNL     1      -1.379  12.576  -0.280  1.00  0.00     0.031 C 
ATOM     49  C   UNL     1       0.574  11.264   5.380  1.00  0.00     0.029 A 
ATOM     50  C   UNL     1       2.004  11.094   5.184  1.00  0.00     0.049 A 
ATOM     51  H   UNL     1       2.817   9.749   3.717  1.00  0.00     0.167 HD
ATOM     52  C   UNL     1      -2.768  13.861   1.514  1.00  0.00     0.037 A 
ATOM     53  C   UNL     1       2.943  12.016   5.546  1.00  0.00     0.037 A 
ATOM     54  C   UNL     1      -2.498  14.230   2.908  1.00  0.00     0.049 A 
ATOM     55  C   UNL     1       2.395  13.415   5.705  1.00  0.00     0.074 A 
ATOM     56  C   UNL     1      -2.883  13.679   4.121  1.00  0.00     0.029 A 
ATOM     57  N   UNL     1      -1.463  15.118   3.195  1.00  0.00    -0.354 N 
ATOM     58  N   UNL     1       1.268  13.823   5.188  1.00  0.00    -0.248 NA
ATOM     59  C   UNL     1       3.074  14.464   6.460  1.00  0.00     0.031 C 
ATOM     60  C   UNL     1      -2.008  14.170   5.124  1.00  0.00     0.029 A 
ATOM     61  C   UNL     1      -1.112  15.044   4.530  1.00  0.00     0.049 A 
ATOM     62  H   UNL     1      -1.041  15.717   2.537  1.00  0.00     0.167 HD
ATOM     63  C   UNL     1       1.069  15.142   5.503  1.00  0.00     0.074 A 
ATOM     64  C   UNL     1       2.218  15.492   6.319  1.00  0.00     0.031 C 
ATOM     65  C   UNL     1      -0.019  15.845   5.068  1.00  0.00     0.037 A 
BRANCH  52  66
ATOM     66  C   UNL     1      -4.148  13.939   0.865  1.00  0.00     0.058 A 
ATOM     67  C   UNL     1      -5.304  14.143   1.656  1.00  0.00     0.135 A 
ATOM     68  C   UNL     1      -4.427  13.719  -0.499  1.00  0.00     0.135 A 
ATOM     69  F   UNL     1      -5.216  14.467   2.953  1.00  0.00    -0.206 F 
ATOM     70  C   UNL     1      -6.609  14.016   1.160  1.00  0.00     0.059 A 
ATOM     71  C   UNL     1      -5.717  13.540  -1.010  1.00  0.00     0.059 A 
ATOM     72  F   UNL     1      -3.468  13.726  -1.428  1.00  0.00    -0.206 F 
ATOM     73  C   UNL     1      -6.807  13.674  -0.169  1.00  0.00     0.060 A 
BRANCH  73  74
ATOM     74  S   UNL     1      -8.482  13.433  -0.786  1.00  0.00     0.124 S 
ATOM     75  O   UNL     1      -8.981  12.373   0.085  1.00  0.00    -0.237 OA
ATOM     76  O   UNL     1      -9.074  14.751  -0.589  1.00  0.00    -0.237 OA
ATOM     77  O   UNL     1      -8.280  13.043  -2.180  1.00  0.00    -0.744 OA
ENDBRANCH  73  74
ENDBRANCH  52  66
BRANCH  53  78
ATOM     78  C   UNL     1       4.320  11.664   5.105  1.00  0.00     0.058 A 
ATOM     79  C   UNL     1       4.926  10.539   5.697  1.00  0.00     0.135 A 
ATOM     80  C   UNL     1       4.842  12.110   3.883  1.00  0.00     0.135 A 
ATOM     81  F   UNL     1       4.475  10.077   6.875  1.00  0.00    -0.206 F 
ATOM     82  C   UNL     1       5.894   9.793   5.036  1.00  0.00     0.059 A 
ATOM     83  C   UNL     1       5.821  11.380   3.203  1.00  0.00     0.059 A 
ATOM     84  F   UNL     1       4.311  13.179   3.272  1.00  0.00    -0.206 F 
ATOM     85  C   UNL     1       6.290  10.188   3.760  1.00  0.00     0.060 A 
BRANCH  85  86
ATOM     86  S   UNL     1       7.264   9.015   2.785  1.00  0.00     0.124 S 
ATOM     87  O   UNL     1       8.523   8.983   3.519  1.00  0.00    -0.237 OA
ATOM     88  O   UNL     1       6.452   7.801   2.876  1.00  0.00    -0.237 OA
ATOM     89  O   UNL     1       7.315   9.635   1.466  1.00  0.00    -0.744 OA
ENDBRANCH  85  86
ENDBRANCH  53  78
BRANCH  65  90
ATOM     90  C   UNL     1      -0.196  17.338   5.203  1.00  0.00     0.058 A 
ATOM     91  C   UNL     1       0.867  18.257   5.170  1.00  0.00     0.135 A 
ATOM     92  C   UNL     1      -1.492  17.906   5.239  1.00  0.00     0.135 A 
ATOM     93  F   UNL     1       2.135  17.849   5.016  1.00  0.00    -0.206 F 
ATOM     94  C   UNL     1       0.669  19.637   5.250  1.00  0.00     0.059 A 
ATOM     95  C   UNL     1      -1.715  19.281   5.264  1.00  0.00     0.059 A 
ATOM     96  F   UNL     1      -2.591  17.137   5.241  1.00  0.00    -0.206 F 
ATOM     97  C   UNL     1      -0.627  20.141   5.300  1.00  0.00     0.060 A 
BRANCH  97  98
ATOM     98  S   UNL     1      -0.898  21.922   5.348  1.00  0.00     0.124 S 
ATOM     99  O   UNL     1      -0.979  22.165   6.785  1.00  0.00    -0.237 OA
ATOM    100  O   UNL     1       0.290  22.453   4.686  1.00  0.00    -0.237 OA
ATOM    101  O   UNL     1      -2.144  22.087   4.606  1.00  0.00    -0.744 OA
ENDBRANCH  97  98
ENDBRANCH  65  90
ENDBRANCH  39  40
ENDBRANCH  31  34
ENDBRANCH  29  30
ENDBRANCH   1  29
TORSDOF 17
