REMARK SMILES O=C(NCCCNC(=O)c1c(-c2ccc(Cl)cc2)noc1CO[C@@H]1CCCCO1)c1ccc(-c2c3nc(c(-c4c(F)cc(S(=O)(=O)[O-])cc4F)c4ccc([nH]4)c(-c4c(F)cc(S(=O)(=O)[O-])cc4F)c4nc(c(-c5c(F)cc(S(=O)(=O)[O-])cc5F)c5ccc2[nH]5)C=C4)C=C3)cc1
REMARK SMILES IDX 5 1 4 2 3 3 1 4 2 5 30 7 31 8 95 9 32 10 94 11 33 12 34 13
REMARK SMILES IDX 35 14 88 15 36 16 93 17 87 18 89 19 37 20 92 21 86 22 85 23
REMARK SMILES IDX 38 25 72 26 51 27 71 28 52 29 55 30 70 31 90 32 53 33 54 34
REMARK SMILES IDX 69 36 91 37 56 38 39 39 40 40 49 41 41 42 42 43 48 44 50 45
REMARK SMILES IDX 43 46 44 47 45 48 46 49 47 50 73 51 74 52 83 53 75 54 76 55
REMARK SMILES IDX 82 56 84 57 77 58 78 59 79 60 80 61 81 62 57 63 58 64 67 65
REMARK SMILES IDX 59 66 60 67 66 68 68 69 61 70 62 71 63 72 64 73 65 74 6 75
REMARK SMILES IDX 7 76 8 77 9 79 10 80 11 81 21 82 19 83 20 84 12 85 13 86
REMARK SMILES IDX 18 87 14 88 17 89 15 90 16 91 22 92 23 93 24 94 25 95 29 96
REMARK SMILES IDX 26 97 28 98 27 99
REMARK H PARENT 3 6 89 24 55 35 7 78
REMARK Flexibility Score: inf
ROOT
ATOM      1  C   UNL     1       5.109  -1.066   1.772  1.00  0.00     0.042 C 
ENDROOT
BRANCH   1   2
ATOM      2  C   UNL     1       4.793  -1.425   0.321  1.00  0.00     0.118 C 
BRANCH   2   3
ATOM      3  N   UNL     1       3.370  -1.375   0.025  1.00  0.00    -0.352 N 
ATOM      4  O   UNL     1       1.361  -0.504  -0.417  1.00  0.00    -0.269 OA
ATOM      5  C   UNL     1       2.582  -0.378  -0.493  1.00  0.00     0.251 C 
ATOM      6  H   UNL     1       2.885  -2.206   0.235  1.00  0.00     0.163 HD
BRANCH   5   7
ATOM      7  C   UNL     1       3.155   0.836  -1.120  1.00  0.00     0.039 A 
ATOM      8  C   UNL     1       4.246   0.775  -1.989  1.00  0.00     0.014 A 
ATOM      9  C   UNL     1       2.503   2.060  -0.919  1.00  0.00     0.014 A 
ATOM     10  C   UNL     1       4.746   1.942  -2.570  1.00  0.00     0.010 A 
ATOM     11  C   UNL     1       2.970   3.221  -1.545  1.00  0.00     0.010 A 
ATOM     12  C   UNL     1       4.109   3.175  -2.360  1.00  0.00    -0.014 A 
BRANCH  12  13
ATOM     13  C   UNL     1       4.619   4.396  -3.034  1.00  0.00     0.031 A 
ATOM     14  C   UNL     1       5.274   5.496  -2.249  1.00  0.00     0.074 A 
ATOM     15  C   UNL     1       4.510   4.508  -4.372  1.00  0.00     0.049 A 
ATOM     16  N   UNL     1       5.785   6.622  -2.679  1.00  0.00    -0.248 NA
ATOM     17  C   UNL     1       5.359   5.313  -0.793  1.00  0.00     0.031 C 
ATOM     18  C   UNL     1       3.873   3.526  -5.252  1.00  0.00     0.029 A 
ATOM     19  N   UNL     1       4.950   5.486  -5.226  1.00  0.00    -0.354 N 
ATOM     20  C   UNL     1       6.216   7.300  -1.548  1.00  0.00     0.074 A 
ATOM     21  C   UNL     1       5.917   6.454  -0.410  1.00  0.00     0.031 C 
ATOM     22  C   UNL     1       4.011   3.926  -6.526  1.00  0.00     0.029 A 
ATOM     23  C   UNL     1       4.721   5.202  -6.550  1.00  0.00     0.049 A 
ATOM     24  H   UNL     1       5.389   6.313  -4.920  1.00  0.00     0.167 HD
ATOM     25  C   UNL     1       6.801   8.519  -1.460  1.00  0.00     0.037 A 
ATOM     26  C   UNL     1       5.054   5.883  -7.662  1.00  0.00     0.037 A 
ATOM     27  C   UNL     1       7.138   9.352  -2.582  1.00  0.00     0.049 A 
ATOM     28  C   UNL     1       5.780   7.189  -7.549  1.00  0.00     0.074 A 
ATOM     29  C   UNL     1       7.739  10.600  -2.584  1.00  0.00     0.029 A 
ATOM     30  N   UNL     1       6.916   9.014  -3.908  1.00  0.00    -0.354 N 
ATOM     31  N   UNL     1       6.169   7.819  -6.468  1.00  0.00    -0.248 NA
ATOM     32  C   UNL     1       6.106   7.879  -8.805  1.00  0.00     0.031 C 
ATOM     33  C   UNL     1       7.882  11.015  -3.915  1.00  0.00     0.029 A 
ATOM     34  C   UNL     1       7.374  10.024  -4.739  1.00  0.00     0.049 A 
ATOM     35  H   UNL     1       6.496   8.178  -4.215  1.00  0.00     0.167 HD
ATOM     36  C   UNL     1       6.773   8.989  -6.910  1.00  0.00     0.074 A 
ATOM     37  C   UNL     1       6.717   8.970  -8.358  1.00  0.00     0.031 C 
ATOM     38  C   UNL     1       7.311   9.993  -6.177  1.00  0.00     0.037 A 
BRANCH  25  39
ATOM     39  C   UNL     1       7.093   9.023  -0.080  1.00  0.00     0.058 A 
ATOM     40  C   UNL     1       8.264   8.656   0.599  1.00  0.00     0.135 A 
ATOM     41  C   UNL     1       6.175   9.854   0.582  1.00  0.00     0.135 A 
ATOM     42  F   UNL     1       9.160   7.847   0.012  1.00  0.00    -0.206 F 
ATOM     43  C   UNL     1       8.505   9.073   1.904  1.00  0.00     0.059 A 
ATOM     44  C   UNL     1       6.399  10.288   1.883  1.00  0.00     0.059 A 
ATOM     45  F   UNL     1       5.036  10.221  -0.026  1.00  0.00    -0.206 F 
ATOM     46  C   UNL     1       7.557   9.875   2.543  1.00  0.00     0.060 A 
BRANCH  46  47
ATOM     47  S   UNL     1       7.830  10.381   4.255  1.00  0.00     0.124 S 
ATOM     48  O   UNL     1       7.175   9.296   4.981  1.00  0.00    -0.237 OA
ATOM     49  O   UNL     1       9.285  10.421   4.358  1.00  0.00    -0.237 OA
ATOM     50  O   UNL     1       7.165  11.678   4.324  1.00  0.00    -0.744 OA
ENDBRANCH  46  47
ENDBRANCH  25  39
BRANCH  26  51
ATOM     51  C   UNL     1       4.717   5.303  -8.982  1.00  0.00     0.058 A 
ATOM     52  C   UNL     1       5.655   4.527  -9.677  1.00  0.00     0.135 A 
ATOM     53  C   UNL     1       3.430   5.431  -9.521  1.00  0.00     0.135 A 
ATOM     54  F   UNL     1       6.896   4.379  -9.189  1.00  0.00    -0.206 F 
ATOM     55  C   UNL     1       5.323   3.877 -10.860  1.00  0.00     0.059 A 
ATOM     56  C   UNL     1       3.073   4.785 -10.699  1.00  0.00     0.059 A 
ATOM     57  F   UNL     1       2.501   6.156  -8.879  1.00  0.00    -0.206 F 
ATOM     58  C   UNL     1       4.025   4.006 -11.359  1.00  0.00     0.060 A 
BRANCH  58  59
ATOM     59  S   UNL     1       3.539   3.069 -12.826  1.00  0.00     0.124 S 
ATOM     60  O   UNL     1       3.796   4.034 -13.887  1.00  0.00    -0.237 OA
ATOM     61  O   UNL     1       4.433   1.915 -12.784  1.00  0.00    -0.237 OA
ATOM     62  O   UNL     1       2.135   2.769 -12.562  1.00  0.00    -0.744 OA
ENDBRANCH  58  59
ENDBRANCH  26  51
BRANCH  38  63
ATOM     63  C   UNL     1       7.870  11.160  -6.931  1.00  0.00     0.058 A 
ATOM     64  C   UNL     1       7.044  12.228  -7.315  1.00  0.00     0.135 A 
ATOM     65  C   UNL     1       9.235  11.231  -7.244  1.00  0.00     0.135 A 
ATOM     66  F   UNL     1       5.731  12.199  -7.039  1.00  0.00    -0.206 F 
ATOM     67  C   UNL     1       7.554  13.329  -7.994  1.00  0.00     0.059 A 
ATOM     68  C   UNL     1       9.766  12.325  -7.920  1.00  0.00     0.059 A 
ATOM     69  F   UNL     1      10.060  10.231  -6.897  1.00  0.00    -0.206 F 
ATOM     70  C   UNL     1       8.916  13.366  -8.298  1.00  0.00     0.060 A 
BRANCH  70  71
ATOM     71  S   UNL     1       9.591  14.805  -9.156  1.00  0.00     0.124 S 
ATOM     72  O   UNL     1       9.397  14.430 -10.552  1.00  0.00    -0.237 OA
ATOM     73  O   UNL     1       8.752  15.896  -8.671  1.00  0.00    -0.237 OA
ATOM     74  O   UNL     1      10.977  14.841  -8.698  1.00  0.00    -0.744 OA
ENDBRANCH  70  71
ENDBRANCH  38  63
ENDBRANCH  12  13
ENDBRANCH   5   7
ENDBRANCH   2   3
ENDBRANCH   1   2
BRANCH   1  75
ATOM     75  C   UNL     1       4.434  -1.958   2.812  1.00  0.00     0.118 C 
BRANCH  75  76
ATOM     76  N   UNL     1       4.788  -3.362   2.665  1.00  0.00    -0.352 N 
ATOM     77  C   UNL     1       5.609  -4.163   3.417  1.00  0.00     0.257 C 
ATOM     78  H   UNL     1       4.368  -3.812   1.896  1.00  0.00     0.163 HD
ATOM     79  O   UNL     1       5.923  -5.259   2.961  1.00  0.00    -0.269 OA
BRANCH  77  80
ATOM     80  C   UNL     1       6.073  -3.704   4.701  1.00  0.00     0.113 A 
ATOM     81  C   UNL     1       7.390  -3.766   5.240  1.00  0.00     0.127 A 
ATOM     82  C   UNL     1       5.303  -3.278   5.763  1.00  0.00     0.175 A 
ATOM     83  N   UNL     1       7.417  -3.292   6.496  1.00  0.00    -0.079 NA
ATOM     84  O   UNL     1       6.111  -2.979   6.814  1.00  0.00    -0.357 OA
BRANCH  81  85
ATOM     85  C   UNL     1       8.599  -4.279   4.612  1.00  0.00     0.005 A 
ATOM     86  C   UNL     1       9.089  -3.718   3.426  1.00  0.00     0.012 A 
ATOM     87  C   UNL     1       9.274  -5.363   5.194  1.00  0.00     0.012 A 
ATOM     88  C   UNL     1      10.240  -4.239   2.827  1.00  0.00     0.021 A 
ATOM     89  C   UNL     1      10.419  -5.887   4.591  1.00  0.00     0.021 A 
ATOM     90  C   UNL     1      10.897  -5.323   3.410  1.00  0.00     0.041 A 
ATOM     91  Cl  UNL     1      12.308  -5.971   2.666  1.00  0.00    -0.084 Cl
ENDBRANCH  81  85
BRANCH  82  92
ATOM     92  C   UNL     1       3.847  -3.146   5.997  1.00  0.00     0.242 C 
BRANCH  92  93
ATOM     93  O   UNL     1       3.417  -4.041   7.024  1.00  0.00    -0.345 OA
BRANCH  93  94
ATOM     94  C   UNL     1       3.413  -5.414   6.633  1.00  0.00     0.250 C 
ATOM     95  C   UNL     1       2.366  -6.167   7.457  1.00  0.00     0.062 C 
ATOM     96  O   UNL     1       4.691  -6.028   6.793  1.00  0.00    -0.353 OA
ATOM     97  C   UNL     1       2.775  -6.262   8.924  1.00  0.00     0.008 C 
ATOM     98  C   UNL     1       5.146  -6.022   8.147  1.00  0.00     0.163 C 
ATOM     99  C   UNL     1       4.195  -6.801   9.045  1.00  0.00     0.029 C 
ENDBRANCH  93  94
ENDBRANCH  92  93
ENDBRANCH  82  92
ENDBRANCH  77  80
ENDBRANCH  75  76
ENDBRANCH   1  75
TORSDOF 17
