REMARK SMILES Cc1nc(NC(=O)[C@H]2[C@@H]3CC[C@@H](C3)[C@@H]2C(=O)NCCCNC(=O)c2ccc(-c3c4nc(c(-c5c(F)cc(S(=O)(=O)[O-])cc5F)c5ccc([nH]5)c(-c5c(F)cc(S(=O)(=O)[O-])cc5F)c5nc(c(-c6c(F)cc(S(=O)(=O)[O-])cc6F)c6ccc3[nH]6)C=C5)C=C4)cc2)sc1-c1ccccc1
REMARK SMILES IDX 19 1 18 2 17 3 15 4 16 5 14 7 8 8 9 9 10 10 13 11 12 12
REMARK SMILES IDX 11 13 6 14 5 15 7 17 4 18 1 19 2 20 3 21 91 22 90 23 92 24
REMARK SMILES IDX 93 25 97 26 94 27 96 28 95 29 20 30 21 31 22 32 23 34 24 35
REMARK SMILES IDX 25 36 89 37 26 38 88 39 27 40 28 41 29 42 82 43 30 44 87 45
REMARK SMILES IDX 81 46 83 47 31 48 86 49 80 50 79 51 32 53 66 54 45 55 65 56
REMARK SMILES IDX 46 57 49 58 64 59 84 60 47 61 48 62 63 64 85 65 50 66 33 67
REMARK SMILES IDX 34 68 43 69 35 70 36 71 42 72 44 73 37 74 38 75 39 76 40 77
REMARK SMILES IDX 41 78 67 79 68 80 77 81 69 82 70 83 76 84 78 85 71 86 72 87
REMARK SMILES IDX 73 88 74 89 75 90 51 91 52 92 61 93 53 94 54 95 60 96 62 97
REMARK SMILES IDX 55 98 56 99 57 100 58 101 59 102
REMARK H PARENT 17 6 5 16 21 33 83 52 49 63
REMARK Flexibility Score: inf
ROOT
ATOM      1  C   UNL     1      -4.608  -0.493  -0.935  1.00  0.00     0.042 C 
ENDROOT
BRANCH   1   2
ATOM      2  C   UNL     1      -4.713   0.995  -0.631  1.00  0.00     0.117 C 
BRANCH   2   3
ATOM      3  N   UNL     1      -3.892   1.429   0.485  1.00  0.00    -0.356 N 
ATOM      4  C   UNL     1      -2.765   2.182   0.588  1.00  0.00     0.224 C 
ATOM      5  O   UNL     1      -2.484   2.533   1.739  1.00  0.00    -0.275 OA
ATOM      6  H   UNL     1      -4.223   1.108   1.355  1.00  0.00     0.163 HD
BRANCH   4   7
ATOM      7  C   UNL     1      -1.880   2.560  -0.619  1.00  0.00     0.094 C 
ATOM      8  C   UNL     1      -0.781   3.603  -0.191  1.00  0.00     0.094 C 
ATOM      9  C   UNL     1      -1.186   4.832  -1.075  1.00  0.00     0.002 C 
ATOM     10  C   UNL     1      -2.558   5.391  -0.654  1.00  0.00     0.005 C 
ATOM     11  C   UNL     1      -1.509   4.139  -2.396  1.00  0.00     0.009 C 
ATOM     12  C   UNL     1      -2.614   3.287  -1.776  1.00  0.00     0.002 C 
ATOM     13  C   UNL     1      -3.546   4.376  -1.233  1.00  0.00     0.005 C 
BRANCH   8  14
ATOM     14  C   UNL     1       0.722   3.331  -0.455  1.00  0.00     0.230 C 
ATOM     15  N   UNL     1       1.361   2.146  -0.346  1.00  0.00    -0.302 N 
ATOM     16  H   UNL     1       2.295   2.138  -0.656  1.00  0.00     0.172 HD
ATOM     17  O   UNL     1       1.461   4.273  -0.790  1.00  0.00    -0.274 OA
BRANCH  15  18
ATOM     18  C   UNL     1       0.895   0.968   0.130  1.00  0.00     0.190 A 
ATOM     19  C   UNL     1      -1.629  -1.103   1.544  1.00  0.00     0.068 C 
ATOM     20  C   UNL     1      -0.378  -0.618   0.922  1.00  0.00     0.058 A 
ATOM     21  N   UNL     1      -0.182   0.744   0.823  1.00  0.00    -0.225 NA
ATOM     22  C   UNL     1       0.572  -1.395   0.281  1.00  0.00     0.059 A 
ATOM     23  S   UNL     1       1.825  -0.397  -0.312  1.00  0.00    -0.096 S 
BRANCH  22  24
ATOM     24  C   UNL     1       0.511  -2.829   0.043  1.00  0.00    -0.006 A 
ATOM     25  C   UNL     1       0.899  -3.729   1.040  1.00  0.00     0.009 A 
ATOM     26  C   UNL     1      -0.162  -3.302  -1.093  1.00  0.00     0.009 A 
ATOM     27  C   UNL     1       0.577  -5.083   0.921  1.00  0.00     0.001 A 
ATOM     28  C   UNL     1      -0.481  -4.655  -1.209  1.00  0.00     0.001 A 
ATOM     29  C   UNL     1      -0.124  -5.541  -0.195  1.00  0.00     0.000 A 
ENDBRANCH  22  24
ENDBRANCH  15  18
ENDBRANCH   8  14
ENDBRANCH   4   7
ENDBRANCH   2   3
ENDBRANCH   1   2
BRANCH   1  30
ATOM     30  C   UNL     1      -5.003  -1.411   0.221  1.00  0.00     0.118 C 
BRANCH  30  31
ATOM     31  N   UNL     1      -6.421  -1.381   0.524  1.00  0.00    -0.352 N 
ATOM     32  C   UNL     1      -7.347  -2.395   0.513  1.00  0.00     0.251 C 
ATOM     33  H   UNL     1      -6.775  -0.497   0.776  1.00  0.00     0.163 HD
ATOM     34  O   UNL     1      -8.532  -2.125   0.686  1.00  0.00    -0.269 OA
BRANCH  32  35
ATOM     35  C   UNL     1      -6.940  -3.798   0.268  1.00  0.00     0.039 A 
ATOM     36  C   UNL     1      -7.709  -4.566  -0.611  1.00  0.00     0.014 A 
ATOM     37  C   UNL     1      -5.853  -4.380   0.930  1.00  0.00     0.014 A 
ATOM     38  C   UNL     1      -7.367  -5.897  -0.860  1.00  0.00     0.010 A 
ATOM     39  C   UNL     1      -5.477  -5.692   0.636  1.00  0.00     0.010 A 
ATOM     40  C   UNL     1      -6.237  -6.468  -0.253  1.00  0.00    -0.014 A 
BRANCH  40  41
ATOM     41  C   UNL     1      -5.863  -7.882  -0.522  1.00  0.00     0.031 A 
ATOM     42  C   UNL     1      -5.960  -8.913   0.571  1.00  0.00     0.074 A 
ATOM     43  C   UNL     1      -5.412  -8.235  -1.742  1.00  0.00     0.049 A 
ATOM     44  N   UNL     1      -5.651 -10.184   0.537  1.00  0.00    -0.248 NA
ATOM     45  C   UNL     1      -6.449  -8.450   1.879  1.00  0.00     0.031 C 
ATOM     46  C   UNL     1      -5.242  -7.325  -2.876  1.00  0.00     0.029 A 
ATOM     47  N   UNL     1      -5.011  -9.454  -2.231  1.00  0.00    -0.354 N 
ATOM     48  C   UNL     1      -5.898 -10.670   1.815  1.00  0.00     0.074 A 
ATOM     49  C   UNL     1      -6.338  -9.547   2.615  1.00  0.00     0.031 C 
ATOM     50  C   UNL     1      -4.790  -8.021  -3.933  1.00  0.00     0.029 A 
ATOM     51  C   UNL     1      -4.611  -9.417  -3.545  1.00  0.00     0.049 A 
ATOM     52  H   UNL     1      -5.009 -10.276  -1.690  1.00  0.00     0.167 HD
ATOM     53  C   UNL     1      -5.789 -11.940   2.277  1.00  0.00     0.037 A 
ATOM     54  C   UNL     1      -4.149 -10.396  -4.348  1.00  0.00     0.037 A 
ATOM     55  C   UNL     1      -5.378 -13.062   1.474  1.00  0.00     0.049 A 
ATOM     56  C   UNL     1      -4.041 -11.799  -3.814  1.00  0.00     0.074 A 
ATOM     57  C   UNL     1      -5.282 -14.393   1.840  1.00  0.00     0.029 A 
ATOM     58  N   UNL     1      -4.996 -12.986   0.143  1.00  0.00    -0.354 N 
ATOM     59  N   UNL     1      -4.325 -12.248  -2.615  1.00  0.00    -0.248 NA
ATOM     60  C   UNL     1      -3.556 -12.829  -4.744  1.00  0.00     0.031 C 
ATOM     61  C   UNL     1      -4.810 -15.117   0.739  1.00  0.00     0.029 A 
ATOM     62  C   UNL     1      -4.650 -14.243  -0.324  1.00  0.00     0.049 A 
ATOM     63  H   UNL     1      -4.974 -12.159  -0.392  1.00  0.00     0.167 HD
ATOM     64  C   UNL     1      -4.079 -13.616  -2.654  1.00  0.00     0.074 A 
ATOM     65  C   UNL     1      -3.631 -13.922  -3.997  1.00  0.00     0.031 C 
ATOM     66  C   UNL     1      -4.213 -14.535  -1.666  1.00  0.00     0.037 A 
BRANCH  53  67
ATOM     67  C   UNL     1      -6.126 -12.184   3.723  1.00  0.00     0.058 A 
ATOM     68  C   UNL     1      -7.450 -12.138   4.187  1.00  0.00     0.135 A 
ATOM     69  C   UNL     1      -5.118 -12.498   4.649  1.00  0.00     0.135 A 
ATOM     70  F   UNL     1      -8.450 -11.828   3.346  1.00  0.00    -0.206 F 
ATOM     71  C   UNL     1      -7.760 -12.363   5.524  1.00  0.00     0.059 A 
ATOM     72  C   UNL     1      -5.408 -12.752   5.986  1.00  0.00     0.059 A 
ATOM     73  F   UNL     1      -3.835 -12.556   4.258  1.00  0.00    -0.206 F 
ATOM     74  C   UNL     1      -6.731 -12.666   6.417  1.00  0.00     0.060 A 
BRANCH  74  75
ATOM     75  S   UNL     1      -7.149 -12.951   8.150  1.00  0.00     0.124 S 
ATOM     76  O   UNL     1      -7.401 -11.591   8.615  1.00  0.00    -0.237 OA
ATOM     77  O   UNL     1      -8.320 -13.816   8.053  1.00  0.00    -0.237 OA
ATOM     78  O   UNL     1      -5.948 -13.586   8.688  1.00  0.00    -0.744 OA
ENDBRANCH  74  75
ENDBRANCH  53  67
BRANCH  54  79
ATOM     79  C   UNL     1      -3.776 -10.087  -5.753  1.00  0.00     0.058 A 
ATOM     80  C   UNL     1      -4.570 -10.524  -6.824  1.00  0.00     0.135 A 
ATOM     81  C   UNL     1      -2.628  -9.337  -6.053  1.00  0.00     0.135 A 
ATOM     82  F   UNL     1      -5.674 -11.249  -6.587  1.00  0.00    -0.206 F 
ATOM     83  C   UNL     1      -4.234 -10.241  -8.143  1.00  0.00     0.059 A 
ATOM     84  C   UNL     1      -2.283  -9.023  -7.363  1.00  0.00     0.059 A 
ATOM     85  F   UNL     1      -1.845  -8.881  -5.062  1.00  0.00    -0.206 F 
ATOM     86  C   UNL     1      -3.088  -9.487  -8.402  1.00  0.00     0.060 A 
BRANCH  86  87
ATOM     87  S   UNL     1      -2.688  -9.076 -10.115  1.00  0.00     0.124 S 
ATOM     88  O   UNL     1      -2.161 -10.343 -10.605  1.00  0.00    -0.237 OA
ATOM     89  O   UNL     1      -3.987  -8.674 -10.646  1.00  0.00    -0.237 OA
ATOM     90  O   UNL     1      -1.715  -7.995  -9.979  1.00  0.00    -0.744 OA
ENDBRANCH  86  87
ENDBRANCH  54  79
BRANCH  66  91
ATOM     91  C   UNL     1      -3.901 -15.965  -2.004  1.00  0.00     0.058 A 
ATOM     92  C   UNL     1      -2.580 -16.413  -2.162  1.00  0.00     0.135 A 
ATOM     93  C   UNL     1      -4.933 -16.910  -2.122  1.00  0.00     0.135 A 
ATOM     94  F   UNL     1      -1.558 -15.548  -2.067  1.00  0.00    -0.206 F 
ATOM     95  C   UNL     1      -2.295 -17.745  -2.445  1.00  0.00     0.059 A 
ATOM     96  C   UNL     1      -4.670 -18.251  -2.380  1.00  0.00     0.059 A 
ATOM     97  F   UNL     1      -6.213 -16.534  -1.970  1.00  0.00    -0.206 F 
ATOM     98  C   UNL     1      -3.346 -18.657  -2.552  1.00  0.00     0.060 A 
BRANCH  98  99
ATOM     99  S   UNL     1      -2.962 -20.390  -2.884  1.00  0.00     0.124 S 
ATOM    100  O   UNL     1      -2.645 -20.352  -4.307  1.00  0.00    -0.237 OA
ATOM    101  O   UNL     1      -1.836 -20.639  -1.990  1.00  0.00    -0.237 OA
ATOM    102  O   UNL     1      -4.198 -21.084  -2.532  1.00  0.00    -0.744 OA
ENDBRANCH  98  99
ENDBRANCH  66  91
ENDBRANCH  40  41
ENDBRANCH  32  35
ENDBRANCH  30  31
ENDBRANCH   1  30
TORSDOF 16
