REMARK SMILES C[C@H]1[C@H](C(=O)NCCCNC(=O)c2ccc(-c3c4nc(c(-c5c(F)cc(S(=O)(=O)[O-])cc5F)c5ccc([nH]5)c(-c5c(F)cc(S(=O)(=O)[O-])cc5F)c5nc(c(-c6c(F)cc(S(=O)(=O)[O-])cc6F)c6ccc3[nH]6)C=C5)C=C4)cc2)CC[N@@H+]1[C@@H](c1ccccc1)c1ccco1
REMARK SMILES IDX 8 1 7 2 6 3 4 4 5 5 3 7 1 8 2 9 81 10 79 11 80 12 82 14
REMARK SMILES IDX 83 15 84 16 88 17 85 18 87 19 86 20 89 21 90 22 93 23 91 24
REMARK SMILES IDX 92 25 9 26 10 27 11 28 12 30 13 31 14 32 78 33 15 34 77 35
REMARK SMILES IDX 16 36 17 37 18 38 71 39 19 40 76 41 70 42 72 43 20 44 75 45
REMARK SMILES IDX 69 46 68 47 21 49 55 50 34 51 54 52 35 53 38 54 53 55 73 56
REMARK SMILES IDX 36 57 37 58 52 60 74 61 39 62 22 63 23 64 32 65 24 66 25 67
REMARK SMILES IDX 31 68 33 69 26 70 27 71 28 72 29 73 30 74 56 75 57 76 66 77
REMARK SMILES IDX 58 78 59 79 65 80 67 81 60 82 61 83 62 84 63 85 64 86 40 87
REMARK SMILES IDX 41 88 50 89 42 90 43 91 49 92 51 93 44 94 45 95 46 96 47 97
REMARK SMILES IDX 48 98
REMARK H PARENT 6 6 81 13 10 29 72 48 38 59
REMARK Flexibility Score: inf
ROOT
ATOM      1  C   UNL     1       0.485   1.098   4.129  1.00  0.00     0.042 C 
ENDROOT
BRANCH   1   2
ATOM      2  C   UNL     1      -0.483   1.603   3.066  1.00  0.00     0.117 C 
BRANCH   2   3
ATOM      3  N   UNL     1       0.108   2.579   2.181  1.00  0.00    -0.356 N 
ATOM      4  C   UNL     1       0.355   2.505   0.847  1.00  0.00     0.229 C 
ATOM      5  O   UNL     1       0.765   3.540   0.307  1.00  0.00    -0.275 OA
ATOM      6  H   UNL     1       0.372   3.425   2.609  1.00  0.00     0.163 HD
BRANCH   4   7
ATOM      7  C   UNL     1       0.099   1.263  -0.009  1.00  0.00     0.142 C 
ATOM      8  C   UNL     1       1.912  -0.443  -0.296  1.00  0.00     0.076 C 
ATOM      9  C   UNL     1       0.633  -0.098   0.482  1.00  0.00     0.194 C 
ATOM     10  N   UNL     1      -0.407  -1.102   0.157  1.00  0.00    -0.319 N 
ATOM     11  C   UNL     1      -1.362   1.009  -0.345  1.00  0.00     0.081 C 
ATOM     12  C   UNL     1      -1.374  -0.468  -0.726  1.00  0.00     0.264 C 
ATOM     13  H   UNL     1       0.021  -1.873  -0.356  1.00  0.00     0.349 HD
BRANCH  10  14
ATOM     14  C   UNL     1      -0.904  -1.966   1.262  1.00  0.00     0.283 C 
BRANCH  14  15
ATOM     15  C   UNL     1      -1.850  -1.396   2.333  1.00  0.00     0.017 A 
ATOM     16  C   UNL     1      -1.602  -1.706   3.685  1.00  0.00     0.010 A 
ATOM     17  C   UNL     1      -3.033  -0.691   2.049  1.00  0.00     0.010 A 
ATOM     18  C   UNL     1      -2.439  -1.240   4.701  1.00  0.00     0.001 A 
ATOM     19  C   UNL     1      -3.850  -0.190   3.066  1.00  0.00     0.001 A 
ATOM     20  C   UNL     1      -3.545  -0.454   4.394  1.00  0.00     0.000 A 
ENDBRANCH  14  15
BRANCH  14  21
ATOM     21  C   UNL     1      -1.405  -3.311   0.779  1.00  0.00     0.165 A 
ATOM     22  C   UNL     1      -0.784  -4.396   0.189  1.00  0.00     0.052 A 
ATOM     23  O   UNL     1      -2.696  -3.651   1.093  1.00  0.00    -0.463 OA
ATOM     24  C   UNL     1      -1.721  -5.460   0.208  1.00  0.00     0.042 A 
ATOM     25  C   UNL     1      -2.864  -4.956   0.780  1.00  0.00     0.195 A 
ENDBRANCH  14  21
ENDBRANCH  10  14
ENDBRANCH   4   7
ENDBRANCH   2   3
ENDBRANCH   1   2
BRANCH   1  26
ATOM     26  C   UNL     1       0.350   1.810   5.470  1.00  0.00     0.118 C 
BRANCH  26  27
ATOM     27  N   UNL     1      -0.968   1.664   6.083  1.00  0.00    -0.352 N 
ATOM     28  C   UNL     1      -1.416   0.992   7.194  1.00  0.00     0.251 C 
ATOM     29  H   UNL     1      -1.680   2.145   5.602  1.00  0.00     0.163 HD
ATOM     30  O   UNL     1      -2.628   0.948   7.407  1.00  0.00    -0.269 OA
BRANCH  28  31
ATOM     31  C   UNL     1      -0.495   0.296   8.120  1.00  0.00     0.039 A 
ATOM     32  C   UNL     1      -0.926  -0.880   8.751  1.00  0.00     0.014 A 
ATOM     33  C   UNL     1       0.761   0.811   8.425  1.00  0.00     0.014 A 
ATOM     34  C   UNL     1      -0.079  -1.554   9.637  1.00  0.00     0.010 A 
ATOM     35  C   UNL     1       1.645   0.079   9.209  1.00  0.00     0.010 A 
ATOM     36  C   UNL     1       1.228  -1.096   9.851  1.00  0.00    -0.014 A 
BRANCH  36  37
ATOM     37  C   UNL     1       2.168  -1.770  10.785  1.00  0.00     0.031 A 
ATOM     38  C   UNL     1       2.742  -0.994  11.945  1.00  0.00     0.074 A 
ATOM     39  C   UNL     1       2.579  -3.030  10.544  1.00  0.00     0.049 A 
ATOM     40  N   UNL     1       3.706  -1.319  12.767  1.00  0.00    -0.248 NA
ATOM     41  C   UNL     1       2.188   0.352  12.179  1.00  0.00     0.031 C 
ATOM     42  C   UNL     1       2.134  -3.870   9.431  1.00  0.00     0.029 A 
ATOM     43  N   UNL     1       3.485  -3.817  11.210  1.00  0.00    -0.354 N 
ATOM     44  C   UNL     1       3.895  -0.211  13.587  1.00  0.00     0.074 A 
ATOM     45  C   UNL     1       2.994   0.818  13.120  1.00  0.00     0.031 C 
ATOM     46  C   UNL     1       2.758  -5.057   9.498  1.00  0.00     0.029 A 
ATOM     47  C   UNL     1       3.681  -5.047  10.628  1.00  0.00     0.049 A 
ATOM     48  H   UNL     1       3.952  -3.528  12.028  1.00  0.00     0.167 HD
ATOM     49  C   UNL     1       4.721  -0.073  14.652  1.00  0.00     0.037 A 
ATOM     50  C   UNL     1       4.522  -6.047  10.957  1.00  0.00     0.037 A 
ATOM     51  C   UNL     1       5.580  -1.121  15.137  1.00  0.00     0.049 A 
ATOM     52  C   UNL     1       5.416  -5.882  12.156  1.00  0.00     0.074 A 
ATOM     53  C   UNL     1       6.413  -1.111  16.242  1.00  0.00     0.029 A 
ATOM     54  N   UNL     1       5.710  -2.372  14.549  1.00  0.00    -0.354 N 
ATOM     55  N   UNL     1       5.552  -4.843  12.948  1.00  0.00    -0.248 NA
ATOM     56  C   UNL     1       6.264  -7.026  12.514  1.00  0.00     0.031 C 
ATOM     57  C   UNL     1       7.077  -2.341  16.299  1.00  0.00     0.029 A 
ATOM     58  C   UNL     1       6.619  -3.137  15.261  1.00  0.00     0.049 A 
ATOM     59  H   UNL     1       5.228  -2.671  13.745  1.00  0.00     0.167 HD
ATOM     60  C   UNL     1       6.483  -5.218  13.911  1.00  0.00     0.074 A 
ATOM     61  C   UNL     1       6.861  -6.584  13.613  1.00  0.00     0.031 C 
ATOM     62  C   UNL     1       6.982  -4.497  14.947  1.00  0.00     0.037 A 
BRANCH  49  63
ATOM     63  C   UNL     1       4.721   1.253  15.368  1.00  0.00     0.058 A 
ATOM     64  C   UNL     1       3.607   1.700  16.098  1.00  0.00     0.135 A 
ATOM     65  C   UNL     1       5.855   2.081  15.341  1.00  0.00     0.135 A 
ATOM     66  F   UNL     1       2.488   0.959  16.146  1.00  0.00    -0.206 F 
ATOM     67  C   UNL     1       3.602   2.934  16.740  1.00  0.00     0.059 A 
ATOM     68  C   UNL     1       5.885   3.305  16.005  1.00  0.00     0.059 A 
ATOM     69  F   UNL     1       6.950   1.708  14.660  1.00  0.00    -0.206 F 
ATOM     70  C   UNL     1       4.746   3.730  16.688  1.00  0.00     0.060 A 
BRANCH  70  71
ATOM     71  S   UNL     1       4.724   5.328  17.527  1.00  0.00     0.124 S 
ATOM     72  O   UNL     1       3.844   6.102  16.655  1.00  0.00    -0.237 OA
ATOM     73  O   UNL     1       4.171   4.983  18.836  1.00  0.00    -0.237 OA
ATOM     74  O   UNL     1       6.122   5.733  17.528  1.00  0.00    -0.744 OA
ENDBRANCH  70  71
ENDBRANCH  49  63
BRANCH  50  75
ATOM     75  C   UNL     1       4.540  -7.297  10.150  1.00  0.00     0.058 A 
ATOM     76  C   UNL     1       4.033  -8.498  10.669  1.00  0.00     0.135 A 
ATOM     77  C   UNL     1       5.036  -7.312   8.837  1.00  0.00     0.135 A 
ATOM     78  F   UNL     1       3.553  -8.538  11.921  1.00  0.00    -0.206 F 
ATOM     79  C   UNL     1       4.030  -9.672   9.922  1.00  0.00     0.059 A 
ATOM     80  C   UNL     1       5.019  -8.466   8.060  1.00  0.00     0.059 A 
ATOM     81  F   UNL     1       5.516  -6.185   8.287  1.00  0.00    -0.206 F 
ATOM     82  C   UNL     1       4.520  -9.644   8.615  1.00  0.00     0.060 A 
BRANCH  82  83
ATOM     83  S   UNL     1       4.454 -11.159   7.634  1.00  0.00     0.124 S 
ATOM     84  O   UNL     1       5.500 -11.961   8.259  1.00  0.00    -0.237 OA
ATOM     85  O   UNL     1       3.083 -11.609   7.859  1.00  0.00    -0.237 OA
ATOM     86  O   UNL     1       4.738 -10.695   6.280  1.00  0.00    -0.744 OA
ENDBRANCH  82  83
ENDBRANCH  50  75
BRANCH  62  87
ATOM     87  C   UNL     1       7.966  -5.186  15.852  1.00  0.00     0.058 A 
ATOM     88  C   UNL     1       9.271  -5.487  15.433  1.00  0.00     0.135 A 
ATOM     89  C   UNL     1       7.607  -5.518  17.169  1.00  0.00     0.135 A 
ATOM     90  F   UNL     1       9.664  -5.194  14.183  1.00  0.00    -0.206 F 
ATOM     91  C   UNL     1      10.175  -6.127  16.275  1.00  0.00     0.059 A 
ATOM     92  C   UNL     1       8.504  -6.129  18.038  1.00  0.00     0.059 A 
ATOM     93  F   UNL     1       6.375  -5.240  17.626  1.00  0.00    -0.206 F 
ATOM     94  C   UNL     1       9.781  -6.445  17.576  1.00  0.00     0.060 A 
BRANCH  94  95
ATOM     95  S   UNL     1      10.966  -7.265  18.662  1.00  0.00     0.124 S 
ATOM     96  O   UNL     1      10.988  -8.614  18.107  1.00  0.00    -0.237 OA
ATOM     97  O   UNL     1      12.177  -6.475  18.457  1.00  0.00    -0.237 OA
ATOM     98  O   UNL     1      10.360  -7.140  19.984  1.00  0.00    -0.744 OA
ENDBRANCH  94  95
ENDBRANCH  62  87
ENDBRANCH  36  37
ENDBRANCH  28  31
ENDBRANCH  26  27
ENDBRANCH   1  26
TORSDOF 16
