REMARK SMILES Cc1ccc(NC(=O)Cn2c(CCC(=O)NCCCNC(=O)c3ccc(-c4c5nc(c(-c6c(F)cc(S(=O)(=O)[O-])cc6F)c6ccc([nH]6)c(-c6c(F)cc(S(=O)(=O)[O-])cc6F)c6nc(c(-c7c(F)cc(S(=O)(=O)[O-])cc7F)c7ccc4[nH]7)C=C6)C=C5)cc3)ccc2-c2ccccc2)cc1
REMARK SMILES IDX 17 1 16 2 14 3 15 4 13 6 12 7 11 8 10 9 91 10 89 11 90 12
REMARK SMILES IDX 9 13 7 14 6 15 8 17 5 18 1 19 2 20 3 21 99 22 4 23 98 24
REMARK SMILES IDX 92 25 93 26 97 27 94 28 96 29 95 30 18 31 19 32 20 33 21 34
REMARK SMILES IDX 22 36 23 37 24 38 88 39 25 40 87 41 26 42 27 43 28 44 81 45
REMARK SMILES IDX 29 46 86 47 80 48 82 49 30 50 85 51 79 52 78 53 31 55 65 56
REMARK SMILES IDX 44 57 64 58 45 59 48 60 63 61 83 62 46 63 47 64 62 66 84 67
REMARK SMILES IDX 49 68 32 69 33 70 42 71 34 72 35 73 41 74 43 75 36 76 37 77
REMARK SMILES IDX 38 78 39 79 40 80 66 81 67 82 76 83 68 84 69 85 75 86 77 87
REMARK SMILES IDX 70 88 71 89 72 90 73 91 74 92 50 93 51 94 60 95 52 96 53 97
REMARK SMILES IDX 59 98 61 99 54 100 55 101 56 102 57 103 58 104
REMARK H PARENT 16 5 6 16 20 35 82 54 48 65
REMARK Flexibility Score: inf
ROOT
ATOM      1  C   UNL     1      -5.724  -3.478  -1.636  1.00  0.00     0.117 C 
ENDROOT
BRANCH   1   2
ATOM      2  N   UNL     1      -5.498  -2.301  -0.812  1.00  0.00    -0.356 N 
ATOM      3  C   UNL     1      -5.083  -1.047  -1.165  1.00  0.00     0.220 C 
ATOM      4  O   UNL     1      -5.360  -0.088  -0.435  1.00  0.00    -0.275 OA
ATOM      5  H   UNL     1      -5.671  -2.427   0.149  1.00  0.00     0.163 HD
BRANCH   3   6
ATOM      6  C   UNL     1      -4.212  -0.805  -2.377  1.00  0.00     0.106 C 
BRANCH   6   7
ATOM      7  C   UNL     1      -2.792  -0.450  -1.921  1.00  0.00     0.064 C 
BRANCH   7   8
ATOM      8  C   UNL     1      -1.855  -1.619  -1.986  1.00  0.00     0.019 A 
ATOM      9  N   UNL     1      -1.726  -2.670  -1.088  1.00  0.00    -0.335 N 
ATOM     10  C   UNL     1      -1.036  -3.697  -1.753  1.00  0.00     0.049 A 
ATOM     11  C   UNL     1      -0.961  -1.850  -3.021  1.00  0.00     0.024 A 
ATOM     12  C   UNL     1      -0.458  -3.151  -2.880  1.00  0.00     0.029 A 
BRANCH   9  13
ATOM     13  C   UNL     1      -2.198  -2.843   0.301  1.00  0.00     0.222 C 
BRANCH  13  14
ATOM     14  C   UNL     1      -2.793  -1.700   1.095  1.00  0.00     0.244 C 
ATOM     15  N   UNL     1      -2.128  -0.531   1.337  1.00  0.00    -0.325 N 
ATOM     16  H   UNL     1      -2.669   0.190   1.732  1.00  0.00     0.169 HD
ATOM     17  O   UNL     1      -3.926  -1.815   1.580  1.00  0.00    -0.273 OA
BRANCH  15  18
ATOM     18  C   UNL     1      -0.788  -0.216   1.101  1.00  0.00     0.041 A 
ATOM     19  C   UNL     1       3.203   0.663  -0.195  1.00  0.00     0.044 C 
ATOM     20  C   UNL     1       1.833   0.408   0.352  1.00  0.00    -0.051 A 
ATOM     21  C   UNL     1       1.530  -0.847   0.884  1.00  0.00     0.005 A 
ATOM     22  C   UNL     1       0.826   1.378   0.273  1.00  0.00     0.005 A 
ATOM     23  C   UNL     1       0.230  -1.149   1.271  1.00  0.00     0.026 A 
ATOM     24  C   UNL     1      -0.477   1.075   0.674  1.00  0.00     0.026 A 
ENDBRANCH  15  18
ENDBRANCH  13  14
ENDBRANCH   9  13
BRANCH  10  25
ATOM     25  C   UNL     1      -1.041  -5.115  -1.395  1.00  0.00    -0.002 A 
ATOM     26  C   UNL     1      -0.061  -5.676  -0.576  1.00  0.00     0.010 A 
ATOM     27  C   UNL     1      -2.005  -5.952  -1.976  1.00  0.00     0.010 A 
ATOM     28  C   UNL     1      -0.077  -7.050  -0.311  1.00  0.00     0.001 A 
ATOM     29  C   UNL     1      -2.044  -7.315  -1.683  1.00  0.00     0.001 A 
ATOM     30  C   UNL     1      -1.075  -7.864  -0.851  1.00  0.00     0.000 A 
ENDBRANCH  10  25
ENDBRANCH   7   8
ENDBRANCH   6   7
ENDBRANCH   3   6
ENDBRANCH   1   2
BRANCH   1  31
ATOM     31  C   UNL     1      -5.127  -4.811  -1.148  1.00  0.00     0.042 C 
BRANCH  31  32
ATOM     32  C   UNL     1      -5.747  -5.626   0.035  1.00  0.00     0.118 C 
BRANCH  32  33
ATOM     33  N   UNL     1      -5.794  -7.056  -0.365  1.00  0.00    -0.352 N 
ATOM     34  C   UNL     1      -5.647  -8.330   0.127  1.00  0.00     0.251 C 
ATOM     35  H   UNL     1      -6.006  -7.110  -1.325  1.00  0.00     0.163 HD
ATOM     36  O   UNL     1      -5.495  -9.186  -0.758  1.00  0.00    -0.269 OA
BRANCH  34  37
ATOM     37  C   UNL     1      -5.680  -8.830   1.543  1.00  0.00     0.039 A 
ATOM     38  C   UNL     1      -5.381 -10.205   1.773  1.00  0.00     0.014 A 
ATOM     39  C   UNL     1      -6.073  -8.100   2.645  1.00  0.00     0.014 A 
ATOM     40  C   UNL     1      -5.407 -10.823   3.060  1.00  0.00     0.010 A 
ATOM     41  C   UNL     1      -6.137  -8.735   3.916  1.00  0.00     0.010 A 
ATOM     42  C   UNL     1      -5.768 -10.088   4.181  1.00  0.00    -0.014 A 
BRANCH  42  43
ATOM     43  C   UNL     1      -5.458 -10.503   5.619  1.00  0.00     0.031 A 
ATOM     44  C   UNL     1      -4.429  -9.666   6.249  1.00  0.00     0.074 A 
ATOM     45  C   UNL     1      -6.265 -11.023   6.595  1.00  0.00     0.049 A 
ATOM     46  N   UNL     1      -4.670  -8.406   6.334  1.00  0.00    -0.248 NA
ATOM     47  C   UNL     1      -3.226 -10.103   6.939  1.00  0.00     0.031 C 
ATOM     48  C   UNL     1      -7.492 -11.772   6.387  1.00  0.00     0.029 A 
ATOM     49  N   UNL     1      -6.234 -10.805   8.014  1.00  0.00    -0.354 N 
ATOM     50  C   UNL     1      -3.864  -7.913   7.300  1.00  0.00     0.074 A 
ATOM     51  C   UNL     1      -2.891  -8.961   7.566  1.00  0.00     0.031 C 
ATOM     52  C   UNL     1      -8.163 -11.854   7.555  1.00  0.00     0.029 A 
ATOM     53  C   UNL     1      -7.476 -11.080   8.623  1.00  0.00     0.049 A 
ATOM     54  H   UNL     1      -5.438 -10.500   8.506  1.00  0.00     0.167 HD
ATOM     55  C   UNL     1      -4.201  -6.737   7.885  1.00  0.00     0.037 A 
ATOM     56  C   UNL     1      -8.206 -10.289   9.490  1.00  0.00     0.037 A 
ATOM     57  C   UNL     1      -5.458  -6.129   7.419  1.00  0.00     0.049 A 
ATOM     58  C   UNL     1      -8.970  -9.458   8.524  1.00  0.00     0.074 A 
ATOM     59  C   UNL     1      -5.909  -4.866   7.094  1.00  0.00     0.029 A 
ATOM     60  N   UNL     1      -6.558  -6.946   7.175  1.00  0.00    -0.354 N 
ATOM     61  N   UNL     1      -8.334  -8.577   7.823  1.00  0.00    -0.248 NA
ATOM     62  C   UNL     1     -10.402  -9.524   8.304  1.00  0.00     0.031 C 
ATOM     63  C   UNL     1      -7.221  -4.988   6.511  1.00  0.00     0.029 A 
ATOM     64  C   UNL     1      -7.595  -6.324   6.490  1.00  0.00     0.049 A 
ATOM     65  H   UNL     1      -6.599  -7.886   7.465  1.00  0.00     0.167 HD
ATOM     66  C   UNL     1      -9.243  -7.979   7.008  1.00  0.00     0.074 A 
ATOM     67  C   UNL     1     -10.518  -8.599   7.340  1.00  0.00     0.031 C 
ATOM     68  C   UNL     1      -8.799  -7.100   6.072  1.00  0.00     0.037 A 
BRANCH  55  69
ATOM     69  C   UNL     1      -3.357  -6.278   9.018  1.00  0.00     0.058 A 
ATOM     70  C   UNL     1      -3.907  -6.061  10.288  1.00  0.00     0.135 A 
ATOM     71  C   UNL     1      -1.959  -6.181   8.893  1.00  0.00     0.135 A 
ATOM     72  F   UNL     1      -5.231  -6.169  10.477  1.00  0.00    -0.206 F 
ATOM     73  C   UNL     1      -3.102  -5.798  11.398  1.00  0.00     0.059 A 
ATOM     74  C   UNL     1      -1.136  -5.945   9.988  1.00  0.00     0.059 A 
ATOM     75  F   UNL     1      -1.365  -6.391   7.706  1.00  0.00    -0.206 F 
ATOM     76  C   UNL     1      -1.715  -5.754  11.239  1.00  0.00     0.060 A 
BRANCH  76  77
ATOM     77  S   UNL     1      -0.648  -5.527  12.679  1.00  0.00     0.124 S 
ATOM     78  O   UNL     1      -0.715  -4.083  12.874  1.00  0.00    -0.237 OA
ATOM     79  O   UNL     1      -1.294  -6.349  13.695  1.00  0.00    -0.237 OA
ATOM     80  O   UNL     1       0.644  -6.033  12.217  1.00  0.00    -0.744 OA
ENDBRANCH  76  77
ENDBRANCH  55  69
BRANCH  56  81
ATOM     81  C   UNL     1      -7.923  -9.497  10.768  1.00  0.00     0.058 A 
ATOM     82  C   UNL     1      -7.667 -10.153  11.983  1.00  0.00     0.135 A 
ATOM     83  C   UNL     1      -8.214  -8.105  10.906  1.00  0.00     0.135 A 
ATOM     84  F   UNL     1      -7.444 -11.477  11.991  1.00  0.00    -0.206 F 
ATOM     85  C   UNL     1      -7.746  -9.495  13.231  1.00  0.00     0.059 A 
ATOM     86  C   UNL     1      -8.287  -7.434  12.124  1.00  0.00     0.059 A 
ATOM     87  F   UNL     1      -8.552  -7.335   9.867  1.00  0.00    -0.206 F 
ATOM     88  C   UNL     1      -8.089  -8.141  13.291  1.00  0.00     0.060 A 
BRANCH  88  89
ATOM     89  S   UNL     1      -8.408  -7.334  14.881  1.00  0.00     0.124 S 
ATOM     90  O   UNL     1      -9.576  -8.073  15.356  1.00  0.00    -0.237 OA
ATOM     91  O   UNL     1      -7.170  -7.575  15.610  1.00  0.00    -0.237 OA
ATOM     92  O   UNL     1      -8.671  -5.943  14.522  1.00  0.00    -0.744 OA
ENDBRANCH  88  89
ENDBRANCH  56  81
BRANCH  68  93
ATOM     93  C   UNL     1      -9.499  -7.015   4.723  1.00  0.00     0.058 A 
ATOM     94  C   UNL     1     -10.456  -7.960   4.260  1.00  0.00     0.135 A 
ATOM     95  C   UNL     1      -9.107  -6.082   3.746  1.00  0.00     0.135 A 
ATOM     96  F   UNL     1     -10.752  -9.075   4.941  1.00  0.00    -0.206 F 
ATOM     97  C   UNL     1     -11.102  -7.869   3.027  1.00  0.00     0.059 A 
ATOM     98  C   UNL     1      -9.702  -6.003   2.480  1.00  0.00     0.059 A 
ATOM     99  F   UNL     1      -8.076  -5.251   3.947  1.00  0.00    -0.206 F 
ATOM    100  C   UNL     1     -10.735  -6.870   2.147  1.00  0.00     0.060 A 
BRANCH 100 101
ATOM    101  S   UNL     1     -11.546  -6.771   0.543  1.00  0.00     0.124 S 
ATOM    102  O   UNL     1     -11.664  -8.181   0.158  1.00  0.00    -0.237 OA
ATOM    103  O   UNL     1     -12.808  -6.117   0.898  1.00  0.00    -0.237 OA
ATOM    104  O   UNL     1     -10.629  -5.985  -0.255  1.00  0.00    -0.744 OA
ENDBRANCH 100 101
ENDBRANCH  68  93
ENDBRANCH  42  43
ENDBRANCH  34  37
ENDBRANCH  32  33
ENDBRANCH  31  32
ENDBRANCH   1  31
TORSDOF 19
