REMARK SMILES Cc1c(Cl)cccc1S(=O)(=O)N[C@H]1C=C[C@@H](C(=O)NCCCNC(=O)c2ccc(-c3c4nc(c(-c5c(F)cc(S(=O)(=O)[O-])cc5F)c5ccc([nH]5)c(-c5c(F)cc(S(=O)(=O)[O-])cc5F)c5nc(c(-c6c(F)cc(S(=O)(=O)[O-])cc6F)c6ccc3[nH]6)C=C5)C=C4)cc2)C1
REMARK SMILES IDX 21 1 20 2 19 3 17 4 18 5 16 7 13 8 14 9 92 10 15 11 12 12
REMARK SMILES IDX 9 14 10 15 11 16 8 17 1 18 2 19 3 20 4 21 5 22 7 23 6 24
REMARK SMILES IDX 22 25 23 26 24 27 25 29 26 30 27 31 91 32 28 33 90 34 29 35
REMARK SMILES IDX 30 36 31 37 84 38 32 39 89 40 83 41 85 42 33 43 88 44 82 45
REMARK SMILES IDX 81 46 34 48 68 49 47 50 67 51 48 52 51 53 66 54 86 55 49 56
REMARK SMILES IDX 50 57 65 59 87 60 52 61 35 62 36 63 45 64 37 65 38 66 44 67
REMARK SMILES IDX 46 68 39 69 40 70 41 71 42 72 43 73 69 74 70 75 79 76 71 77
REMARK SMILES IDX 72 78 78 79 80 80 73 81 74 82 75 83 76 84 77 85 53 86 54 87
REMARK SMILES IDX 63 88 55 89 56 90 62 91 64 92 57 93 58 94 59 95 60 96 61 97
REMARK H PARENT 19 6 12 13 23 28 85 47 51 58
REMARK Flexibility Score: inf
ROOT
ATOM      1  C   UNL     1       1.469   3.459   2.630  1.00  0.00     0.042 C 
ENDROOT
BRANCH   1   2
ATOM      2  C   UNL     1       2.284   4.066   1.479  1.00  0.00     0.117 C 
BRANCH   2   3
ATOM      3  N   UNL     1       2.860   3.093   0.558  1.00  0.00    -0.356 N 
ATOM      4  C   UNL     1       2.840   2.922  -0.788  1.00  0.00     0.226 C 
ATOM      5  O   UNL     1       3.552   2.002  -1.216  1.00  0.00    -0.274 OA
ATOM      6  H   UNL     1       3.384   2.399   1.020  1.00  0.00     0.163 HD
BRANCH   4   7
ATOM      7  C   UNL     1       1.987   3.706  -1.798  1.00  0.00     0.103 C 
ATOM      8  C   UNL     1      -0.472   3.802  -1.643  1.00  0.00     0.093 C 
ATOM      9  C   UNL     1       0.179   5.128  -1.376  1.00  0.00    -0.011 C 
ATOM     10  C   UNL     1       0.689   2.977  -2.200  1.00  0.00     0.042 C 
ATOM     11  C   UNL     1       1.514   5.075  -1.458  1.00  0.00    -0.016 C 
BRANCH   8  12
ATOM     12  N   UNL     1      -0.941   3.275  -0.361  1.00  0.00    -0.204 NA
ATOM     13  H   UNL     1      -0.169   2.744   0.041  1.00  0.00     0.142 HD
BRANCH  12  14
ATOM     14  S   UNL     1      -2.293   2.278  -0.318  1.00  0.00     0.241 S 
ATOM     15  O   UNL     1      -2.972   2.419  -1.588  1.00  0.00    -0.207 OA
ATOM     16  O   UNL     1      -2.944   2.630   0.926  1.00  0.00    -0.207 OA
BRANCH  14  17
ATOM     17  C   UNL     1      -1.840   0.552  -0.158  1.00  0.00     0.086 A 
ATOM     18  C   UNL     1       0.633   0.782   0.536  1.00  0.00     0.047 C 
ATOM     19  C   UNL     1      -0.582   0.005   0.161  1.00  0.00    -0.012 A 
ATOM     20  C   UNL     1      -0.456  -1.407   0.180  1.00  0.00     0.045 A 
ATOM     21  Cl  UNL     1       1.065  -2.185   0.495  1.00  0.00    -0.084 Cl
ATOM     22  C   UNL     1      -1.546  -2.246  -0.047  1.00  0.00     0.021 A 
ATOM     23  C   UNL     1      -2.934  -0.316  -0.371  1.00  0.00     0.022 A 
ATOM     24  C   UNL     1      -2.793  -1.700  -0.305  1.00  0.00     0.003 A 
ENDBRANCH  14  17
ENDBRANCH  12  14
ENDBRANCH   8  12
ENDBRANCH   4   7
ENDBRANCH   2   3
ENDBRANCH   1   2
BRANCH   1  25
ATOM     25  C   UNL     1       2.179   2.396   3.469  1.00  0.00     0.118 C 
BRANCH  25  26
ATOM     26  N   UNL     1       2.962   2.994   4.534  1.00  0.00    -0.352 N 
ATOM     27  C   UNL     1       2.736   2.990   5.890  1.00  0.00     0.251 C 
ATOM     28  H   UNL     1       3.772   3.472   4.243  1.00  0.00     0.163 HD
ATOM     29  O   UNL     1       3.325   3.816   6.585  1.00  0.00    -0.269 OA
BRANCH  27  30
ATOM     30  C   UNL     1       1.816   2.013   6.530  1.00  0.00     0.039 A 
ATOM     31  C   UNL     1       1.052   2.434   7.625  1.00  0.00     0.014 A 
ATOM     32  C   UNL     1       1.787   0.666   6.153  1.00  0.00     0.014 A 
ATOM     33  C   UNL     1       0.270   1.516   8.337  1.00  0.00     0.010 A 
ATOM     34  C   UNL     1       0.961  -0.239   6.831  1.00  0.00     0.010 A 
ATOM     35  C   UNL     1       0.219   0.167   7.951  1.00  0.00    -0.014 A 
BRANCH  35  36
ATOM     36  C   UNL     1      -0.542  -0.830   8.758  1.00  0.00     0.031 A 
ATOM     37  C   UNL     1       0.190  -1.921   9.502  1.00  0.00     0.074 A 
ATOM     38  C   UNL     1      -1.887  -0.770   8.824  1.00  0.00     0.049 A 
ATOM     39  N   UNL     1      -0.292  -2.892  10.238  1.00  0.00    -0.248 NA
ATOM     40  C   UNL     1       1.657  -1.933   9.386  1.00  0.00     0.031 C 
ATOM     41  C   UNL     1      -2.725   0.213   8.136  1.00  0.00     0.029 A 
ATOM     42  N   UNL     1      -2.788  -1.556   9.502  1.00  0.00    -0.354 N 
ATOM     43  C   UNL     1       0.807  -3.635  10.659  1.00  0.00     0.074 A 
ATOM     44  C   UNL     1       1.975  -3.033  10.054  1.00  0.00     0.031 C 
ATOM     45  C   UNL     1      -4.013  -0.016   8.442  1.00  0.00     0.029 A 
ATOM     46  C   UNL     1      -4.098  -1.177   9.325  1.00  0.00     0.049 A 
ATOM     47  H   UNL     1      -2.520  -2.320  10.063  1.00  0.00     0.167 HD
ATOM     48  C   UNL     1       0.847  -4.707  11.489  1.00  0.00     0.037 A 
ATOM     49  C   UNL     1      -5.239  -1.701   9.817  1.00  0.00     0.037 A 
ATOM     50  C   UNL     1      -0.312  -5.292  12.114  1.00  0.00     0.049 A 
ATOM     51  C   UNL     1      -5.170  -2.882  10.749  1.00  0.00     0.074 A 
ATOM     52  C   UNL     1      -0.369  -6.358  12.997  1.00  0.00     0.029 A 
ATOM     53  N   UNL     1      -1.616  -4.859  11.930  1.00  0.00    -0.354 N 
ATOM     54  N   UNL     1      -4.118  -3.547  11.164  1.00  0.00    -0.248 NA
ATOM     55  C   UNL     1      -6.444  -3.374  11.293  1.00  0.00     0.031 C 
ATOM     56  C   UNL     1      -1.711  -6.589  13.321  1.00  0.00     0.029 A 
ATOM     57  C   UNL     1      -2.485  -5.637  12.678  1.00  0.00     0.049 A 
ATOM     58  H   UNL     1      -1.885  -4.108  11.352  1.00  0.00     0.167 HD
ATOM     59  C   UNL     1      -4.600  -4.509  12.047  1.00  0.00     0.074 A 
ATOM     60  C   UNL     1      -6.036  -4.336  12.110  1.00  0.00     0.031 C 
ATOM     61  C   UNL     1      -3.913  -5.446  12.747  1.00  0.00     0.037 A 
BRANCH  48  62
ATOM     62  C   UNL     1       2.194  -5.318  11.772  1.00  0.00     0.058 A 
ATOM     63  C   UNL     1       3.155  -4.655  12.553  1.00  0.00     0.135 A 
ATOM     64  C   UNL     1       2.521  -6.592  11.279  1.00  0.00     0.135 A 
ATOM     65  F   UNL     1       2.902  -3.430  13.040  1.00  0.00    -0.206 F 
ATOM     66  C   UNL     1       4.404  -5.216  12.804  1.00  0.00     0.059 A 
ATOM     67  C   UNL     1       3.753  -7.185  11.542  1.00  0.00     0.059 A 
ATOM     68  F   UNL     1       1.640  -7.274  10.531  1.00  0.00    -0.206 F 
ATOM     69  C   UNL     1       4.695  -6.481  12.291  1.00  0.00     0.060 A 
BRANCH  69  70
ATOM     70  S   UNL     1       6.322  -7.192  12.618  1.00  0.00     0.124 S 
ATOM     71  O   UNL     1       7.167  -6.409  11.721  1.00  0.00    -0.237 OA
ATOM     72  O   UNL     1       6.498  -6.930  14.043  1.00  0.00    -0.237 OA
ATOM     73  O   UNL     1       6.158  -8.597  12.257  1.00  0.00    -0.744 OA
ENDBRANCH  69  70
ENDBRANCH  48  62
BRANCH  49  74
ATOM     74  C   UNL     1      -6.549  -1.087   9.469  1.00  0.00     0.058 A 
ATOM     75  C   UNL     1      -7.288  -0.373  10.424  1.00  0.00     0.135 A 
ATOM     76  C   UNL     1      -7.086  -1.200   8.178  1.00  0.00     0.135 A 
ATOM     77  F   UNL     1      -6.821  -0.245  11.675  1.00  0.00    -0.206 F 
ATOM     78  C   UNL     1      -8.522   0.192  10.118  1.00  0.00     0.059 A 
ATOM     79  C   UNL     1      -8.306  -0.621   7.840  1.00  0.00     0.059 A 
ATOM     80  F   UNL     1      -6.411  -1.861   7.224  1.00  0.00    -0.206 F 
ATOM     81  C   UNL     1      -9.022   0.064   8.821  1.00  0.00     0.060 A 
BRANCH  81  82
ATOM     82  S   UNL     1     -10.603   0.840   8.422  1.00  0.00     0.124 S 
ATOM     83  O   UNL     1     -11.545  -0.053   9.088  1.00  0.00    -0.237 OA
ATOM     84  O   UNL     1     -10.453   2.166   9.014  1.00  0.00    -0.237 OA
ATOM     85  O   UNL     1     -10.631   0.813   6.963  1.00  0.00    -0.744 OA
ENDBRANCH  81  82
ENDBRANCH  49  74
BRANCH  61  86
ATOM     86  C   UNL     1      -4.696  -6.318  13.691  1.00  0.00     0.058 A 
ATOM     87  C   UNL     1      -5.558  -7.327  13.232  1.00  0.00     0.135 A 
ATOM     88  C   UNL     1      -4.559  -6.157  15.079  1.00  0.00     0.135 A 
ATOM     89  F   UNL     1      -5.727  -7.523  11.915  1.00  0.00    -0.206 F 
ATOM     90  C   UNL     1      -6.285  -8.119  14.116  1.00  0.00     0.059 A 
ATOM     91  C   UNL     1      -5.255  -6.956  15.981  1.00  0.00     0.059 A 
ATOM     92  F   UNL     1      -3.737  -5.216  15.573  1.00  0.00    -0.206 F 
ATOM     93  C   UNL     1      -6.130  -7.923  15.489  1.00  0.00     0.060 A 
BRANCH  93  94
ATOM     94  S   UNL     1      -7.072  -8.960  16.628  1.00  0.00     0.124 S 
ATOM     95  O   UNL     1      -8.403  -8.369  16.530  1.00  0.00    -0.237 OA
ATOM     96  O   UNL     1      -6.924 -10.288  16.040  1.00  0.00    -0.237 OA
ATOM     97  O   UNL     1      -6.391  -8.768  17.905  1.00  0.00    -0.744 OA
ENDBRANCH  93  94
ENDBRANCH  61  86
ENDBRANCH  35  36
ENDBRANCH  27  30
ENDBRANCH  25  26
ENDBRANCH   1  25
TORSDOF 16
