REMARK SMILES Cc1cscc1-c1nc(C)c(C(=O)NCCCNC(=O)c2ccc(-c3c4nc(c(-c5c(F)cc(S(=O)(=O)[O-])cc5F)c5ccc([nH]5)c(-c5c(F)cc(S(=O)(=O)[O-])cc5F)c5nc(c(-c6c(F)cc(S(=O)(=O)[O-])cc6F)c6ccc3[nH]6)C=C5)C=C4)cc2)c(C)n1
REMARK SMILES IDX 17 1 16 2 15 3 14 4 12 5 13 6 11 8 7 9 8 10 89 11 9 12 87 13
REMARK SMILES IDX 10 14 88 15 6 16 1 17 2 18 3 19 4 20 5 21 18 22 19 23 20 25
REMARK SMILES IDX 21 26 22 27 86 28 23 29 85 30 24 31 25 32 26 33 79 34 27 35
REMARK SMILES IDX 84 36 78 37 80 38 28 39 83 40 77 41 76 42 29 44 63 45 42 46
REMARK SMILES IDX 62 47 43 48 46 49 61 50 81 51 44 52 45 53 60 55 82 56 47 57
REMARK SMILES IDX 30 58 31 59 40 60 32 61 33 62 39 63 41 64 34 65 35 66 36 67
REMARK SMILES IDX 37 68 38 69 64 70 65 71 74 72 66 73 67 74 73 75 75 76 68 77
REMARK SMILES IDX 69 78 70 79 71 80 72 81 48 82 49 83 58 84 50 85 51 86 57 87
REMARK SMILES IDX 59 88 52 89 53 90 54 91 55 92 56 93
REMARK H PARENT 14 7 18 24 80 43 46 54
REMARK Flexibility Score: inf
ROOT
ATOM      1  C   UNL     1       5.615   7.383  -3.668  1.00  0.00     0.118 C 
ENDROOT
BRANCH   1   2
ATOM      2  C   UNL     1       4.946   6.101  -3.192  1.00  0.00     0.042 C 
BRANCH   2   3
ATOM      3  C   UNL     1       5.384   5.676  -1.790  1.00  0.00     0.118 C 
BRANCH   3   4
ATOM      4  N   UNL     1       4.510   6.245  -0.791  1.00  0.00    -0.352 N 
ATOM      5  C   UNL     1       3.396   5.881  -0.092  1.00  0.00     0.254 C 
ATOM      6  O   UNL     1       2.997   6.807   0.623  1.00  0.00    -0.269 OA
ATOM      7  H   UNL     1       4.800   7.153  -0.545  1.00  0.00     0.163 HD
BRANCH   5   8
ATOM      8  C   UNL     1       2.665   4.565  -0.062  1.00  0.00     0.082 A 
ATOM      9  C   UNL     1       1.147   2.281   0.233  1.00  0.00     0.160 A 
ATOM     10  N   UNL     1       1.946   2.389  -0.822  1.00  0.00    -0.232 NA
ATOM     11  N   UNL     1       1.023   3.205   1.177  1.00  0.00    -0.232 NA
ATOM     12  C   UNL     1       2.656   3.530  -0.999  1.00  0.00     0.054 A 
ATOM     13  C   UNL     1       1.790   4.326   1.033  1.00  0.00     0.054 A 
ATOM     14  C   UNL     1       3.329   3.447  -2.322  1.00  0.00     0.068 C 
ATOM     15  C   UNL     1       1.592   5.278   2.186  1.00  0.00     0.068 C 
BRANCH   9  16
ATOM     16  C   UNL     1       0.416   1.034   0.323  1.00  0.00     0.033 A 
ATOM     17  C   UNL     1       2.441  -0.574   0.083  1.00  0.00     0.046 C 
ATOM     18  C   UNL     1       0.978  -0.291   0.200  1.00  0.00    -0.029 A 
ATOM     19  C   UNL     1      -0.017  -1.249   0.185  1.00  0.00     0.069 A 
ATOM     20  S   UNL     1      -1.584  -0.580   0.330  1.00  0.00    -0.151 S 
ATOM     21  C   UNL     1      -0.962   1.011   0.398  1.00  0.00     0.077 A 
ENDBRANCH   9  16
ENDBRANCH   5   8
ENDBRANCH   3   4
ENDBRANCH   2   3
ENDBRANCH   1   2
BRANCH   1  22
ATOM     22  N   UNL     1       7.038   7.180  -3.904  1.00  0.00    -0.352 N 
ATOM     23  C   UNL     1       7.743   7.215  -5.079  1.00  0.00     0.251 C 
ATOM     24  H   UNL     1       7.573   6.989  -3.100  1.00  0.00     0.163 HD
ATOM     25  O   UNL     1       8.876   6.733  -5.118  1.00  0.00    -0.269 OA
BRANCH  23  26
ATOM     26  C   UNL     1       7.145   7.815  -6.289  1.00  0.00     0.039 A 
ATOM     27  C   UNL     1       7.350   7.202  -7.528  1.00  0.00     0.014 A 
ATOM     28  C   UNL     1       6.392   8.988  -6.201  1.00  0.00     0.014 A 
ATOM     29  C   UNL     1       6.737   7.727  -8.666  1.00  0.00     0.010 A 
ATOM     30  C   UNL     1       5.711   9.458  -7.318  1.00  0.00     0.010 A 
ATOM     31  C   UNL     1       5.876   8.832  -8.562  1.00  0.00    -0.014 A 
BRANCH  31  32
ATOM     32  C   UNL     1       5.120   9.342  -9.732  1.00  0.00     0.031 A 
ATOM     33  C   UNL     1       5.345  10.746 -10.220  1.00  0.00     0.074 A 
ATOM     34  C   UNL     1       4.171   8.566 -10.292  1.00  0.00     0.049 A 
ATOM     35  N   UNL     1       4.710  11.407 -11.152  1.00  0.00    -0.248 NA
ATOM     36  C   UNL     1       6.405  11.520  -9.552  1.00  0.00     0.031 C 
ATOM     37  C   UNL     1       3.834   7.204  -9.869  1.00  0.00     0.029 A 
ATOM     38  N   UNL     1       3.304   8.814 -11.325  1.00  0.00    -0.354 N 
ATOM     39  C   UNL     1       5.281  12.674 -11.174  1.00  0.00     0.074 A 
ATOM     40  C   UNL     1       6.275  12.708 -10.125  1.00  0.00     0.031 C 
ATOM     41  C   UNL     1       2.849   6.731 -10.649  1.00  0.00     0.029 A 
ATOM     42  C   UNL     1       2.450   7.770 -11.592  1.00  0.00     0.049 A 
ATOM     43  H   UNL     1       3.294   9.660 -11.829  1.00  0.00     0.167 HD
ATOM     44  C   UNL     1       5.014  13.705 -12.010  1.00  0.00     0.037 A 
ATOM     45  C   UNL     1       1.445   7.668 -12.483  1.00  0.00     0.037 A 
ATOM     46  C   UNL     1       4.033  13.649 -13.062  1.00  0.00     0.049 A 
ATOM     47  C   UNL     1       1.151   8.836 -13.384  1.00  0.00     0.074 A 
ATOM     48  C   UNL     1       3.726  14.616 -14.003  1.00  0.00     0.029 A 
ATOM     49  N   UNL     1       3.195  12.570 -13.309  1.00  0.00    -0.354 N 
ATOM     50  N   UNL     1       1.748  10.003 -13.439  1.00  0.00    -0.248 NA
ATOM     51  C   UNL     1       0.049   8.678 -14.341  1.00  0.00     0.031 C 
ATOM     52  C   UNL     1       2.666  14.144 -14.782  1.00  0.00     0.029 A 
ATOM     53  C   UNL     1       2.350  12.860 -14.366  1.00  0.00     0.049 A 
ATOM     54  H   UNL     1       3.201  11.724 -12.805  1.00  0.00     0.167 HD
ATOM     55  C   UNL     1       1.110  10.710 -14.452  1.00  0.00     0.074 A 
ATOM     56  C   UNL     1       0.091   9.833 -14.993  1.00  0.00     0.031 C 
ATOM     57  C   UNL     1       1.344  11.970 -14.893  1.00  0.00     0.037 A 
BRANCH  44  58
ATOM     58  C   UNL     1       5.794  14.979 -11.823  1.00  0.00     0.058 A 
ATOM     59  C   UNL     1       7.166  15.053 -12.114  1.00  0.00     0.135 A 
ATOM     60  C   UNL     1       5.156  16.150 -11.385  1.00  0.00     0.135 A 
ATOM     61  F   UNL     1       7.832  13.961 -12.521  1.00  0.00    -0.206 F 
ATOM     62  C   UNL     1       7.883  16.234 -11.950  1.00  0.00     0.059 A 
ATOM     63  C   UNL     1       5.846  17.351 -11.243  1.00  0.00     0.059 A 
ATOM     64  F   UNL     1       3.846  16.137 -11.091  1.00  0.00    -0.206 F 
ATOM     65  C   UNL     1       7.213  17.379 -11.515  1.00  0.00     0.060 A 
BRANCH  65  66
ATOM     66  S   UNL     1       8.158  18.904 -11.316  1.00  0.00     0.124 S 
ATOM     67  O   UNL     1       8.959  18.597 -10.135  1.00  0.00    -0.237 OA
ATOM     68  O   UNL     1       8.891  18.982 -12.575  1.00  0.00    -0.237 OA
ATOM     69  O   UNL     1       7.128  19.921 -11.128  1.00  0.00    -0.744 OA
ENDBRANCH  65  66
ENDBRANCH  44  58
BRANCH  45  70
ATOM     70  C   UNL     1       0.654   6.411 -12.572  1.00  0.00     0.058 A 
ATOM     71  C   UNL     1       0.754   5.574 -13.694  1.00  0.00     0.135 A 
ATOM     72  C   UNL     1      -0.203   6.011 -11.534  1.00  0.00     0.135 A 
ATOM     73  F   UNL     1       1.555   5.915 -14.715  1.00  0.00    -0.206 F 
ATOM     74  C   UNL     1       0.022   4.395 -13.792  1.00  0.00     0.059 A 
ATOM     75  C   UNL     1      -0.923   4.822 -11.596  1.00  0.00     0.059 A 
ATOM     76  F   UNL     1      -0.321   6.766 -10.431  1.00  0.00    -0.206 F 
ATOM     77  C   UNL     1      -0.812   4.026 -12.735  1.00  0.00     0.060 A 
BRANCH  77  78
ATOM     78  S   UNL     1      -1.721   2.470 -12.855  1.00  0.00     0.124 S 
ATOM     79  O   UNL     1      -2.721   2.792 -13.866  1.00  0.00    -0.237 OA
ATOM     80  O   UNL     1      -0.676   1.537 -13.263  1.00  0.00    -0.237 OA
ATOM     81  O   UNL     1      -2.231   2.275 -11.501  1.00  0.00    -0.744 OA
ENDBRANCH  77  78
ENDBRANCH  45  70
BRANCH  57  82
ATOM     82  C   UNL     1       0.502  12.474 -16.033  1.00  0.00     0.058 A 
ATOM     83  C   UNL     1      -0.848  12.816 -15.855  1.00  0.00     0.135 A 
ATOM     84  C   UNL     1       1.072  12.687 -17.298  1.00  0.00     0.135 A 
ATOM     85  F   UNL     1      -1.444  12.623 -14.668  1.00  0.00    -0.206 F 
ATOM     86  C   UNL     1      -1.606  13.341 -16.896  1.00  0.00     0.059 A 
ATOM     87  C   UNL     1       0.341  13.239 -18.345  1.00  0.00     0.059 A 
ATOM     88  F   UNL     1       2.362  12.384 -17.519  1.00  0.00    -0.206 F 
ATOM     89  C   UNL     1      -1.000  13.556 -18.136  1.00  0.00     0.060 A 
BRANCH  89  90
ATOM     90  S   UNL     1      -1.981  14.292 -19.459  1.00  0.00     0.124 S 
ATOM     91  O   UNL     1      -2.877  13.194 -19.808  1.00  0.00    -0.237 OA
ATOM     92  O   UNL     1      -2.603  15.430 -18.789  1.00  0.00    -0.237 OA
ATOM     93  O   UNL     1      -0.987  14.636 -20.471  1.00  0.00    -0.744 OA
ENDBRANCH  89  90
ENDBRANCH  57  82
ENDBRANCH  31  32
ENDBRANCH  23  26
ENDBRANCH   1  22
TORSDOF 14
