REMARK SMILES COC1CCN(c2nc(C(C)C)c(C(=O)NCCCNC(=O)c3ccc(-c4c5nc(c(-c6c(F)cc(S(=O)(=O)[O-])cc6F)c6ccc([nH]6)c(-c6c(F)cc(S(=O)(=O)[O-])cc6F)c6nc(c(-c7c(F)cc(S(=O)(=O)[O-])cc7F)c7ccc4[nH]7)C=C6)C=C5)cc3)s2)CC1
REMARK SMILES IDX 18 1 17 2 16 3 14 4 15 5 13 7 7 8 8 9 89 10 9 11 6 12 3 13
REMARK SMILES IDX 4 14 91 15 5 16 90 17 2 18 1 19 10 20 11 21 12 22 19 23
REMARK SMILES IDX 20 24 21 25 22 27 23 28 24 29 88 30 25 31 87 32 26 33 27 34
REMARK SMILES IDX 28 35 81 36 29 37 86 38 80 39 82 40 30 41 85 42 79 43 78 44
REMARK SMILES IDX 31 46 65 47 44 48 64 49 45 50 48 51 63 52 83 53 46 54 47 55
REMARK SMILES IDX 62 57 84 58 49 59 32 60 33 61 42 62 34 63 35 64 41 65 43 66
REMARK SMILES IDX 36 67 37 68 38 69 39 70 40 71 66 72 67 73 76 74 68 75 69 76
REMARK SMILES IDX 75 77 77 78 70 79 71 80 72 81 73 82 74 83 50 84 51 85 60 86
REMARK SMILES IDX 52 87 53 88 59 89 61 90 54 91 55 92 56 93 57 94 58 95
REMARK H PARENT 16 6 20 26 82 45 48 56
REMARK Flexibility Score: inf
ROOT
ATOM      1  C   UNL     1      10.910   4.498   3.103  1.00  0.00     0.042 C 
ENDROOT
BRANCH   1   2
ATOM      2  C   UNL     1      10.114   3.499   3.923  1.00  0.00     0.118 C 
BRANCH   2   3
ATOM      3  N   UNL     1       9.027   4.118   4.619  1.00  0.00    -0.351 N 
ATOM      4  C   UNL     1       7.667   4.089   4.482  1.00  0.00     0.263 C 
ATOM      5  O   UNL     1       7.127   4.768   5.370  1.00  0.00    -0.268 OA
ATOM      6  H   UNL     1       9.324   4.691   5.362  1.00  0.00     0.163 HD
BRANCH   4   7
ATOM      7  C   UNL     1       6.887   3.347   3.484  1.00  0.00     0.117 A 
ATOM      8  C   UNL     1       4.788   2.485   2.478  1.00  0.00     0.186 A 
ATOM      9  N   UNL     1       5.834   1.984   1.889  1.00  0.00    -0.224 NA
ATOM     10  S   UNL     1       5.154   3.572   3.726  1.00  0.00    -0.091 S 
ATOM     11  C   UNL     1       7.026   2.537   2.347  1.00  0.00     0.069 A 
BRANCH   8  12
ATOM     12  N   UNL     1       3.527   2.097   2.187  1.00  0.00    -0.348 N 
ATOM     13  C   UNL     1       0.869   1.162   1.799  1.00  0.00     0.121 C 
ATOM     14  C   UNL     1       1.154   2.610   2.227  1.00  0.00     0.053 C 
ATOM     15  C   UNL     1       2.015   0.238   2.228  1.00  0.00     0.053 C 
ATOM     16  C   UNL     1       2.533   3.074   1.758  1.00  0.00     0.121 C 
ATOM     17  C   UNL     1       3.341   0.748   1.679  1.00  0.00     0.121 C 
BRANCH  13  18
ATOM     18  O   UNL     1       0.649   1.168   0.382  1.00  0.00    -0.381 OA
ATOM     19  C   UNL     1       0.418  -0.115  -0.182  1.00  0.00     0.195 C 
ENDBRANCH  13  18
ENDBRANCH   8  12
BRANCH  11  20
ATOM     20  C   UNL     1       8.157   2.122   1.437  1.00  0.00     0.034 C 
ATOM     21  C   UNL     1       8.844   3.312   0.774  1.00  0.00     0.014 C 
ATOM     22  C   UNL     1       9.042   0.996   1.982  1.00  0.00     0.014 C 
ENDBRANCH  11  20
ENDBRANCH   4   7
ENDBRANCH   2   3
ENDBRANCH   1   2
BRANCH   1  23
ATOM     23  C   UNL     1      12.146   4.976   3.834  1.00  0.00     0.118 C 
BRANCH  23  24
ATOM     24  N   UNL     1      13.177   3.941   3.880  1.00  0.00    -0.352 N 
ATOM     25  C   UNL     1      14.361   3.836   3.186  1.00  0.00     0.251 C 
ATOM     26  H   UNL     1      12.996   3.202   4.505  1.00  0.00     0.163 HD
ATOM     27  O   UNL     1      14.973   2.770   3.186  1.00  0.00    -0.269 OA
BRANCH  25  28
ATOM     28  C   UNL     1      14.879   4.995   2.427  1.00  0.00     0.039 A 
ATOM     29  C   UNL     1      15.493   4.802   1.186  1.00  0.00     0.014 A 
ATOM     30  C   UNL     1      14.741   6.282   2.941  1.00  0.00     0.014 A 
ATOM     31  C   UNL     1      15.884   5.911   0.428  1.00  0.00     0.010 A 
ATOM     32  C   UNL     1      14.994   7.376   2.131  1.00  0.00     0.010 A 
ATOM     33  C   UNL     1      15.592   7.209   0.874  1.00  0.00    -0.014 A 
BRANCH  33  34
ATOM     34  C   UNL     1      15.934   8.433   0.104  1.00  0.00     0.031 A 
ATOM     35  C   UNL     1      16.779   9.493   0.764  1.00  0.00     0.074 A 
ATOM     36  C   UNL     1      15.385   8.658  -1.106  1.00  0.00     0.049 A 
ATOM     37  N   UNL     1      16.988  10.732   0.405  1.00  0.00    -0.248 NA
ATOM     38  C   UNL     1      17.423   9.123   2.037  1.00  0.00     0.031 C 
ATOM     39  C   UNL     1      14.516   7.730  -1.833  1.00  0.00     0.029 A 
ATOM     40  N   UNL     1      15.452   9.758  -1.925  1.00  0.00    -0.354 N 
ATOM     41  C   UNL     1      17.735  11.299   1.432  1.00  0.00     0.074 A 
ATOM     42  C   UNL     1      17.890  10.289   2.453  1.00  0.00     0.031 C 
ATOM     43  C   UNL     1      14.145   8.293  -2.994  1.00  0.00     0.029 A 
ATOM     44  C   UNL     1      14.699   9.641  -3.070  1.00  0.00     0.049 A 
ATOM     45  H   UNL     1      15.989  10.555  -1.712  1.00  0.00     0.167 HD
ATOM     46  C   UNL     1      18.266  12.542   1.506  1.00  0.00     0.037 A 
ATOM     47  C   UNL     1      14.464  10.528  -4.057  1.00  0.00     0.037 A 
ATOM     48  C   UNL     1      18.158  13.515   0.452  1.00  0.00     0.049 A 
ATOM     49  C   UNL     1      15.093  11.893  -3.976  1.00  0.00     0.074 A 
ATOM     50  C   UNL     1      18.722  14.775   0.384  1.00  0.00     0.029 A 
ATOM     51  N   UNL     1      17.446  13.328  -0.724  1.00  0.00    -0.354 N 
ATOM     52  N   UNL     1      15.833  12.403  -3.020  1.00  0.00    -0.248 NA
ATOM     53  C   UNL     1      14.861  12.804  -5.106  1.00  0.00     0.031 C 
ATOM     54  C   UNL     1      18.317  15.367  -0.816  1.00  0.00     0.029 A 
ATOM     55  C   UNL     1      17.548  14.454  -1.521  1.00  0.00     0.049 A 
ATOM     56  H   UNL     1      16.943  12.514  -0.957  1.00  0.00     0.167 HD
ATOM     57  C   UNL     1      16.188  13.677  -3.450  1.00  0.00     0.074 A 
ATOM     58  C   UNL     1      15.578  13.862  -4.750  1.00  0.00     0.031 C 
ATOM     59  C   UNL     1      16.956  14.605  -2.828  1.00  0.00     0.037 A 
BRANCH  46  60
ATOM     60  C   UNL     1      19.011  12.911   2.761  1.00  0.00     0.058 A 
ATOM     61  C   UNL     1      20.228  12.302   3.109  1.00  0.00     0.135 A 
ATOM     62  C   UNL     1      18.503  13.894   3.627  1.00  0.00     0.135 A 
ATOM     63  F   UNL     1      20.754  11.345   2.327  1.00  0.00    -0.206 F 
ATOM     64  C   UNL     1      20.888  12.616   4.292  1.00  0.00     0.059 A 
ATOM     65  C   UNL     1      19.166  14.251   4.798  1.00  0.00     0.059 A 
ATOM     66  F   UNL     1      17.346  14.512   3.345  1.00  0.00    -0.206 F 
ATOM     67  C   UNL     1      20.347  13.590   5.132  1.00  0.00     0.060 A 
BRANCH  67  68
ATOM     68  S   UNL     1      21.209  13.976   6.670  1.00  0.00     0.124 S 
ATOM     69  O   UNL     1      20.908  12.796   7.475  1.00  0.00    -0.237 OA
ATOM     70  O   UNL     1      22.594  14.104   6.228  1.00  0.00    -0.237 OA
ATOM     71  O   UNL     1      20.578  15.215   7.112  1.00  0.00    -0.744 OA
ENDBRANCH  67  68
ENDBRANCH  46  60
BRANCH  47  72
ATOM     72  C   UNL     1      13.618  10.137  -5.216  1.00  0.00     0.058 A 
ATOM     73  C   UNL     1      14.190   9.910  -6.477  1.00  0.00     0.135 A 
ATOM     74  C   UNL     1      12.234   9.940  -5.083  1.00  0.00     0.135 A 
ATOM     75  F   UNL     1      15.507  10.090  -6.657  1.00  0.00    -0.206 F 
ATOM     76  C   UNL     1      13.422   9.511  -7.567  1.00  0.00     0.059 A 
ATOM     77  C   UNL     1      11.449   9.517  -6.152  1.00  0.00     0.059 A 
ATOM     78  F   UNL     1      11.640  10.125  -3.894  1.00  0.00    -0.206 F 
ATOM     79  C   UNL     1      12.052   9.311  -7.392  1.00  0.00     0.060 A 
BRANCH  79  80
ATOM     80  S   UNL     1      11.079   8.727  -8.798  1.00  0.00     0.124 S 
ATOM     81  O   UNL     1      11.048   9.912  -9.647  1.00  0.00    -0.237 OA
ATOM     82  O   UNL     1      11.886   7.613  -9.285  1.00  0.00    -0.237 OA
ATOM     83  O   UNL     1       9.806   8.350  -8.191  1.00  0.00    -0.744 OA
ENDBRANCH  79  80
ENDBRANCH  47  72
BRANCH  59  84
ATOM     84  C   UNL     1      17.245  15.884  -3.561  1.00  0.00     0.058 A 
ATOM     85  C   UNL     1      16.282  16.894  -3.701  1.00  0.00     0.135 A 
ATOM     86  C   UNL     1      18.542  16.140  -4.037  1.00  0.00     0.135 A 
ATOM     87  F   UNL     1      15.026  16.696  -3.270  1.00  0.00    -0.206 F 
ATOM     88  C   UNL     1      16.595  18.115  -4.291  1.00  0.00     0.059 A 
ATOM     89  C   UNL     1      18.883  17.362  -4.605  1.00  0.00     0.059 A 
ATOM     90  F   UNL     1      19.501  15.208  -3.918  1.00  0.00    -0.206 F 
ATOM     91  C   UNL     1      17.901  18.343  -4.730  1.00  0.00     0.060 A 
BRANCH  91  92
ATOM     92  S   UNL     1      18.311  19.958  -5.424  1.00  0.00     0.124 S 
ATOM     93  O   UNL     1      17.649  19.897  -6.723  1.00  0.00    -0.237 OA
ATOM     94  O   UNL     1      17.720  20.873  -4.453  1.00  0.00    -0.237 OA
ATOM     95  O   UNL     1      19.770  19.951  -5.463  1.00  0.00    -0.744 OA
ENDBRANCH  91  92
ENDBRANCH  59  84
ENDBRANCH  33  34
ENDBRANCH  25  28
ENDBRANCH  23  24
ENDBRANCH   1  23
TORSDOF 16
