REMARK SMILES N#C[C@@H]1CN(C(=O)Nc2cccc(F)c2C(=O)NCCCNC(=O)c2ccc(-c3c4nc(c(-c5c(F)cc(S(=O)(=O)[O-])cc5F)c5ccc([nH]5)c(-c5c(F)cc(S(=O)(=O)[O-])cc5F)c5nc(c(-c6c(F)cc(S(=O)(=O)[O-])cc6F)c6ccc3[nH]6)C=C5)C=C4)cc2)CCO1
REMARK SMILES IDX 20 1 19 2 18 3 16 4 17 5 15 7 9 8 10 9 11 10 13 11 12 12
REMARK SMILES IDX 14 13 8 14 6 15 7 16 5 18 3 19 4 20 93 21 92 22 91 23 2 24
REMARK SMILES IDX 1 25 21 26 22 27 23 28 24 30 25 31 26 32 90 33 27 34 89 35
REMARK SMILES IDX 28 36 29 37 30 38 83 39 31 40 88 41 82 42 84 43 32 44 87 45
REMARK SMILES IDX 81 46 80 47 33 49 67 50 46 51 66 52 47 53 50 54 65 55 85 56
REMARK SMILES IDX 48 57 49 58 64 60 86 61 51 62 34 63 35 64 44 65 36 66 37 67
REMARK SMILES IDX 43 68 45 69 38 70 39 71 40 72 41 73 42 74 68 75 69 76 78 77
REMARK SMILES IDX 70 78 71 79 77 80 79 81 72 82 73 83 74 84 75 85 76 86 52 87
REMARK SMILES IDX 53 88 62 89 54 90 55 91 61 92 63 93 56 94 57 95 58 96 59 97
REMARK SMILES IDX 60 98
REMARK H PARENT 18 6 8 17 22 29 84 48 50 59
REMARK Flexibility Score: inf
ROOT
ATOM      1  C   UNL     1      -0.229   7.100   0.607  1.00  0.00     0.042 C 
ENDROOT
BRANCH   1   2
ATOM      2  C   UNL     1      -0.021   5.617   0.860  1.00  0.00     0.118 C 
BRANCH   2   3
ATOM      3  N   UNL     1      -0.019   4.815  -0.352  1.00  0.00    -0.352 N 
ATOM      4  C   UNL     1       0.939   4.187  -1.103  1.00  0.00     0.256 C 
ATOM      5  O   UNL     1       0.522   3.641  -2.131  1.00  0.00    -0.269 OA
ATOM      6  H   UNL     1      -0.923   4.693  -0.721  1.00  0.00     0.163 HD
BRANCH   4   7
ATOM      7  C   UNL     1       2.413   4.205  -0.847  1.00  0.00     0.099 A 
ATOM      8  C   UNL     1       3.305   3.779  -1.863  1.00  0.00     0.058 A 
ATOM      9  C   UNL     1       4.694   3.989  -1.751  1.00  0.00     0.027 A 
ATOM     10  C   UNL     1       5.234   4.457  -0.558  1.00  0.00     0.005 A 
ATOM     11  C   UNL     1       3.008   4.457   0.389  1.00  0.00     0.138 A 
ATOM     12  C   UNL     1       4.391   4.623   0.532  1.00  0.00     0.040 A 
ATOM     13  F   UNL     1       2.334   4.302   1.534  1.00  0.00    -0.206 F 
BRANCH   8  14
ATOM     14  N   UNL     1       2.842   2.918  -2.877  1.00  0.00    -0.307 N 
ATOM     15  C   UNL     1       3.279   1.681  -3.262  1.00  0.00     0.322 C 
ATOM     16  O   UNL     1       2.905   1.254  -4.358  1.00  0.00    -0.248 OA
ATOM     17  H   UNL     1       2.079   3.264  -3.394  1.00  0.00     0.171 HD
BRANCH  15  18
ATOM     18  N   UNL     1       4.014   0.881  -2.403  1.00  0.00    -0.319 N 
ATOM     19  C   UNL     1       3.745  -0.024  -0.090  1.00  0.00     0.240 C 
ATOM     20  C   UNL     1       4.292   1.086  -0.973  1.00  0.00     0.169 C 
ATOM     21  O   UNL     1       4.266  -1.300  -0.546  1.00  0.00    -0.360 OA
ATOM     22  C   UNL     1       3.929  -1.558  -1.926  1.00  0.00     0.183 C 
ATOM     23  C   UNL     1       4.435  -0.450  -2.865  1.00  0.00     0.150 C 
BRANCH  19  24
ATOM     24  C   UNL     1       2.225  -0.024  -0.090  1.00  0.00     0.096 C 
ATOM     25  N   UNL     1       0.964  -0.024  -0.090  1.00  0.00    -0.195 NA
ENDBRANCH  19  24
ENDBRANCH  15  18
ENDBRANCH   8  14
ENDBRANCH   4   7
ENDBRANCH   2   3
ENDBRANCH   1   2
BRANCH   1  26
ATOM     26  C   UNL     1      -1.663   7.469   0.265  1.00  0.00     0.118 C 
BRANCH  26  27
ATOM     27  N   UNL     1      -2.598   7.146   1.339  1.00  0.00    -0.352 N 
ATOM     28  C   UNL     1      -3.283   7.956   2.213  1.00  0.00     0.251 C 
ATOM     29  H   UNL     1      -2.765   6.183   1.458  1.00  0.00     0.163 HD
ATOM     30  O   UNL     1      -3.839   7.456   3.186  1.00  0.00    -0.269 OA
BRANCH  28  31
ATOM     31  C   UNL     1      -3.346   9.417   1.994  1.00  0.00     0.039 A 
ATOM     32  C   UNL     1      -3.290  10.276   3.096  1.00  0.00     0.014 A 
ATOM     33  C   UNL     1      -3.488   9.943   0.710  1.00  0.00     0.014 A 
ATOM     34  C   UNL     1      -3.299  11.659   2.897  1.00  0.00     0.010 A 
ATOM     35  C   UNL     1      -3.389  11.314   0.506  1.00  0.00     0.010 A 
ATOM     36  C   UNL     1      -3.303  12.189   1.597  1.00  0.00    -0.014 A 
BRANCH  36  37
ATOM     37  C   UNL     1      -3.232  13.651   1.345  1.00  0.00     0.031 A 
ATOM     38  C   UNL     1      -4.351  14.340   0.611  1.00  0.00     0.074 A 
ATOM     39  C   UNL     1      -2.131  14.338   1.709  1.00  0.00     0.049 A 
ATOM     40  N   UNL     1      -4.427  15.579   0.200  1.00  0.00    -0.248 NA
ATOM     41  C   UNL     1      -5.527  13.522   0.266  1.00  0.00     0.031 C 
ATOM     42  C   UNL     1      -0.965  13.769   2.389  1.00  0.00     0.029 A 
ATOM     43  N   UNL     1      -1.806  15.662   1.550  1.00  0.00    -0.354 N 
ATOM     44  C   UNL     1      -5.646  15.684  -0.460  1.00  0.00     0.074 A 
ATOM     45  C   UNL     1      -6.248  14.370  -0.452  1.00  0.00     0.031 C 
ATOM     46  C   UNL     1      -0.070  14.743   2.618  1.00  0.00     0.029 A 
ATOM     47  C   UNL     1      -0.571  15.993   2.057  1.00  0.00     0.049 A 
ATOM     48  H   UNL     1      -2.401  16.314   1.113  1.00  0.00     0.167 HD
ATOM     49  C   UNL     1      -6.224  16.784  -0.998  1.00  0.00     0.037 A 
ATOM     50  C   UNL     1       0.088  17.169   2.061  1.00  0.00     0.037 A 
ATOM     51  C   UNL     1      -5.629  18.094  -0.972  1.00  0.00     0.049 A 
ATOM     52  C   UNL     1      -0.565  18.373   1.439  1.00  0.00     0.074 A 
ATOM     53  C   UNL     1      -6.156  19.284  -1.442  1.00  0.00     0.029 A 
ATOM     54  N   UNL     1      -4.379  18.388  -0.446  1.00  0.00    -0.354 N 
ATOM     55  N   UNL     1      -1.740  18.465   0.861  1.00  0.00    -0.248 NA
ATOM     56  C   UNL     1       0.191  19.632   1.468  1.00  0.00     0.031 C 
ATOM     57  C   UNL     1      -5.204  20.288  -1.246  1.00  0.00     0.029 A 
ATOM     58  C   UNL     1      -4.107  19.737  -0.602  1.00  0.00     0.049 A 
ATOM     59  H   UNL     1      -3.775  17.735  -0.024  1.00  0.00     0.167 HD
ATOM     60  C   UNL     1      -1.872  19.795   0.477  1.00  0.00     0.074 A 
ATOM     61  C   UNL     1      -0.664  20.473   0.900  1.00  0.00     0.031 C 
ATOM     62  C   UNL     1      -2.900  20.398  -0.169  1.00  0.00     0.037 A 
BRANCH  49  63
ATOM     63  C   UNL     1      -7.575  16.629  -1.641  1.00  0.00     0.058 A 
ATOM     64  C   UNL     1      -7.734  16.803  -3.025  1.00  0.00     0.135 A 
ATOM     65  C   UNL     1      -8.727  16.373  -0.878  1.00  0.00     0.135 A 
ATOM     66  F   UNL     1      -6.667  17.042  -3.804  1.00  0.00    -0.206 F 
ATOM     67  C   UNL     1      -8.987  16.747  -3.627  1.00  0.00     0.059 A 
ATOM     68  C   UNL     1      -9.986  16.282  -1.464  1.00  0.00     0.059 A 
ATOM     69  F   UNL     1      -8.630  16.176   0.446  1.00  0.00    -0.206 F 
ATOM     70  C   UNL     1     -10.108  16.488  -2.837  1.00  0.00     0.060 A 
BRANCH  70  71
ATOM     71  S   UNL     1     -11.724  16.397  -3.637  1.00  0.00     0.124 S 
ATOM     72  O   UNL     1     -11.941  17.783  -4.034  1.00  0.00    -0.237 OA
ATOM     73  O   UNL     1     -11.473  15.454  -4.723  1.00  0.00    -0.237 OA
ATOM     74  O   UNL     1     -12.598  15.901  -2.578  1.00  0.00    -0.744 OA
ENDBRANCH  70  71
ENDBRANCH  49  63
BRANCH  50  75
ATOM     75  C   UNL     1       1.427  17.262   2.704  1.00  0.00     0.058 A 
ATOM     76  C   UNL     1       2.548  16.618   2.158  1.00  0.00     0.135 A 
ATOM     77  C   UNL     1       1.599  17.964   3.907  1.00  0.00     0.135 A 
ATOM     78  F   UNL     1       2.437  15.924   1.015  1.00  0.00    -0.206 F 
ATOM     79  C   UNL     1       3.784  16.642   2.796  1.00  0.00     0.059 A 
ATOM     80  C   UNL     1       2.833  18.025   4.550  1.00  0.00     0.059 A 
ATOM     81  F   UNL     1       0.560  18.606   4.462  1.00  0.00    -0.206 F 
ATOM     82  C   UNL     1       3.915  17.344   3.994  1.00  0.00     0.060 A 
BRANCH  82  83
ATOM     83  S   UNL     1       5.523  17.342   4.816  1.00  0.00     0.124 S 
ATOM     84  O   UNL     1       5.640  15.945   5.223  1.00  0.00    -0.237 OA
ATOM     85  O   UNL     1       6.414  17.766   3.741  1.00  0.00    -0.237 OA
ATOM     86  O   UNL     1       5.350  18.300   5.902  1.00  0.00    -0.744 OA
ENDBRANCH  82  83
ENDBRANCH  50  75
BRANCH  62  87
ATOM     87  C   UNL     1      -2.786  21.870  -0.450  1.00  0.00     0.058 A 
ATOM     88  C   UNL     1      -3.618  22.787   0.215  1.00  0.00     0.135 A 
ATOM     89  C   UNL     1      -1.929  22.364  -1.445  1.00  0.00     0.135 A 
ATOM     90  F   UNL     1      -4.461  22.366   1.171  1.00  0.00    -0.206 F 
ATOM     91  C   UNL     1      -3.623  24.137  -0.117  1.00  0.00     0.059 A 
ATOM     92  C   UNL     1      -1.897  23.716  -1.773  1.00  0.00     0.059 A 
ATOM     93  F   UNL     1      -1.106  21.530  -2.102  1.00  0.00    -0.206 F 
ATOM     94  C   UNL     1      -2.762  24.591  -1.117  1.00  0.00     0.060 A 
BRANCH  94  95
ATOM     95  S   UNL     1      -2.789  26.346  -1.539  1.00  0.00     0.124 S 
ATOM     96  O   UNL     1      -4.096  26.482  -2.172  1.00  0.00    -0.237 OA
ATOM     97  O   UNL     1      -2.646  26.978  -0.232  1.00  0.00    -0.237 OA
ATOM     98  O   UNL     1      -1.642  26.498  -2.430  1.00  0.00    -0.744 OA
ENDBRANCH  94  95
ENDBRANCH  62  87
ENDBRANCH  36  37
ENDBRANCH  28  31
ENDBRANCH  26  27
ENDBRANCH   1  26
TORSDOF 16
