REMARK SMILES C=C(C(=O)NCCCNC(=O)c1ccc(-c2c3nc(c(-c4c(F)cc(S(=O)(=O)[O-])cc4F)c4ccc([nH]4)c(-c4c(F)cc(S(=O)(=O)[O-])cc4F)c4nc(c(-c5c(F)cc(S(=O)(=O)[O-])cc5F)c5ccc2[nH]5)C=C4)C=C3)cc1)[C@@H]1CC[C@]2(C)CCCC(=C)[C@H]2[C@H]1O
REMARK SMILES IDX 7 1 6 2 5 3 3 4 4 5 2 7 1 8 78 9 79 10 89 11 80 12 88 13
REMARK SMILES IDX 81 14 86 15 82 16 83 17 85 18 87 19 84 20 90 21 8 23 9 24
REMARK SMILES IDX 10 25 11 27 12 28 13 29 77 30 14 31 76 32 15 33 16 34 17 35
REMARK SMILES IDX 70 36 18 37 75 38 69 39 71 40 19 41 74 42 68 43 67 44 20 46
REMARK SMILES IDX 54 47 33 48 53 49 34 50 37 51 52 52 72 53 35 54 36 55 51 57
REMARK SMILES IDX 73 58 38 59 21 60 22 61 31 62 23 63 24 64 30 65 32 66 25 67
REMARK SMILES IDX 26 68 27 69 28 70 29 71 55 72 56 73 65 74 57 75 58 76 64 77
REMARK SMILES IDX 66 78 59 79 60 80 61 81 62 82 63 83 39 84 40 85 49 86 41 87
REMARK SMILES IDX 42 88 48 89 50 90 43 91 44 92 45 93 46 94 47 95
REMARK H PARENT 5 6 90 22 9 26 71 45 37 56
REMARK Flexibility Score: inf
ROOT
ATOM      1  C   UNL     1      -1.729  -1.456   1.961  1.00  0.00     0.042 C 
ENDROOT
BRANCH   1   2
ATOM      2  C   UNL     1      -1.194  -1.222   0.558  1.00  0.00     0.118 C 
BRANCH   2   3
ATOM      3  N   UNL     1      -1.692   0.003  -0.052  1.00  0.00    -0.352 N 
ATOM      4  C   UNL     1      -1.063   0.935  -0.823  1.00  0.00     0.246 C 
ATOM      5  O   UNL     1      -1.718   1.869  -1.279  1.00  0.00    -0.270 OA
ATOM      6  H   UNL     1      -2.643   0.190   0.122  1.00  0.00     0.163 HD
BRANCH   4   7
ATOM      7  C   UNL     1       0.393   0.817  -1.124  1.00  0.00     0.015 C 
ATOM      8  C   UNL     1       0.803  -0.371  -1.617  1.00  0.00     0.019 C 
BRANCH   7   9
ATOM      9  C   UNL     1       1.276   2.074  -1.153  1.00  0.00     0.053 C 
ATOM     10  C   UNL     1       2.748   1.768  -0.776  1.00  0.00     0.012 C 
ATOM     11  C   UNL     1       0.825   3.371  -0.386  1.00  0.00     0.129 C 
ATOM     12  C   UNL     1       2.925   1.598   0.730  1.00  0.00     0.008 C 
ATOM     13  C   UNL     1       1.133   3.347   1.149  1.00  0.00     0.050 C 
ATOM     14  C   UNL     1       2.583   2.886   1.511  1.00  0.00    -0.024 C 
ATOM     15  C   UNL     1       0.805   4.587   1.995  1.00  0.00    -0.071 C 
ATOM     16  C   UNL     1       3.661   3.959   1.208  1.00  0.00     0.012 C 
ATOM     17  C   UNL     1       2.626   2.560   3.035  1.00  0.00     0.008 C 
ATOM     18  C   UNL     1       0.847   4.327   3.487  1.00  0.00     0.031 C 
ATOM     19  C   UNL     1       0.544   5.822   1.536  1.00  0.00     0.008 C 
ATOM     20  C   UNL     1       2.183   3.726   3.924  1.00  0.00     0.005 C 
BRANCH  11  21
ATOM     21  O   UNL     1       1.417   4.513  -1.033  1.00  0.00    -0.392 OA
ATOM     22  H   UNL     1       2.384   4.450  -0.980  1.00  0.00     0.211 HD
ENDBRANCH  11  21
ENDBRANCH   7   9
ENDBRANCH   4   7
ENDBRANCH   2   3
ENDBRANCH   1   2
BRANCH   1  23
ATOM     23  C   UNL     1      -3.236  -1.657   2.043  1.00  0.00     0.118 C 
BRANCH  23  24
ATOM     24  N   UNL     1      -3.694  -2.871   1.376  1.00  0.00    -0.352 N 
ATOM     25  C   UNL     1      -4.218  -4.031   1.896  1.00  0.00     0.251 C 
ATOM     26  H   UNL     1      -3.615  -2.857   0.395  1.00  0.00     0.163 HD
ATOM     27  O   UNL     1      -4.373  -5.006   1.160  1.00  0.00    -0.269 OA
BRANCH  25  28
ATOM     28  C   UNL     1      -4.570  -4.125   3.330  1.00  0.00     0.039 A 
ATOM     29  C   UNL     1      -4.282  -5.300   4.031  1.00  0.00     0.014 A 
ATOM     30  C   UNL     1      -5.189  -3.061   3.988  1.00  0.00     0.014 A 
ATOM     31  C   UNL     1      -4.537  -5.370   5.404  1.00  0.00     0.010 A 
ATOM     32  C   UNL     1      -5.337  -3.090   5.370  1.00  0.00     0.010 A 
ATOM     33  C   UNL     1      -5.023  -4.248   6.094  1.00  0.00    -0.014 A 
BRANCH  33  34
ATOM     34  C   UNL     1      -5.229  -4.263   7.567  1.00  0.00     0.031 A 
ATOM     35  C   UNL     1      -6.601  -4.010   8.137  1.00  0.00     0.074 A 
ATOM     36  C   UNL     1      -4.172  -4.422   8.389  1.00  0.00     0.049 A 
ATOM     37  N   UNL     1      -6.967  -3.887   9.386  1.00  0.00    -0.248 NA
ATOM     38  C   UNL     1      -7.701  -3.838   7.173  1.00  0.00     0.031 C 
ATOM     39  C   UNL     1      -2.785  -4.616   7.958  1.00  0.00     0.029 A 
ATOM     40  N   UNL     1      -4.094  -4.433   9.759  1.00  0.00    -0.354 N 
ATOM     41  C   UNL     1      -8.328  -3.604   9.356  1.00  0.00     0.074 A 
ATOM     42  C   UNL     1      -8.710  -3.510   7.965  1.00  0.00     0.031 C 
ATOM     43  C   UNL     1      -2.002  -4.755   9.040  1.00  0.00     0.029 A 
ATOM     44  C   UNL     1      -2.818  -4.615  10.241  1.00  0.00     0.049 A 
ATOM     45  H   UNL     1      -4.879  -4.322  10.344  1.00  0.00     0.167 HD
ATOM     46  C   UNL     1      -9.189  -3.465  10.393  1.00  0.00     0.037 A 
ATOM     47  C   UNL     1      -2.357  -4.656  11.507  1.00  0.00     0.037 A 
ATOM     48  C   UNL     1      -8.806  -3.593  11.774  1.00  0.00     0.049 A 
ATOM     49  C   UNL     1      -3.333  -4.503  12.643  1.00  0.00     0.074 A 
ATOM     50  C   UNL     1      -9.609  -3.534  12.899  1.00  0.00     0.029 A 
ATOM     51  N   UNL     1      -7.509  -3.806  12.219  1.00  0.00    -0.354 N 
ATOM     52  N   UNL     1      -4.629  -4.303  12.594  1.00  0.00    -0.248 NA
ATOM     53  C   UNL     1      -2.787  -4.586  14.004  1.00  0.00     0.031 C 
ATOM     54  C   UNL     1      -8.791  -3.661  14.026  1.00  0.00     0.029 A 
ATOM     55  C   UNL     1      -7.486  -3.858  13.603  1.00  0.00     0.049 A 
ATOM     56  H   UNL     1      -6.721  -3.906  11.637  1.00  0.00     0.167 HD
ATOM     57  C   UNL     1      -5.058  -4.268  13.917  1.00  0.00     0.074 A 
ATOM     58  C   UNL     1      -3.885  -4.479  14.740  1.00  0.00     0.031 C 
ATOM     59  C   UNL     1      -6.309  -4.078  14.406  1.00  0.00     0.037 A 
BRANCH  46  60
ATOM     60  C   UNL     1     -10.630  -3.168  10.072  1.00  0.00     0.058 A 
ATOM     61  C   UNL     1     -11.461  -4.117   9.453  1.00  0.00     0.135 A 
ATOM     62  C   UNL     1     -11.198  -1.930  10.415  1.00  0.00     0.135 A 
ATOM     63  F   UNL     1     -10.968  -5.311   9.087  1.00  0.00    -0.206 F 
ATOM     64  C   UNL     1     -12.791  -3.840   9.158  1.00  0.00     0.059 A 
ATOM     65  C   UNL     1     -12.536  -1.643  10.159  1.00  0.00     0.059 A 
ATOM     66  F   UNL     1     -10.452  -0.985  11.007  1.00  0.00    -0.206 F 
ATOM     67  C   UNL     1     -13.321  -2.599   9.516  1.00  0.00     0.060 A 
BRANCH  67  68
ATOM     68  S   UNL     1     -15.052  -2.260   9.134  1.00  0.00     0.124 S 
ATOM     69  O   UNL     1     -15.005  -2.109   7.683  1.00  0.00    -0.237 OA
ATOM     70  O   UNL     1     -15.720  -3.462   9.624  1.00  0.00    -0.237 OA
ATOM     71  O   UNL     1     -15.334  -1.040   9.883  1.00  0.00    -0.744 OA
ENDBRANCH  67  68
ENDBRANCH  46  60
BRANCH  47  72
ATOM     72  C   UNL     1      -0.908  -4.874  11.765  1.00  0.00     0.058 A 
ATOM     73  C   UNL     1      -0.447  -6.074  12.329  1.00  0.00     0.135 A 
ATOM     74  C   UNL     1       0.048  -3.897  11.443  1.00  0.00     0.135 A 
ATOM     75  F   UNL     1      -1.321  -7.037  12.661  1.00  0.00    -0.206 F 
ATOM     76  C   UNL     1       0.904  -6.292  12.581  1.00  0.00     0.059 A 
ATOM     77  C   UNL     1       1.407  -4.103  11.658  1.00  0.00     0.059 A 
ATOM     78  F   UNL     1      -0.337  -2.739  10.884  1.00  0.00    -0.206 F 
ATOM     79  C   UNL     1       1.824  -5.300  12.238  1.00  0.00     0.060 A 
BRANCH  79  80
ATOM     80  S   UNL     1       3.580  -5.613  12.525  1.00  0.00     0.124 S 
ATOM     81  O   UNL     1       3.661  -5.526  13.978  1.00  0.00    -0.237 OA
ATOM     82  O   UNL     1       3.750  -6.945  11.953  1.00  0.00    -0.237 OA
ATOM     83  O   UNL     1       4.237  -4.536  11.790  1.00  0.00    -0.744 OA
ENDBRANCH  79  80
ENDBRANCH  47  72
BRANCH  59  84
ATOM     84  C   UNL     1      -6.484  -4.129  15.899  1.00  0.00     0.058 A 
ATOM     85  C   UNL     1      -6.020  -3.102  16.735  1.00  0.00     0.135 A 
ATOM     86  C   UNL     1      -7.179  -5.196  16.493  1.00  0.00     0.135 A 
ATOM     87  F   UNL     1      -5.345  -2.063  16.218  1.00  0.00    -0.206 F 
ATOM     88  C   UNL     1      -6.216  -3.143  18.111  1.00  0.00     0.059 A 
ATOM     89  C   UNL     1      -7.413  -5.241  17.863  1.00  0.00     0.059 A 
ATOM     90  F   UNL     1      -7.654  -6.199  15.738  1.00  0.00    -0.206 F 
ATOM     91  C   UNL     1      -6.917  -4.215  18.666  1.00  0.00     0.060 A 
BRANCH  91  92
ATOM     92  S   UNL     1      -7.195  -4.237  20.449  1.00  0.00     0.124 S 
ATOM     93  O   UNL     1      -5.861  -4.551  20.950  1.00  0.00    -0.237 OA
ATOM     94  O   UNL     1      -7.666  -2.879  20.707  1.00  0.00    -0.237 OA
ATOM     95  O   UNL     1      -8.195  -5.285  20.625  1.00  0.00    -0.744 OA
ENDBRANCH  91  92
ENDBRANCH  59  84
ENDBRANCH  33  34
ENDBRANCH  25  28
ENDBRANCH  23  24
ENDBRANCH   1  23
TORSDOF 15
