REMARK SMILES O=C(/C=C/[C@@]12C=C(O)C(=O)C=C1C(=O)C1=Cc3cc(O)c(O)cc3O[C@@H](c3ccc(O)c(O)c3)[C@@H]12)NCCCNC(=O)c1ccc(-c2c3nc(c(-c4c(F)cc(S(=O)(=O)[O-])cc4F)c4ccc([nH]4)c(-c4c(F)cc(S(=O)(=O)[O-])cc4F)c4nc(c(-c5c(F)cc(S(=O)(=O)[O-])cc5F)c5ccc2[nH]5)C=C4)C=C3)cc1
REMARK SMILES IDX 1 1 2 2 36 3 3 5 4 6 5 7 6 8 12 9 35 10 7 11 11 12 13 13
REMARK SMILES IDX 15 14 9 16 14 17 16 18 10 19 8 20 17 22 18 23 24 24 19 25
REMARK SMILES IDX 23 26 21 27 25 28 26 29 27 31 28 32 34 33 29 34 32 35 30 36
REMARK SMILES IDX 33 37 31 39 20 41 22 43 37 45 38 46 39 47 40 48 41 49 42 51
REMARK SMILES IDX 43 52 44 53 108 54 45 55 107 56 46 57 47 58 48 59 101 60
REMARK SMILES IDX 49 61 106 62 100 63 102 64 50 65 105 66 99 67 98 68 51 70
REMARK SMILES IDX 85 71 64 72 84 73 65 74 68 75 83 76 103 77 66 78 67 79 82 81
REMARK SMILES IDX 104 82 69 83 52 84 53 85 62 86 54 87 55 88 61 89 63 90 56 91
REMARK SMILES IDX 57 92 58 93 59 94 60 95 86 96 87 97 96 98 88 99 89 100
REMARK SMILES IDX 95 101 97 102 90 103 91 104 92 105 93 106 94 107 70 108
REMARK SMILES IDX 71 109 80 110 72 111 73 112 79 113 81 114 74 115 75 116
REMARK SMILES IDX 76 117 77 118 78 119
REMARK H PARENT 36 4 8 21 33 38 31 40 20 42 22 44 40 50 102 69 68 80
REMARK Flexibility Score: 80.00
ROOT
ATOM      1  O   UNL     1       0.824   0.299  -0.607  1.00  0.00    -0.270 OA
ATOM      2  C   UNL     1       2.030   0.302  -0.405  1.00  0.00     0.243 C 
ATOM      3  N   UNL     1       2.734   1.298   0.216  1.00  0.00    -0.352 N 
ATOM      4  H   UNL     1       3.716   1.240   0.244  1.00  0.00     0.163 HD
ENDROOT
BRANCH   2   5
ATOM      5  C   UNL     1       2.835  -0.908  -0.698  1.00  0.00     0.068 C 
ATOM      6  C   UNL     1       4.073  -0.909  -1.232  1.00  0.00    -0.005 C 
BRANCH   6   7
ATOM      7  C   UNL     1       4.996  -2.141  -1.424  1.00  0.00     0.051 C 
ATOM      8  C   UNL     1       6.239  -1.827  -0.631  1.00  0.00     0.040 C 
ATOM      9  C   UNL     1       4.334  -3.398  -0.904  1.00  0.00     0.018 C 
ATOM     10  C   UNL     1       5.151  -2.488  -2.948  1.00  0.00     0.087 CG0
ATOM     11  C   UNL     1       6.561  -2.443   0.515  1.00  0.00     0.160 C 
ATOM     12  C   UNL     1       4.613  -4.061   0.221  1.00  0.00     0.065 C 
ATOM     13  C   UNL     1       3.397  -3.875  -1.942  1.00  0.00     0.186 C 
ATOM     14  C   UNL     1       3.850  -3.236  -3.199  1.00  0.00     0.009 C 
ATOM     15  G   UNL     1       6.272  -3.469  -3.421  1.00  0.00     0.000 G0
ATOM     16  C   UNL     1       5.736  -3.573   1.050  1.00  0.00     0.220 C 
ATOM     17  O   UNL     1       2.497  -4.676  -1.801  1.00  0.00    -0.289 OA
ATOM     18  C   UNL     1       3.285  -3.435  -4.390  1.00  0.00     0.020 C 
ATOM     19  O   UNL     1       6.049  -4.110   2.105  1.00  0.00    -0.286 OA
BRANCH  11  20
ATOM     20  O   UNL     1       7.686  -2.072   1.223  1.00  0.00    -0.504 OA
ATOM     21  H   UNL     1       8.223  -1.369   0.914  1.00  0.00     0.293 HD
ENDBRANCH  11  20
BRANCH  18  22
ATOM     22  C   UNL     1       4.032  -3.017  -5.577  1.00  0.00     0.021 A 
ATOM     23  C   UNL     1       3.352  -2.362  -6.615  1.00  0.00     0.062 A 
ATOM     24  C   UNL     1       5.402  -3.327  -5.720  1.00  0.00     0.131 A 
ATOM     25  C   UNL     1       4.035  -2.052  -7.786  1.00  0.00     0.158 A 
ATOM     26  C   UNL     1       6.051  -3.072  -6.929  1.00  0.00     0.097 A 
ATOM     27  C   UNL     1       5.367  -2.422  -7.945  1.00  0.00     0.161 A 
BRANCH  24  28
ATOM     28  O   UNL     1       6.150  -3.990  -4.779  1.00  0.00    -0.484 OA
BRANCH  28  29
ATOM     29  C   UNL     1       6.272  -3.469  -3.421  1.00  0.00     0.213 CG0
ATOM     30  G   UNL     1       5.151  -2.488  -2.948  1.00  0.00     0.000 G0
BRANCH  29  31
ATOM     31  C   UNL     1       7.692  -2.938  -3.267  1.00  0.00    -0.003 A 
ATOM     32  C   UNL     1       8.473  -3.329  -2.164  1.00  0.00     0.011 A 
ATOM     33  C   UNL     1       8.261  -2.059  -4.201  1.00  0.00     0.057 A 
ATOM     34  C   UNL     1       9.732  -2.768  -1.934  1.00  0.00     0.050 A 
ATOM     35  C   UNL     1       9.552  -1.563  -4.009  1.00  0.00     0.157 A 
ATOM     36  C   UNL     1      10.263  -1.875  -2.855  1.00  0.00     0.157 A 
BRANCH  35  37
ATOM     37  O   UNL     1      10.116  -0.756  -4.956  1.00  0.00    -0.504 OA
ATOM     38  H   UNL     1      10.982  -0.421  -4.830  1.00  0.00     0.293 HD
ENDBRANCH  35  37
BRANCH  36  39
ATOM     39  O   UNL     1      11.486  -1.308  -2.641  1.00  0.00    -0.504 OA
ATOM     40  H   UNL     1      11.969  -1.515  -1.865  1.00  0.00     0.293 HD
ENDBRANCH  36  39
ENDBRANCH  29  31
ENDBRANCH  28  29
ENDBRANCH  24  28
BRANCH  25  41
ATOM     41  O   UNL     1       3.433  -1.394  -8.823  1.00  0.00    -0.504 OA
ATOM     42  H   UNL     1       2.537  -1.128  -8.753  1.00  0.00     0.293 HD
ENDBRANCH  25  41
BRANCH  27  43
ATOM     43  O   UNL     1       6.018  -2.147  -9.114  1.00  0.00    -0.504 OA
ATOM     44  H   UNL     1       5.567  -1.708  -9.808  1.00  0.00     0.293 HD
ENDBRANCH  27  43
ENDBRANCH  18  22
ENDBRANCH   6   7
ENDBRANCH   2   5
BRANCH   3  45
ATOM     45  C   UNL     1       2.083   2.436   0.836  1.00  0.00     0.118 C 
BRANCH  45  46
ATOM     46  C   UNL     1       2.282   2.450   2.350  1.00  0.00     0.042 C 
BRANCH  46  47
ATOM     47  C   UNL     1       3.737   2.537   2.804  1.00  0.00     0.118 C 
BRANCH  47  48
ATOM     48  N   UNL     1       4.420   3.735   2.335  1.00  0.00    -0.352 N 
ATOM     49  C   UNL     1       5.148   4.669   3.034  1.00  0.00     0.251 C 
ATOM     50  H   UNL     1       4.350   3.902   1.367  1.00  0.00     0.163 HD
ATOM     51  O   UNL     1       5.543   5.679   2.457  1.00  0.00    -0.269 OA
BRANCH  49  52
ATOM     52  C   UNL     1       5.424   4.483   4.476  1.00  0.00     0.039 A 
ATOM     53  C   UNL     1       5.837   3.248   4.980  1.00  0.00     0.014 A 
ATOM     54  C   UNL     1       5.261   5.570   5.341  1.00  0.00     0.014 A 
ATOM     55  C   UNL     1       5.921   3.057   6.357  1.00  0.00     0.010 A 
ATOM     56  C   UNL     1       5.420   5.395   6.719  1.00  0.00     0.010 A 
ATOM     57  C   UNL     1       5.699   4.124   7.244  1.00  0.00    -0.014 A 
BRANCH  57  58
ATOM     58  C   UNL     1       5.732   3.879   8.710  1.00  0.00     0.031 A 
ATOM     59  C   UNL     1       4.480   4.014   9.538  1.00  0.00     0.074 A 
ATOM     60  C   UNL     1       6.878   3.470   9.290  1.00  0.00     0.049 A 
ATOM     61  N   UNL     1       4.312   3.806  10.819  1.00  0.00    -0.248 NA
ATOM     62  C   UNL     1       3.257   4.440   8.838  1.00  0.00     0.031 C 
ATOM     63  C   UNL     1       8.156   3.292   8.597  1.00  0.00     0.029 A 
ATOM     64  N   UNL     1       7.148   3.103  10.584  1.00  0.00    -0.354 N 
ATOM     65  C   UNL     1       2.976   4.086  11.081  1.00  0.00     0.074 A 
ATOM     66  C   UNL     1       2.382   4.510   9.832  1.00  0.00     0.031 C 
ATOM     67  C   UNL     1       9.058   2.799   9.460  1.00  0.00     0.029 A 
ATOM     68  C   UNL     1       8.440   2.675  10.777  1.00  0.00     0.049 A 
ATOM     69  H   UNL     1       6.480   3.143  11.306  1.00  0.00     0.167 HD
ATOM     70  C   UNL     1       2.300   3.983  12.251  1.00  0.00     0.037 A 
ATOM     71  C   UNL     1       9.062   2.235  11.888  1.00  0.00     0.037 A 
ATOM     72  C   UNL     1       2.884   3.536  13.489  1.00  0.00     0.049 A 
ATOM     73  C   UNL     1       8.300   2.163  13.180  1.00  0.00     0.074 A 
ATOM     74  C   UNL     1       2.272   3.382  14.722  1.00  0.00     0.029 A 
ATOM     75  N   UNL     1       4.210   3.167  13.653  1.00  0.00    -0.354 N 
ATOM     76  N   UNL     1       7.038   2.434  13.406  1.00  0.00    -0.248 NA
ATOM     77  C   UNL     1       9.049   1.736  14.370  1.00  0.00     0.031 C 
ATOM     78  C   UNL     1       3.237   2.951  15.639  1.00  0.00     0.029 A 
ATOM     79  C   UNL     1       4.440   2.801  14.969  1.00  0.00     0.049 A 
ATOM     80  H   UNL     1       4.888   3.165  12.940  1.00  0.00     0.167 HD
ATOM     81  C   UNL     1       6.839   2.207  14.763  1.00  0.00     0.074 A 
ATOM     82  C   UNL     1       8.105   1.756  15.303  1.00  0.00     0.031 C 
ATOM     83  C   UNL     1       5.708   2.362  15.495  1.00  0.00     0.037 A 
BRANCH  70  84
ATOM     84  C   UNL     1       0.845   4.360  12.253  1.00  0.00     0.058 A 
ATOM     85  C   UNL     1      -0.130   3.527  11.683  1.00  0.00     0.135 A 
ATOM     86  C   UNL     1       0.414   5.542  12.877  1.00  0.00     0.135 A 
ATOM     87  F   UNL     1       0.230   2.394  11.060  1.00  0.00    -0.206 F 
ATOM     88  C   UNL     1      -1.480   3.860  11.716  1.00  0.00     0.059 A 
ATOM     89  C   UNL     1      -0.934   5.885  12.941  1.00  0.00     0.059 A 
ATOM     90  F   UNL     1       1.306   6.375  13.437  1.00  0.00    -0.206 F 
ATOM     91  C   UNL     1      -1.873   5.042  12.347  1.00  0.00     0.060 A 
BRANCH  91  92
ATOM     92  S   UNL     1      -3.630   5.455  12.388  1.00  0.00     0.124 S 
ATOM     93  O   UNL     1      -3.870   5.838  11.000  1.00  0.00    -0.237 OA
ATOM     94  O   UNL     1      -4.236   4.197  12.812  1.00  0.00    -0.237 OA
ATOM     95  O   UNL     1      -3.702   6.541  13.360  1.00  0.00    -0.744 OA
ENDBRANCH  91  92
ENDBRANCH  70  84
BRANCH  71  96
ATOM     96  C   UNL     1      10.487   1.821  11.815  1.00  0.00     0.058 A 
ATOM     97  C   UNL     1      10.849   0.469  11.896  1.00  0.00     0.135 A 
ATOM     98  C   UNL     1      11.509   2.764  11.623  1.00  0.00     0.135 A 
ATOM     99  F   UNL     1       9.907  -0.467  12.089  1.00  0.00    -0.206 F 
ATOM    100  C   UNL     1      12.175   0.064  11.787  1.00  0.00     0.059 A 
ATOM    101  C   UNL     1      12.839   2.382  11.488  1.00  0.00     0.059 A 
ATOM    102  F   UNL     1      11.210   4.069  11.526  1.00  0.00    -0.206 F 
ATOM    103  C   UNL     1      13.162   1.028  11.575  1.00  0.00     0.060 A 
BRANCH 103 104
ATOM    104  S   UNL     1      14.870   0.484  11.356  1.00  0.00     0.124 S 
ATOM    105  O   UNL     1      15.242   0.127  12.720  1.00  0.00    -0.237 OA
ATOM    106  O   UNL     1      14.721  -0.627  10.422  1.00  0.00    -0.237 OA
ATOM    107  O   UNL     1      15.530   1.667  10.809  1.00  0.00    -0.744 OA
ENDBRANCH 103 104
ENDBRANCH  71  96
BRANCH  83 108
ATOM    108  C   UNL     1       5.784   2.044  16.960  1.00  0.00     0.058 A 
ATOM    109  C   UNL     1       6.396   2.923  17.866  1.00  0.00     0.135 A 
ATOM    110  C   UNL     1       5.183   0.883  17.472  1.00  0.00     0.135 A 
ATOM    111  F   UNL     1       6.991   4.042  17.424  1.00  0.00    -0.206 F 
ATOM    112  C   UNL     1       6.418   2.658  19.231  1.00  0.00     0.059 A 
ATOM    113  C   UNL     1       5.176   0.608  18.836  1.00  0.00     0.059 A 
ATOM    114  F   UNL     1       4.578   0.014  16.647  1.00  0.00    -0.206 F 
ATOM    115  C   UNL     1       5.803   1.499  19.707  1.00  0.00     0.060 A 
BRANCH 115 116
ATOM    116  S   UNL     1       5.800   1.190  21.486  1.00  0.00     0.124 S 
ATOM    117  O   UNL     1       7.184   0.790  21.717  1.00  0.00    -0.237 OA
ATOM    118  O   UNL     1       5.416   2.490  22.028  1.00  0.00    -0.237 OA
ATOM    119  O   UNL     1       4.805   0.134  21.646  1.00  0.00    -0.744 OA
ENDBRANCH 115 116
ENDBRANCH  83 108
ENDBRANCH  57  58
ENDBRANCH  49  52
ENDBRANCH  47  48
ENDBRANCH  46  47
ENDBRANCH  45  46
ENDBRANCH   3  45
TORSDOF 20
