REMARK SMILES C[C@H](CNS(=O)(=O)c1ccc(C(=O)NCCCNC(=O)c2ccc(-c3c4nc(c(-c5c(F)cc(S(=O)(=O)[O-])cc5F)c5ccc([nH]5)c(-c5c(F)cc(S(=O)(=O)[O-])cc5F)c5nc(c(-c6c(F)cc(S(=O)(=O)[O-])cc6F)c6ccc3[nH]6)C=C5)C=C4)cc2)cc1F)[NH+](C)C
REMARK SMILES IDX 15 1 14 2 12 3 13 4 11 6 8 7 9 8 88 9 10 10 87 11 89 12 5 13
REMARK SMILES IDX 6 14 7 15 4 16 3 18 2 19 1 20 90 21 91 22 92 23 16 25 17 26
REMARK SMILES IDX 18 27 19 28 20 30 21 31 22 32 86 33 23 34 85 35 24 36 25 37
REMARK SMILES IDX 26 38 79 39 27 40 84 41 78 42 80 43 28 44 83 45 77 46 76 47
REMARK SMILES IDX 29 49 63 50 42 51 62 52 43 53 46 54 61 55 81 56 44 57 45 58
REMARK SMILES IDX 60 60 82 61 47 62 30 63 31 64 40 65 32 66 33 67 39 68 41 69
REMARK SMILES IDX 34 70 35 71 36 72 37 73 38 74 64 75 65 76 74 77 66 78 67 79
REMARK SMILES IDX 73 80 75 81 68 82 69 83 70 84 71 85 72 86 48 87 49 88 58 89
REMARK SMILES IDX 50 90 51 91 57 92 59 93 52 94 53 95 54 96 55 97 56 98
REMARK H PARENT 14 5 4 17 90 24 18 29 80 48 46 59
REMARK Flexibility Score: inf
ROOT
ATOM      1  C   UNL     1       6.716   3.420  -5.019  1.00  0.00     0.118 C 
ENDROOT
BRANCH   1   2
ATOM      2  N   UNL     1       7.196   3.240  -3.660  1.00  0.00    -0.352 N 
ATOM      3  C   UNL     1       6.576   2.812  -2.518  1.00  0.00     0.251 C 
ATOM      4  O   UNL     1       7.240   2.739  -1.485  1.00  0.00    -0.269 OA
ATOM      5  H   UNL     1       8.145   3.470  -3.538  1.00  0.00     0.163 HD
BRANCH   3   6
ATOM      6  C   UNL     1       5.168   2.344  -2.497  1.00  0.00     0.042 A 
ATOM      7  C   UNL     1       2.599   1.220  -2.428  1.00  0.00     0.118 A 
ATOM      8  C   UNL     1       3.615   0.692  -1.626  1.00  0.00     0.026 A 
ATOM      9  C   UNL     1       2.858   2.327  -3.225  1.00  0.00     0.144 A 
ATOM     10  C   UNL     1       4.888   1.260  -1.653  1.00  0.00     0.015 A 
ATOM     11  C   UNL     1       4.131   2.904  -3.245  1.00  0.00     0.054 A 
ATOM     12  F   UNL     1       1.925   2.864  -4.018  1.00  0.00    -0.205 F 
BRANCH   7  13
ATOM     13  S   UNL     1       1.049   0.384  -2.501  1.00  0.00     0.243 S 
ATOM     14  O   UNL     1       1.328  -1.029  -2.678  1.00  0.00    -0.207 OA
ATOM     15  O   UNL     1       0.148   1.089  -3.374  1.00  0.00    -0.207 OA
BRANCH  13  16
ATOM     16  N   UNL     1       0.422   0.611  -0.952  1.00  0.00    -0.205 NA
ATOM     17  H   UNL     1       0.869   1.442  -0.563  1.00  0.00     0.141 HD
BRANCH  16  18
ATOM     18  C   UNL     1       0.591  -0.478   0.027  1.00  0.00     0.163 C 
BRANCH  18  19
ATOM     19  C   UNL     1       0.197  -0.062   1.471  1.00  0.00     0.195 C 
ATOM     20  C   UNL     1       1.039   1.118   1.974  1.00  0.00     0.076 C 
BRANCH  19  21
ATOM     21  N   UNL     1      -1.273   0.073   1.642  1.00  0.00    -0.337 N 
ATOM     22  C   UNL     1      -1.683  -0.346   2.987  1.00  0.00     0.332 C 
ATOM     23  C   UNL     1      -1.816   1.408   1.381  1.00  0.00     0.332 C 
ATOM     24  H   UNL     1      -1.662  -0.540   0.925  1.00  0.00     0.347 HD
ENDBRANCH  19  21
ENDBRANCH  18  19
ENDBRANCH  16  18
ENDBRANCH  13  16
ENDBRANCH   7  13
ENDBRANCH   3   6
ENDBRANCH   1   2
BRANCH   1  25
ATOM     25  C   UNL     1       6.427   4.893  -5.298  1.00  0.00     0.042 C 
BRANCH  25  26
ATOM     26  C   UNL     1       7.689   5.748  -5.375  1.00  0.00     0.118 C 
BRANCH  26  27
ATOM     27  N   UNL     1       8.479   5.442  -6.558  1.00  0.00    -0.352 N 
ATOM     28  C   UNL     1       8.869   6.266  -7.584  1.00  0.00     0.251 C 
ATOM     29  H   UNL     1       8.778   4.507  -6.634  1.00  0.00     0.163 HD
ATOM     30  O   UNL     1       9.323   5.775  -8.613  1.00  0.00    -0.269 OA
BRANCH  28  31
ATOM     31  C   UNL     1       8.740   7.733  -7.453  1.00  0.00     0.039 A 
ATOM     32  C   UNL     1       8.296   8.473  -8.553  1.00  0.00     0.014 A 
ATOM     33  C   UNL     1       9.094   8.384  -6.267  1.00  0.00     0.014 A 
ATOM     34  C   UNL     1       8.164   9.859  -8.447  1.00  0.00     0.010 A 
ATOM     35  C   UNL     1       8.896   9.756  -6.141  1.00  0.00     0.010 A 
ATOM     36  C   UNL     1       8.439  10.508  -7.233  1.00  0.00    -0.014 A 
BRANCH  36  37
ATOM     37  C   UNL     1       8.263  11.975  -7.087  1.00  0.00     0.031 A 
ATOM     38  C   UNL     1       9.453  12.855  -6.822  1.00  0.00     0.074 A 
ATOM     39  C   UNL     1       7.025  12.502  -7.134  1.00  0.00     0.049 A 
ATOM     40  N   UNL     1       9.493  14.143  -6.596  1.00  0.00    -0.248 NA
ATOM     41  C   UNL     1      10.770  12.198  -6.779  1.00  0.00     0.031 C 
ATOM     42  C   UNL     1       5.792  11.741  -7.345  1.00  0.00     0.029 A 
ATOM     43  N   UNL     1       6.597  13.799  -7.002  1.00  0.00    -0.354 N 
ATOM     44  C   UNL     1      10.830  14.447  -6.371  1.00  0.00     0.074 A 
ATOM     45  C   UNL     1      11.563  13.202  -6.437  1.00  0.00     0.031 C 
ATOM     46  C   UNL     1       4.750  12.588  -7.356  1.00  0.00     0.029 A 
ATOM     47  C   UNL     1       5.235  13.944  -7.115  1.00  0.00     0.049 A 
ATOM     48  H   UNL     1       7.208  14.554  -6.841  1.00  0.00     0.167 HD
ATOM     49  C   UNL     1      11.396  15.658  -6.153  1.00  0.00     0.037 A 
ATOM     50  C   UNL     1       4.461  15.044  -7.031  1.00  0.00     0.037 A 
ATOM     51  C   UNL     1      10.660  16.894  -6.117  1.00  0.00     0.049 A 
ATOM     52  C   UNL     1       5.109  16.377  -6.788  1.00  0.00     0.074 A 
ATOM     53  C   UNL     1      11.146  18.180  -5.960  1.00  0.00     0.029 A 
ATOM     54  N   UNL     1       9.281  17.000  -6.241  1.00  0.00    -0.354 N 
ATOM     55  N   UNL     1       6.380  16.655  -6.623  1.00  0.00    -0.248 NA
ATOM     56  C   UNL     1       4.223  17.547  -6.721  1.00  0.00     0.031 C 
ATOM     57  C   UNL     1      10.059  19.059  -5.948  1.00  0.00     0.029 A 
ATOM     58  C   UNL     1       8.898  18.327  -6.144  1.00  0.00     0.049 A 
ATOM     59  H   UNL     1       8.667  16.243  -6.378  1.00  0.00     0.167 HD
ATOM     60  C   UNL     1       6.450  18.032  -6.448  1.00  0.00     0.074 A 
ATOM     61  C   UNL     1       5.093  18.532  -6.539  1.00  0.00     0.031 C 
ATOM     62  C   UNL     1       7.540  18.808  -6.232  1.00  0.00     0.037 A 
BRANCH  49  63
ATOM     63  C   UNL     1      12.885  15.704  -5.944  1.00  0.00     0.058 A 
ATOM     64  C   UNL     1      13.422  16.028  -4.688  1.00  0.00     0.135 A 
ATOM     65  C   UNL     1      13.784  15.459  -6.996  1.00  0.00     0.135 A 
ATOM     66  F   UNL     1      12.611  16.267  -3.646  1.00  0.00    -0.206 F 
ATOM     67  C   UNL     1      14.796  16.109  -4.482  1.00  0.00     0.059 A 
ATOM     68  C   UNL     1      15.162  15.508  -6.806  1.00  0.00     0.059 A 
ATOM     69  F   UNL     1      13.325  15.126  -8.213  1.00  0.00    -0.206 F 
ATOM     70  C   UNL     1      15.659  15.844  -5.547  1.00  0.00     0.060 A 
BRANCH  70  71
ATOM     71  S   UNL     1      17.439  15.891  -5.250  1.00  0.00     0.124 S 
ATOM     72  O   UNL     1      17.684  17.323  -5.122  1.00  0.00    -0.237 OA
ATOM     73  O   UNL     1      17.568  15.110  -4.024  1.00  0.00    -0.237 OA
ATOM     74  O   UNL     1      17.997  15.261  -6.444  1.00  0.00    -0.744 OA
ENDBRANCH  70  71
ENDBRANCH  49  63
BRANCH  50  75
ATOM     75  C   UNL     1       2.993  14.915  -7.223  1.00  0.00     0.058 A 
ATOM     76  C   UNL     1       2.183  14.290  -6.262  1.00  0.00     0.135 A 
ATOM     77  C   UNL     1       2.387  15.343  -8.413  1.00  0.00     0.135 A 
ATOM     78  F   UNL     1       2.718  13.853  -5.112  1.00  0.00    -0.206 F 
ATOM     79  C   UNL     1       0.831  14.059  -6.491  1.00  0.00     0.059 A 
ATOM     80  C   UNL     1       1.032  15.143  -8.656  1.00  0.00     0.059 A 
ATOM     81  F   UNL     1       3.121  15.956  -9.354  1.00  0.00    -0.206 F 
ATOM     82  C   UNL     1       0.267  14.478  -7.697  1.00  0.00     0.060 A 
BRANCH  82  83
ATOM     83  S   UNL     1      -1.476  14.118  -7.999  1.00  0.00     0.124 S 
ATOM     84  O   UNL     1      -1.451  12.666  -8.145  1.00  0.00    -0.237 OA
ATOM     85  O   UNL     1      -2.108  14.624  -6.785  1.00  0.00    -0.237 OA
ATOM     86  O   UNL     1      -1.770  14.866  -9.217  1.00  0.00    -0.744 OA
ENDBRANCH  82  83
ENDBRANCH  50  75
BRANCH  62  87
ATOM     87  C   UNL     1       7.323  20.288  -6.083  1.00  0.00     0.058 A 
ATOM     88  C   UNL     1       7.739  21.173  -7.090  1.00  0.00     0.135 A 
ATOM     89  C   UNL     1       6.784  20.835  -4.909  1.00  0.00     0.135 A 
ATOM     90  F   UNL     1       8.265  20.701  -8.232  1.00  0.00    -0.206 F 
ATOM     91  C   UNL     1       7.650  22.551  -6.928  1.00  0.00     0.059 A 
ATOM     92  C   UNL     1       6.663  22.210  -4.735  1.00  0.00     0.059 A 
ATOM     93  F   UNL     1       6.360  20.029  -3.922  1.00  0.00    -0.206 F 
ATOM     94  C   UNL     1       7.117  23.061  -5.743  1.00  0.00     0.060 A 
BRANCH  94  95
ATOM     95  S   UNL     1       7.011  24.852  -5.548  1.00  0.00     0.124 S 
ATOM     96  O   UNL     1       8.412  25.217  -5.372  1.00  0.00    -0.237 OA
ATOM     97  O   UNL     1       6.401  25.265  -6.808  1.00  0.00    -0.237 OA
ATOM     98  O   UNL     1       6.166  25.015  -4.369  1.00  0.00    -0.744 OA
ENDBRANCH  94  95
ENDBRANCH  62  87
ENDBRANCH  36  37
ENDBRANCH  28  31
ENDBRANCH  26  27
ENDBRANCH  25  26
ENDBRANCH   1  25
TORSDOF 18
