REMARK SMILES O=C(NCCCNC(=O)[C@H]1CC2(CCN(C(=O)C3CC3)CC2)CN1C(=O)CCn1cccn1)c1ccc(-c2c3nc(c(-c4c(F)cc(S(=O)(=O)[O-])cc4F)c4ccc([nH]4)c(-c4c(F)cc(S(=O)(=O)[O-])cc4F)c4nc(c(-c5c(F)cc(S(=O)(=O)[O-])cc5F)c5ccc2[nH]5)C=C4)C=C3)cc1
REMARK SMILES IDX 5 1 4 2 3 3 1 4 2 5 34 7 35 8 99 9 36 10 98 11 37 12 38 13
REMARK SMILES IDX 39 14 92 15 40 16 97 17 91 18 93 19 41 20 96 21 90 22 89 23
REMARK SMILES IDX 42 25 76 26 55 27 75 28 56 29 59 30 74 31 94 32 57 33 58 34
REMARK SMILES IDX 73 36 95 37 60 38 43 39 44 40 53 41 45 42 46 43 52 44 54 45
REMARK SMILES IDX 47 46 48 47 49 48 50 49 51 50 77 51 78 52 87 53 79 54 80 55
REMARK SMILES IDX 86 56 88 57 81 58 82 59 83 60 84 61 85 62 61 63 62 64 71 65
REMARK SMILES IDX 63 66 64 67 70 68 72 69 65 70 66 71 67 72 68 73 69 74 6 75
REMARK SMILES IDX 7 76 8 77 9 79 10 80 11 81 24 82 12 83 23 84 13 85 22 86
REMARK SMILES IDX 14 87 21 88 15 89 16 90 17 91 25 92 26 93 27 94 28 95 29 96
REMARK SMILES IDX 30 97 33 98 31 99 32 100 18 101 19 102 20 103
REMARK H PARENT 3 6 93 24 59 35 7 78
REMARK Flexibility Score: inf
ROOT
ATOM      1  C   UNL     1       2.756   2.591   2.340  1.00  0.00     0.042 C 
ENDROOT
BRANCH   1   2
ATOM      2  C   UNL     1       2.897   2.944   0.861  1.00  0.00     0.118 C 
BRANCH   2   3
ATOM      3  N   UNL     1       3.072   1.841  -0.066  1.00  0.00    -0.352 N 
ATOM      4  O   UNL     1       2.728   0.223  -1.530  1.00  0.00    -0.269 OA
ATOM      5  C   UNL     1       2.253   0.888  -0.607  1.00  0.00     0.251 C 
ATOM      6  H   UNL     1       4.001   1.759  -0.380  1.00  0.00     0.163 HD
BRANCH   5   7
ATOM      7  C   UNL     1       0.893   0.550  -0.110  1.00  0.00     0.039 A 
ATOM      8  C   UNL     1       0.057   1.402   0.610  1.00  0.00     0.014 A 
ATOM      9  C   UNL     1       0.433  -0.746  -0.415  1.00  0.00     0.014 A 
ATOM     10  C   UNL     1      -1.165   0.934   1.099  1.00  0.00     0.010 A 
ATOM     11  C   UNL     1      -0.793  -1.211   0.052  1.00  0.00     0.010 A 
ATOM     12  C   UNL     1      -1.584  -0.380   0.838  1.00  0.00    -0.014 A 
BRANCH  12  13
ATOM     13  C   UNL     1      -2.962  -0.758   1.175  1.00  0.00     0.031 A 
ATOM     14  C   UNL     1      -3.980   0.034   0.421  1.00  0.00     0.074 A 
ATOM     15  C   UNL     1      -3.328  -1.809   1.942  1.00  0.00     0.049 A 
ATOM     16  N   UNL     1      -4.835   0.881   0.891  1.00  0.00    -0.248 NA
ATOM     17  C   UNL     1      -3.935  -0.004  -1.052  1.00  0.00     0.031 C 
ATOM     18  C   UNL     1      -2.469  -2.854   2.503  1.00  0.00     0.029 A 
ATOM     19  N   UNL     1      -4.579  -2.222   2.317  1.00  0.00    -0.354 N 
ATOM     20  C   UNL     1      -5.593   1.308  -0.200  1.00  0.00     0.074 A 
ATOM     21  C   UNL     1      -4.880   0.880  -1.373  1.00  0.00     0.031 C 
ATOM     22  C   UNL     1      -3.235  -3.880   2.946  1.00  0.00     0.029 A 
ATOM     23  C   UNL     1      -4.639  -3.520   2.827  1.00  0.00     0.049 A 
ATOM     24  H   UNL     1      -5.374  -1.648   2.233  1.00  0.00     0.167 HD
ATOM     25  C   UNL     1      -6.864   1.772  -0.040  1.00  0.00     0.037 A 
ATOM     26  C   UNL     1      -5.754  -4.257   3.095  1.00  0.00     0.037 A 
ATOM     27  C   UNL     1      -7.105   2.141   1.332  1.00  0.00     0.049 A 
ATOM     28  C   UNL     1      -6.888  -3.307   3.224  1.00  0.00     0.074 A 
ATOM     29  C   UNL     1      -6.534   3.036   2.217  1.00  0.00     0.029 A 
ATOM     30  N   UNL     1      -7.843   1.275   2.100  1.00  0.00    -0.354 N 
ATOM     31  N   UNL     1      -7.011  -2.446   4.194  1.00  0.00    -0.248 NA
ATOM     32  C   UNL     1      -7.659  -3.017   2.026  1.00  0.00     0.031 C 
ATOM     33  C   UNL     1      -6.554   2.370   3.477  1.00  0.00     0.029 A 
ATOM     34  C   UNL     1      -7.206   1.148   3.305  1.00  0.00     0.049 A 
ATOM     35  H   UNL     1      -8.678   0.828   1.833  1.00  0.00     0.167 HD
ATOM     36  C   UNL     1      -7.492  -1.300   3.582  1.00  0.00     0.074 A 
ATOM     37  C   UNL     1      -7.952  -1.737   2.265  1.00  0.00     0.031 C 
ATOM     38  C   UNL     1      -7.215  -0.064   4.090  1.00  0.00     0.037 A 
BRANCH  25  39
ATOM     39  C   UNL     1      -8.002   1.524  -1.012  1.00  0.00     0.058 A 
ATOM     40  C   UNL     1      -9.266   2.096  -0.746  1.00  0.00     0.135 A 
ATOM     41  C   UNL     1      -7.992   0.525  -2.010  1.00  0.00     0.135 A 
ATOM     42  F   UNL     1      -9.402   3.060   0.180  1.00  0.00    -0.206 F 
ATOM     43  C   UNL     1     -10.439   1.643  -1.351  1.00  0.00     0.059 A 
ATOM     44  C   UNL     1      -9.143   0.095  -2.664  1.00  0.00     0.059 A 
ATOM     45  F   UNL     1      -6.888  -0.152  -2.342  1.00  0.00    -0.206 F 
ATOM     46  C   UNL     1     -10.367   0.628  -2.298  1.00  0.00     0.060 A 
BRANCH  46  47
ATOM     47  S   UNL     1     -11.885  -0.020  -3.017  1.00  0.00     0.124 S 
ATOM     48  O   UNL     1     -12.486  -0.692  -1.870  1.00  0.00    -0.237 OA
ATOM     49  O   UNL     1     -12.549   1.200  -3.465  1.00  0.00    -0.237 OA
ATOM     50  O   UNL     1     -11.405  -0.893  -4.083  1.00  0.00    -0.744 OA
ENDBRANCH  46  47
ENDBRANCH  25  39
BRANCH  26  51
ATOM     51  C   UNL     1      -5.993  -5.724   2.941  1.00  0.00     0.058 A 
ATOM     52  C   UNL     1      -7.158  -6.340   3.449  1.00  0.00     0.135 A 
ATOM     53  C   UNL     1      -5.247  -6.492   2.027  1.00  0.00     0.135 A 
ATOM     54  F   UNL     1      -7.947  -5.683   4.314  1.00  0.00    -0.206 F 
ATOM     55  C   UNL     1      -7.586  -7.608   3.028  1.00  0.00     0.059 A 
ATOM     56  C   UNL     1      -5.649  -7.760   1.600  1.00  0.00     0.059 A 
ATOM     57  F   UNL     1      -4.148  -5.992   1.444  1.00  0.00    -0.206 F 
ATOM     58  C   UNL     1      -6.835  -8.301   2.082  1.00  0.00     0.060 A 
BRANCH  58  59
ATOM     59  S   UNL     1      -7.474  -9.848   1.388  1.00  0.00     0.124 S 
ATOM     60  O   UNL     1      -7.346 -10.763   2.517  1.00  0.00    -0.237 OA
ATOM     61  O   UNL     1      -8.836  -9.483   1.015  1.00  0.00    -0.237 OA
ATOM     62  O   UNL     1      -6.575 -10.112   0.267  1.00  0.00    -0.744 OA
ENDBRANCH  58  59
ENDBRANCH  26  51
BRANCH  38  63
ATOM     63  C   UNL     1      -6.695   0.039   5.499  1.00  0.00     0.058 A 
ATOM     64  C   UNL     1      -5.481  -0.501   5.958  1.00  0.00     0.135 A 
ATOM     65  C   UNL     1      -7.408   0.862   6.386  1.00  0.00     0.135 A 
ATOM     66  F   UNL     1      -4.687  -1.214   5.146  1.00  0.00    -0.206 F 
ATOM     67  C   UNL     1      -5.019  -0.262   7.256  1.00  0.00     0.059 A 
ATOM     68  C   UNL     1      -6.949   1.143   7.667  1.00  0.00     0.059 A 
ATOM     69  F   UNL     1      -8.548   1.452   5.987  1.00  0.00    -0.206 F 
ATOM     70  C   UNL     1      -5.760   0.566   8.101  1.00  0.00     0.060 A 
BRANCH  70  71
ATOM     71  S   UNL     1      -5.127   0.941   9.750  1.00  0.00     0.124 S 
ATOM     72  O   UNL     1      -5.290  -0.335  10.438  1.00  0.00    -0.237 OA
ATOM     73  O   UNL     1      -3.750   1.343   9.477  1.00  0.00    -0.237 OA
ATOM     74  O   UNL     1      -6.000   2.017  10.215  1.00  0.00    -0.744 OA
ENDBRANCH  70  71
ENDBRANCH  38  63
ENDBRANCH  12  13
ENDBRANCH   5   7
ENDBRANCH   2   3
ENDBRANCH   1   2
BRANCH   1  75
ATOM     75  C   UNL     1       3.864   1.726   2.923  1.00  0.00     0.117 C 
BRANCH  75  76
ATOM     76  N   UNL     1       5.200   2.266   2.780  1.00  0.00    -0.354 N 
ATOM     77  C   UNL     1       6.058   2.586   3.790  1.00  0.00     0.242 C 
ATOM     78  H   UNL     1       5.521   2.418   1.862  1.00  0.00     0.163 HD
ATOM     79  O   UNL     1       7.208   2.144   3.708  1.00  0.00    -0.273 OA
BRANCH  77  80
ATOM     80  C   UNL     1       5.580   3.302   5.066  1.00  0.00     0.175 C 
ATOM     81  C   UNL     1       6.739   3.498   6.048  1.00  0.00     0.044 C 
ATOM     82  N   UNL     1       4.903   4.596   5.220  1.00  0.00    -0.330 N 
ATOM     83  C   UNL     1       6.074   4.162   7.280  1.00  0.00    -0.006 C 
ATOM     84  C   UNL     1       4.780   4.797   6.678  1.00  0.00     0.127 C 
ATOM     85  C   UNL     1       6.968   5.242   7.914  1.00  0.00     0.030 C 
ATOM     86  C   UNL     1       5.789   3.099   8.363  1.00  0.00     0.030 C 
ATOM     87  C   UNL     1       8.244   4.663   8.524  1.00  0.00     0.120 C 
ATOM     88  C   UNL     1       7.086   2.538   8.971  1.00  0.00     0.120 C 
ATOM     89  N   UNL     1       7.959   3.601   9.482  1.00  0.00    -0.342 N 
ATOM     90  C   UNL     1       8.550   3.384  10.734  1.00  0.00     0.225 C 
ATOM     91  O   UNL     1       8.350   2.341  11.346  1.00  0.00    -0.275 OA
BRANCH  82  92
ATOM     92  C   UNL     1       5.188   5.730   4.458  1.00  0.00     0.225 C 
ATOM     93  O   UNL     1       5.317   6.849   4.964  1.00  0.00    -0.275 OA
BRANCH  92  94
ATOM     94  C   UNL     1       5.220   5.620   2.950  1.00  0.00     0.124 C 
BRANCH  94  95
ATOM     95  C   UNL     1       6.484   6.220   2.344  1.00  0.00     0.154 C 
BRANCH  95  96
ATOM     96  N   UNL     1       7.649   5.364   2.457  1.00  0.00    -0.272 N 
ATOM     97  C   UNL     1       8.674   5.481   3.352  1.00  0.00     0.108 A 
ATOM     98  N   UNL     1       7.821   4.356   1.580  1.00  0.00    -0.182 NA
ATOM     99  C   UNL     1       9.510   4.416   3.113  1.00  0.00     0.042 A 
ATOM    100  C   UNL     1       8.934   3.753   2.012  1.00  0.00     0.135 A 
ENDBRANCH  95  96
ENDBRANCH  94  95
ENDBRANCH  92  94
ENDBRANCH  82  92
BRANCH  90 101
ATOM    101  C   UNL     1       9.409   4.373  11.458  1.00  0.00     0.079 C 
ATOM    102  C   UNL     1      10.284   5.488  10.970  1.00  0.00     0.014 C 
ATOM    103  C   UNL     1       8.966   5.805  11.627  1.00  0.00     0.014 C 
ENDBRANCH  90 101
ENDBRANCH  77  80
ENDBRANCH  75  76
ENDBRANCH   1  75
TORSDOF 18
