REMARK SMILES Cc1cc(CNS(=O)(=O)c2ccc(C(=O)NCCCNC(=O)c3ccc(-c4c5nc(c(-c6c(F)cc(S(=O)(=O)[O-])cc6F)c6ccc([nH]6)c(-c6c(F)cc(S(=O)(=O)[O-])cc6F)c6nc(c(-c7c(F)cc(S(=O)(=O)[O-])cc7F)c7ccc4[nH]7)C=C6)C=C5)cc3)cc2F)no1
REMARK SMILES IDX 17 1 16 2 14 3 15 4 13 6 10 7 11 8 90 9 12 10 89 11 91 12
REMARK SMILES IDX 7 13 8 14 9 15 6 16 5 18 4 19 1 20 2 21 3 22 93 23 92 24
REMARK SMILES IDX 18 25 19 26 20 27 21 28 22 30 23 31 24 32 88 33 25 34 87 35
REMARK SMILES IDX 26 36 27 37 28 38 81 39 29 40 86 41 80 42 82 43 30 44 85 45
REMARK SMILES IDX 79 46 78 47 31 49 65 50 44 51 64 52 45 53 48 54 63 55 83 56
REMARK SMILES IDX 46 57 47 58 62 60 84 61 49 62 32 63 33 64 42 65 34 66 35 67
REMARK SMILES IDX 41 68 43 69 36 70 37 71 38 72 39 73 40 74 66 75 67 76 76 77
REMARK SMILES IDX 68 78 69 79 75 80 77 81 70 82 71 83 72 84 73 85 74 86 50 87
REMARK SMILES IDX 51 88 60 89 52 90 53 91 59 92 61 93 54 94 55 95 56 96 57 97
REMARK SMILES IDX 58 98
REMARK H PARENT 16 5 6 17 20 29 82 48 48 59
REMARK Flexibility Score: inf
ROOT
ATOM      1  C   UNL     1      -8.292   1.560  -3.262  1.00  0.00     0.118 C 
ENDROOT
BRANCH   1   2
ATOM      2  N   UNL     1      -8.361   0.255  -3.894  1.00  0.00    -0.352 N 
ATOM      3  C   UNL     1      -7.911  -0.986  -3.530  1.00  0.00     0.251 C 
ATOM      4  O   UNL     1      -8.199  -1.928  -4.271  1.00  0.00    -0.269 OA
ATOM      5  H   UNL     1      -8.825   0.264  -4.761  1.00  0.00     0.163 HD
BRANCH   3   6
ATOM      6  C   UNL     1      -7.133  -1.270  -2.290  1.00  0.00     0.042 A 
ATOM      7  C   UNL     1      -5.677  -2.026  -0.010  1.00  0.00     0.118 A 
ATOM      8  C   UNL     1      -6.426  -2.983  -0.693  1.00  0.00     0.026 A 
ATOM      9  C   UNL     1      -5.652  -0.715  -0.458  1.00  0.00     0.144 A 
ATOM     10  C   UNL     1      -7.157  -2.598  -1.821  1.00  0.00     0.015 A 
ATOM     11  C   UNL     1      -6.345  -0.341  -1.609  1.00  0.00     0.054 A 
ATOM     12  F   UNL     1      -4.935   0.219   0.182  1.00  0.00    -0.205 F 
BRANCH   7  13
ATOM     13  S   UNL     1      -4.711  -2.494   1.387  1.00  0.00     0.243 S 
ATOM     14  O   UNL     1      -4.411  -3.906   1.242  1.00  0.00    -0.207 OA
ATOM     15  O   UNL     1      -5.383  -1.981   2.556  1.00  0.00    -0.207 OA
BRANCH  13  16
ATOM     16  N   UNL     1      -3.264  -1.676   1.222  1.00  0.00    -0.205 NA
ATOM     17  H   UNL     1      -3.480  -0.679   1.207  1.00  0.00     0.141 HD
BRANCH  16  18
ATOM     18  C   UNL     1      -2.438  -1.960   0.044  1.00  0.00     0.158 C 
BRANCH  18  19
ATOM     19  C   UNL     1      -1.246  -1.063   0.073  1.00  0.00     0.099 A 
ATOM     20  C   UNL     1       2.200   0.189   0.034  1.00  0.00     0.091 C 
ATOM     21  C   UNL     1       0.782  -0.209   0.062  1.00  0.00     0.133 A 
ATOM     22  C   UNL     1       0.122  -1.413   0.019  1.00  0.00     0.073 A 
ATOM     23  O   UNL     1      -0.128   0.798   0.143  1.00  0.00    -0.361 OA
ATOM     24  N   UNL     1      -1.406   0.267   0.149  1.00  0.00    -0.083 NA
ENDBRANCH  18  19
ENDBRANCH  16  18
ENDBRANCH  13  16
ENDBRANCH   7  13
ENDBRANCH   3   6
ENDBRANCH   1   2
BRANCH   1  25
ATOM     25  C   UNL     1      -7.167   2.410  -3.854  1.00  0.00     0.042 C 
BRANCH  25  26
ATOM     26  C   UNL     1      -7.488   2.967  -5.240  1.00  0.00     0.118 C 
BRANCH  26  27
ATOM     27  N   UNL     1      -8.507   4.005  -5.186  1.00  0.00    -0.352 N 
ATOM     28  C   UNL     1      -8.469   5.300  -5.642  1.00  0.00     0.251 C 
ATOM     29  H   UNL     1      -9.351   3.739  -4.756  1.00  0.00     0.163 HD
ATOM     30  O   UNL     1      -9.354   6.080  -5.301  1.00  0.00    -0.269 OA
BRANCH  28  31
ATOM     31  C   UNL     1      -7.377   5.762  -6.527  1.00  0.00     0.039 A 
ATOM     32  C   UNL     1      -6.827   7.030  -6.311  1.00  0.00     0.014 A 
ATOM     33  C   UNL     1      -6.933   4.983  -7.600  1.00  0.00     0.014 A 
ATOM     34  C   UNL     1      -5.801   7.495  -7.138  1.00  0.00     0.010 A 
ATOM     35  C   UNL     1      -5.875   5.426  -8.392  1.00  0.00     0.010 A 
ATOM     36  C   UNL     1      -5.300   6.687  -8.170  1.00  0.00    -0.014 A 
BRANCH  36  37
ATOM     37  C   UNL     1      -4.178   7.140  -9.032  1.00  0.00     0.031 A 
ATOM     38  C   UNL     1      -4.408   7.404 -10.495  1.00  0.00     0.074 A 
ATOM     39  C   UNL     1      -2.941   7.256  -8.510  1.00  0.00     0.049 A 
ATOM     40  N   UNL     1      -3.538   7.694 -11.427  1.00  0.00    -0.248 NA
ATOM     41  C   UNL     1      -5.796   7.308 -10.976  1.00  0.00     0.031 C 
ATOM     42  C   UNL     1      -2.588   7.007  -7.111  1.00  0.00     0.029 A 
ATOM     43  N   UNL     1      -1.749   7.600  -9.097  1.00  0.00    -0.354 N 
ATOM     44  C   UNL     1      -4.266   7.798 -12.606  1.00  0.00     0.074 A 
ATOM     45  C   UNL     1      -5.645   7.506 -12.278  1.00  0.00     0.031 C 
ATOM     46  C   UNL     1      -1.274   7.224  -6.944  1.00  0.00     0.029 A 
ATOM     47  C   UNL     1      -0.683   7.588  -8.229  1.00  0.00     0.049 A 
ATOM     48  H   UNL     1      -1.666   7.834 -10.049  1.00  0.00     0.167 HD
ATOM     49  C   UNL     1      -3.827   8.124 -13.845  1.00  0.00     0.037 A 
ATOM     50  C   UNL     1       0.625   7.832  -8.444  1.00  0.00     0.037 A 
ATOM     51  C   UNL     1      -2.460   8.446 -14.159  1.00  0.00     0.049 A 
ATOM     52  C   UNL     1       1.089   8.188  -9.828  1.00  0.00     0.074 A 
ATOM     53  C   UNL     1      -1.925   8.827 -15.378  1.00  0.00     0.029 A 
ATOM     54  N   UNL     1      -1.413   8.433 -13.249  1.00  0.00    -0.354 N 
ATOM     55  N   UNL     1       0.384   8.299 -10.928  1.00  0.00    -0.248 NA
ATOM     56  C   UNL     1       2.525   8.451 -10.004  1.00  0.00     0.031 C 
ATOM     57  C   UNL     1      -0.549   9.019 -15.210  1.00  0.00     0.029 A 
ATOM     58  C   UNL     1      -0.234   8.790 -13.880  1.00  0.00     0.049 A 
ATOM     59  H   UNL     1      -1.497   8.204 -12.296  1.00  0.00     0.167 HD
ATOM     60  C   UNL     1       1.285   8.660 -11.923  1.00  0.00     0.074 A 
ATOM     61  C   UNL     1       2.586   8.757 -11.294  1.00  0.00     0.031 C 
ATOM     62  C   UNL     1       1.053   8.889 -13.238  1.00  0.00     0.037 A 
BRANCH  49  63
ATOM     63  C   UNL     1      -4.837   8.162 -14.957  1.00  0.00     0.058 A 
ATOM     64  C   UNL     1      -4.836   7.178 -15.958  1.00  0.00     0.135 A 
ATOM     65  C   UNL     1      -5.774   9.202 -15.060  1.00  0.00     0.135 A 
ATOM     66  F   UNL     1      -3.964   6.159 -15.905  1.00  0.00    -0.206 F 
ATOM     67  C   UNL     1      -5.724   7.228 -17.028  1.00  0.00     0.059 A 
ATOM     68  C   UNL     1      -6.687   9.260 -16.110  1.00  0.00     0.059 A 
ATOM     69  F   UNL     1      -5.830  10.156 -14.117  1.00  0.00    -0.206 F 
ATOM     70  C   UNL     1      -6.645   8.274 -17.096  1.00  0.00     0.060 A 
BRANCH  70  71
ATOM     71  S   UNL     1      -7.824   8.303 -18.464  1.00  0.00     0.124 S 
ATOM     72  O   UNL     1      -6.979   8.718 -19.578  1.00  0.00    -0.237 OA
ATOM     73  O   UNL     1      -8.290   6.920 -18.498  1.00  0.00    -0.237 OA
ATOM     74  O   UNL     1      -8.820   9.278 -18.029  1.00  0.00    -0.744 OA
ENDBRANCH  70  71
ENDBRANCH  49  63
BRANCH  50  75
ATOM     75  C   UNL     1       1.578   7.767  -7.307  1.00  0.00     0.058 A 
ATOM     76  C   UNL     1       1.943   6.543  -6.729  1.00  0.00     0.135 A 
ATOM     77  C   UNL     1       2.105   8.940  -6.747  1.00  0.00     0.135 A 
ATOM     78  F   UNL     1       1.458   5.393  -7.223  1.00  0.00    -0.206 F 
ATOM     79  C   UNL     1       2.777   6.484  -5.617  1.00  0.00     0.059 A 
ATOM     80  C   UNL     1       2.957   8.906  -5.647  1.00  0.00     0.059 A 
ATOM     81  F   UNL     1       1.793  10.133  -7.276  1.00  0.00    -0.206 F 
ATOM     82  C   UNL     1       3.272   7.672  -5.078  1.00  0.00     0.060 A 
BRANCH  82  83
ATOM     83  S   UNL     1       4.334   7.578  -3.620  1.00  0.00     0.124 S 
ATOM     84  O   UNL     1       3.372   7.221  -2.583  1.00  0.00    -0.237 OA
ATOM     85  O   UNL     1       5.279   6.531  -3.995  1.00  0.00    -0.237 OA
ATOM     86  O   UNL     1       4.895   8.922  -3.525  1.00  0.00    -0.744 OA
ENDBRANCH  82  83
ENDBRANCH  50  75
BRANCH  62  87
ATOM     87  C   UNL     1       2.221   9.286 -14.094  1.00  0.00     0.058 A 
ATOM     88  C   UNL     1       2.353  10.608 -14.547  1.00  0.00     0.135 A 
ATOM     89  C   UNL     1       3.155   8.339 -14.541  1.00  0.00     0.135 A 
ATOM     90  F   UNL     1       1.484  11.550 -14.148  1.00  0.00    -0.206 F 
ATOM     91  C   UNL     1       3.359  10.973 -15.434  1.00  0.00     0.059 A 
ATOM     92  C   UNL     1       4.181   8.687 -15.414  1.00  0.00     0.059 A 
ATOM     93  F   UNL     1       3.076   7.066 -14.124  1.00  0.00    -0.206 F 
ATOM     94  C   UNL     1       4.263  10.003 -15.870  1.00  0.00     0.060 A 
BRANCH  94  95
ATOM     95  S   UNL     1       5.557  10.489 -17.031  1.00  0.00     0.124 S 
ATOM     96  O   UNL     1       4.802  10.652 -18.268  1.00  0.00    -0.237 OA
ATOM     97  O   UNL     1       6.066  11.719 -16.431  1.00  0.00    -0.237 OA
ATOM     98  O   UNL     1       6.480   9.359 -17.001  1.00  0.00    -0.744 OA
ENDBRANCH  94  95
ENDBRANCH  62  87
ENDBRANCH  36  37
ENDBRANCH  28  31
ENDBRANCH  26  27
ENDBRANCH  25  26
ENDBRANCH   1  25
TORSDOF 17
