REMARK SMILES O=C(NCCCNC(=O)[C@H]1CCCCN1c1cc(-c2ccccc2)nc(-c2cccc(Cl)c2)n1)c1ccc(-c2c3nc(c(-c4c(F)cc(S(=O)(=O)[O-])cc4F)c4ccc([nH]4)c(-c4c(F)cc(S(=O)(=O)[O-])cc4F)c4nc(c(-c5c(F)cc(S(=O)(=O)[O-])cc5F)c5ccc2[nH]5)C=C4)C=C3)cc1
REMARK SMILES IDX 4 1 3 2 1 3 2 4 35 6 36 7 100 8 37 9 99 10 38 11 39 12 40 13
REMARK SMILES IDX 93 14 41 15 98 16 92 17 94 18 42 19 97 20 91 21 90 22 43 24
REMARK SMILES IDX 77 25 56 26 76 27 57 28 60 29 75 30 95 31 58 32 59 33 74 35
REMARK SMILES IDX 96 36 61 37 44 38 45 39 54 40 46 41 47 42 53 43 55 44 48 45
REMARK SMILES IDX 49 46 50 47 51 48 52 49 78 50 79 51 88 52 80 53 81 54 87 55
REMARK SMILES IDX 89 56 82 57 83 58 84 59 85 60 86 61 62 62 63 63 72 64 64 65
REMARK SMILES IDX 65 66 71 67 73 68 66 69 67 70 68 71 69 72 70 73 5 74 6 75
REMARK SMILES IDX 7 76 8 77 9 79 10 80 11 81 15 82 12 83 14 84 13 85 16 86
REMARK SMILES IDX 17 87 34 88 18 89 26 90 25 91 19 92 20 93 24 94 21 95 23 96
REMARK SMILES IDX 22 97 27 98 28 99 33 100 29 101 31 102 30 103 32 104
REMARK H PARENT 3 5 94 23 60 34 7 78
REMARK Flexibility Score: inf
ROOT
ATOM      1  C   UNL     1       8.911   4.054  -2.155  1.00  0.00     0.118 C 
ENDROOT
BRANCH   1   2
ATOM      2  N   UNL     1       9.569   5.041  -3.005  1.00  0.00    -0.352 N 
ATOM      3  O   UNL     1      11.306   6.001  -4.069  1.00  0.00    -0.269 OA
ATOM      4  C   UNL     1      10.784   4.977  -3.646  1.00  0.00     0.251 C 
ATOM      5  H   UNL     1       9.067   5.878  -3.140  1.00  0.00     0.163 HD
BRANCH   4   6
ATOM      6  C   UNL     1      11.449   3.667  -3.811  1.00  0.00     0.039 A 
ATOM      7  C   UNL     1      10.683   2.541  -4.107  1.00  0.00     0.014 A 
ATOM      8  C   UNL     1      12.838   3.561  -3.704  1.00  0.00     0.014 A 
ATOM      9  C   UNL     1      11.268   1.288  -4.110  1.00  0.00     0.010 A 
ATOM     10  C   UNL     1      13.449   2.312  -3.858  1.00  0.00     0.010 A 
ATOM     11  C   UNL     1      12.663   1.166  -4.051  1.00  0.00    -0.014 A 
BRANCH  11  12
ATOM     12  C   UNL     1      13.252  -0.158  -4.361  1.00  0.00     0.031 A 
ATOM     13  C   UNL     1      14.064  -0.915  -3.354  1.00  0.00     0.074 A 
ATOM     14  C   UNL     1      12.989  -0.679  -5.578  1.00  0.00     0.049 A 
ATOM     15  N   UNL     1      14.629  -2.087  -3.480  1.00  0.00    -0.248 NA
ATOM     16  C   UNL     1      14.282  -0.282  -2.043  1.00  0.00     0.031 C 
ATOM     17  C   UNL     1      12.221  -0.004  -6.634  1.00  0.00     0.029 A 
ATOM     18  N   UNL     1      13.304  -1.891  -6.132  1.00  0.00    -0.354 N 
ATOM     19  C   UNL     1      15.294  -2.322  -2.284  1.00  0.00     0.074 A 
ATOM     20  C   UNL     1      15.066  -1.169  -1.440  1.00  0.00     0.031 C 
ATOM     21  C   UNL     1      12.075  -0.831  -7.676  1.00  0.00     0.029 A 
ATOM     22  C   UNL     1      12.817  -2.053  -7.408  1.00  0.00     0.049 A 
ATOM     23  H   UNL     1      13.828  -2.579  -5.662  1.00  0.00     0.167 HD
ATOM     24  C   UNL     1      16.026  -3.406  -1.936  1.00  0.00     0.037 A 
ATOM     25  C   UNL     1      12.983  -3.057  -8.287  1.00  0.00     0.037 A 
ATOM     26  C   UNL     1      16.212  -4.556  -2.786  1.00  0.00     0.049 A 
ATOM     27  C   UNL     1      13.812  -4.234  -7.871  1.00  0.00     0.074 A 
ATOM     28  C   UNL     1      16.882  -5.733  -2.503  1.00  0.00     0.029 A 
ATOM     29  N   UNL     1      15.734  -4.671  -4.084  1.00  0.00    -0.354 N 
ATOM     30  N   UNL     1      14.395  -4.458  -6.717  1.00  0.00    -0.248 NA
ATOM     31  C   UNL     1      14.022  -5.284  -8.873  1.00  0.00     0.031 C 
ATOM     32  C   UNL     1      16.855  -6.537  -3.647  1.00  0.00     0.029 A 
ATOM     33  C   UNL     1      16.127  -5.883  -4.628  1.00  0.00     0.049 A 
ATOM     34  H   UNL     1      15.195  -3.991  -4.550  1.00  0.00     0.167 HD
ATOM     35  C   UNL     1      15.046  -5.675  -6.856  1.00  0.00     0.074 A 
ATOM     36  C   UNL     1      14.752  -6.155  -8.192  1.00  0.00     0.031 C 
ATOM     37  C   UNL     1      15.827  -6.332  -5.964  1.00  0.00     0.037 A 
BRANCH  24  38
ATOM     38  C   UNL     1      16.708  -3.413  -0.596  1.00  0.00     0.058 A 
ATOM     39  C   UNL     1      16.000  -3.629   0.596  1.00  0.00     0.135 A 
ATOM     40  C   UNL     1      18.107  -3.310  -0.517  1.00  0.00     0.135 A 
ATOM     41  F   UNL     1      14.661  -3.717   0.581  1.00  0.00    -0.206 F 
ATOM     42  C   UNL     1      16.656  -3.749   1.818  1.00  0.00     0.059 A 
ATOM     43  C   UNL     1      18.785  -3.447   0.691  1.00  0.00     0.059 A 
ATOM     44  F   UNL     1      18.831  -3.097  -1.627  1.00  0.00    -0.206 F 
ATOM     45  C   UNL     1      18.050  -3.666   1.854  1.00  0.00     0.060 A 
BRANCH  45  46
ATOM     46  S   UNL     1      18.887  -3.882   3.439  1.00  0.00     0.124 S 
ATOM     47  O   UNL     1      18.543  -2.639   4.123  1.00  0.00    -0.237 OA
ATOM     48  O   UNL     1      18.256  -5.089   3.963  1.00  0.00    -0.237 OA
ATOM     49  O   UNL     1      20.292  -4.024   3.067  1.00  0.00    -0.744 OA
ENDBRANCH  45  46
ENDBRANCH  24  38
BRANCH  25  50
ATOM     50  C   UNL     1      12.410  -2.952  -9.654  1.00  0.00     0.058 A 
ATOM     51  C   UNL     1      11.388  -3.808 -10.086  1.00  0.00     0.135 A 
ATOM     52  C   UNL     1      12.878  -1.983 -10.558  1.00  0.00     0.135 A 
ATOM     53  F   UNL     1      10.907  -4.749  -9.260  1.00  0.00    -0.206 F 
ATOM     54  C   UNL     1      10.869  -3.728 -11.374  1.00  0.00     0.059 A 
ATOM     55  C   UNL     1      12.352  -1.861 -11.838  1.00  0.00     0.059 A 
ATOM     56  F   UNL     1      13.839  -1.123 -10.187  1.00  0.00    -0.206 F 
ATOM     57  C   UNL     1      11.361  -2.752 -12.244  1.00  0.00     0.060 A 
BRANCH  57  58
ATOM     58  S   UNL     1      10.676  -2.644 -13.911  1.00  0.00     0.124 S 
ATOM     59  O   UNL     1      11.324  -3.775 -14.564  1.00  0.00    -0.237 OA
ATOM     60  O   UNL     1       9.244  -2.780 -13.666  1.00  0.00    -0.237 OA
ATOM     61  O   UNL     1      11.104  -1.323 -14.362  1.00  0.00    -0.744 OA
ENDBRANCH  57  58
ENDBRANCH  25  50
BRANCH  37  62
ATOM     62  C   UNL     1      16.411  -7.638  -6.413  1.00  0.00     0.058 A 
ATOM     63  C   UNL     1      17.465  -7.686  -7.339  1.00  0.00     0.135 A 
ATOM     64  C   UNL     1      15.934  -8.851  -5.892  1.00  0.00     0.135 A 
ATOM     65  F   UNL     1      17.945  -6.552  -7.875  1.00  0.00    -0.206 F 
ATOM     66  C   UNL     1      18.012  -8.894  -7.751  1.00  0.00     0.059 A 
ATOM     67  C   UNL     1      16.485 -10.070  -6.269  1.00  0.00     0.059 A 
ATOM     68  F   UNL     1      14.931  -8.856  -5.000  1.00  0.00    -0.206 F 
ATOM     69  C   UNL     1      17.516 -10.082  -7.208  1.00  0.00     0.060 A 
BRANCH  69  70
ATOM     70  S   UNL     1      18.256 -11.643  -7.728  1.00  0.00     0.124 S 
ATOM     71  O   UNL     1      17.703 -11.797  -9.070  1.00  0.00    -0.237 OA
ATOM     72  O   UNL     1      19.684 -11.350  -7.660  1.00  0.00    -0.237 OA
ATOM     73  O   UNL     1      17.770 -12.596  -6.735  1.00  0.00    -0.744 OA
ENDBRANCH  69  70
ENDBRANCH  37  62
ENDBRANCH  11  12
ENDBRANCH   4   6
ENDBRANCH   1   2
BRANCH   1  74
ATOM     74  C   UNL     1       9.162   4.326  -0.683  1.00  0.00     0.042 C 
BRANCH  74  75
ATOM     75  C   UNL     1       8.465   5.588  -0.217  1.00  0.00     0.117 C 
BRANCH  75  76
ATOM     76  N   UNL     1       7.030   5.407  -0.155  1.00  0.00    -0.354 N 
ATOM     77  C   UNL     1       6.097   5.537   0.813  1.00  0.00     0.242 C 
ATOM     78  H   UNL     1       6.646   5.125  -1.017  1.00  0.00     0.163 HD
ATOM     79  O   UNL     1       4.956   5.194   0.458  1.00  0.00    -0.273 OA
BRANCH  77  80
ATOM     80  C   UNL     1       6.327   6.090   2.253  1.00  0.00     0.173 C 
ATOM     81  C   UNL     1       7.668   6.678   2.694  1.00  0.00     0.035 C 
ATOM     82  N   UNL     1       5.296   7.124   2.480  1.00  0.00    -0.344 N 
ATOM     83  C   UNL     1       7.966   8.026   2.029  1.00  0.00     0.004 C 
ATOM     84  C   UNL     1       5.480   8.408   1.817  1.00  0.00     0.119 C 
ATOM     85  C   UNL     1       6.819   9.013   2.244  1.00  0.00     0.022 C 
BRANCH  82  86
ATOM     86  C   UNL     1       4.569   7.063   3.651  1.00  0.00     0.133 A 
ATOM     87  C   UNL     1       3.226   7.357   3.629  1.00  0.00     0.076 A 
ATOM     88  N   UNL     1       5.181   6.681   4.780  1.00  0.00    -0.211 NA
ATOM     89  C   UNL     1       2.528   7.228   4.812  1.00  0.00     0.076 A 
ATOM     90  C   UNL     1       4.432   6.596   5.891  1.00  0.00     0.162 A 
ATOM     91  N   UNL     1       3.117   6.859   5.965  1.00  0.00    -0.228 NA
BRANCH  89  92
ATOM     92  C   UNL     1       1.087   7.489   4.867  1.00  0.00     0.000 A 
ATOM     93  C   UNL     1       0.569   8.478   5.717  1.00  0.00     0.010 A 
ATOM     94  C   UNL     1       0.195   6.783   4.042  1.00  0.00     0.010 A 
ATOM     95  C   UNL     1      -0.797   8.769   5.725  1.00  0.00     0.001 A 
ATOM     96  C   UNL     1      -1.172   7.066   4.056  1.00  0.00     0.001 A 
ATOM     97  C   UNL     1      -1.666   8.064   4.893  1.00  0.00     0.000 A 
ENDBRANCH  89  92
BRANCH  90  98
ATOM     98  C   UNL     1       5.114   6.173   7.116  1.00  0.00     0.021 A 
ATOM     99  C   UNL     1       6.311   6.789   7.529  1.00  0.00     0.012 A 
ATOM    100  C   UNL     1       4.601   5.128   7.901  1.00  0.00     0.032 A 
ATOM    101  C   UNL     1       6.969   6.383   8.693  1.00  0.00     0.002 A 
ATOM    102  C   UNL     1       5.270   4.713   9.053  1.00  0.00     0.041 A 
ATOM    103  C   UNL     1       6.448   5.339   9.454  1.00  0.00     0.020 A 
ATOM    104  Cl  UNL     1       4.639   3.409   9.983  1.00  0.00    -0.084 Cl
ENDBRANCH  90  98
ENDBRANCH  82  86
ENDBRANCH  77  80
ENDBRANCH  75  76
ENDBRANCH  74  75
ENDBRANCH   1  74
TORSDOF 16
