REMARK SMILES O=C1NC(=O)/C(=C/c2ccc(OCc3cn(-c4ccc(C(=O)NCCCNC(=O)c5ccc(-c6c7nc(c(-c8c(F)cc(S(=O)(=O)[O-])cc8F)c8ccc([nH]8)c(-c8c(F)cc(S(=O)(=O)[O-])cc8F)c8nc(c(-c9c(F)cc(S(=O)(=O)[O-])cc9F)c9ccc6[nH]9)C=C8)C=C7)cc5)cc4)nn3)cc2)S1
REMARK SMILES IDX 24 1 23 2 21 3 22 4 20 6 17 7 18 8 97 9 19 10 96 11 16 12
REMARK SMILES IDX 14 13 15 14 99 15 98 16 13 17 12 18 11 19 8 20 9 21 101 22
REMARK SMILES IDX 10 23 100 24 7 25 1 26 2 27 3 28 102 29 4 30 6 32 5 33 25 34
REMARK SMILES IDX 26 35 27 36 28 37 29 39 30 40 31 41 95 42 32 43 94 44 33 45
REMARK SMILES IDX 34 46 35 47 88 48 36 49 93 50 87 51 89 52 37 53 92 54 86 55
REMARK SMILES IDX 85 56 38 58 72 59 51 60 71 61 52 62 55 63 70 64 90 65 53 66
REMARK SMILES IDX 54 67 69 69 91 70 56 71 39 72 40 73 49 74 41 75 42 76 48 77
REMARK SMILES IDX 50 78 43 79 44 80 45 81 46 82 47 83 73 84 74 85 83 86 75 87
REMARK SMILES IDX 76 88 82 89 84 90 77 91 78 92 79 93 80 94 81 95 57 96 58 97
REMARK SMILES IDX 67 98 59 99 60 100 66 101 68 102 61 103 62 104 63 105 64 106
REMARK SMILES IDX 65 107
REMARK H PARENT 23 5 3 31 27 38 89 57 55 68
REMARK Flexibility Score: inf
ROOT
ATOM      1  C   UNL     1      -7.433  10.675  -0.942  1.00  0.00     0.118 C 
ENDROOT
BRANCH   1   2
ATOM      2  N   UNL     1      -8.172   9.729  -0.120  1.00  0.00    -0.352 N 
ATOM      3  C   UNL     1      -7.765   8.670   0.655  1.00  0.00     0.251 C 
ATOM      4  O   UNL     1      -8.611   8.095   1.336  1.00  0.00    -0.269 OA
ATOM      5  H   UNL     1      -9.146   9.874  -0.120  1.00  0.00     0.163 HD
BRANCH   3   6
ATOM      6  C   UNL     1      -6.341   8.242   0.756  1.00  0.00     0.039 A 
ATOM      7  C   UNL     1      -3.651   7.580   1.161  1.00  0.00     0.066 A 
ATOM      8  C   UNL     1      -4.616   7.157   2.083  1.00  0.00     0.029 A 
ATOM      9  C   UNL     1      -4.029   8.251   0.004  1.00  0.00     0.029 A 
ATOM     10  C   UNL     1      -5.953   7.518   1.892  1.00  0.00     0.016 A 
ATOM     11  C   UNL     1      -5.374   8.519  -0.213  1.00  0.00     0.016 A 
BRANCH   7  12
ATOM     12  N   UNL     1      -2.291   7.320   1.389  1.00  0.00    -0.220 N 
ATOM     13  C   UNL     1      -0.112   7.348   1.414  1.00  0.00     0.120 A 
ATOM     14  C   UNL     1      -1.205   8.046   0.952  1.00  0.00     0.144 A 
ATOM     15  N   UNL     1      -0.561   6.275   2.139  1.00  0.00    -0.131 NA
ATOM     16  N   UNL     1      -1.881   6.287   2.148  1.00  0.00    -0.062 NA
BRANCH  13  17
ATOM     17  C   UNL     1       1.346   7.656   1.341  1.00  0.00     0.289 C 
BRANCH  17  18
ATOM     18  O   UNL     1       2.078   6.985   0.300  1.00  0.00    -0.487 OA
BRANCH  18  19
ATOM     19  C   UNL     1       2.199   5.623   0.360  1.00  0.00     0.119 A 
ATOM     20  C   UNL     1       2.220   2.822   0.122  1.00  0.00    -0.024 A 
ATOM     21  C   UNL     1       2.689   3.620  -0.925  1.00  0.00     0.012 A 
ATOM     22  C   UNL     1       1.836   3.431   1.318  1.00  0.00     0.012 A 
ATOM     23  C   UNL     1       2.669   5.015  -0.806  1.00  0.00     0.047 A 
ATOM     24  C   UNL     1       1.864   4.820   1.447  1.00  0.00     0.047 A 
BRANCH  20  25
ATOM     25  C   UNL     1       2.147   1.366  -0.014  1.00  0.00     0.029 C 
ATOM     26  O   UNL     1      -2.444  -0.718   0.027  1.00  0.00    -0.261 OA
ATOM     27  C   UNL     1      -1.249  -0.434  -0.002  1.00  0.00     0.290 C 
ATOM     28  N   UNL     1      -0.234  -1.324  -0.051  1.00  0.00    -0.282 N 
ATOM     29  S   UNL     1      -0.616   1.196   0.015  1.00  0.00    -0.022 SA
ATOM     30  C   UNL     1       1.042  -0.843  -0.080  1.00  0.00     0.265 C 
ATOM     31  H   UNL     1      -0.410  -2.293  -0.065  1.00  0.00     0.174 HD
ATOM     32  C   UNL     1       1.018   0.643  -0.032  1.00  0.00     0.083 C 
ATOM     33  O   UNL     1       2.047  -1.531  -0.120  1.00  0.00    -0.268 OA
ENDBRANCH  20  25
ENDBRANCH  18  19
ENDBRANCH  17  18
ENDBRANCH  13  17
ENDBRANCH   7  12
ENDBRANCH   3   6
ENDBRANCH   1   2
BRANCH   1  34
ATOM     34  C   UNL     1      -7.320  10.208  -2.402  1.00  0.00     0.042 C 
BRANCH  34  35
ATOM     35  C   UNL     1      -8.529  10.613  -3.214  1.00  0.00     0.118 C 
BRANCH  35  36
ATOM     36  N   UNL     1      -8.580  12.063  -3.465  1.00  0.00    -0.352 N 
ATOM     37  C   UNL     1      -9.566  12.792  -4.117  1.00  0.00     0.251 C 
ATOM     38  H   UNL     1      -7.816  12.583  -3.126  1.00  0.00     0.163 HD
ATOM     39  O   UNL     1      -9.336  13.911  -4.557  1.00  0.00    -0.269 OA
BRANCH  37  40
ATOM     40  C   UNL     1     -10.896  12.176  -4.250  1.00  0.00     0.039 A 
ATOM     41  C   UNL     1     -11.707  12.280  -5.382  1.00  0.00     0.014 A 
ATOM     42  C   UNL     1     -11.270  11.373  -3.190  1.00  0.00     0.014 A 
ATOM     43  C   UNL     1     -12.873  11.515  -5.418  1.00  0.00     0.010 A 
ATOM     44  C   UNL     1     -12.123  10.352  -3.434  1.00  0.00     0.010 A 
ATOM     45  C   UNL     1     -13.066  10.551  -4.418  1.00  0.00    -0.014 A 
BRANCH  45  46
ATOM     46  C   UNL     1     -14.222   9.682  -4.316  1.00  0.00     0.031 A 
ATOM     47  C   UNL     1     -14.431   8.810  -5.490  1.00  0.00     0.074 A 
ATOM     48  C   UNL     1     -14.846   9.482  -3.130  1.00  0.00     0.049 A 
ATOM     49  N   UNL     1     -15.342   8.922  -6.396  1.00  0.00    -0.248 NA
ATOM     50  C   UNL     1     -13.395   7.811  -5.804  1.00  0.00     0.031 C 
ATOM     51  C   UNL     1     -14.518  10.012  -1.793  1.00  0.00     0.029 A 
ATOM     52  N   UNL     1     -15.864   8.630  -2.854  1.00  0.00    -0.354 N 
ATOM     53  C   UNL     1     -15.154   7.839  -7.245  1.00  0.00     0.074 A 
ATOM     54  C   UNL     1     -13.825   7.351  -6.981  1.00  0.00     0.031 C 
ATOM     55  C   UNL     1     -15.148   9.286  -0.843  1.00  0.00     0.029 A 
ATOM     56  C   UNL     1     -16.057   8.370  -1.498  1.00  0.00     0.049 A 
ATOM     57  H   UNL     1     -16.423   8.226  -3.557  1.00  0.00     0.167 HD
ATOM     58  C   UNL     1     -16.203   7.262  -7.895  1.00  0.00     0.037 A 
ATOM     59  C   UNL     1     -16.882   7.417  -0.992  1.00  0.00     0.037 A 
ATOM     60  C   UNL     1     -17.386   8.086  -7.810  1.00  0.00     0.049 A 
ATOM     61  C   UNL     1     -17.866   7.110  -2.075  1.00  0.00     0.074 A 
ATOM     62  C   UNL     1     -17.678   9.391  -8.164  1.00  0.00     0.029 A 
ATOM     63  N   UNL     1     -18.351   7.730  -6.893  1.00  0.00    -0.354 N 
ATOM     64  N   UNL     1     -18.726   7.988  -2.531  1.00  0.00    -0.248 NA
ATOM     65  C   UNL     1     -17.526   6.037  -3.000  1.00  0.00     0.031 C 
ATOM     66  C   UNL     1     -18.440   9.902  -7.071  1.00  0.00     0.029 A 
ATOM     67  C   UNL     1     -18.650   8.859  -6.167  1.00  0.00     0.049 A 
ATOM     68  H   UNL     1     -18.750   6.838  -6.779  1.00  0.00     0.167 HD
ATOM     69  C   UNL     1     -18.723   7.818  -3.911  1.00  0.00     0.074 A 
ATOM     70  C   UNL     1     -17.996   6.566  -4.134  1.00  0.00     0.031 C 
ATOM     71  C   UNL     1     -19.026   8.842  -4.768  1.00  0.00     0.037 A 
BRANCH  58  72
ATOM     72  C   UNL     1     -16.269   5.806  -8.276  1.00  0.00     0.058 A 
ATOM     73  C   UNL     1     -17.278   5.373  -9.158  1.00  0.00     0.135 A 
ATOM     74  C   UNL     1     -15.556   4.782  -7.612  1.00  0.00     0.135 A 
ATOM     75  F   UNL     1     -18.021   6.264  -9.835  1.00  0.00    -0.206 F 
ATOM     76  C   UNL     1     -17.603   4.026  -9.315  1.00  0.00     0.059 A 
ATOM     77  C   UNL     1     -15.824   3.432  -7.797  1.00  0.00     0.059 A 
ATOM     78  F   UNL     1     -14.637   5.041  -6.675  1.00  0.00    -0.206 F 
ATOM     79  C   UNL     1     -16.878   3.064  -8.617  1.00  0.00     0.060 A 
BRANCH  79  80
ATOM     80  S   UNL     1     -17.366   1.336  -8.731  1.00  0.00     0.124 S 
ATOM     81  O   UNL     1     -18.647   1.350  -8.034  1.00  0.00    -0.237 OA
ATOM     82  O   UNL     1     -17.425   1.135 -10.175  1.00  0.00    -0.237 OA
ATOM     83  O   UNL     1     -16.282   0.635  -8.050  1.00  0.00    -0.744 OA
ENDBRANCH  79  80
ENDBRANCH  58  72
BRANCH  59  84
ATOM     84  C   UNL     1     -16.590   6.500   0.148  1.00  0.00     0.058 A 
ATOM     85  C   UNL     1     -17.588   5.681   0.708  1.00  0.00     0.135 A 
ATOM     86  C   UNL     1     -15.265   6.207   0.538  1.00  0.00     0.135 A 
ATOM     87  F   UNL     1     -18.875   5.873   0.383  1.00  0.00    -0.206 F 
ATOM     88  C   UNL     1     -17.287   4.609   1.561  1.00  0.00     0.059 A 
ATOM     89  C   UNL     1     -14.942   5.151   1.391  1.00  0.00     0.059 A 
ATOM     90  F   UNL     1     -14.227   6.885   0.026  1.00  0.00    -0.206 F 
ATOM     91  C   UNL     1     -15.956   4.338   1.880  1.00  0.00     0.060 A 
BRANCH  91  92
ATOM     92  S   UNL     1     -15.545   2.853   2.830  1.00  0.00     0.124 S 
ATOM     93  O   UNL     1     -16.076   3.180   4.149  1.00  0.00    -0.237 OA
ATOM     94  O   UNL     1     -16.257   1.811   2.097  1.00  0.00    -0.237 OA
ATOM     95  O   UNL     1     -14.089   2.785   2.743  1.00  0.00    -0.744 OA
ENDBRANCH  91  92
ENDBRANCH  59  84
BRANCH  71  96
ATOM     96  C   UNL     1     -19.576  10.133  -4.204  1.00  0.00     0.058 A 
ATOM     97  C   UNL     1     -18.872  10.989  -3.335  1.00  0.00     0.135 A 
ATOM     98  C   UNL     1     -20.790  10.617  -4.715  1.00  0.00     0.135 A 
ATOM     99  F   UNL     1     -17.656  10.662  -2.885  1.00  0.00    -0.206 F 
ATOM    100  C   UNL     1     -19.366  12.242  -2.961  1.00  0.00     0.059 A 
ATOM    101  C   UNL     1     -21.290  11.875  -4.380  1.00  0.00     0.059 A 
ATOM    102  F   UNL     1     -21.483   9.886  -5.603  1.00  0.00    -0.206 F 
ATOM    103  C   UNL     1     -20.579  12.678  -3.491  1.00  0.00     0.060 A 
BRANCH 103 104
ATOM    104  S   UNL     1     -21.190  14.322  -3.057  1.00  0.00     0.124 S 
ATOM    105  O   UNL     1     -21.547  14.156  -1.652  1.00  0.00    -0.237 OA
ATOM    106  O   UNL     1     -20.032  15.171  -3.321  1.00  0.00    -0.237 OA
ATOM    107  O   UNL     1     -22.316  14.518  -3.967  1.00  0.00    -0.744 OA
ENDBRANCH 103 104
ENDBRANCH  71  96
ENDBRANCH  45  46
ENDBRANCH  37  40
ENDBRANCH  35  36
ENDBRANCH  34  35
ENDBRANCH   1  34
TORSDOF 18
