REMARK SMILES CCc1ccc(C(=O)NCCCNC(=O)c2ccc(-c3c4nc(c(-c5c(F)cc(S(=O)(=O)[O-])cc5F)c5ccc([nH]5)c(-c5c(F)cc(S(=O)(=O)[O-])cc5F)c5nc(c(-c6c(F)cc(S(=O)(=O)[O-])cc6F)c6ccc3[nH]6)C=C5)C=C4)cc2)cc1S(=O)(=O)Nc1ccc(F)c(F)c1F
REMARK SMILES IDX 11 1 10 2 9 3 7 4 8 5 6 7 3 8 4 9 83 10 5 11 82 12 2 13 1 14
REMARK SMILES IDX 84 15 85 16 86 17 87 18 88 20 89 21 95 22 90 23 93 24 96 25
REMARK SMILES IDX 91 26 94 27 92 28 12 29 13 30 14 31 15 33 16 34 17 35 81 36
REMARK SMILES IDX 18 37 80 38 19 39 20 40 21 41 74 42 22 43 79 44 73 45 75 46
REMARK SMILES IDX 23 47 78 48 72 49 71 50 24 52 58 53 37 54 57 55 38 56 41 57
REMARK SMILES IDX 56 58 76 59 39 60 40 61 55 63 77 64 42 65 25 66 26 67 35 68
REMARK SMILES IDX 27 69 28 70 34 71 36 72 29 73 30 74 31 75 32 76 33 77 59 78
REMARK SMILES IDX 60 79 69 80 61 81 62 82 68 83 70 84 63 85 64 86 65 87 66 88
REMARK SMILES IDX 67 89 43 90 44 91 53 92 45 93 46 94 52 95 54 96 47 97 48 98
REMARK SMILES IDX 49 99 50 100 51 101
REMARK H PARENT 9 6 87 19 13 32 75 51 41 62
REMARK Flexibility Score: inf
ROOT
ATOM      1  C   UNL     1       0.622   4.810   5.383  1.00  0.00     0.042 C 
ENDROOT
BRANCH   1   2
ATOM      2  C   UNL     1       1.776   3.813   5.427  1.00  0.00     0.118 C 
BRANCH   2   3
ATOM      3  N   UNL     1       1.527   2.796   6.439  1.00  0.00    -0.352 N 
ATOM      4  C   UNL     1       1.145   1.484   6.340  1.00  0.00     0.251 C 
ATOM      5  O   UNL     1       0.977   0.831   7.366  1.00  0.00    -0.269 OA
ATOM      6  H   UNL     1       1.657   3.108   7.363  1.00  0.00     0.163 HD
BRANCH   4   7
ATOM      7  C   UNL     1       1.092   0.804   5.027  1.00  0.00     0.041 A 
ATOM      8  C   UNL     1       1.612  -0.338   2.506  1.00  0.00    -0.028 A 
ATOM      9  C   UNL     1       1.989  -0.988   3.701  1.00  0.00     0.006 A 
ATOM     10  C   UNL     1       0.763   0.785   2.611  1.00  0.00     0.091 A 
ATOM     11  C   UNL     1       1.741  -0.422   4.946  1.00  0.00     0.014 A 
ATOM     12  C   UNL     1       0.511   1.347   3.883  1.00  0.00     0.036 A 
BRANCH   8  13
ATOM     13  C   UNL     1       2.256  -0.899   1.264  1.00  0.00     0.033 C 
ATOM     14  C   UNL     1       3.064   0.107   0.455  1.00  0.00     0.009 C 
ENDBRANCH   8  13
BRANCH  10  15
ATOM     15  S   UNL     1      -0.023   1.694   1.282  1.00  0.00     0.262 S 
ATOM     16  O   UNL     1      -1.411   1.891   1.634  1.00  0.00    -0.201 OA
ATOM     17  O   UNL     1       0.838   2.837   1.048  1.00  0.00    -0.201 OA
BRANCH  15  18
ATOM     18  N   UNL     1       0.042   0.830  -0.135  1.00  0.00    -0.277 N 
ATOM     19  H   UNL     1       0.500   1.267  -0.889  1.00  0.00     0.180 HD
BRANCH  18  20
ATOM     20  C   UNL     1      -0.485  -0.467  -0.388  1.00  0.00     0.088 A 
ATOM     21  C   UNL     1       0.022  -1.090  -1.544  1.00  0.00     0.033 A 
ATOM     22  C   UNL     1      -1.264  -1.219   0.500  1.00  0.00     0.185 A 
ATOM     23  C   UNL     1      -0.147  -2.461  -1.743  1.00  0.00     0.045 A 
ATOM     24  C   UNL     1      -1.451  -2.581   0.284  1.00  0.00     0.196 A 
ATOM     25  F   UNL     1      -1.760  -0.682   1.621  1.00  0.00    -0.201 F 
ATOM     26  C   UNL     1      -0.868  -3.200  -0.814  1.00  0.00     0.162 A 
ATOM     27  F   UNL     1      -2.130  -3.313   1.178  1.00  0.00    -0.200 F 
ATOM     28  F   UNL     1      -0.960  -4.528  -0.968  1.00  0.00    -0.204 F 
ENDBRANCH  18  20
ENDBRANCH  15  18
ENDBRANCH  10  15
ENDBRANCH   4   7
ENDBRANCH   2   3
ENDBRANCH   1   2
BRANCH   1  29
ATOM     29  C   UNL     1       0.535   5.674   6.639  1.00  0.00     0.118 C 
BRANCH  29  30
ATOM     30  N   UNL     1       1.629   6.631   6.721  1.00  0.00    -0.352 N 
ATOM     31  C   UNL     1       1.579   7.991   6.905  1.00  0.00     0.251 C 
ATOM     32  H   UNL     1       2.532   6.250   6.633  1.00  0.00     0.163 HD
ATOM     33  O   UNL     1       2.593   8.663   6.742  1.00  0.00    -0.269 OA
BRANCH  31  34
ATOM     34  C   UNL     1       0.306   8.642   7.283  1.00  0.00     0.039 A 
ATOM     35  C   UNL     1      -0.060   9.830   6.644  1.00  0.00     0.014 A 
ATOM     36  C   UNL     1      -0.512   8.100   8.279  1.00  0.00     0.014 A 
ATOM     37  C   UNL     1      -1.270  10.446   6.968  1.00  0.00     0.010 A 
ATOM     38  C   UNL     1      -1.748   8.680   8.554  1.00  0.00     0.010 A 
ATOM     39  C   UNL     1      -2.136   9.862   7.907  1.00  0.00    -0.014 A 
BRANCH  39  40
ATOM     40  C   UNL     1      -3.451  10.475   8.223  1.00  0.00     0.031 A 
ATOM     41  C   UNL     1      -3.724  11.014   9.601  1.00  0.00     0.074 A 
ATOM     42  C   UNL     1      -4.419  10.488   7.286  1.00  0.00     0.049 A 
ATOM     43  N   UNL     1      -4.825  11.530  10.083  1.00  0.00    -0.248 NA
ATOM     44  C   UNL     1      -2.622  10.937  10.573  1.00  0.00     0.031 C 
ATOM     45  C   UNL     1      -4.290   9.948   5.931  1.00  0.00     0.029 A 
ATOM     46  N   UNL     1      -5.705  10.962   7.333  1.00  0.00    -0.354 N 
ATOM     47  C   UNL     1      -4.556  11.823  11.415  1.00  0.00     0.074 A 
ATOM     48  C   UNL     1      -3.202  11.384  11.677  1.00  0.00     0.031 C 
ATOM     49  C   UNL     1      -5.444  10.137   5.271  1.00  0.00     0.029 A 
ATOM     50  C   UNL     1      -6.404  10.780   6.163  1.00  0.00     0.049 A 
ATOM     51  H   UNL     1      -6.092  11.392   8.130  1.00  0.00     0.167 HD
ATOM     52  C   UNL     1      -5.356  12.422  12.329  1.00  0.00     0.037 A 
ATOM     53  C   UNL     1      -7.675  11.092   5.846  1.00  0.00     0.037 A 
ATOM     54  C   UNL     1      -6.694  12.879  12.052  1.00  0.00     0.049 A 
ATOM     55  C   UNL     1      -8.540  11.771   6.871  1.00  0.00     0.074 A 
ATOM     56  C   UNL     1      -7.563  13.557  12.889  1.00  0.00     0.029 A 
ATOM     57  N   UNL     1      -7.357  12.702  10.846  1.00  0.00    -0.354 N 
ATOM     58  N   UNL     1      -8.248  12.103   8.106  1.00  0.00    -0.248 NA
ATOM     59  C   UNL     1      -9.905  12.125   6.459  1.00  0.00     0.031 C 
ATOM     60  C   UNL     1      -8.766  13.756  12.201  1.00  0.00     0.029 A 
ATOM     61  C   UNL     1      -8.631  13.241  10.921  1.00  0.00     0.049 A 
ATOM     62  H   UNL     1      -6.978  12.259  10.053  1.00  0.00     0.167 HD
ATOM     63  C   UNL     1      -9.384  12.723   8.613  1.00  0.00     0.074 A 
ATOM     64  C   UNL     1     -10.364  12.732   7.546  1.00  0.00     0.031 C 
ATOM     65  C   UNL     1      -9.595  13.240   9.849  1.00  0.00     0.037 A 
BRANCH  52  66
ATOM     66  C   UNL     1      -4.802  12.616  13.714  1.00  0.00     0.058 A 
ATOM     67  C   UNL     1      -3.779  13.541  13.977  1.00  0.00     0.135 A 
ATOM     68  C   UNL     1      -5.309  11.879  14.797  1.00  0.00     0.135 A 
ATOM     69  F   UNL     1      -3.248  14.264  12.977  1.00  0.00    -0.206 F 
ATOM     70  C   UNL     1      -3.251  13.701  15.254  1.00  0.00     0.059 A 
ATOM     71  C   UNL     1      -4.815  12.042  16.088  1.00  0.00     0.059 A 
ATOM     72  F   UNL     1      -6.289  10.982  14.605  1.00  0.00    -0.206 F 
ATOM     73  C   UNL     1      -3.772  12.942  16.303  1.00  0.00     0.060 A 
BRANCH  73  74
ATOM     74  S   UNL     1      -3.067  13.150  17.952  1.00  0.00     0.124 S 
ATOM     75  O   UNL     1      -1.799  12.439  17.817  1.00  0.00    -0.237 OA
ATOM     76  O   UNL     1      -2.969  14.601  18.072  1.00  0.00    -0.237 OA
ATOM     77  O   UNL     1      -4.051  12.518  18.825  1.00  0.00    -0.744 OA
ENDBRANCH  73  74
ENDBRANCH  52  66
BRANCH  53  78
ATOM     78  C   UNL     1      -8.189  10.790   4.484  1.00  0.00     0.058 A 
ATOM     79  C   UNL     1      -8.404  11.815   3.553  1.00  0.00     0.135 A 
ATOM     80  C   UNL     1      -8.438   9.470   4.075  1.00  0.00     0.135 A 
ATOM     81  F   UNL     1      -8.186  13.093   3.900  1.00  0.00    -0.206 F 
ATOM     82  C   UNL     1      -8.854  11.547   2.264  1.00  0.00     0.059 A 
ATOM     83  C   UNL     1      -8.866   9.175   2.784  1.00  0.00     0.059 A 
ATOM     84  F   UNL     1      -8.231   8.453   4.925  1.00  0.00    -0.206 F 
ATOM     85  C   UNL     1      -9.077  10.221   1.887  1.00  0.00     0.060 A 
BRANCH  85  86
ATOM     86  S   UNL     1      -9.596   9.880   0.191  1.00  0.00     0.124 S 
ATOM     87  O   UNL     1     -10.989  10.311   0.217  1.00  0.00    -0.237 OA
ATOM     88  O   UNL     1      -8.683  10.716  -0.584  1.00  0.00    -0.237 OA
ATOM     89  O   UNL     1      -9.381   8.442   0.058  1.00  0.00    -0.744 OA
ENDBRANCH  85  86
ENDBRANCH  53  78
BRANCH  65  90
ATOM     90  C   UNL     1     -10.931  13.879  10.109  1.00  0.00     0.058 A 
ATOM     91  C   UNL     1     -12.093  13.112  10.279  1.00  0.00     0.135 A 
ATOM     92  C   UNL     1     -11.039  15.273  10.236  1.00  0.00     0.135 A 
ATOM     93  F   UNL     1     -12.044  11.775  10.161  1.00  0.00    -0.206 F 
ATOM     94  C   UNL     1     -13.322  13.706  10.545  1.00  0.00     0.059 A 
ATOM     95  C   UNL     1     -12.253  15.887  10.526  1.00  0.00     0.059 A 
ATOM     96  F   UNL     1      -9.955  16.052  10.091  1.00  0.00    -0.206 F 
ATOM     97  C   UNL     1     -13.392  15.095  10.667  1.00  0.00     0.060 A 
BRANCH  97  98
ATOM     98  S   UNL     1     -14.987  15.854  11.044  1.00  0.00     0.124 S 
ATOM     99  O   UNL     1     -15.666  15.765   9.756  1.00  0.00    -0.237 OA
ATOM    100  O   UNL     1     -15.507  14.986  12.096  1.00  0.00    -0.237 OA
ATOM    101  O   UNL     1     -14.628  17.202  11.473  1.00  0.00    -0.744 OA
ENDBRANCH  97  98
ENDBRANCH  65  90
ENDBRANCH  39  40
ENDBRANCH  31  34
ENDBRANCH  29  30
ENDBRANCH   1  29
TORSDOF 17
