REMARK SMILES O=C(NCCCNC(=O)c1cccc(N/C(=[NH+]\Cc2ccccc2)N2CCN(c3ccc(F)cc3)CC2)c1)c1ccc(-c2c3nc(c(-c4c(F)cc(S(=O)(=O)[O-])cc4F)c4ccc([nH]4)c(-c4c(F)cc(S(=O)(=O)[O-])cc4F)c4nc(c(-c5c(F)cc(S(=O)(=O)[O-])cc5F)c5ccc2[nH]5)C=C4)C=C3)cc1
REMARK SMILES IDX 5 1 4 2 3 3 1 4 2 5 39 7 40 8 104 9 41 10 103 11 42 12 43 13
REMARK SMILES IDX 44 14 97 15 45 16 102 17 96 18 98 19 46 20 101 21 95 22
REMARK SMILES IDX 94 23 47 25 81 26 60 27 80 28 61 29 64 30 79 31 99 32 62 33
REMARK SMILES IDX 63 34 78 36 100 37 65 38 48 39 49 40 58 41 50 42 51 43 57 44
REMARK SMILES IDX 59 45 52 46 53 47 54 48 55 49 56 50 82 51 83 52 92 53 84 54
REMARK SMILES IDX 85 55 91 56 93 57 86 58 87 59 88 60 89 61 90 62 66 63 67 64
REMARK SMILES IDX 76 65 68 66 69 67 75 68 77 69 70 70 71 71 72 72 73 73 74 74
REMARK SMILES IDX 6 75 7 76 8 77 9 79 10 80 11 81 38 82 12 83 14 84 13 85
REMARK SMILES IDX 15 86 16 87 17 89 25 90 26 92 37 93 27 94 36 95 28 96 18 97
REMARK SMILES IDX 19 98 20 99 24 100 21 101 23 102 22 103 29 104 30 105 35 106
REMARK SMILES IDX 31 107 34 108 32 109 33 110
REMARK H PARENT 3 6 98 24 64 35 7 78 15 88 17 91
REMARK Flexibility Score: inf
ROOT
ATOM      1  C   UNL     1       4.872   1.709   1.563  1.00  0.00     0.042 C 
ENDROOT
BRANCH   1   2
ATOM      2  C   UNL     1       4.511   0.292   1.146  1.00  0.00     0.118 C 
BRANCH   2   3
ATOM      3  N   UNL     1       3.074   0.091   1.018  1.00  0.00    -0.352 N 
ATOM      4  O   UNL     1       1.103  -0.129  -0.046  1.00  0.00    -0.269 OA
ATOM      5  C   UNL     1       2.326  -0.192  -0.099  1.00  0.00     0.251 C 
ATOM      6  H   UNL     1       2.563   0.171   1.855  1.00  0.00     0.163 HD
BRANCH   5   7
ATOM      7  C   UNL     1       3.006  -0.547  -1.362  1.00  0.00     0.039 A 
ATOM      8  C   UNL     1       4.092  -1.424  -1.357  1.00  0.00     0.014 A 
ATOM      9  C   UNL     1       2.547  -0.003  -2.564  1.00  0.00     0.014 A 
ATOM     10  C   UNL     1       4.816  -1.633  -2.522  1.00  0.00     0.010 A 
ATOM     11  C   UNL     1       3.215  -0.298  -3.755  1.00  0.00     0.010 A 
ATOM     12  C   UNL     1       4.369  -1.097  -3.739  1.00  0.00    -0.014 A 
BRANCH  12  13
ATOM     13  C   UNL     1       5.072  -1.468  -4.991  1.00  0.00     0.031 A 
ATOM     14  C   UNL     1       5.768  -0.437  -5.832  1.00  0.00     0.074 A 
ATOM     15  C   UNL     1       5.079  -2.767  -5.352  1.00  0.00     0.049 A 
ATOM     16  N   UNL     1       6.408  -0.597  -6.961  1.00  0.00    -0.248 NA
ATOM     17  C   UNL     1       5.738   0.954  -5.352  1.00  0.00     0.031 C 
ATOM     18  C   UNL     1       4.420  -3.849  -4.613  1.00  0.00     0.029 A 
ATOM     19  N   UNL     1       5.662  -3.403  -6.416  1.00  0.00    -0.354 N 
ATOM     20  C   UNL     1       6.835   0.670  -7.343  1.00  0.00     0.074 A 
ATOM     21  C   UNL     1       6.368   1.593  -6.330  1.00  0.00     0.031 C 
ATOM     22  C   UNL     1       4.668  -5.016  -5.223  1.00  0.00     0.029 A 
ATOM     23  C   UNL     1       5.439  -4.759  -6.432  1.00  0.00     0.049 A 
ATOM     24  H   UNL     1       6.190  -2.934  -7.102  1.00  0.00     0.167 HD
ATOM     25  C   UNL     1       7.552   1.022  -8.437  1.00  0.00     0.037 A 
ATOM     26  C   UNL     1       5.787  -5.693  -7.336  1.00  0.00     0.037 A 
ATOM     27  C   UNL     1       8.026   0.084  -9.424  1.00  0.00     0.049 A 
ATOM     28  C   UNL     1       6.564  -5.271  -8.547  1.00  0.00     0.074 A 
ATOM     29  C   UNL     1       8.805   0.333 -10.541  1.00  0.00     0.029 A 
ATOM     30  N   UNL     1       7.761  -1.278  -9.418  1.00  0.00    -0.354 N 
ATOM     31  N   UNL     1       6.991  -4.074  -8.871  1.00  0.00    -0.248 NA
ATOM     32  C   UNL     1       6.897  -6.318  -9.520  1.00  0.00     0.031 C 
ATOM     33  C   UNL     1       8.972  -0.871 -11.235  1.00  0.00     0.029 A 
ATOM     34  C   UNL     1       8.336  -1.878 -10.527  1.00  0.00     0.049 A 
ATOM     35  H   UNL     1       7.241  -1.749  -8.728  1.00  0.00     0.167 HD
ATOM     36  C   UNL     1       7.652  -4.224 -10.083  1.00  0.00     0.074 A 
ATOM     37  C   UNL     1       7.586  -5.632 -10.422  1.00  0.00     0.031 C 
ATOM     38  C   UNL     1       8.255  -3.282 -10.848  1.00  0.00     0.037 A 
BRANCH  25  39
ATOM     39  C   UNL     1       7.855   2.481  -8.643  1.00  0.00     0.058 A 
ATOM     40  C   UNL     1       8.802   3.159  -7.860  1.00  0.00     0.135 A 
ATOM     41  C   UNL     1       7.229   3.196  -9.678  1.00  0.00     0.135 A 
ATOM     42  F   UNL     1       9.420   2.529  -6.848  1.00  0.00    -0.206 F 
ATOM     43  C   UNL     1       9.103   4.500  -8.083  1.00  0.00     0.059 A 
ATOM     44  C   UNL     1       7.531   4.530  -9.933  1.00  0.00     0.059 A 
ATOM     45  F   UNL     1       6.316   2.595 -10.457  1.00  0.00    -0.206 F 
ATOM     46  C   UNL     1       8.462   5.178  -9.122  1.00  0.00     0.060 A 
BRANCH  46  47
ATOM     47  S   UNL     1       8.869   6.915  -9.402  1.00  0.00     0.124 S 
ATOM     48  O   UNL     1       8.202   7.554  -8.271  1.00  0.00    -0.237 OA
ATOM     49  O   UNL     1      10.328   6.906  -9.353  1.00  0.00    -0.237 OA
ATOM     50  O   UNL     1       8.290   7.194 -10.711  1.00  0.00    -0.744 OA
ENDBRANCH  46  47
ENDBRANCH  25  39
BRANCH  26  51
ATOM     51  C   UNL     1       5.373  -7.105  -7.130  1.00  0.00     0.058 A 
ATOM     52  C   UNL     1       6.311  -8.097  -6.815  1.00  0.00     0.135 A 
ATOM     53  C   UNL     1       4.022  -7.480  -7.206  1.00  0.00     0.135 A 
ATOM     54  F   UNL     1       7.614  -7.786  -6.732  1.00  0.00    -0.206 F 
ATOM     55  C   UNL     1       5.928  -9.415  -6.593  1.00  0.00     0.059 A 
ATOM     56  C   UNL     1       3.611  -8.785  -6.961  1.00  0.00     0.059 A 
ATOM     57  F   UNL     1       3.083  -6.561  -7.484  1.00  0.00    -0.206 F 
ATOM     58  C   UNL     1       4.573  -9.748  -6.666  1.00  0.00     0.060 A 
BRANCH  58  59
ATOM     59  S   UNL     1       4.077 -11.450  -6.326  1.00  0.00     0.124 S 
ATOM     60  O   UNL     1       4.477 -12.122  -7.556  1.00  0.00    -0.237 OA
ATOM     61  O   UNL     1       4.864 -11.770  -5.138  1.00  0.00    -0.237 OA
ATOM     62  O   UNL     1       2.638 -11.341  -6.103  1.00  0.00    -0.744 OA
ENDBRANCH  58  59
ENDBRANCH  26  51
BRANCH  38  63
ATOM     63  C   UNL     1       8.904  -3.747 -12.119  1.00  0.00     0.058 A 
ATOM     64  C   UNL     1       8.142  -4.100 -13.243  1.00  0.00     0.135 A 
ATOM     65  C   UNL     1      10.302  -3.794 -12.229  1.00  0.00     0.135 A 
ATOM     66  F   UNL     1       6.801  -4.082 -13.183  1.00  0.00    -0.206 F 
ATOM     67  C   UNL     1       8.745  -4.500 -14.430  1.00  0.00     0.059 A 
ATOM     68  C   UNL     1      10.927  -4.167 -13.414  1.00  0.00     0.059 A 
ATOM     69  F   UNL     1      11.075  -3.461 -11.183  1.00  0.00    -0.206 F 
ATOM     70  C   UNL     1      10.139  -4.527 -14.507  1.00  0.00     0.060 A 
BRANCH  70  71
ATOM     71  S   UNL     1      10.910  -5.006 -16.067  1.00  0.00     0.124 S 
ATOM     72  O   UNL     1      10.702  -6.450 -16.067  1.00  0.00    -0.237 OA
ATOM     73  O   UNL     1      10.132  -4.253 -17.045  1.00  0.00    -0.237 OA
ATOM     74  O   UNL     1      12.294  -4.571 -15.908  1.00  0.00    -0.744 OA
ENDBRANCH  70  71
ENDBRANCH  38  63
ENDBRANCH  12  13
ENDBRANCH   5   7
ENDBRANCH   2   3
ENDBRANCH   1   2
BRANCH   1  75
ATOM     75  C   UNL     1       4.271   2.137   2.892  1.00  0.00     0.118 C 
BRANCH  75  76
ATOM     76  N   UNL     1       4.580   1.194   3.957  1.00  0.00    -0.352 N 
ATOM     77  C   UNL     1       5.395   1.310   5.049  1.00  0.00     0.251 C 
ATOM     78  H   UNL     1       4.124   0.325   3.879  1.00  0.00     0.163 HD
ATOM     79  O   UNL     1       5.734   0.295   5.653  1.00  0.00    -0.269 OA
BRANCH  77  80
ATOM     80  C   UNL     1       5.849   2.628   5.537  1.00  0.00     0.043 A 
ATOM     81  C   UNL     1       7.108   2.715   6.132  1.00  0.00     0.014 A 
ATOM     82  C   UNL     1       5.009   3.749   5.511  1.00  0.00     0.056 A 
ATOM     83  C   UNL     1       7.502   3.908   6.722  1.00  0.00     0.004 A 
ATOM     84  C   UNL     1       5.427   4.987   6.014  1.00  0.00     0.100 A 
ATOM     85  C   UNL     1       6.653   5.019   6.679  1.00  0.00     0.043 A 
BRANCH  84  86
ATOM     86  N   UNL     1       4.614   6.108   5.757  1.00  0.00    -0.245 N 
ATOM     87  C   UNL     1       4.838   7.461   5.798  1.00  0.00     0.351 C 
ATOM     88  H   UNL     1       3.695   5.872   5.494  1.00  0.00     0.267 HD
ATOM     89  N   UNL     1       3.976   8.378   5.492  1.00  0.00    -0.273 N 
ATOM     90  N   UNL     1       6.096   7.872   6.158  1.00  0.00    -0.261 N 
ATOM     91  H   UNL     1       4.231   9.326   5.569  1.00  0.00     0.260 HD
ATOM     92  C   UNL     1       6.245   8.947   7.146  1.00  0.00     0.221 C 
ATOM     93  C   UNL     1       7.165   7.908   5.141  1.00  0.00     0.221 C 
ATOM     94  C   UNL     1       7.580   8.778   7.889  1.00  0.00     0.154 C 
ATOM     95  C   UNL     1       8.572   7.840   5.782  1.00  0.00     0.154 C 
ATOM     96  N   UNL     1       8.719   8.743   6.950  1.00  0.00    -0.365 N 
BRANCH  89  97
ATOM     97  C   UNL     1       2.631   8.030   5.033  1.00  0.00     0.233 C 
BRANCH  97  98
ATOM     98  C   UNL     1       2.556   7.359   3.675  1.00  0.00    -0.014 A 
ATOM     99  C   UNL     1       1.431   6.590   3.340  1.00  0.00     0.007 A 
ATOM    100  C   UNL     1       3.572   7.512   2.720  1.00  0.00     0.007 A 
ATOM    101  C   UNL     1       1.346   5.957   2.098  1.00  0.00     0.000 A 
ATOM    102  C   UNL     1       3.491   6.871   1.482  1.00  0.00     0.000 A 
ATOM    103  C   UNL     1       2.380   6.090   1.173  1.00  0.00     0.000 A 
ENDBRANCH  97  98
ENDBRANCH  89  97
BRANCH  96 104
ATOM    104  C   UNL     1      10.010   8.918   7.443  1.00  0.00     0.037 A 
ATOM    105  C   UNL     1      10.360   8.628   8.773  1.00  0.00     0.029 A 
ATOM    106  C   UNL     1      11.017   9.424   6.604  1.00  0.00     0.029 A 
ATOM    107  C   UNL     1      11.659   8.838   9.246  1.00  0.00     0.041 A 
ATOM    108  C   UNL     1      12.316   9.643   7.072  1.00  0.00     0.041 A 
ATOM    109  C   UNL     1      12.624   9.349   8.391  1.00  0.00     0.123 A 
ATOM    110  F   UNL     1      13.864   9.566   8.847  1.00  0.00    -0.207 F 
ENDBRANCH  96 104
ENDBRANCH  84  86
ENDBRANCH  77  80
ENDBRANCH  75  76
ENDBRANCH   1  75
TORSDOF 17
