REMARK SMILES NC(=O)CC[C@@H](C(=O)NCCCNC(=O)c1ccc(-c2c3nc(c(-c4c(F)cc(S(=O)(=O)[O-])cc4F)c4ccc([nH]4)c(-c4c(F)cc(S(=O)(=O)[O-])cc4F)c4nc(c(-c5c(F)cc(S(=O)(=O)[O-])cc5F)c5ccc2[nH]5)C=C4)C=C3)cc1)N1C(=O)/C(=C/c2ccc(C=O)cc2)SC1=S
REMARK SMILES IDX 11 1 10 2 9 3 7 4 8 5 6 7 5 8 4 9 2 10 1 11 3 14 82 15 83 16
REMARK SMILES IDX 96 17 84 18 85 19 95 20 97 21 86 22 87 23 88 24 94 25 89 26
REMARK SMILES IDX 93 27 90 28 91 29 92 30 12 31 13 32 14 33 15 35 16 36 17 37
REMARK SMILES IDX 81 38 18 39 80 40 19 41 20 42 21 43 74 44 22 45 79 46 73 47
REMARK SMILES IDX 75 48 23 49 78 50 72 51 71 52 24 54 58 55 37 56 57 57 38 58
REMARK SMILES IDX 41 59 56 60 76 61 39 62 40 63 55 65 77 66 42 67 25 68 26 69
REMARK SMILES IDX 35 70 27 71 28 72 34 73 36 74 29 75 30 76 31 77 32 78 33 79
REMARK SMILES IDX 59 80 60 81 69 82 61 83 62 84 68 85 70 86 63 87 64 88 65 89
REMARK SMILES IDX 66 90 67 91 43 92 44 93 53 94 45 95 46 96 52 97 54 98 47 99
REMARK SMILES IDX 48 100 49 101 50 102 51 103
REMARK H PARENT 9 6 1 12 1 13 13 34 75 53 41 64
REMARK Flexibility Score: inf
ROOT
ATOM      1  C   UNL     1       1.490  -3.264   1.204  1.00  0.00     0.042 C 
ENDROOT
BRANCH   1   2
ATOM      2  C   UNL     1       2.223  -1.939   1.048  1.00  0.00     0.117 C 
BRANCH   2   3
ATOM      3  N   UNL     1       3.485  -2.113   0.366  1.00  0.00    -0.354 N 
ATOM      4  C   UNL     1       3.916  -1.682  -0.846  1.00  0.00     0.243 C 
ATOM      5  O   UNL     1       5.140  -1.757  -1.016  1.00  0.00    -0.273 OA
ATOM      6  H   UNL     1       4.149  -2.638   0.869  1.00  0.00     0.163 HD
BRANCH   4   7
ATOM      7  C   UNL     1       2.988  -0.999  -1.893  1.00  0.00     0.181 C 
BRANCH   7   8
ATOM      8  C   UNL     1       1.764  -1.687  -2.531  1.00  0.00     0.045 C 
BRANCH   8   9
ATOM      9  C   UNL     1       0.438  -1.894  -1.809  1.00  0.00     0.102 C 
BRANCH   9  10
ATOM     10  C   UNL     1      -0.454  -0.753  -1.357  1.00  0.00     0.217 C 
ATOM     11  N   UNL     1       0.079   0.387  -0.863  1.00  0.00    -0.370 N 
ATOM     12  H   UNL     1      -0.510   1.121  -0.574  1.00  0.00     0.159 HD
ATOM     13  H   UNL     1       1.057   0.484  -0.793  1.00  0.00     0.159 HD
ATOM     14  O   UNL     1      -1.677  -0.881  -1.324  1.00  0.00    -0.275 OA
ENDBRANCH   9  10
ENDBRANCH   8   9
ENDBRANCH   7   8
BRANCH   7  15
ATOM     15  N   UNL     1       3.878  -0.529  -3.003  1.00  0.00    -0.280 N 
ATOM     16  C   UNL     1       3.958   0.830  -3.246  1.00  0.00     0.266 C 
ATOM     17  C   UNL     1       4.586  -1.347  -3.875  1.00  0.00     0.149 C 
ATOM     18  O   UNL     1       3.369   1.708  -2.618  1.00  0.00    -0.268 OA
ATOM     19  C   UNL     1       4.789   1.101  -4.447  1.00  0.00     0.081 C 
ATOM     20  S   UNL     1       5.489  -0.358  -5.014  1.00  0.00    -0.054 SA
ATOM     21  S   UNL     1       4.643  -3.013  -3.991  1.00  0.00    -0.052 S 
ATOM     22  C   UNL     1       4.894   2.319  -4.996  1.00  0.00     0.029 C 
BRANCH  22  23
ATOM     23  C   UNL     1       5.642   2.620  -6.223  1.00  0.00    -0.024 A 
ATOM     24  C   UNL     1       6.753   3.468  -6.166  1.00  0.00     0.009 A 
ATOM     25  C   UNL     1       5.266   2.058  -7.453  1.00  0.00     0.009 A 
ATOM     26  C   UNL     1       7.503   3.723  -7.318  1.00  0.00     0.012 A 
ATOM     27  C   UNL     1       6.018   2.302  -8.604  1.00  0.00     0.012 A 
ATOM     28  C   UNL     1       7.139   3.129  -8.531  1.00  0.00     0.014 A 
BRANCH  28  29
ATOM     29  C   UNL     1       7.944   3.364  -9.746  1.00  0.00     0.260 C 
ATOM     30  O   UNL     1       8.914   4.111  -9.754  1.00  0.00    -0.298 OA
ENDBRANCH  28  29
ENDBRANCH  22  23
ENDBRANCH   7  15
ENDBRANCH   4   7
ENDBRANCH   2   3
ENDBRANCH   1   2
BRANCH   1  31
ATOM     31  C   UNL     1       2.010  -4.117   2.348  1.00  0.00     0.118 C 
BRANCH  31  32
ATOM     32  N   UNL     1       1.653  -3.568   3.647  1.00  0.00    -0.352 N 
ATOM     33  C   UNL     1       0.854  -4.091   4.636  1.00  0.00     0.251 C 
ATOM     34  H   UNL     1       2.044  -2.688   3.849  1.00  0.00     0.163 HD
ATOM     35  O   UNL     1       0.511  -3.370   5.569  1.00  0.00    -0.269 OA
BRANCH  33  36
ATOM     36  C   UNL     1       0.396  -5.498   4.572  1.00  0.00     0.039 A 
ATOM     37  C   UNL     1      -0.897  -5.811   5.002  1.00  0.00     0.014 A 
ATOM     38  C   UNL     1       1.238  -6.513   4.111  1.00  0.00     0.014 A 
ATOM     39  C   UNL     1      -1.358  -7.127   4.915  1.00  0.00     0.010 A 
ATOM     40  C   UNL     1       0.742  -7.797   3.922  1.00  0.00     0.010 A 
ATOM     41  C   UNL     1      -0.555  -8.126   4.341  1.00  0.00    -0.014 A 
BRANCH  41  42
ATOM     42  C   UNL     1      -1.032  -9.526   4.202  1.00  0.00     0.031 A 
ATOM     43  C   UNL     1      -0.295 -10.643   4.896  1.00  0.00     0.074 A 
ATOM     44  C   UNL     1      -2.083  -9.800   3.404  1.00  0.00     0.049 A 
ATOM     45  N   UNL     1      -0.501 -11.933   4.836  1.00  0.00    -0.248 NA
ATOM     46  C   UNL     1       0.849 -10.260   5.741  1.00  0.00     0.031 C 
ATOM     47  C   UNL     1      -2.846  -8.812   2.639  1.00  0.00     0.029 A 
ATOM     48  N   UNL     1      -2.686 -10.994   3.095  1.00  0.00    -0.354 N 
ATOM     49  C   UNL     1       0.493 -12.512   5.617  1.00  0.00     0.074 A 
ATOM     50  C   UNL     1       1.342 -11.440   6.085  1.00  0.00     0.031 C 
ATOM     51  C   UNL     1      -3.834  -9.434   1.976  1.00  0.00     0.029 A 
ATOM     52  C   UNL     1      -3.749 -10.869   2.232  1.00  0.00     0.049 A 
ATOM     53  H   UNL     1      -2.386 -11.858   3.458  1.00  0.00     0.167 HD
ATOM     54  C   UNL     1       0.666 -13.816   5.941  1.00  0.00     0.037 A 
ATOM     55  C   UNL     1      -4.560 -11.805   1.701  1.00  0.00     0.037 A 
ATOM     56  C   UNL     1      -0.203 -14.873   5.496  1.00  0.00     0.049 A 
ATOM     57  C   UNL     1      -4.348 -13.248   2.073  1.00  0.00     0.074 A 
ATOM     58  C   UNL     1      -0.154 -16.219   5.813  1.00  0.00     0.029 A 
ATOM     59  N   UNL     1      -1.279 -14.704   4.636  1.00  0.00    -0.354 N 
ATOM     60  N   UNL     1      -3.441 -13.771   2.864  1.00  0.00    -0.248 NA
ATOM     61  C   UNL     1      -5.272 -14.227   1.486  1.00  0.00     0.031 C 
ATOM     62  C   UNL     1      -1.170 -16.871   5.107  1.00  0.00     0.029 A 
ATOM     63  C   UNL     1      -1.888 -15.924   4.393  1.00  0.00     0.049 A 
ATOM     64  H   UNL     1      -1.568 -13.843   4.255  1.00  0.00     0.167 HD
ATOM     65  C   UNL     1      -3.702 -15.137   2.890  1.00  0.00     0.074 A 
ATOM     66  C   UNL     1      -4.859 -15.356   2.047  1.00  0.00     0.031 C 
ATOM     67  C   UNL     1      -3.044 -16.121   3.553  1.00  0.00     0.037 A 
BRANCH  54  68
ATOM     68  C   UNL     1       1.836 -14.166   6.823  1.00  0.00     0.058 A 
ATOM     69  C   UNL     1       1.890 -13.771   8.171  1.00  0.00     0.135 A 
ATOM     70  C   UNL     1       2.910 -14.919   6.322  1.00  0.00     0.135 A 
ATOM     71  F   UNL     1       0.899 -13.036   8.701  1.00  0.00    -0.206 F 
ATOM     72  C   UNL     1       2.982 -14.075   8.976  1.00  0.00     0.059 A 
ATOM     73  C   UNL     1       3.998 -15.262   7.119  1.00  0.00     0.059 A 
ATOM     74  F   UNL     1       2.913 -15.324   5.042  1.00  0.00    -0.206 F 
ATOM     75  C   UNL     1       4.034 -14.819   8.440  1.00  0.00     0.060 A 
BRANCH  75  76
ATOM     76  S   UNL     1       5.447 -15.197   9.497  1.00  0.00     0.124 S 
ATOM     77  O   UNL     1       6.096 -13.893   9.592  1.00  0.00    -0.237 OA
ATOM     78  O   UNL     1       4.805 -15.675  10.717  1.00  0.00    -0.237 OA
ATOM     79  O   UNL     1       6.179 -16.207   8.740  1.00  0.00    -0.744 OA
ENDBRANCH  75  76
ENDBRANCH  54  68
BRANCH  55  80
ATOM     80  C   UNL     1      -5.663 -11.401   0.788  1.00  0.00     0.058 A 
ATOM     81  C   UNL     1      -7.003 -11.490   1.193  1.00  0.00     0.135 A 
ATOM     82  C   UNL     1      -5.402 -10.898  -0.497  1.00  0.00     0.135 A 
ATOM     83  F   UNL     1      -7.305 -11.970   2.409  1.00  0.00    -0.206 F 
ATOM     84  C   UNL     1      -8.046 -11.109   0.355  1.00  0.00     0.059 A 
ATOM     85  C   UNL     1      -6.426 -10.485  -1.343  1.00  0.00     0.059 A 
ATOM     86  F   UNL     1      -4.136 -10.776  -0.927  1.00  0.00    -0.206 F 
ATOM     87  C   UNL     1      -7.746 -10.603  -0.911  1.00  0.00     0.060 A 
BRANCH  87  88
ATOM     88  S   UNL     1      -9.106 -10.063  -1.970  1.00  0.00     0.124 S 
ATOM     89  O   UNL     1      -9.706 -11.336  -2.351  1.00  0.00    -0.237 OA
ATOM     90  O   UNL     1      -9.891  -9.234  -1.060  1.00  0.00    -0.237 OA
ATOM     91  O   UNL     1      -8.430  -9.338  -3.042  1.00  0.00    -0.744 OA
ENDBRANCH  87  88
ENDBRANCH  55  80
BRANCH  67  92
ATOM     92  C   UNL     1      -3.577 -17.521   3.419  1.00  0.00     0.058 A 
ATOM     93  C   UNL     1      -3.440 -18.254   2.230  1.00  0.00     0.135 A 
ATOM     94  C   UNL     1      -4.184 -18.156   4.515  1.00  0.00     0.135 A 
ATOM     95  F   UNL     1      -2.873 -17.692   1.151  1.00  0.00    -0.206 F 
ATOM     96  C   UNL     1      -3.908 -19.559   2.124  1.00  0.00     0.059 A 
ATOM     97  C   UNL     1      -4.632 -19.471   4.441  1.00  0.00     0.059 A 
ATOM     98  F   UNL     1      -4.329 -17.504   5.680  1.00  0.00    -0.206 F 
ATOM     99  C   UNL     1      -4.500 -20.161   3.237  1.00  0.00     0.060 A 
BRANCH  99 100
ATOM    100  S   UNL     1      -5.071 -21.867   3.096  1.00  0.00     0.124 S 
ATOM    101  O   UNL     1      -6.262 -21.711   2.267  1.00  0.00    -0.237 OA
ATOM    102  O   UNL     1      -3.935 -22.524   2.457  1.00  0.00    -0.237 OA
ATOM    103  O   UNL     1      -5.317 -22.259   4.480  1.00  0.00    -0.744 OA
ENDBRANCH  99 100
ENDBRANCH  67  92
ENDBRANCH  41  42
ENDBRANCH  33  36
ENDBRANCH  31  32
ENDBRANCH   1  31
TORSDOF 19
