REMARK SMILES CNc1nccc(-c2cc(C(=O)NCCCNC(=O)c3ccc(-c4c5nc(c(-c6c(F)cc(S(=O)(=O)[O-])cc6F)c6ccc([nH]6)c(-c6c(F)cc(S(=O)(=O)[O-])cc6F)c6nc(c(-c7c(F)cc(S(=O)(=O)[O-])cc7F)c7ccc4[nH]7)C=C6)C=C5)cc3)ccn2)n1
REMARK SMILES IDX 15 1 14 2 13 3 11 4 12 5 10 7 8 8 9 9 88 10 87 11 86 12 7 13
REMARK SMILES IDX 3 14 4 15 89 16 5 17 6 18 2 19 1 20 16 22 17 23 18 24 19 26
REMARK SMILES IDX 20 27 21 28 85 29 22 30 84 31 23 32 24 33 25 34 78 35 26 36
REMARK SMILES IDX 83 37 77 38 79 39 27 40 82 41 76 42 75 43 28 45 62 46 41 47
REMARK SMILES IDX 61 48 42 49 45 50 60 51 80 52 43 53 44 54 59 56 81 57 46 58
REMARK SMILES IDX 29 59 30 60 39 61 31 62 32 63 38 64 40 65 33 66 34 67 35 68
REMARK SMILES IDX 36 69 37 70 63 71 64 72 73 73 65 74 66 75 72 76 74 77 67 78
REMARK SMILES IDX 68 79 69 80 70 81 71 82 47 83 48 84 57 85 49 86 50 87 56 88
REMARK SMILES IDX 58 89 51 90 52 91 53 92 54 93 55 94
REMARK H PARENT 13 6 2 21 17 25 79 44 45 55
REMARK Flexibility Score: inf
ROOT
ATOM      1  C   UNL     1      -1.269  -0.097  -7.046  1.00  0.00     0.042 C 
ENDROOT
BRANCH   1   2
ATOM      2  C   UNL     1      -2.692   0.462  -7.029  1.00  0.00     0.118 C 
BRANCH   2   3
ATOM      3  N   UNL     1      -3.675  -0.604  -6.927  1.00  0.00    -0.352 N 
ATOM      4  C   UNL     1      -4.392  -1.116  -5.875  1.00  0.00     0.251 C 
ATOM      5  O   UNL     1      -5.215  -1.998  -6.123  1.00  0.00    -0.269 OA
ATOM      6  H   UNL     1      -3.864  -1.048  -7.785  1.00  0.00     0.163 HD
BRANCH   4   7
ATOM      7  C   UNL     1      -4.284  -0.610  -4.481  1.00  0.00     0.043 A 
ATOM      8  C   UNL     1      -3.233   0.590  -2.689  1.00  0.00     0.090 A 
ATOM      9  C   UNL     1      -3.156   0.006  -3.951  1.00  0.00     0.044 A 
ATOM     10  N   UNL     1      -4.338   0.494  -1.909  1.00  0.00    -0.255 NA
ATOM     11  C   UNL     1      -5.378  -0.214  -2.394  1.00  0.00     0.112 A 
ATOM     12  C   UNL     1      -5.408  -0.756  -3.664  1.00  0.00     0.034 A 
BRANCH   8  13
ATOM     13  C   UNL     1      -2.177   1.504  -2.237  1.00  0.00     0.094 A 
ATOM     14  C   UNL     1      -0.258   1.843  -1.025  1.00  0.00     0.222 A 
ATOM     15  N   UNL     1      -0.147   3.111  -1.447  1.00  0.00    -0.222 NA
ATOM     16  N   UNL     1      -1.243   1.013  -1.395  1.00  0.00    -0.211 NA
ATOM     17  C   UNL     1      -1.078   3.559  -2.302  1.00  0.00     0.117 A 
ATOM     18  C   UNL     1      -2.125   2.793  -2.735  1.00  0.00     0.051 A 
BRANCH  14  19
ATOM     19  N   UNL     1       0.752   1.411  -0.214  1.00  0.00    -0.357 N 
ATOM     20  C   UNL     1       0.943   0.019   0.071  1.00  0.00     0.143 C 
ATOM     21  H   UNL     1       1.364   2.071   0.184  1.00  0.00     0.163 HD
ENDBRANCH  14  19
ENDBRANCH   8  13
ENDBRANCH   4   7
ENDBRANCH   2   3
ENDBRANCH   1   2
BRANCH   1  22
ATOM     22  C   UNL     1      -0.878  -0.709  -8.390  1.00  0.00     0.118 C 
BRANCH  22  23
ATOM     23  N   UNL     1      -0.724   0.307  -9.421  1.00  0.00    -0.352 N 
ATOM     24  C   UNL     1       0.358   0.608 -10.210  1.00  0.00     0.251 C 
ATOM     25  H   UNL     1      -1.520   0.866  -9.577  1.00  0.00     0.163 HD
ATOM     26  O   UNL     1       0.356   1.656 -10.850  1.00  0.00    -0.269 OA
BRANCH  24  27
ATOM     27  C   UNL     1       1.519  -0.308 -10.292  1.00  0.00     0.039 A 
ATOM     28  C   UNL     1       2.804   0.240 -10.348  1.00  0.00     0.014 A 
ATOM     29  C   UNL     1       1.349  -1.693 -10.370  1.00  0.00     0.014 A 
ATOM     30  C   UNL     1       3.918  -0.601 -10.432  1.00  0.00     0.010 A 
ATOM     31  C   UNL     1       2.462  -2.532 -10.389  1.00  0.00     0.010 A 
ATOM     32  C   UNL     1       3.757  -1.996 -10.426  1.00  0.00    -0.014 A 
BRANCH  32  33
ATOM     33  C   UNL     1       4.931  -2.907 -10.456  1.00  0.00     0.031 A 
ATOM     34  C   UNL     1       5.148  -3.825 -11.630  1.00  0.00     0.074 A 
ATOM     35  C   UNL     1       5.763  -2.954  -9.396  1.00  0.00     0.049 A 
ATOM     36  N   UNL     1       6.058  -4.750 -11.796  1.00  0.00    -0.248 NA
ATOM     37  C   UNL     1       4.203  -3.707 -12.753  1.00  0.00     0.031 C 
ATOM     38  C   UNL     1       5.630  -2.147  -8.180  1.00  0.00     0.029 A 
ATOM     39  N   UNL     1       6.875  -3.723  -9.161  1.00  0.00    -0.354 N 
ATOM     40  C   UNL     1       5.785  -5.336 -13.027  1.00  0.00     0.074 A 
ATOM     41  C   UNL     1       4.601  -4.689 -13.550  1.00  0.00     0.031 C 
ATOM     42  C   UNL     1       6.625  -2.458  -7.333  1.00  0.00     0.029 A 
ATOM     43  C   UNL     1       7.445  -3.508  -7.928  1.00  0.00     0.049 A 
ATOM     44  H   UNL     1       7.231  -4.369  -9.813  1.00  0.00     0.167 HD
ATOM     45  C   UNL     1       6.470  -6.312 -13.670  1.00  0.00     0.037 A 
ATOM     46  C   UNL     1       8.501  -4.100  -7.336  1.00  0.00     0.037 A 
ATOM     47  C   UNL     1       7.671  -6.923 -13.163  1.00  0.00     0.049 A 
ATOM     48  C   UNL     1       9.254  -5.169  -8.082  1.00  0.00     0.074 A 
ATOM     49  C   UNL     1       8.477  -7.869 -13.772  1.00  0.00     0.029 A 
ATOM     50  N   UNL     1       8.240  -6.649 -11.928  1.00  0.00    -0.354 N 
ATOM     51  N   UNL     1       9.020  -5.662  -9.274  1.00  0.00    -0.248 NA
ATOM     52  C   UNL     1      10.420  -5.757  -7.407  1.00  0.00     0.031 C 
ATOM     53  C   UNL     1       9.512  -8.195 -12.891  1.00  0.00     0.029 A 
ATOM     54  C   UNL     1       9.377  -7.419 -11.751  1.00  0.00     0.049 A 
ATOM     55  H   UNL     1       7.888  -6.002 -11.275  1.00  0.00     0.167 HD
ATOM     56  C   UNL     1      10.024  -6.596  -9.504  1.00  0.00     0.074 A 
ATOM     57  C   UNL     1      10.876  -6.590  -8.332  1.00  0.00     0.031 C 
ATOM     58  C   UNL     1      10.224  -7.387 -10.586  1.00  0.00     0.037 A 
BRANCH  45  59
ATOM     59  C   UNL     1       5.953  -6.779 -15.003  1.00  0.00     0.058 A 
ATOM     60  C   UNL     1       6.061  -5.983 -16.154  1.00  0.00     0.135 A 
ATOM     61  C   UNL     1       5.414  -8.068 -15.147  1.00  0.00     0.135 A 
ATOM     62  F   UNL     1       6.554  -4.737 -16.071  1.00  0.00    -0.206 F 
ATOM     63  C   UNL     1       5.642  -6.443 -17.399  1.00  0.00     0.059 A 
ATOM     64  C   UNL     1       5.011  -8.558 -16.386  1.00  0.00     0.059 A 
ATOM     65  F   UNL     1       5.286  -8.870 -14.078  1.00  0.00    -0.206 F 
ATOM     66  C   UNL     1       5.123  -7.734 -17.506  1.00  0.00     0.060 A 
BRANCH  66  67
ATOM     67  S   UNL     1       4.620  -8.329 -19.135  1.00  0.00     0.124 S 
ATOM     68  O   UNL     1       3.392  -7.570 -19.355  1.00  0.00    -0.237 OA
ATOM     69  O   UNL     1       5.756  -7.950 -19.969  1.00  0.00    -0.237 OA
ATOM     70  O   UNL     1       4.443  -9.764 -18.934  1.00  0.00    -0.744 OA
ENDBRANCH  66  67
ENDBRANCH  45  59
BRANCH  46  71
ATOM     71  C   UNL     1       8.917  -3.696  -5.966  1.00  0.00     0.058 A 
ATOM     72  C   UNL     1      10.118  -3.004  -5.750  1.00  0.00     0.135 A 
ATOM     73  C   UNL     1       8.132  -4.007  -4.846  1.00  0.00     0.135 A 
ATOM     74  F   UNL     1      10.905  -2.687  -6.789  1.00  0.00    -0.206 F 
ATOM     75  C   UNL     1      10.542  -2.662  -4.470  1.00  0.00     0.059 A 
ATOM     76  C   UNL     1       8.521  -3.652  -3.558  1.00  0.00     0.059 A 
ATOM     77  F   UNL     1       6.964  -4.651  -5.000  1.00  0.00    -0.206 F 
ATOM     78  C   UNL     1       9.738  -2.995  -3.379  1.00  0.00     0.060 A 
BRANCH  78  79
ATOM     79  S   UNL     1      10.286  -2.532  -1.722  1.00  0.00     0.124 S 
ATOM     80  O   UNL     1      11.328  -3.521  -1.472  1.00  0.00    -0.237 OA
ATOM     81  O   UNL     1      10.740  -1.159  -1.919  1.00  0.00    -0.237 OA
ATOM     82  O   UNL     1       9.075  -2.673  -0.918  1.00  0.00    -0.744 OA
ENDBRANCH  78  79
ENDBRANCH  46  71
BRANCH  58  83
ATOM     83  C   UNL     1      11.432  -8.282 -10.576  1.00  0.00     0.058 A 
ATOM     84  C   UNL     1      11.491  -9.434  -9.777  1.00  0.00     0.135 A 
ATOM     85  C   UNL     1      12.522  -8.009 -11.418  1.00  0.00     0.135 A 
ATOM     86  F   UNL     1      10.478  -9.735  -8.950  1.00  0.00    -0.206 F 
ATOM     87  C   UNL     1      12.600 -10.274  -9.797  1.00  0.00     0.059 A 
ATOM     88  C   UNL     1      13.629  -8.849 -11.474  1.00  0.00     0.059 A 
ATOM     89  F   UNL     1      12.510  -6.925 -12.210  1.00  0.00    -0.206 F 
ATOM     90  C   UNL     1      13.663  -9.973 -10.650  1.00  0.00     0.060 A 
BRANCH  90  91
ATOM     91  S   UNL     1      15.081 -11.090 -10.694  1.00  0.00     0.124 S 
ATOM     92  O   UNL     1      15.756 -10.756  -9.444  1.00  0.00    -0.237 OA
ATOM     93  O   UNL     1      14.445 -12.403 -10.740  1.00  0.00    -0.237 OA
ATOM     94  O   UNL     1      15.784 -10.699 -11.912  1.00  0.00    -0.744 OA
ENDBRANCH  90  91
ENDBRANCH  58  83
ENDBRANCH  32  33
ENDBRANCH  24  27
ENDBRANCH  22  23
ENDBRANCH   1  22
TORSDOF 15
