REMARK SMILES CC(C)N(c1cc2c(cc1Cl)C=C(C(=O)NCCCNC(=O)c1ccc(-c3c4nc(c(-c5c(F)cc(S(=O)(=O)[O-])cc5F)c5ccc([nH]5)c(-c5c(F)cc(S(=O)(=O)[O-])cc5F)c5nc(c(-c6c(F)cc(S(=O)(=O)[O-])cc6F)c6ccc3[nH]6)C=C5)C=C4)cc1)[C@@H](C(F)(F)F)O2)C(C)C
REMARK SMILES IDX 18 1 17 2 16 3 14 4 15 5 13 7 5 8 6 9 10 10 7 11 9 12 11 13
REMARK SMILES IDX 8 14 94 15 12 16 89 17 4 18 2 19 1 20 3 21 95 22 96 23 97 24
REMARK SMILES IDX 90 25 91 26 92 27 93 28 19 29 20 30 21 31 22 33 23 34 24 35
REMARK SMILES IDX 88 36 25 37 87 38 26 39 27 40 28 41 81 42 29 43 86 44 80 45
REMARK SMILES IDX 82 46 30 47 85 48 79 49 78 50 31 52 65 53 44 54 64 55 45 56
REMARK SMILES IDX 48 57 63 58 83 59 46 60 47 61 62 63 84 64 49 65 32 66 33 67
REMARK SMILES IDX 42 68 34 69 35 70 41 71 43 72 36 73 37 74 38 75 39 76 40 77
REMARK SMILES IDX 66 78 67 79 76 80 68 81 69 82 75 83 77 84 70 85 71 86 72 87
REMARK SMILES IDX 73 88 74 89 50 90 51 91 60 92 52 93 53 94 59 95 61 96 54 97
REMARK SMILES IDX 55 98 56 99 57 100 58 101
REMARK H PARENT 16 6 20 32 82 51 48 62
REMARK Flexibility Score: inf
ROOT
ATOM      1  C   UNL     1      -7.385   2.804  -6.742  1.00  0.00     0.042 C 
ENDROOT
BRANCH   1   2
ATOM      2  C   UNL     1      -7.545   1.343  -6.348  1.00  0.00     0.118 C 
BRANCH   2   3
ATOM      3  N   UNL     1      -6.660   0.473  -7.111  1.00  0.00    -0.352 N 
ATOM      4  C   UNL     1      -5.510  -0.208  -6.902  1.00  0.00     0.251 C 
ATOM      5  O   UNL     1      -5.096  -0.842  -7.879  1.00  0.00    -0.270 OA
ATOM      6  H   UNL     1      -6.989   0.346  -8.030  1.00  0.00     0.163 HD
BRANCH   4   7
ATOM      7  C   UNL     1      -4.751  -0.252  -5.620  1.00  0.00     0.067 C 
ATOM      8  C   UNL     1      -1.412  -1.295  -1.953  1.00  0.00     0.060 A 
ATOM      9  C   UNL     1      -2.399  -0.312  -2.158  1.00  0.00     0.074 A 
ATOM     10  C   UNL     1      -1.168  -2.183  -3.030  1.00  0.00     0.065 A 
ATOM     11  C   UNL     1      -3.129  -0.245  -3.344  1.00  0.00     0.130 A 
ATOM     12  C   UNL     1      -1.864  -2.071  -4.245  1.00  0.00     0.034 A 
ATOM     13  Cl  UNL     1      -0.081  -3.529  -2.909  1.00  0.00    -0.082 Cl
ATOM     14  C   UNL     1      -2.857  -1.107  -4.400  1.00  0.00     0.019 A 
ATOM     15  O   UNL     1      -4.107   0.709  -3.420  1.00  0.00    -0.475 OA
ATOM     16  C   UNL     1      -3.616  -0.977  -5.637  1.00  0.00     0.025 C 
ATOM     17  C   UNL     1      -5.193   0.407  -4.343  1.00  0.00     0.314 C 
BRANCH   8  18
ATOM     18  N   UNL     1      -0.751  -1.357  -0.709  1.00  0.00    -0.365 N 
BRANCH  18  19
ATOM     19  C   UNL     1       0.721  -1.206  -0.731  1.00  0.00     0.076 C 
ATOM     20  C   UNL     1       1.191   0.169  -0.258  1.00  0.00     0.030 C 
ATOM     21  C   UNL     1       1.448  -2.317   0.022  1.00  0.00     0.030 C 
ENDBRANCH  18  19
BRANCH  18  22
ATOM     22  C   UNL     1      -1.614  -1.364   0.494  1.00  0.00     0.076 C 
ATOM     23  C   UNL     1      -1.422  -2.616   1.346  1.00  0.00     0.030 C 
ATOM     24  C   UNL     1      -1.508  -0.098   1.339  1.00  0.00     0.030 C 
ENDBRANCH  18  22
ENDBRANCH   8  18
BRANCH  17  25
ATOM     25  C   UNL     1      -6.286  -0.404  -3.615  1.00  0.00     0.429 C 
ATOM     26  F   UNL     1      -6.907   0.358  -2.682  1.00  0.00    -0.167 F 
ATOM     27  F   UNL     1      -7.253  -0.843  -4.457  1.00  0.00    -0.167 F 
ATOM     28  F   UNL     1      -5.799  -1.498  -2.986  1.00  0.00    -0.167 F 
ENDBRANCH  17  25
ENDBRANCH   4   7
ENDBRANCH   2   3
ENDBRANCH   1   2
BRANCH   1  29
ATOM     29  C   UNL     1      -8.047   3.122  -8.078  1.00  0.00     0.118 C 
BRANCH  29  30
ATOM     30  N   UNL     1      -9.506   3.057  -8.001  1.00  0.00    -0.352 N 
ATOM     31  C   UNL     1     -10.442   4.066  -8.022  1.00  0.00     0.251 C 
ATOM     32  H   UNL     1      -9.878   2.149  -7.921  1.00  0.00     0.163 HD
ATOM     33  O   UNL     1     -11.608   3.823  -7.723  1.00  0.00    -0.269 OA
BRANCH  31  34
ATOM     34  C   UNL     1     -10.035   5.440  -8.379  1.00  0.00     0.039 A 
ATOM     35  C   UNL     1      -9.171   5.655  -9.453  1.00  0.00     0.014 A 
ATOM     36  C   UNL     1     -10.497   6.520  -7.622  1.00  0.00     0.014 A 
ATOM     37  C   UNL     1      -8.604   6.909  -9.634  1.00  0.00     0.010 A 
ATOM     38  C   UNL     1     -10.005   7.804  -7.877  1.00  0.00     0.010 A 
ATOM     39  C   UNL     1      -9.006   7.998  -8.844  1.00  0.00    -0.014 A 
BRANCH  39  40
ATOM     40  C   UNL     1      -8.336   9.312  -9.033  1.00  0.00     0.031 A 
ATOM     41  C   UNL     1      -7.521   9.925  -7.924  1.00  0.00     0.074 A 
ATOM     42  C   UNL     1      -8.387   9.907 -10.242  1.00  0.00     0.049 A 
ATOM     43  N   UNL     1      -6.850  11.049  -7.920  1.00  0.00    -0.248 NA
ATOM     44  C   UNL     1      -7.452   9.187  -6.652  1.00  0.00     0.031 C 
ATOM     45  C   UNL     1      -9.125   9.397 -11.401  1.00  0.00     0.029 A 
ATOM     46  N   UNL     1      -7.777  11.041 -10.713  1.00  0.00    -0.354 N 
ATOM     47  C   UNL     1      -6.302  11.165  -6.647  1.00  0.00     0.074 A 
ATOM     48  C   UNL     1      -6.738  10.009  -5.894  1.00  0.00     0.031 C 
ATOM     49  C   UNL     1      -8.864  10.170 -12.464  1.00  0.00     0.029 A 
ATOM     50  C   UNL     1      -8.002  11.271 -12.049  1.00  0.00     0.049 A 
ATOM     51  H   UNL     1      -7.230  11.633 -10.148  1.00  0.00     0.167 HD
ATOM     52  C   UNL     1      -5.500  12.139  -6.155  1.00  0.00     0.037 A 
ATOM     53  C   UNL     1      -7.574  12.264 -12.852  1.00  0.00     0.037 A 
ATOM     54  C   UNL     1      -5.039  13.269  -6.920  1.00  0.00     0.049 A 
ATOM     55  C   UNL     1      -6.711  13.347 -12.275  1.00  0.00     0.074 A 
ATOM     56  C   UNL     1      -4.218  14.306  -6.514  1.00  0.00     0.029 A 
ATOM     57  N   UNL     1      -5.350  13.504  -8.252  1.00  0.00    -0.354 N 
ATOM     58  N   UNL     1      -6.233  13.455 -11.059  1.00  0.00    -0.248 NA
ATOM     59  C   UNL     1      -6.347  14.453 -13.170  1.00  0.00     0.031 C 
ATOM     60  C   UNL     1      -4.056  15.184  -7.591  1.00  0.00     0.029 A 
ATOM     61  C   UNL     1      -4.748  14.675  -8.679  1.00  0.00     0.049 A 
ATOM     62  H   UNL     1      -5.915  12.923  -8.811  1.00  0.00     0.167 HD
ATOM     63  C   UNL     1      -5.515  14.644 -11.039  1.00  0.00     0.074 A 
ATOM     64  C   UNL     1      -5.599  15.205 -12.373  1.00  0.00     0.031 C 
ATOM     65  C   UNL     1      -4.854  15.223 -10.008  1.00  0.00     0.037 A 
BRANCH  52  66
ATOM     66  C   UNL     1      -5.074  12.037  -4.717  1.00  0.00     0.058 A 
ATOM     67  C   UNL     1      -4.101  11.114  -4.300  1.00  0.00     0.135 A 
ATOM     68  C   UNL     1      -5.611  12.903  -3.751  1.00  0.00     0.135 A 
ATOM     69  F   UNL     1      -3.570  10.250  -5.179  1.00  0.00    -0.206 F 
ATOM     70  C   UNL     1      -3.688  11.043  -2.974  1.00  0.00     0.059 A 
ATOM     71  C   UNL     1      -5.197  12.864  -2.422  1.00  0.00     0.059 A 
ATOM     72  F   UNL     1      -6.546  13.803  -4.096  1.00  0.00    -0.206 F 
ATOM     73  C   UNL     1      -4.243  11.922  -2.041  1.00  0.00     0.060 A 
BRANCH  73  74
ATOM     74  S   UNL     1      -3.691  11.820  -0.325  1.00  0.00     0.124 S 
ATOM     75  O   UNL     1      -4.325  10.579   0.110  1.00  0.00    -0.237 OA
ATOM     76  O   UNL     1      -2.239  11.773  -0.466  1.00  0.00    -0.237 OA
ATOM     77  O   UNL     1      -4.221  13.039   0.277  1.00  0.00    -0.744 OA
ENDBRANCH  73  74
ENDBRANCH  52  66
BRANCH  53  78
ATOM     78  C   UNL     1      -7.972  12.274 -14.283  1.00  0.00     0.058 A 
ATOM     79  C   UNL     1      -7.040  11.996 -15.293  1.00  0.00     0.135 A 
ATOM     80  C   UNL     1      -9.302  12.511 -14.665  1.00  0.00     0.135 A 
ATOM     81  F   UNL     1      -5.756  11.771 -14.977  1.00  0.00    -0.206 F 
ATOM     82  C   UNL     1      -7.412  11.949 -16.632  1.00  0.00     0.059 A 
ATOM     83  C   UNL     1      -9.703  12.445 -15.995  1.00  0.00     0.059 A 
ATOM     84  F   UNL     1     -10.233  12.767 -13.733  1.00  0.00    -0.206 F 
ATOM     85  C   UNL     1      -8.749  12.167 -16.972  1.00  0.00     0.060 A 
BRANCH  85  86
ATOM     86  S   UNL     1      -9.238  12.025 -18.705  1.00  0.00     0.124 S 
ATOM     87  O   UNL     1      -8.707  13.263 -19.262  1.00  0.00    -0.237 OA
ATOM     88  O   UNL     1      -8.563  10.798 -19.115  1.00  0.00    -0.237 OA
ATOM     89  O   UNL     1     -10.694  11.935 -18.635  1.00  0.00    -0.744 OA
ENDBRANCH  85  86
ENDBRANCH  53  78
BRANCH  65  90
ATOM     90  C   UNL     1      -4.176  16.534 -10.278  1.00  0.00     0.058 A 
ATOM     91  C   UNL     1      -4.911  17.725 -10.378  1.00  0.00     0.135 A 
ATOM     92  C   UNL     1      -2.779  16.609 -10.384  1.00  0.00     0.135 A 
ATOM     93  F   UNL     1      -6.250  17.702 -10.292  1.00  0.00    -0.206 F 
ATOM     94  C   UNL     1      -4.283  18.948 -10.588  1.00  0.00     0.059 A 
ATOM     95  C   UNL     1      -2.129  17.824 -10.574  1.00  0.00     0.059 A 
ATOM     96  F   UNL     1      -2.033  15.497 -10.288  1.00  0.00    -0.206 F 
ATOM     97  C   UNL     1      -2.891  18.987 -10.682  1.00  0.00     0.060 A 
BRANCH  97  98
ATOM     98  S   UNL     1      -2.086  20.586 -10.916  1.00  0.00     0.124 S 
ATOM     99  O   UNL     1      -2.385  20.863 -12.317  1.00  0.00    -0.237 OA
ATOM    100  O   UNL     1      -2.775  21.428  -9.943  1.00  0.00    -0.237 OA
ATOM    101  O   UNL     1      -0.685  20.308 -10.616  1.00  0.00    -0.744 OA
ENDBRANCH  97  98
ENDBRANCH  65  90
ENDBRANCH  39  40
ENDBRANCH  31  34
ENDBRANCH  29  30
ENDBRANCH   1  29
TORSDOF 17
