REMARK SMILES C[C@]12C[C@@H](O)[C@H]3[C@@H](CCC4=CC(=O)C=C[C@]43C)[C@H]1CC[C@]2(O)C(=O)COC(=O)CCC(=O)NCCCNC(=O)c1ccc(-c2c3nc(c(-c4c(F)cc(S(=O)(=O)[O-])cc4F)c4ccc([nH]4)c(-c4c(F)cc(S(=O)(=O)[O-])cc4F)c4nc(c(-c5c(F)cc(S(=O)(=O)[O-])cc5F)c5ccc2[nH]5)C=C4)C=C3)cc1
REMARK SMILES IDX 31 1 32 2 33 3 30 5 29 6 27 7 28 8 26 9 25 10 23 11 24 12
REMARK SMILES IDX 21 13 17 14 16 15 15 16 10 17 6 18 14 19 11 20 9 21 7 22
REMARK SMILES IDX 4 23 12 24 8 25 18 26 3 27 13 28 2 29 19 30 1 31 20 32 5 33
REMARK SMILES IDX 22 35 34 37 35 38 36 39 37 40 38 41 39 43 40 44 41 45 105 46
REMARK SMILES IDX 42 47 104 48 43 49 44 50 45 51 98 52 46 53 103 54 97 55
REMARK SMILES IDX 99 56 47 57 102 58 96 59 95 60 48 62 82 63 61 64 81 65 62 66
REMARK SMILES IDX 65 67 80 68 100 69 63 70 64 71 79 73 101 74 66 75 49 76
REMARK SMILES IDX 50 77 59 78 51 79 52 80 58 81 60 82 53 83 54 84 55 85 56 86
REMARK SMILES IDX 57 87 83 88 84 89 93 90 85 91 86 92 92 93 94 94 87 95 88 96
REMARK SMILES IDX 89 97 90 98 91 99 67 100 68 101 77 102 69 103 70 104 76 105
REMARK SMILES IDX 78 106 71 107 72 108 73 109 74 110 75 111
REMARK H PARENT 33 4 5 34 22 36 37 42 99 61 65 72
REMARK Flexibility Score: inf
ROOT
ATOM      1  C   UNL     1       6.457  -4.897  -3.378  1.00  0.00     0.220 C 
ATOM      2  O   UNL     1       7.382  -5.219  -2.630  1.00  0.00    -0.275 OA
ATOM      3  N   UNL     1       5.212  -5.351  -3.084  1.00  0.00    -0.356 N 
ATOM      4  H   UNL     1       5.168  -5.934  -2.292  1.00  0.00     0.163 HD
ENDROOT
BRANCH   1   5
ATOM      5  C   UNL     1       6.701  -3.979  -4.554  1.00  0.00     0.111 C 
BRANCH   5   6
ATOM      6  C   UNL     1       6.464  -4.615  -5.918  1.00  0.00     0.132 C 
BRANCH   6   7
ATOM      7  C   UNL     1       5.583  -3.732  -6.769  1.00  0.00     0.306 C 
ATOM      8  O   UNL     1       5.941  -2.648  -7.219  1.00  0.00    -0.252 OA
BRANCH   7   9
ATOM      9  O   UNL     1       4.316  -4.211  -6.862  1.00  0.00    -0.458 OA
BRANCH   9  10
ATOM     10  C   UNL     1       3.428  -3.496  -7.715  1.00  0.00     0.311 C 
BRANCH  10  11
ATOM     11  C   UNL     1       2.677  -2.184  -7.361  1.00  0.00     0.202 C 
ATOM     12  O   UNL     1       1.919  -1.696  -8.211  1.00  0.00    -0.293 OA
BRANCH  11  13
ATOM     13  C   UNL     1       2.937  -1.432  -6.026  1.00  0.00     0.132 C 
ATOM     14  C   UNL     1       1.218   0.326   0.247  1.00  0.00     0.021 C 
ATOM     15  C   UNL     1       0.282   0.423  -1.000  1.00  0.00     0.013 C 
ATOM     16  C   UNL     1      -0.944  -0.442  -0.664  1.00  0.00    -0.012 C 
ATOM     17  C   UNL     1      -0.209   1.884  -1.096  1.00  0.00    -0.056 C 
ATOM     18  C   UNL     1       1.138  -0.061  -2.248  1.00  0.00     0.035 C 
ATOM     19  C   UNL     1      -1.934  -0.006   0.134  1.00  0.00     0.048 C 
ATOM     20  C   UNL     1      -1.180   2.338  -0.274  1.00  0.00     0.052 C 
ATOM     21  C   UNL     1       0.213   2.804  -2.208  1.00  0.00     0.032 C 
ATOM     22  C   UNL     1       0.849   0.749  -3.531  1.00  0.00    -0.000 C 
ATOM     23  C   UNL     1       1.107  -1.578  -2.514  1.00  0.00     0.119 C 
ATOM     24  C   UNL     1      -1.927   1.399   0.593  1.00  0.00     0.178 C 
ATOM     25  C   UNL     1       1.149   2.222  -3.248  1.00  0.00     0.009 C 
ATOM     26  C   UNL     1       1.587   0.284  -4.814  1.00  0.00     0.002 C 
ATOM     27  C   UNL     1       2.050  -1.927  -3.652  1.00  0.00     0.042 C 
ATOM     28  O   UNL     1      -2.585   1.778   1.551  1.00  0.00    -0.290 OA
ATOM     29  C   UNL     1       1.715  -1.253  -5.003  1.00  0.00     0.009 C 
ATOM     30  C   UNL     1       2.998   0.797  -5.082  1.00  0.00     0.008 C 
ATOM     31  C   UNL     1       0.330  -1.732  -5.463  1.00  0.00     0.015 C 
ATOM     32  C   UNL     1       3.352   0.024  -6.350  1.00  0.00     0.044 C 
BRANCH  23  33
ATOM     33  O   UNL     1       1.587  -2.315  -1.389  1.00  0.00    -0.393 OA
ATOM     34  H   UNL     1       2.509  -2.070  -1.212  1.00  0.00     0.210 HD
ENDBRANCH  23  33
BRANCH  13  35
ATOM     35  O   UNL     1       4.059  -1.965  -5.325  1.00  0.00    -0.381 OA
ATOM     36  H   UNL     1       4.189  -1.472  -4.501  1.00  0.00     0.212 HD
ENDBRANCH  13  35
ENDBRANCH  11  13
ENDBRANCH  10  11
ENDBRANCH   9  10
ENDBRANCH   7   9
ENDBRANCH   6   7
ENDBRANCH   5   6
ENDBRANCH   1   5
BRANCH   3  37
ATOM     37  C   UNL     1       3.934  -5.126  -3.734  1.00  0.00     0.117 C 
BRANCH  37  38
ATOM     38  C   UNL     1       3.522  -6.336  -4.562  1.00  0.00     0.042 C 
BRANCH  38  39
ATOM     39  C   UNL     1       2.020  -6.503  -4.749  1.00  0.00     0.118 C 
BRANCH  39  40
ATOM     40  N   UNL     1       1.358  -5.386  -5.395  1.00  0.00    -0.352 N 
ATOM     41  C   UNL     1       0.333  -5.319  -6.305  1.00  0.00     0.251 C 
ATOM     42  H   UNL     1       1.713  -4.507  -5.131  1.00  0.00     0.163 HD
ATOM     43  O   UNL     1       0.017  -4.211  -6.735  1.00  0.00    -0.269 OA
BRANCH  41  44
ATOM     44  C   UNL     1      -0.355  -6.485  -6.884  1.00  0.00     0.039 A 
ATOM     45  C   UNL     1      -1.026  -6.275  -8.102  1.00  0.00     0.014 A 
ATOM     46  C   UNL     1      -0.325  -7.759  -6.332  1.00  0.00     0.014 A 
ATOM     47  C   UNL     1      -1.529  -7.348  -8.822  1.00  0.00     0.010 A 
ATOM     48  C   UNL     1      -0.699  -8.843  -7.109  1.00  0.00     0.010 A 
ATOM     49  C   UNL     1      -1.282  -8.645  -8.368  1.00  0.00    -0.014 A 
BRANCH  49  50
ATOM     50  C   UNL     1      -1.607  -9.819  -9.198  1.00  0.00     0.031 A 
ATOM     51  C   UNL     1      -2.550 -10.851  -8.660  1.00  0.00     0.074 A 
ATOM     52  C   UNL     1      -0.960  -9.985 -10.369  1.00  0.00     0.049 A 
ATOM     53  N   UNL     1      -2.815 -12.042  -9.118  1.00  0.00    -0.248 NA
ATOM     54  C   UNL     1      -3.245 -10.518  -7.404  1.00  0.00     0.031 C 
ATOM     55  C   UNL     1       0.015  -9.050 -10.944  1.00  0.00     0.029 A 
ATOM     56  N   UNL     1      -1.011 -11.004 -11.280  1.00  0.00    -0.354 N 
ATOM     57  C   UNL     1      -3.668 -12.618  -8.185  1.00  0.00     0.074 A 
ATOM     58  C   UNL     1      -3.837 -11.666  -7.111  1.00  0.00     0.031 C 
ATOM     59  C   UNL     1       0.444  -9.525 -12.123  1.00  0.00     0.029 A 
ATOM     60  C   UNL     1      -0.180 -10.819 -12.361  1.00  0.00     0.049 A 
ATOM     61  H   UNL     1      -1.588 -11.795 -11.174  1.00  0.00     0.167 HD
ATOM     62  C   UNL     1      -4.268 -13.828  -8.240  1.00  0.00     0.037 A 
ATOM     63  C   UNL     1       0.057 -11.620 -13.416  1.00  0.00     0.037 A 
ATOM     64  C   UNL     1      -4.126 -14.723  -9.356  1.00  0.00     0.049 A 
ATOM     65  C   UNL     1      -0.669 -12.934 -13.479  1.00  0.00     0.074 A 
ATOM     66  C   UNL     1      -4.735 -15.946  -9.565  1.00  0.00     0.029 A 
ATOM     67  N   UNL     1      -3.325 -14.476 -10.464  1.00  0.00    -0.354 N 
ATOM     68  N   UNL     1      -1.498 -13.456 -12.605  1.00  0.00    -0.248 NA
ATOM     69  C   UNL     1      -0.433 -13.765 -14.664  1.00  0.00     0.031 C 
ATOM     70  C   UNL     1      -4.282 -16.450 -10.789  1.00  0.00     0.029 A 
ATOM     71  C   UNL     1      -3.421 -15.524 -11.360  1.00  0.00     0.049 A 
ATOM     72  H   UNL     1      -2.772 -13.672 -10.592  1.00  0.00     0.167 HD
ATOM     73  C   UNL     1      -1.903 -14.669 -13.145  1.00  0.00     0.074 A 
ATOM     74  C   UNL     1      -1.236 -14.794 -14.428  1.00  0.00     0.031 C 
ATOM     75  C   UNL     1      -2.746 -15.599 -12.632  1.00  0.00     0.037 A 
BRANCH  62  76
ATOM     76  C   UNL     1      -5.124 -14.233  -7.073  1.00  0.00     0.058 A 
ATOM     77  C   UNL     1      -6.346 -13.598  -6.796  1.00  0.00     0.135 A 
ATOM     78  C   UNL     1      -4.717 -15.267  -6.216  1.00  0.00     0.135 A 
ATOM     79  F   UNL     1      -6.772 -12.585  -7.567  1.00  0.00    -0.206 F 
ATOM     80  C   UNL     1      -7.116 -13.949  -5.692  1.00  0.00     0.059 A 
ATOM     81  C   UNL     1      -5.486 -15.656  -5.122  1.00  0.00     0.059 A 
ATOM     82  F   UNL     1      -3.553 -15.903  -6.428  1.00  0.00    -0.206 F 
ATOM     83  C   UNL     1      -6.676 -14.979  -4.859  1.00  0.00     0.060 A 
BRANCH  83  84
ATOM     84  S   UNL     1      -7.685 -15.423  -3.431  1.00  0.00     0.124 S 
ATOM     85  O   UNL     1      -7.408 -14.313  -2.524  1.00  0.00    -0.237 OA
ATOM     86  O   UNL     1      -9.030 -15.458  -3.996  1.00  0.00    -0.237 OA
ATOM     87  O   UNL     1      -7.146 -16.717  -3.023  1.00  0.00    -0.744 OA
ENDBRANCH  83  84
ENDBRANCH  62  76
BRANCH  63  88
ATOM     88  C   UNL     1       0.988 -11.187 -14.491  1.00  0.00     0.058 A 
ATOM     89  C   UNL     1       0.501 -10.819 -15.754  1.00  0.00     0.135 A 
ATOM     90  C   UNL     1       2.372 -11.098 -14.274  1.00  0.00     0.135 A 
ATOM     91  F   UNL     1      -0.814 -10.883 -16.009  1.00  0.00    -0.206 F 
ATOM     92  C   UNL     1       1.353 -10.397 -16.770  1.00  0.00     0.059 A 
ATOM     93  C   UNL     1       3.242 -10.657 -15.267  1.00  0.00     0.059 A 
ATOM     94  F   UNL     1       2.887 -11.413 -13.075  1.00  0.00    -0.206 F 
ATOM     95  C   UNL     1       2.723 -10.320 -16.517  1.00  0.00     0.060 A 
BRANCH  95  96
ATOM     96  S   UNL     1       3.816  -9.731 -17.830  1.00  0.00     0.124 S 
ATOM     97  O   UNL     1       3.854 -10.887 -18.718  1.00  0.00    -0.237 OA
ATOM     98  O   UNL     1       3.095  -8.564 -18.330  1.00  0.00    -0.237 OA
ATOM     99  O   UNL     1       5.058  -9.435 -17.123  1.00  0.00    -0.744 OA
ENDBRANCH  95  96
ENDBRANCH  63  88
BRANCH  75 100
ATOM    100  C   UNL     1      -3.015 -16.806 -13.479  1.00  0.00     0.058 A 
ATOM    101  C   UNL     1      -2.066 -17.829 -13.620  1.00  0.00     0.135 A 
ATOM    102  C   UNL     1      -4.258 -16.961 -14.113  1.00  0.00     0.135 A 
ATOM    103  F   UNL     1      -0.862 -17.719 -13.037  1.00  0.00    -0.206 F 
ATOM    104  C   UNL     1      -2.332 -18.959 -14.382  1.00  0.00     0.059 A 
ATOM    105  C   UNL     1      -4.554 -18.095 -14.859  1.00  0.00     0.059 A 
ATOM    106  F   UNL     1      -5.200 -16.012 -13.997  1.00  0.00    -0.206 F 
ATOM    107  C   UNL     1      -3.580 -19.084 -14.996  1.00  0.00     0.060 A 
BRANCH 107 108
ATOM    108  S   UNL     1      -3.928 -20.572 -15.954  1.00  0.00     0.124 S 
ATOM    109  O   UNL     1      -3.177 -20.314 -17.178  1.00  0.00    -0.237 OA
ATOM    110  O   UNL     1      -3.399 -21.628 -15.095  1.00  0.00    -0.237 OA
ATOM    111  O   UNL     1      -5.381 -20.554 -16.091  1.00  0.00    -0.744 OA
ENDBRANCH 107 108
ENDBRANCH  75 100
ENDBRANCH  49  50
ENDBRANCH  41  44
ENDBRANCH  39  40
ENDBRANCH  38  39
ENDBRANCH  37  38
ENDBRANCH   3  37
TORSDOF 21
