REMARK SMILES O=C(Cc1cccn(C(F)F)c1=O)NCCCNC(=O)c1ccc(-c2c3nc(c(-c4c(F)cc(S(=O)(=O)[O-])cc4F)c4ccc([nH]4)c(-c4c(F)cc(S(=O)(=O)[O-])cc4F)c4nc(c(-c5c(F)cc(S(=O)(=O)[O-])cc5F)c5ccc2[nH]5)C=C4)C=C3)cc1
REMARK SMILES IDX 16 1 15 2 14 3 1 4 2 5 3 7 4 8 5 9 12 10 6 11 8 12 13 13
REMARK SMILES IDX 7 14 9 15 10 16 11 17 17 18 18 19 19 20 20 22 21 23 22 24
REMARK SMILES IDX 86 25 23 26 85 27 24 28 25 29 26 30 79 31 27 32 84 33 78 34
REMARK SMILES IDX 80 35 28 36 83 37 77 38 76 39 29 41 63 42 42 43 62 44 43 45
REMARK SMILES IDX 46 46 61 47 81 48 44 49 45 50 60 52 82 53 47 54 30 55 31 56
REMARK SMILES IDX 40 57 32 58 33 59 39 60 41 61 34 62 35 63 36 64 37 65 38 66
REMARK SMILES IDX 64 67 65 68 74 69 66 70 67 71 73 72 75 73 68 74 69 75 70 76
REMARK SMILES IDX 71 77 72 78 48 79 49 80 58 81 50 82 51 83 57 84 59 85 52 86
REMARK SMILES IDX 53 87 54 88 55 89 56 90
REMARK H PARENT 14 6 18 21 80 40 46 51
REMARK Flexibility Score: inf
ROOT
ATOM      1  C   UNL     1       2.221   3.354  -1.046  1.00  0.00     0.042 C 
ENDROOT
BRANCH   1   2
ATOM      2  C   UNL     1       2.059   1.881  -1.400  1.00  0.00     0.117 C 
BRANCH   2   3
ATOM      3  N   UNL     1       2.747   1.004  -0.474  1.00  0.00    -0.356 N 
ATOM      4  O   UNL     1       1.123  -0.623  -0.423  1.00  0.00    -0.275 OA
ATOM      5  C   UNL     1       2.225  -0.212  -0.075  1.00  0.00     0.224 C 
ATOM      6  H   UNL     1       3.619   1.285  -0.114  1.00  0.00     0.163 HD
BRANCH   5   7
ATOM      7  C   UNL     1       3.179  -1.024   0.789  1.00  0.00     0.141 C 
BRANCH   7   8
ATOM      8  C   UNL     1       4.026  -1.873  -0.114  1.00  0.00     0.027 A 
ATOM      9  C   UNL     1       5.130  -1.421  -0.737  1.00  0.00     0.011 A 
ATOM     10  C   UNL     1       3.616  -3.304  -0.313  1.00  0.00     0.258 A 
ATOM     11  C   UNL     1       5.879  -2.258  -1.637  1.00  0.00     0.019 A 
ATOM     12  N   UNL     1       4.395  -4.043  -1.189  1.00  0.00    -0.258 N 
ATOM     13  O   UNL     1       2.660  -3.770   0.300  1.00  0.00    -0.269 OA
ATOM     14  C   UNL     1       5.496  -3.522  -1.840  1.00  0.00     0.095 A 
BRANCH  12  15
ATOM     15  C   UNL     1       4.032  -5.419  -1.405  1.00  0.00     0.451 C 
ATOM     16  F   UNL     1       3.784  -5.624  -2.727  1.00  0.00    -0.185 F 
ATOM     17  F   UNL     1       5.087  -6.221  -1.094  1.00  0.00    -0.185 F 
ENDBRANCH  12  15
ENDBRANCH   7   8
ENDBRANCH   5   7
ENDBRANCH   2   3
ENDBRANCH   1   2
BRANCH   1  18
ATOM     18  C   UNL     1       3.657   3.869  -1.042  1.00  0.00     0.118 C 
BRANCH  18  19
ATOM     19  N   UNL     1       4.301   3.864  -2.348  1.00  0.00    -0.352 N 
ATOM     20  C   UNL     1       5.153   4.804  -2.889  1.00  0.00     0.251 C 
ATOM     21  H   UNL     1       4.101   3.088  -2.920  1.00  0.00     0.163 HD
ATOM     22  O   UNL     1       5.546   4.683  -4.045  1.00  0.00    -0.269 OA
BRANCH  20  23
ATOM     23  C   UNL     1       5.554   5.982  -2.084  1.00  0.00     0.039 A 
ATOM     24  C   UNL     1       5.973   5.834  -0.761  1.00  0.00     0.014 A 
ATOM     25  C   UNL     1       5.461   7.258  -2.648  1.00  0.00     0.014 A 
ATOM     26  C   UNL     1       6.122   6.959   0.044  1.00  0.00     0.010 A 
ATOM     27  C   UNL     1       5.692   8.389  -1.856  1.00  0.00     0.010 A 
ATOM     28  C   UNL     1       5.966   8.251  -0.487  1.00  0.00    -0.014 A 
BRANCH  28  29
ATOM     29  C   UNL     1       6.067   9.425   0.422  1.00  0.00     0.031 A 
ATOM     30  C   UNL     1       4.865  10.293   0.699  1.00  0.00     0.074 A 
ATOM     31  C   UNL     1       7.225   9.660   1.070  1.00  0.00     0.049 A 
ATOM     32  N   UNL     1       4.752  11.302   1.526  1.00  0.00    -0.248 NA
ATOM     33  C   UNL     1       3.632   9.995  -0.048  1.00  0.00     0.031 C 
ATOM     34  C   UNL     1       8.459   8.893   0.891  1.00  0.00     0.029 A 
ATOM     35  N   UNL     1       7.545  10.582   2.035  1.00  0.00    -0.354 N 
ATOM     36  C   UNL     1       3.447  11.764   1.393  1.00  0.00     0.074 A 
ATOM     37  C   UNL     1       2.814  10.947   0.380  1.00  0.00     0.031 C 
ATOM     38  C   UNL     1       9.379   9.330   1.764  1.00  0.00     0.029 A 
ATOM     39  C   UNL     1       8.821  10.441   2.529  1.00  0.00     0.049 A 
ATOM     40  H   UNL     1       6.921  11.277   2.345  1.00  0.00     0.167 HD
ATOM     41  C   UNL     1       2.827  12.764   2.064  1.00  0.00     0.037 A 
ATOM     42  C   UNL     1       9.472  11.126   3.489  1.00  0.00     0.037 A 
ATOM     43  C   UNL     1       3.446  13.561   3.091  1.00  0.00     0.049 A 
ATOM     44  C   UNL     1       8.771  12.247   4.200  1.00  0.00     0.074 A 
ATOM     45  C   UNL     1       2.888  14.580   3.842  1.00  0.00     0.029 A 
ATOM     46  N   UNL     1       4.760  13.427   3.514  1.00  0.00    -0.354 N 
ATOM     47  N   UNL     1       7.534  12.660   4.064  1.00  0.00    -0.248 NA
ATOM     48  C   UNL     1       9.556  13.005   5.185  1.00  0.00     0.031 C 
ATOM     49  C   UNL     1       3.873  15.086   4.696  1.00  0.00     0.029 A 
ATOM     50  C   UNL     1       5.035  14.358   4.503  1.00  0.00     0.049 A 
ATOM     51  H   UNL     1       5.402  12.768   3.164  1.00  0.00     0.167 HD
ATOM     52  C   UNL     1       7.391  13.724   4.946  1.00  0.00     0.074 A 
ATOM     53  C   UNL     1       8.660  13.878   5.628  1.00  0.00     0.031 C 
ATOM     54  C   UNL     1       6.306  14.506   5.167  1.00  0.00     0.037 A 
BRANCH  41  55
ATOM     55  C   UNL     1       1.395  13.061   1.712  1.00  0.00     0.058 A 
ATOM     56  C   UNL     1       0.349  12.219   2.122  1.00  0.00     0.135 A 
ATOM     57  C   UNL     1       1.059  14.228   1.007  1.00  0.00     0.135 A 
ATOM     58  F   UNL     1       0.617  11.083   2.785  1.00  0.00    -0.206 F 
ATOM     59  C   UNL     1      -0.978  12.515   1.830  1.00  0.00     0.059 A 
ATOM     60  C   UNL     1      -0.264  14.555   0.722  1.00  0.00     0.059 A 
ATOM     61  F   UNL     1       2.022  15.067   0.593  1.00  0.00    -0.206 F 
ATOM     62  C   UNL     1      -1.275  13.686   1.129  1.00  0.00     0.060 A 
BRANCH  62  63
ATOM     63  S   UNL     1      -3.004  14.058   0.766  1.00  0.00     0.124 S 
ATOM     64  O   UNL     1      -3.299  13.077  -0.274  1.00  0.00    -0.237 OA
ATOM     65  O   UNL     1      -3.650  13.827   2.054  1.00  0.00    -0.237 OA
ATOM     66  O   UNL     1      -2.968  15.448   0.325  1.00  0.00    -0.744 OA
ENDBRANCH  62  63
ENDBRANCH  41  55
BRANCH  42  67
ATOM     67  C   UNL     1      10.866  10.751   3.837  1.00  0.00     0.058 A 
ATOM     68  C   UNL     1      11.157  10.105   5.047  1.00  0.00     0.135 A 
ATOM     69  C   UNL     1      11.926  10.989   2.948  1.00  0.00     0.135 A 
ATOM     70  F   UNL     1      10.178   9.863   5.931  1.00  0.00    -0.206 F 
ATOM     71  C   UNL     1      12.451   9.704   5.364  1.00  0.00     0.059 A 
ATOM     72  C   UNL     1      13.223  10.578   3.232  1.00  0.00     0.059 A 
ATOM     73  F   UNL     1      11.694  11.593   1.772  1.00  0.00    -0.206 F 
ATOM     74  C   UNL     1      13.476   9.938   4.445  1.00  0.00     0.060 A 
BRANCH  74  75
ATOM     75  S   UNL     1      15.136   9.340   4.829  1.00  0.00     0.124 S 
ATOM     76  O   UNL     1      15.568  10.300   5.838  1.00  0.00    -0.237 OA
ATOM     77  O   UNL     1      14.872   7.986   5.306  1.00  0.00    -0.237 OA
ATOM     78  O   UNL     1      15.826   9.419   3.545  1.00  0.00    -0.744 OA
ENDBRANCH  74  75
ENDBRANCH  42  67
BRANCH  54  79
ATOM     79  C   UNL     1       6.438  15.605   6.181  1.00  0.00     0.058 A 
ATOM     80  C   UNL     1       7.127  16.791   5.882  1.00  0.00     0.135 A 
ATOM     81  C   UNL     1       5.809  15.506   7.431  1.00  0.00     0.135 A 
ATOM     82  F   UNL     1       7.751  16.930   4.702  1.00  0.00    -0.206 F 
ATOM     83  C   UNL     1       7.193  17.839   6.793  1.00  0.00     0.059 A 
ATOM     84  C   UNL     1       5.846  16.550   8.350  1.00  0.00     0.059 A 
ATOM     85  F   UNL     1       5.132  14.394   7.761  1.00  0.00    -0.206 F 
ATOM     86  C   UNL     1       6.545  17.712   8.023  1.00  0.00     0.060 A 
BRANCH  86  87
ATOM     87  S   UNL     1       6.595  19.102   9.174  1.00  0.00     0.124 S 
ATOM     88  O   UNL     1       7.970  19.035   9.657  1.00  0.00    -0.237 OA
ATOM     89  O   UNL     1       6.281  20.235   8.309  1.00  0.00    -0.237 OA
ATOM     90  O   UNL     1       5.567  18.768  10.156  1.00  0.00    -0.744 OA
ENDBRANCH  86  87
ENDBRANCH  54  79
ENDBRANCH  28  29
ENDBRANCH  20  23
ENDBRANCH  18  19
ENDBRANCH   1  18
TORSDOF 15
