REMARK SMILES O=C(NCCCNC(=O)[C@@H]1CCCN(c2ccc3cc(S(=O)(=O)N4CCCCC4)ccc3n2)C1)c1ccc(-c2c3nc(c(-c4c(F)cc(S(=O)(=O)[O-])cc4F)c4ccc([nH]4)c(-c4c(F)cc(S(=O)(=O)[O-])cc4F)c4nc(c(-c5c(F)cc(S(=O)(=O)[O-])cc5F)c5ccc2[nH]5)C=C4)C=C3)cc1
REMARK SMILES IDX 5 1 4 2 3 3 1 4 2 5 35 7 36 8 100 9 37 10 99 11 38 12 39 13
REMARK SMILES IDX 40 14 93 15 41 16 98 17 92 18 94 19 42 20 97 21 91 22 90 23
REMARK SMILES IDX 43 25 77 26 56 27 76 28 57 29 60 30 75 31 95 32 58 33 59 34
REMARK SMILES IDX 74 36 96 37 61 38 44 39 45 40 54 41 46 42 47 43 53 44 55 45
REMARK SMILES IDX 48 46 49 47 50 48 51 49 52 50 78 51 79 52 88 53 80 54 81 55
REMARK SMILES IDX 87 56 89 57 82 58 83 59 84 60 85 61 86 62 62 63 63 64 72 65
REMARK SMILES IDX 64 66 65 67 71 68 73 69 66 70 67 71 68 72 69 73 70 74 6 75
REMARK SMILES IDX 7 76 8 77 9 79 10 80 11 81 34 82 12 83 14 84 13 85 15 86
REMARK SMILES IDX 16 87 33 88 17 89 32 90 18 91 31 92 19 93 30 94 20 95 21 96
REMARK SMILES IDX 22 97 23 98 24 99 25 100 29 101 26 102 28 103 27 104
REMARK H PARENT 3 6 94 24 60 35 7 78
REMARK Flexibility Score: inf
ROOT
ATOM      1  C   UNL     1       4.785   2.199  -1.526  1.00  0.00     0.042 C 
ENDROOT
BRANCH   1   2
ATOM      2  C   UNL     1       4.489   1.370  -0.283  1.00  0.00     0.118 C 
BRANCH   2   3
ATOM      3  N   UNL     1       3.060   1.188  -0.060  1.00  0.00    -0.352 N 
ATOM      4  O   UNL     1       1.099   0.082  -0.017  1.00  0.00    -0.269 OA
ATOM      5  C   UNL     1       2.325   0.028  -0.025  1.00  0.00     0.251 C 
ATOM      6  H   UNL     1       2.548   2.016   0.087  1.00  0.00     0.163 HD
BRANCH   5   7
ATOM      7  C   UNL     1       3.019  -1.276  -0.020  1.00  0.00     0.039 A 
ATOM      8  C   UNL     1       4.142  -1.475   0.786  1.00  0.00     0.014 A 
ATOM      9  C   UNL     1       2.544  -2.310  -0.830  1.00  0.00     0.014 A 
ATOM     10  C   UNL     1       4.878  -2.646   0.666  1.00  0.00     0.010 A 
ATOM     11  C   UNL     1       3.228  -3.528  -0.870  1.00  0.00     0.010 A 
ATOM     12  C   UNL     1       4.417  -3.696  -0.143  1.00  0.00    -0.014 A 
BRANCH  12  13
ATOM     13  C   UNL     1       5.153  -4.985  -0.144  1.00  0.00     0.031 A 
ATOM     14  C   UNL     1       5.792  -5.520  -1.396  1.00  0.00     0.074 A 
ATOM     15  C   UNL     1       5.254  -5.665   1.016  1.00  0.00     0.049 A 
ATOM     16  N   UNL     1       6.468  -6.628  -1.564  1.00  0.00    -0.248 NA
ATOM     17  C   UNL     1       5.650  -4.715  -2.619  1.00  0.00     0.031 C 
ATOM     18  C   UNL     1       4.664  -5.245   2.291  1.00  0.00     0.029 A 
ATOM     19  N   UNL     1       5.893  -6.839   1.320  1.00  0.00    -0.354 N 
ATOM     20  C   UNL     1       6.820  -6.664  -2.908  1.00  0.00     0.074 A 
ATOM     21  C   UNL     1       6.256  -5.479  -3.519  1.00  0.00     0.031 C 
ATOM     22  C   UNL     1       5.003  -6.123   3.244  1.00  0.00     0.029 A 
ATOM     23  C   UNL     1       5.768  -7.205   2.639  1.00  0.00     0.049 A 
ATOM     24  H   UNL     1       6.394  -7.368   0.658  1.00  0.00     0.167 HD
ATOM     25  C   UNL     1       7.552  -7.597  -3.564  1.00  0.00     0.037 A 
ATOM     26  C   UNL     1       6.196  -8.304   3.289  1.00  0.00     0.037 A 
ATOM     27  C   UNL     1       8.110  -8.770  -2.938  1.00  0.00     0.049 A 
ATOM     28  C   UNL     1       6.969  -9.341   2.526  1.00  0.00     0.074 A 
ATOM     29  C   UNL     1       8.893  -9.759  -3.510  1.00  0.00     0.029 A 
ATOM     30  N   UNL     1       7.939  -9.121  -1.606  1.00  0.00    -0.354 N 
ATOM     31  N   UNL     1       7.324  -9.339   1.263  1.00  0.00    -0.248 NA
ATOM     32  C   UNL     1       7.400 -10.528   3.273  1.00  0.00     0.031 C 
ATOM     33  C   UNL     1       9.144 -10.735  -2.541  1.00  0.00     0.029 A 
ATOM     34  C   UNL     1       8.577 -10.324  -1.345  1.00  0.00     0.049 A 
ATOM     35  H   UNL     1       7.438  -8.593  -0.943  1.00  0.00     0.167 HD
ATOM     36  C   UNL     1       8.043 -10.512   1.071  1.00  0.00     0.074 A 
ATOM     37  C   UNL     1       8.085 -11.189   2.351  1.00  0.00     0.031 C 
ATOM     38  C   UNL     1       8.616 -10.985  -0.063  1.00  0.00     0.037 A 
BRANCH  25  39
ATOM     39  C   UNL     1       7.780  -7.406  -5.041  1.00  0.00     0.058 A 
ATOM     40  C   UNL     1       8.617  -6.395  -5.539  1.00  0.00     0.135 A 
ATOM     41  C   UNL     1       7.199  -8.286  -5.971  1.00  0.00     0.135 A 
ATOM     42  F   UNL     1       9.189  -5.516  -4.701  1.00  0.00    -0.206 F 
ATOM     43  C   UNL     1       8.853  -6.250  -6.903  1.00  0.00     0.059 A 
ATOM     44  C   UNL     1       7.444  -8.178  -7.337  1.00  0.00     0.059 A 
ATOM     45  F   UNL     1       6.390  -9.273  -5.553  1.00  0.00    -0.206 F 
ATOM     46  C   UNL     1       8.263  -7.148  -7.795  1.00  0.00     0.060 A 
BRANCH  46  47
ATOM     47  S   UNL     1       8.587  -6.947  -9.560  1.00  0.00     0.124 S 
ATOM     48  O   UNL     1       7.846  -5.725  -9.855  1.00  0.00    -0.237 OA
ATOM     49  O   UNL     1      10.041  -6.830  -9.597  1.00  0.00    -0.237 OA
ATOM     50  O   UNL     1       8.043  -8.167 -10.148  1.00  0.00    -0.744 OA
ENDBRANCH  46  47
ENDBRANCH  25  39
BRANCH  26  51
ATOM     51  C   UNL     1       5.885  -8.477   4.732  1.00  0.00     0.058 A 
ATOM     52  C   UNL     1       6.897  -8.443   5.702  1.00  0.00     0.135 A 
ATOM     53  C   UNL     1       4.564  -8.661   5.172  1.00  0.00     0.135 A 
ATOM     54  F   UNL     1       8.175  -8.271   5.332  1.00  0.00    -0.206 F 
ATOM     55  C   UNL     1       6.615  -8.607   7.054  1.00  0.00     0.059 A 
ATOM     56  C   UNL     1       4.253  -8.793   6.521  1.00  0.00     0.059 A 
ATOM     57  F   UNL     1       3.555  -8.681   4.287  1.00  0.00    -0.206 F 
ATOM     58  C   UNL     1       5.288  -8.779   7.453  1.00  0.00     0.060 A 
BRANCH  58  59
ATOM     59  S   UNL     1       4.931  -8.955   9.214  1.00  0.00     0.124 S 
ATOM     60  O   UNL     1       5.449 -10.290   9.486  1.00  0.00    -0.237 OA
ATOM     61  O   UNL     1       5.684  -7.846   9.790  1.00  0.00    -0.237 OA
ATOM     62  O   UNL     1       3.479  -8.816   9.277  1.00  0.00    -0.744 OA
ENDBRANCH  58  59
ENDBRANCH  26  51
BRANCH  38  63
ATOM     63  C   UNL     1       9.379 -12.278   0.036  1.00  0.00     0.058 A 
ATOM     64  C   UNL     1       8.732 -13.510   0.221  1.00  0.00     0.135 A 
ATOM     65  C   UNL     1      10.777 -12.287  -0.099  1.00  0.00     0.135 A 
ATOM     66  F   UNL     1       7.398 -13.558   0.366  1.00  0.00    -0.206 F 
ATOM     67  C   UNL     1       9.445 -14.701   0.293  1.00  0.00     0.059 A 
ATOM     68  C   UNL     1      11.508 -13.469  -0.063  1.00  0.00     0.059 A 
ATOM     69  F   UNL     1      11.446 -11.137  -0.285  1.00  0.00    -0.206 F 
ATOM     70  C   UNL     1      10.834 -14.671   0.146  1.00  0.00     0.060 A 
BRANCH  70  71
ATOM     71  S   UNL     1      11.743 -16.229   0.205  1.00  0.00     0.124 S 
ATOM     72  O   UNL     1      11.656 -16.567   1.622  1.00  0.00    -0.237 OA
ATOM     73  O   UNL     1      10.969 -17.076  -0.698  1.00  0.00    -0.237 OA
ATOM     74  O   UNL     1      13.074 -15.865  -0.273  1.00  0.00    -0.744 OA
ENDBRANCH  70  71
ENDBRANCH  38  63
ENDBRANCH  12  13
ENDBRANCH   5   7
ENDBRANCH   2   3
ENDBRANCH   1   2
BRANCH   1  75
ATOM     75  C   UNL     1       4.293   3.634  -1.416  1.00  0.00     0.117 C 
BRANCH  75  76
ATOM     76  N   UNL     1       4.950   4.311  -0.311  1.00  0.00    -0.356 N 
ATOM     77  C   UNL     1       5.996   5.188  -0.333  1.00  0.00     0.224 C 
ATOM     78  H   UNL     1       4.589   4.108   0.582  1.00  0.00     0.163 HD
ATOM     79  O   UNL     1       6.573   5.412   0.729  1.00  0.00    -0.275 OA
BRANCH  77  80
ATOM     80  C   UNL     1       6.344   5.878  -1.643  1.00  0.00     0.098 C 
ATOM     81  C   UNL     1       7.713   6.581  -1.603  1.00  0.00     0.017 C 
ATOM     82  C   UNL     1       5.227   6.864  -1.999  1.00  0.00     0.131 C 
ATOM     83  C   UNL     1       7.709   7.905  -0.828  1.00  0.00     0.022 C 
ATOM     84  N   UNL     1       5.325   8.058  -1.177  1.00  0.00    -0.356 N 
ATOM     85  C   UNL     1       6.556   8.822  -1.244  1.00  0.00     0.118 C 
BRANCH  84  86
ATOM     86  C   UNL     1       4.283   8.506  -0.405  1.00  0.00     0.129 A 
ATOM     87  C   UNL     1       3.606   7.650   0.460  1.00  0.00     0.047 A 
ATOM     88  N   UNL     1       3.937   9.805  -0.500  1.00  0.00    -0.231 NA
ATOM     89  C   UNL     1       2.558   8.123   1.242  1.00  0.00     0.014 A 
ATOM     90  C   UNL     1       2.900  10.257   0.220  1.00  0.00     0.073 A 
ATOM     91  C   UNL     1       2.174   9.453   1.120  1.00  0.00     0.002 A 
ATOM     92  C   UNL     1       2.510  11.573   0.062  1.00  0.00     0.030 A 
ATOM     93  C   UNL     1       1.100   9.983   1.854  1.00  0.00     0.032 A 
ATOM     94  C   UNL     1       1.430  12.109   0.770  1.00  0.00     0.024 A 
ATOM     95  C   UNL     1       0.725  11.317   1.674  1.00  0.00     0.083 A 
BRANCH  95  96
ATOM     96  S   UNL     1      -0.663  11.897   2.635  1.00  0.00     0.243 S 
ATOM     97  O   UNL     1      -1.808  11.127   2.188  1.00  0.00    -0.207 OA
ATOM     98  O   UNL     1      -0.234  11.875   4.015  1.00  0.00    -0.207 OA
BRANCH  96  99
ATOM     99  N   UNL     1      -0.940  13.528   2.203  1.00  0.00    -0.198 NA
ATOM    100  C   UNL     1       0.054  14.505   2.712  1.00  0.00     0.102 C 
ATOM    101  C   UNL     1      -1.536  13.747   0.863  1.00  0.00     0.102 C 
ATOM    102  C   UNL     1      -0.335  15.943   2.402  1.00  0.00     0.017 C 
ATOM    103  C   UNL     1      -1.878  15.209   0.613  1.00  0.00     0.017 C 
ATOM    104  C   UNL     1      -0.703  16.116   0.937  1.00  0.00     0.003 C 
ENDBRANCH  96  99
ENDBRANCH  95  96
ENDBRANCH  84  86
ENDBRANCH  77  80
ENDBRANCH  75  76
ENDBRANCH   1  75
TORSDOF 16
