REMARK SMILES CC[C@@](C)(NS(=O)(=O)c1ccc(F)c(F)c1)C(=O)NCCCNC(=O)c1ccc(-c2c3nc(c(-c4c(F)cc(S(=O)(=O)[O-])cc4F)c4ccc([nH]4)c(-c4c(F)cc(S(=O)(=O)[O-])cc4F)c4nc(c(-c5c(F)cc(S(=O)(=O)[O-])cc5F)c5ccc2[nH]5)C=C4)C=C3)cc1
REMARK SMILES IDX 21 1 20 2 19 3 17 4 18 5 3 7 4 8 2 9 1 10 5 11 6 13 7 14
REMARK SMILES IDX 8 15 9 16 10 17 16 18 11 19 14 20 12 21 15 22 13 23 22 24
REMARK SMILES IDX 23 25 24 26 25 28 26 29 27 30 91 31 28 32 90 33 29 34 30 35
REMARK SMILES IDX 31 36 84 37 32 38 89 39 83 40 85 41 33 42 88 43 82 44 81 45
REMARK SMILES IDX 34 47 68 48 47 49 67 50 48 51 51 52 66 53 86 54 49 55 50 56
REMARK SMILES IDX 65 58 87 59 52 60 35 61 36 62 45 63 37 64 38 65 44 66 46 67
REMARK SMILES IDX 39 68 40 69 41 70 42 71 43 72 69 73 70 74 79 75 71 76 72 77
REMARK SMILES IDX 78 78 80 79 73 80 74 81 75 82 76 83 77 84 53 85 54 86 63 87
REMARK SMILES IDX 55 88 56 89 62 90 64 91 57 92 58 93 59 94 60 95 61 96
REMARK H PARENT 19 6 5 12 23 27 85 46 51 57
REMARK Flexibility Score: inf
ROOT
ATOM      1  C   UNL     1       2.035   6.143   2.870  1.00  0.00     0.042 C 
ENDROOT
BRANCH   1   2
ATOM      2  C   UNL     1       1.907   5.276   1.586  1.00  0.00     0.117 C 
BRANCH   2   3
ATOM      3  N   UNL     1       2.634   4.018   1.392  1.00  0.00    -0.354 N 
ATOM      4  C   UNL     1       2.336   2.692   1.204  1.00  0.00     0.241 C 
ATOM      5  O   UNL     1       3.286   2.024   0.766  1.00  0.00    -0.273 OA
ATOM      6  H   UNL     1       3.608   4.166   1.399  1.00  0.00     0.163 HD
BRANCH   4   7
ATOM      7  C   UNL     1       1.014   1.960   1.575  1.00  0.00     0.108 C 
ATOM      8  C   UNL     1      -0.217   2.641   0.968  1.00  0.00     0.040 C 
BRANCH   7   9
ATOM      9  C   UNL     1       1.006   0.455   1.063  1.00  0.00     0.030 C 
ATOM     10  C   UNL     1       1.192   0.150  -0.418  1.00  0.00     0.006 C 
ENDBRANCH   7   9
BRANCH   7  11
ATOM     11  N   UNL     1       0.789   1.751   3.025  1.00  0.00    -0.196 NA
ATOM     12  H   UNL     1       0.737   0.737   3.121  1.00  0.00     0.142 HD
BRANCH  11  13
ATOM     13  S   UNL     1       1.680   2.230   4.338  1.00  0.00     0.241 S 
ATOM     14  O   UNL     1       1.481   3.654   4.484  1.00  0.00    -0.207 OA
ATOM     15  O   UNL     1       1.272   1.330   5.391  1.00  0.00    -0.207 OA
BRANCH  13  16
ATOM     16  C   UNL     1       3.407   1.939   4.046  1.00  0.00     0.085 A 
ATOM     17  C   UNL     1       4.025   0.729   4.349  1.00  0.00     0.025 A 
ATOM     18  C   UNL     1       4.201   3.022   3.670  1.00  0.00     0.064 A 
ATOM     19  C   UNL     1       5.418   0.612   4.200  1.00  0.00     0.044 A 
ATOM     20  C   UNL     1       5.565   2.899   3.481  1.00  0.00     0.160 A 
ATOM     21  C   UNL     1       6.178   1.694   3.750  1.00  0.00     0.158 A 
ATOM     22  F   UNL     1       6.264   3.957   3.047  1.00  0.00    -0.204 F 
ATOM     23  F   UNL     1       7.503   1.567   3.599  1.00  0.00    -0.204 F 
ENDBRANCH  13  16
ENDBRANCH  11  13
ENDBRANCH   7  11
ENDBRANCH   4   7
ENDBRANCH   2   3
ENDBRANCH   1   2
BRANCH   1  24
ATOM     24  C   UNL     1       3.339   6.520   3.599  1.00  0.00     0.118 C 
BRANCH  24  25
ATOM     25  N   UNL     1       4.412   7.056   2.792  1.00  0.00    -0.352 N 
ATOM     26  C   UNL     1       5.556   7.682   3.252  1.00  0.00     0.251 C 
ATOM     27  H   UNL     1       4.318   6.967   1.816  1.00  0.00     0.163 HD
ATOM     28  O   UNL     1       6.318   8.226   2.458  1.00  0.00    -0.269 OA
BRANCH  26  29
ATOM     29  C   UNL     1       5.845   7.748   4.707  1.00  0.00     0.039 A 
ATOM     30  C   UNL     1       5.814   8.989   5.348  1.00  0.00     0.014 A 
ATOM     31  C   UNL     1       6.218   6.608   5.426  1.00  0.00     0.014 A 
ATOM     32  C   UNL     1       6.117   9.083   6.713  1.00  0.00     0.010 A 
ATOM     33  C   UNL     1       6.493   6.700   6.801  1.00  0.00     0.010 A 
ATOM     34  C   UNL     1       6.445   7.938   7.463  1.00  0.00    -0.014 A 
BRANCH  34  35
ATOM     35  C   UNL     1       6.713   8.059   8.928  1.00  0.00     0.031 A 
ATOM     36  C   UNL     1       8.097   7.843   9.490  1.00  0.00     0.074 A 
ATOM     37  C   UNL     1       5.704   8.386   9.763  1.00  0.00     0.049 A 
ATOM     38  N   UNL     1       8.521   7.987  10.722  1.00  0.00    -0.248 NA
ATOM     39  C   UNL     1       9.135   7.398   8.550  1.00  0.00     0.031 C 
ATOM     40  C   UNL     1       4.311   8.584   9.356  1.00  0.00     0.029 A 
ATOM     41  N   UNL     1       5.687   8.621  11.117  1.00  0.00    -0.354 N 
ATOM     42  C   UNL     1       9.873   7.658  10.704  1.00  0.00     0.074 A 
ATOM     43  C   UNL     1      10.185   7.256   9.349  1.00  0.00     0.031 C 
ATOM     44  C   UNL     1       3.585   8.941  10.427  1.00  0.00     0.029 A 
ATOM     45  C   UNL     1       4.448   8.970  11.605  1.00  0.00     0.049 A 
ATOM     46  H   UNL     1       6.487   8.546  11.686  1.00  0.00     0.167 HD
ATOM     47  C   UNL     1      10.776   7.706  11.716  1.00  0.00     0.037 A 
ATOM     48  C   UNL     1       4.047   9.282  12.854  1.00  0.00     0.037 A 
ATOM     49  C   UNL     1      10.460   8.105  13.067  1.00  0.00     0.049 A 
ATOM     50  C   UNL     1       5.065   9.314  13.965  1.00  0.00     0.074 A 
ATOM     51  C   UNL     1      11.311   8.224  14.153  1.00  0.00     0.029 A 
ATOM     52  N   UNL     1       9.191   8.440  13.521  1.00  0.00    -0.354 N 
ATOM     53  N   UNL     1       6.353   9.070  13.911  1.00  0.00    -0.248 NA
ATOM     54  C   UNL     1       4.578   9.676  15.303  1.00  0.00     0.031 C 
ATOM     55  C   UNL     1      10.550   8.575  15.273  1.00  0.00     0.029 A 
ATOM     56  C   UNL     1       9.234   8.739  14.874  1.00  0.00     0.049 A 
ATOM     57  H   UNL     1       8.380   8.462  12.963  1.00  0.00     0.167 HD
ATOM     58  C   UNL     1       6.835   9.277  15.200  1.00  0.00     0.074 A 
ATOM     59  C   UNL     1       5.702   9.683  16.006  1.00  0.00     0.031 C 
ATOM     60  C   UNL     1       8.100   9.144  15.670  1.00  0.00     0.037 A 
BRANCH  47  61
ATOM     61  C   UNL     1      12.200   7.312  11.408  1.00  0.00     0.058 A 
ATOM     62  C   UNL     1      13.026   8.103  10.593  1.00  0.00     0.135 A 
ATOM     63  C   UNL     1      12.761   6.153  11.971  1.00  0.00     0.135 A 
ATOM     64  F   UNL     1      12.545   9.218  10.022  1.00  0.00    -0.206 F 
ATOM     65  C   UNL     1      14.343   7.742  10.319  1.00  0.00     0.059 A 
ATOM     66  C   UNL     1      14.085   5.789  11.735  1.00  0.00     0.059 A 
ATOM     67  F   UNL     1      12.023   5.360  12.764  1.00  0.00    -0.206 F 
ATOM     68  C   UNL     1      14.864   6.582  10.894  1.00  0.00     0.060 A 
BRANCH  68  69
ATOM     69  S   UNL     1      16.574   6.131  10.529  1.00  0.00     0.124 S 
ATOM     70  O   UNL     1      16.476   5.720   9.132  1.00  0.00    -0.237 OA
ATOM     71  O   UNL     1      17.285   7.383  10.772  1.00  0.00    -0.237 OA
ATOM     72  O   UNL     1      16.855   5.060  11.479  1.00  0.00    -0.744 OA
ENDBRANCH  68  69
ENDBRANCH  47  61
BRANCH  48  73
ATOM     73  C   UNL     1       2.618   9.611  13.120  1.00  0.00     0.058 A 
ATOM     74  C   UNL     1       2.221  10.908  13.481  1.00  0.00     0.135 A 
ATOM     75  C   UNL     1       1.616   8.632  13.014  1.00  0.00     0.135 A 
ATOM     76  F   UNL     1       3.139  11.879  13.607  1.00  0.00    -0.206 F 
ATOM     77  C   UNL     1       0.890  11.220  13.744  1.00  0.00     0.059 A 
ATOM     78  C   UNL     1       0.275   8.926  13.242  1.00  0.00     0.059 A 
ATOM     79  F   UNL     1       1.937   7.378  12.661  1.00  0.00    -0.206 F 
ATOM     80  C   UNL     1      -0.077  10.222  13.617  1.00  0.00     0.060 A 
BRANCH  80  81
ATOM     81  S   UNL     1      -1.808  10.648  13.912  1.00  0.00     0.124 S 
ATOM     82  O   UNL     1      -1.824  10.830  15.359  1.00  0.00    -0.237 OA
ATOM     83  O   UNL     1      -1.964  11.860  13.113  1.00  0.00    -0.237 OA
ATOM     84  O   UNL     1      -2.531   9.481  13.415  1.00  0.00    -0.744 OA
ENDBRANCH  80  81
ENDBRANCH  48  73
BRANCH  60  85
ATOM     85  C   UNL     1       8.338   9.476  17.121  1.00  0.00     0.058 A 
ATOM     86  C   UNL     1       7.854   8.664  18.159  1.00  0.00     0.135 A 
ATOM     87  C   UNL     1       9.094  10.607  17.475  1.00  0.00     0.135 A 
ATOM     88  F   UNL     1       7.122   7.574  17.879  1.00  0.00    -0.206 F 
ATOM     89  C   UNL     1       8.079   8.979  19.496  1.00  0.00     0.059 A 
ATOM     90  C   UNL     1       9.360  10.923  18.804  1.00  0.00     0.059 A 
ATOM     91  F   UNL     1       9.592  11.413  16.525  1.00  0.00    -0.206 F 
ATOM     92  C   UNL     1       8.834  10.112  19.808  1.00  0.00     0.060 A 
BRANCH  92  93
ATOM     93  S   UNL     1       9.132  10.500  21.546  1.00  0.00     0.124 S 
ATOM     94  O   UNL     1       7.819  10.973  21.972  1.00  0.00    -0.237 OA
ATOM     95  O   UNL     1       9.548   9.210  22.087  1.00  0.00    -0.237 OA
ATOM     96  O   UNL     1      10.178  11.518  21.493  1.00  0.00    -0.744 OA
ENDBRANCH  92  93
ENDBRANCH  60  85
ENDBRANCH  34  35
ENDBRANCH  26  29
ENDBRANCH  24  25
ENDBRANCH   1  24
TORSDOF 17
