REMARK SMILES O=C(NCCCNC(=O)c1cc(F)ccc1N1CCCc2ccccc21)c1ccc(-c2c3nc(c(-c4c(F)cc(S(=O)(=O)[O-])cc4F)c4ccc([nH]4)c(-c4c(F)cc(S(=O)(=O)[O-])cc4F)c4nc(c(-c5c(F)cc(S(=O)(=O)[O-])cc5F)c5ccc2[nH]5)C=C4)C=C3)cc1
REMARK SMILES IDX 4 1 3 2 1 3 2 4 27 6 28 7 92 8 29 9 91 10 30 11 31 12 32 13
REMARK SMILES IDX 85 14 33 15 90 16 84 17 86 18 34 19 89 20 83 21 82 22 35 24
REMARK SMILES IDX 69 25 48 26 68 27 49 28 52 29 67 30 87 31 50 32 51 33 66 35
REMARK SMILES IDX 88 36 53 37 36 38 37 39 46 40 38 41 39 42 45 43 47 44 40 45
REMARK SMILES IDX 41 46 42 47 43 48 44 49 70 50 71 51 80 52 72 53 73 54 79 55
REMARK SMILES IDX 81 56 74 57 75 58 76 59 77 60 78 61 54 62 55 63 64 64 56 65
REMARK SMILES IDX 57 66 63 67 65 68 58 69 59 70 60 71 61 72 62 73 5 74 6 75
REMARK SMILES IDX 7 76 8 77 9 79 10 80 11 81 16 82 12 83 15 84 13 85 14 86
REMARK SMILES IDX 17 87 18 88 26 89 19 90 21 91 25 92 20 93 22 94 24 95 23 96
REMARK H PARENT 3 5 86 23 52 34 7 78
REMARK Flexibility Score: inf
ROOT
ATOM      1  C   UNL     1       4.541  -0.803  -1.159  1.00  0.00     0.118 C 
ENDROOT
BRANCH   1   2
ATOM      2  N   UNL     1       3.114  -0.523  -1.057  1.00  0.00    -0.352 N 
ATOM      3  O   UNL     1       1.168   0.161  -0.163  1.00  0.00    -0.269 OA
ATOM      4  C   UNL     1       2.396   0.187  -0.122  1.00  0.00     0.251 C 
ATOM      5  H   UNL     1       2.570  -0.909  -1.781  1.00  0.00     0.163 HD
BRANCH   4   6
ATOM      6  C   UNL     1       3.082   0.947   0.947  1.00  0.00     0.039 A 
ATOM      7  C   UNL     1       4.238   1.679   0.682  1.00  0.00     0.014 A 
ATOM      8  C   UNL     1       2.551   0.940   2.241  1.00  0.00     0.014 A 
ATOM      9  C   UNL     1       4.970   2.221   1.732  1.00  0.00     0.010 A 
ATOM     10  C   UNL     1       3.230   1.587   3.281  1.00  0.00     0.010 A 
ATOM     11  C   UNL     1       4.475   2.189   3.045  1.00  0.00    -0.014 A 
BRANCH  11  12
ATOM     12  C   UNL     1       5.274   2.814   4.133  1.00  0.00     0.031 A 
ATOM     13  C   UNL     1       5.816   1.993   5.274  1.00  0.00     0.074 A 
ATOM     14  C   UNL     1       5.576   4.125   4.046  1.00  0.00     0.049 A 
ATOM     15  N   UNL     1       6.585   2.370   6.264  1.00  0.00    -0.248 NA
ATOM     16  C   UNL     1       5.443   0.571   5.318  1.00  0.00     0.031 C 
ATOM     17  C   UNL     1       5.103   5.027   2.992  1.00  0.00     0.029 A 
ATOM     18  N   UNL     1       6.377   4.920   4.825  1.00  0.00    -0.354 N 
ATOM     19  C   UNL     1       6.776   1.242   7.054  1.00  0.00     0.074 A 
ATOM     20  C   UNL     1       6.015   0.172   6.446  1.00  0.00     0.031 C 
ATOM     21  C   UNL     1       5.680   6.226   3.147  1.00  0.00     0.029 A 
ATOM     22  C   UNL     1       6.511   6.202   4.346  1.00  0.00     0.049 A 
ATOM     23  H   UNL     1       6.814   4.604   5.649  1.00  0.00     0.167 HD
ATOM     24  C   UNL     1       7.528   1.107   8.173  1.00  0.00     0.037 A 
ATOM     25  C   UNL     1       7.219   7.247   4.815  1.00  0.00     0.037 A 
ATOM     26  C   UNL     1       8.298   2.171   8.765  1.00  0.00     0.049 A 
ATOM     27  C   UNL     1       8.038   7.075   6.059  1.00  0.00     0.074 A 
ATOM     28  C   UNL     1       9.095   2.131   9.896  1.00  0.00     0.029 A 
ATOM     29  N   UNL     1       8.374   3.466   8.271  1.00  0.00    -0.354 N 
ATOM     30  N   UNL     1       8.201   6.000   6.792  1.00  0.00    -0.248 NA
ATOM     31  C   UNL     1       8.763   8.256   6.546  1.00  0.00     0.031 C 
ATOM     32  C   UNL     1       9.625   3.409  10.106  1.00  0.00     0.029 A 
ATOM     33  C   UNL     1       9.195   4.236   9.080  1.00  0.00     0.049 A 
ATOM     34  H   UNL     1       7.912   3.791   7.465  1.00  0.00     0.167 HD
ATOM     35  C   UNL     1       9.055   6.371   7.823  1.00  0.00     0.074 A 
ATOM     36  C   UNL     1       9.389   7.765   7.608  1.00  0.00     0.031 C 
ATOM     37  C   UNL     1       9.515   5.624   8.856  1.00  0.00     0.037 A 
BRANCH  24  38
ATOM     38  C   UNL     1       7.552  -0.242   8.842  1.00  0.00     0.058 A 
ATOM     39  C   UNL     1       6.917  -0.438  10.079  1.00  0.00     0.135 A 
ATOM     40  C   UNL     1       8.242  -1.329   8.283  1.00  0.00     0.135 A 
ATOM     41  F   UNL     1       6.240   0.566  10.659  1.00  0.00    -0.206 F 
ATOM     42  C   UNL     1       6.970  -1.661  10.740  1.00  0.00     0.059 A 
ATOM     43  C   UNL     1       8.288  -2.569   8.915  1.00  0.00     0.059 A 
ATOM     44  F   UNL     1       8.848  -1.204   7.092  1.00  0.00    -0.206 F 
ATOM     45  C   UNL     1       7.657  -2.722  10.150  1.00  0.00     0.060 A 
BRANCH  45  46
ATOM     46  S   UNL     1       7.670  -4.321  10.991  1.00  0.00     0.124 S 
ATOM     47  O   UNL     1       8.581  -4.069  12.101  1.00  0.00    -0.237 OA
ATOM     48  O   UNL     1       6.264  -4.492  11.346  1.00  0.00    -0.237 OA
ATOM     49  O   UNL     1       8.162  -5.236   9.965  1.00  0.00    -0.744 OA
ENDBRANCH  45  46
ENDBRANCH  24  38
BRANCH  25  50
ATOM     50  C   UNL     1       7.185   8.536   4.076  1.00  0.00     0.058 A 
ATOM     51  C   UNL     1       6.018   9.314   4.030  1.00  0.00     0.135 A 
ATOM     52  C   UNL     1       8.294   8.974   3.338  1.00  0.00     0.135 A 
ATOM     53  F   UNL     1       4.926   8.930   4.709  1.00  0.00    -0.206 F 
ATOM     54  C   UNL     1       5.937  10.458   3.246  1.00  0.00     0.059 A 
ATOM     55  C   UNL     1       8.246  10.132   2.567  1.00  0.00     0.059 A 
ATOM     56  F   UNL     1       9.435   8.268   3.361  1.00  0.00    -0.206 F 
ATOM     57  C   UNL     1       7.054  10.853   2.509  1.00  0.00     0.060 A 
BRANCH  57  58
ATOM     58  S   UNL     1       6.916  12.319   1.464  1.00  0.00     0.124 S 
ATOM     59  O   UNL     1       6.048  11.833   0.397  1.00  0.00    -0.237 OA
ATOM     60  O   UNL     1       6.320  13.290   2.376  1.00  0.00    -0.237 OA
ATOM     61  O   UNL     1       8.297  12.589   1.078  1.00  0.00    -0.744 OA
ENDBRANCH  57  58
ENDBRANCH  25  50
BRANCH  37  62
ATOM     62  C   UNL     1      10.444   6.292   9.830  1.00  0.00     0.058 A 
ATOM     63  C   UNL     1      11.809   5.962   9.852  1.00  0.00     0.135 A 
ATOM     64  C   UNL     1       9.975   7.215  10.777  1.00  0.00     0.135 A 
ATOM     65  F   UNL     1      12.307   5.082   8.969  1.00  0.00    -0.206 F 
ATOM     66  C   UNL     1      12.675   6.517  10.787  1.00  0.00     0.059 A 
ATOM     67  C   UNL     1      10.829   7.801  11.707  1.00  0.00     0.059 A 
ATOM     68  F   UNL     1       8.681   7.572  10.788  1.00  0.00    -0.206 F 
ATOM     69  C   UNL     1      12.175   7.434  11.713  1.00  0.00     0.060 A 
BRANCH  69  70
ATOM     70  S   UNL     1      13.317   8.165  12.905  1.00  0.00     0.124 S 
ATOM     71  O   UNL     1      13.549   7.051  13.818  1.00  0.00    -0.237 OA
ATOM     72  O   UNL     1      14.447   8.540  12.060  1.00  0.00    -0.237 OA
ATOM     73  O   UNL     1      12.559   9.284  13.457  1.00  0.00    -0.744 OA
ENDBRANCH  69  70
ENDBRANCH  37  62
ENDBRANCH  11  12
ENDBRANCH   4   6
ENDBRANCH   1   2
BRANCH   1  74
ATOM     74  C   UNL     1       4.894  -2.258  -0.884  1.00  0.00     0.042 C 
BRANCH  74  75
ATOM     75  C   UNL     1       4.307  -3.244  -1.882  1.00  0.00     0.118 C 
BRANCH  75  76
ATOM     76  N   UNL     1       4.727  -2.977  -3.251  1.00  0.00    -0.352 N 
ATOM     77  C   UNL     1       5.557  -3.674  -4.096  1.00  0.00     0.253 C 
ATOM     78  H   UNL     1       4.351  -2.154  -3.639  1.00  0.00     0.163 HD
ATOM     79  O   UNL     1       5.813  -3.195  -5.197  1.00  0.00    -0.269 OA
BRANCH  77  80
ATOM     80  C   UNL     1       6.088  -4.998  -3.698  1.00  0.00     0.066 A 
ATOM     81  C   UNL     1       5.160  -5.967  -3.280  1.00  0.00     0.055 A 
ATOM     82  C   UNL     1       7.448  -5.341  -3.847  1.00  0.00     0.054 A 
ATOM     83  C   UNL     1       5.593  -7.230  -2.904  1.00  0.00     0.124 A 
ATOM     84  C   UNL     1       7.848  -6.639  -3.458  1.00  0.00     0.030 A 
ATOM     85  F   UNL     1       4.700  -8.131  -2.476  1.00  0.00    -0.207 F 
ATOM     86  C   UNL     1       6.932  -7.572  -2.971  1.00  0.00     0.041 A 
BRANCH  82  87
ATOM     87  N   UNL     1       8.432  -4.503  -4.403  1.00  0.00    -0.341 N 
ATOM     88  C   UNL     1       8.764  -3.269  -3.686  1.00  0.00     0.123 C 
ATOM     89  C   UNL     1       9.130  -4.733  -5.612  1.00  0.00     0.044 A 
ATOM     90  C   UNL     1      10.278  -3.161  -3.540  1.00  0.00     0.027 C 
ATOM     91  C   UNL     1      10.351  -4.086  -5.884  1.00  0.00    -0.024 A 
ATOM     92  C   UNL     1       8.623  -5.620  -6.578  1.00  0.00     0.026 A 
ATOM     93  C   UNL     1      10.934  -3.090  -4.914  1.00  0.00     0.039 C 
ATOM     94  C   UNL     1      11.027  -4.332  -7.092  1.00  0.00     0.006 A 
ATOM     95  C   UNL     1       9.298  -5.859  -7.777  1.00  0.00     0.002 A 
ATOM     96  C   UNL     1      10.503  -5.218  -8.032  1.00  0.00     0.000 A 
ENDBRANCH  82  87
ENDBRANCH  77  80
ENDBRANCH  75  76
ENDBRANCH  74  75
ENDBRANCH   1  74
TORSDOF 14
