REMARK SMILES Cc1noc(C)c1CNC(=O)N(CC(=O)NCCCNC(=O)c1ccc(-c2c3nc(c(-c4c(F)cc(S(=O)(=O)[O-])cc4F)c4ccc([nH]4)c(-c4c(F)cc(S(=O)(=O)[O-])cc4F)c4nc(c(-c5c(F)cc(S(=O)(=O)[O-])cc5F)c5ccc2[nH]5)C=C4)C=C3)cc1)CC(C)C
REMARK SMILES IDX 17 1 16 2 14 3 15 4 13 6 12 7 10 8 9 9 11 11 8 12 7 13 1 14
REMARK SMILES IDX 2 15 3 16 4 17 5 18 6 19 89 20 90 21 91 22 92 23 18 24 19 25
REMARK SMILES IDX 20 26 21 27 22 29 23 30 24 31 88 32 25 33 87 34 26 35 27 36
REMARK SMILES IDX 28 37 81 38 29 39 86 40 80 41 82 42 30 43 85 44 79 45 78 46
REMARK SMILES IDX 31 48 65 49 44 50 64 51 45 52 48 53 63 54 83 55 46 56 47 57
REMARK SMILES IDX 62 59 84 60 49 61 32 62 33 63 42 64 34 65 35 66 41 67 43 68
REMARK SMILES IDX 36 69 37 70 38 71 39 72 40 73 66 74 67 75 76 76 68 77 69 78
REMARK SMILES IDX 75 79 77 80 70 81 71 82 72 83 73 84 74 85 50 86 51 87 60 88
REMARK SMILES IDX 52 89 53 90 59 91 61 92 54 93 55 94 56 95 57 96 58 97
REMARK H PARENT 16 5 9 10 20 28 82 47 48 58
REMARK Flexibility Score: inf
ROOT
ATOM      1  C   UNL     1       0.361   5.803   0.535  1.00  0.00     0.117 C 
ENDROOT
BRANCH   1   2
ATOM      2  N   UNL     1      -0.344   5.899   1.796  1.00  0.00    -0.354 N 
ATOM      3  C   UNL     1      -1.345   5.148   2.330  1.00  0.00     0.239 C 
ATOM      4  O   UNL     1      -1.619   5.364   3.517  1.00  0.00    -0.273 OA
ATOM      5  H   UNL     1      -0.046   6.641   2.371  1.00  0.00     0.163 HD
BRANCH   3   6
ATOM      6  C   UNL     1      -1.994   3.964   1.601  1.00  0.00     0.221 C 
BRANCH   6   7
ATOM      7  N   UNL     1      -2.521   4.169   0.251  1.00  0.00    -0.315 N 
BRANCH   7   8
ATOM      8  C   UNL     1      -2.151   3.534  -0.898  1.00  0.00     0.318 C 
ATOM      9  N   UNL     1      -1.047   2.792  -1.048  1.00  0.00    -0.334 N 
ATOM     10  H   UNL     1      -1.004   2.429  -1.962  1.00  0.00     0.165 HD
ATOM     11  O   UNL     1      -2.842   3.591  -1.920  1.00  0.00    -0.249 OA
BRANCH   9  12
ATOM     12  C   UNL     1       0.101   2.356  -0.287  1.00  0.00     0.159 C 
BRANCH  12  13
ATOM     13  C   UNL     1       0.074   0.884  -0.106  1.00  0.00     0.037 A 
ATOM     14  C   UNL     1      -2.482   0.270   0.001  1.00  0.00     0.071 C 
ATOM     15  C   UNL     1      -1.026  -0.016   0.023  1.00  0.00     0.086 A 
ATOM     16  N   UNL     1      -0.608  -1.278   0.183  1.00  0.00    -0.085 NA
ATOM     17  O   UNL     1       0.769  -1.228   0.162  1.00  0.00    -0.361 OA
ATOM     18  C   UNL     1       1.174   0.055  -0.004  1.00  0.00     0.138 A 
ATOM     19  C   UNL     1       2.632   0.282  -0.030  1.00  0.00     0.091 C 
ENDBRANCH  12  13
ENDBRANCH   9  12
ENDBRANCH   7   8
BRANCH   7  20
ATOM     20  C   UNL     1      -3.775   4.958   0.195  1.00  0.00     0.125 C 
BRANCH  20  21
ATOM     21  C   UNL     1      -3.618   6.419  -0.268  1.00  0.00     0.002 C 
ATOM     22  C   UNL     1      -3.316   6.543  -1.764  1.00  0.00     0.009 C 
ATOM     23  C   UNL     1      -4.896   7.207   0.038  1.00  0.00     0.009 C 
ENDBRANCH  20  21
ENDBRANCH   7  20
ENDBRANCH   6   7
ENDBRANCH   3   6
ENDBRANCH   1   2
BRANCH   1  24
ATOM     24  C   UNL     1       0.144   6.992  -0.385  1.00  0.00     0.042 C 
BRANCH  24  25
ATOM     25  C   UNL     1       0.551   8.333   0.201  1.00  0.00     0.118 C 
BRANCH  25  26
ATOM     26  N   UNL     1       1.995   8.494   0.253  1.00  0.00    -0.352 N 
ATOM     27  C   UNL     1       2.805   9.347  -0.461  1.00  0.00     0.251 C 
ATOM     28  H   UNL     1       2.461   7.907   0.892  1.00  0.00     0.163 HD
ATOM     29  O   UNL     1       4.020   9.177  -0.445  1.00  0.00    -0.269 OA
BRANCH  27  30
ATOM     30  C   UNL     1       2.215  10.443  -1.265  1.00  0.00     0.039 A 
ATOM     31  C   UNL     1       2.717  10.685  -2.546  1.00  0.00     0.014 A 
ATOM     32  C   UNL     1       1.173  11.230  -0.766  1.00  0.00     0.014 A 
ATOM     33  C   UNL     1       2.119  11.656  -3.355  1.00  0.00     0.010 A 
ATOM     34  C   UNL     1       0.526  12.139  -1.600  1.00  0.00     0.010 A 
ATOM     35  C   UNL     1       0.986  12.355  -2.907  1.00  0.00    -0.014 A 
BRANCH  35  36
ATOM     36  C   UNL     1       0.241  13.275  -3.807  1.00  0.00     0.031 A 
ATOM     37  C   UNL     1       0.116  14.737  -3.481  1.00  0.00     0.074 A 
ATOM     38  C   UNL     1      -0.402  12.768  -4.878  1.00  0.00     0.049 A 
ATOM     39  N   UNL     1      -0.559  15.668  -4.106  1.00  0.00    -0.248 NA
ATOM     40  C   UNL     1       0.821  15.209  -2.280  1.00  0.00     0.031 C 
ATOM     41  C   UNL     1      -0.408  11.357  -5.267  1.00  0.00     0.029 A 
ATOM     42  N   UNL     1      -1.194  13.375  -5.821  1.00  0.00    -0.354 N 
ATOM     43  C   UNL     1      -0.371  16.832  -3.370  1.00  0.00     0.074 A 
ATOM     44  C   UNL     1       0.439  16.477  -2.224  1.00  0.00     0.031 C 
ATOM     45  C   UNL     1      -1.161  11.206  -6.367  1.00  0.00     0.029 A 
ATOM     46  C   UNL     1      -1.729  12.499  -6.736  1.00  0.00     0.049 A 
ATOM     47  H   UNL     1      -1.364  14.345  -5.840  1.00  0.00     0.167 HD
ATOM     48  C   UNL     1      -0.820  18.084  -3.635  1.00  0.00     0.037 A 
ATOM     49  C   UNL     1      -2.600  12.702  -7.744  1.00  0.00     0.037 A 
ATOM     50  C   UNL     1      -1.627  18.425  -4.780  1.00  0.00     0.049 A 
ATOM     51  C   UNL     1      -3.102  14.092  -8.014  1.00  0.00     0.074 A 
ATOM     52  C   UNL     1      -2.067  19.675  -5.180  1.00  0.00     0.029 A 
ATOM     53  N   UNL     1      -2.136  17.513  -5.694  1.00  0.00    -0.354 N 
ATOM     54  N   UNL     1      -2.835  15.201  -7.366  1.00  0.00    -0.248 NA
ATOM     55  C   UNL     1      -4.019  14.262  -9.148  1.00  0.00     0.031 C 
ATOM     56  C   UNL     1      -2.894  19.511  -6.296  1.00  0.00     0.029 A 
ATOM     57  C   UNL     1      -2.923  18.166  -6.630  1.00  0.00     0.049 A 
ATOM     58  H   UNL     1      -1.964  16.544  -5.679  1.00  0.00     0.167 HD
ATOM     59  C   UNL     1      -3.548  16.203  -8.015  1.00  0.00     0.074 A 
ATOM     60  C   UNL     1      -4.238  15.570  -9.122  1.00  0.00     0.031 C 
ATOM     61  C   UNL     1      -3.625  17.524  -7.717  1.00  0.00     0.037 A 
BRANCH  48  62
ATOM     62  C   UNL     1      -0.461  19.169  -2.654  1.00  0.00     0.058 A 
ATOM     63  C   UNL     1       0.862  19.611  -2.486  1.00  0.00     0.135 A 
ATOM     64  C   UNL     1      -1.454  19.777  -1.868  1.00  0.00     0.135 A 
ATOM     65  F   UNL     1       1.855  19.062  -3.204  1.00  0.00    -0.206 F 
ATOM     66  C   UNL     1       1.195  20.572  -1.536  1.00  0.00     0.059 A 
ATOM     67  C   UNL     1      -1.149  20.765  -0.936  1.00  0.00     0.059 A 
ATOM     68  F   UNL     1      -2.737  19.403  -1.991  1.00  0.00    -0.206 F 
ATOM     69  C   UNL     1       0.183  21.136  -0.759  1.00  0.00     0.060 A 
BRANCH  69  70
ATOM     70  S   UNL     1       0.637  22.348   0.500  1.00  0.00     0.124 S 
ATOM     71  O   UNL     1       1.271  21.498   1.504  1.00  0.00    -0.237 OA
ATOM     72  O   UNL     1       1.533  23.238  -0.231  1.00  0.00    -0.237 OA
ATOM     73  O   UNL     1      -0.642  22.931   0.890  1.00  0.00    -0.744 OA
ENDBRANCH  69  70
ENDBRANCH  48  62
BRANCH  49  74
ATOM     74  C   UNL     1      -3.046  11.541  -8.559  1.00  0.00     0.058 A 
ATOM     75  C   UNL     1      -2.594  11.359  -9.873  1.00  0.00     0.135 A 
ATOM     76  C   UNL     1      -3.873  10.548  -8.007  1.00  0.00     0.135 A 
ATOM     77  F   UNL     1      -1.811  12.285 -10.447  1.00  0.00    -0.206 F 
ATOM     78  C   UNL     1      -2.934  10.228 -10.608  1.00  0.00     0.059 A 
ATOM     79  C   UNL     1      -4.205   9.397  -8.713  1.00  0.00     0.059 A 
ATOM     80  F   UNL     1      -4.320  10.670  -6.747  1.00  0.00    -0.206 F 
ATOM     81  C   UNL     1      -3.728   9.245 -10.014  1.00  0.00     0.060 A 
BRANCH  81  82
ATOM     82  S   UNL     1      -4.072   7.734 -10.941  1.00  0.00     0.124 S 
ATOM     83  O   UNL     1      -4.996   8.217 -11.961  1.00  0.00    -0.237 OA
ATOM     84  O   UNL     1      -2.742   7.357 -11.412  1.00  0.00    -0.237 OA
ATOM     85  O   UNL     1      -4.647   6.846  -9.936  1.00  0.00    -0.744 OA
ENDBRANCH  81  82
ENDBRANCH  49  74
BRANCH  61  86
ATOM     86  C   UNL     1      -4.495  18.383  -8.594  1.00  0.00     0.058 A 
ATOM     87  C   UNL     1      -5.896  18.306  -8.539  1.00  0.00     0.135 A 
ATOM     88  C   UNL     1      -3.927  19.340  -9.451  1.00  0.00     0.135 A 
ATOM     89  F   UNL     1      -6.492  17.402  -7.745  1.00  0.00    -0.206 F 
ATOM     90  C   UNL     1      -6.702  19.137  -9.311  1.00  0.00     0.059 A 
ATOM     91  C   UNL     1      -4.713  20.201 -10.211  1.00  0.00     0.059 A 
ATOM     92  F   UNL     1      -2.592  19.461  -9.539  1.00  0.00    -0.206 F 
ATOM     93  C   UNL     1      -6.101  20.087 -10.139  1.00  0.00     0.060 A 
BRANCH  93  94
ATOM     94  S   UNL     1      -7.160  21.193 -11.095  1.00  0.00     0.124 S 
ATOM     95  O   UNL     1      -7.702  20.286 -12.102  1.00  0.00    -0.237 OA
ATOM     96  O   UNL     1      -8.108  21.663 -10.089  1.00  0.00    -0.237 OA
ATOM     97  O   UNL     1      -6.234  22.205 -11.595  1.00  0.00    -0.744 OA
ENDBRANCH  93  94
ENDBRANCH  61  86
ENDBRANCH  35  36
ENDBRANCH  27  30
ENDBRANCH  25  26
ENDBRANCH  24  25
ENDBRANCH   1  24
TORSDOF 19
