REMARK SMILES CNC(=O)c1cccc(-c2cnc(O)c(C(=O)NCCCNC(=O)c3ccc(-c4c5nc(c(-c6c(F)cc(S(=O)(=O)[O-])cc6F)c6ccc([nH]6)c(-c6c(F)cc(S(=O)(=O)[O-])cc6F)c6nc(c(-c7c(F)cc(S(=O)(=O)[O-])cc7F)c7ccc4[nH]7)C=C6)C=C5)cc3)c2)c1
REMARK SMILES IDX 20 1 19 2 18 3 16 4 17 5 15 7 10 8 11 9 91 10 12 11 13 12
REMARK SMILES IDX 9 13 5 14 6 15 92 16 7 17 8 18 3 19 1 20 2 21 4 23 14 24
REMARK SMILES IDX 21 26 22 27 23 28 24 30 25 31 26 32 90 33 27 34 89 35 28 36
REMARK SMILES IDX 29 37 30 38 83 39 31 40 88 41 82 42 84 43 32 44 87 45 81 46
REMARK SMILES IDX 80 47 33 49 67 50 46 51 66 52 47 53 50 54 65 55 85 56 48 57
REMARK SMILES IDX 49 58 64 60 86 61 51 62 34 63 35 64 44 65 36 66 37 67 43 68
REMARK SMILES IDX 45 69 38 70 39 71 40 72 41 73 42 74 68 75 69 76 78 77 70 78
REMARK SMILES IDX 71 79 77 80 79 81 72 82 73 83 74 84 75 85 76 86 52 87 53 88
REMARK SMILES IDX 62 89 54 90 55 91 61 92 63 93 56 94 57 95 58 96 59 97 60 98
REMARK H PARENT 18 6 2 22 14 25 22 29 84 48 50 59
REMARK Flexibility Score: inf
ROOT
ATOM      1  C   UNL     1      -5.681   0.505  -0.300  1.00  0.00     0.042 C 
ENDROOT
BRANCH   1   2
ATOM      2  C   UNL     1      -4.896   0.628  -1.606  1.00  0.00     0.118 C 
BRANCH   2   3
ATOM      3  N   UNL     1      -5.414   1.697  -2.448  1.00  0.00    -0.352 N 
ATOM      4  C   UNL     1      -4.979   2.975  -2.696  1.00  0.00     0.256 C 
ATOM      5  O   UNL     1      -5.553   3.621  -3.576  1.00  0.00    -0.269 OA
ATOM      6  H   UNL     1      -6.236   1.457  -2.933  1.00  0.00     0.163 HD
BRANCH   4   7
ATOM      7  C   UNL     1      -3.821   3.606  -2.022  1.00  0.00     0.102 A 
ATOM      8  C   UNL     1      -2.196   3.784  -0.221  1.00  0.00     0.001 A 
ATOM      9  C   UNL     1      -1.575   4.784  -0.960  1.00  0.00     0.124 A 
ATOM     10  C   UNL     1      -3.371   3.242  -0.756  1.00  0.00     0.029 A 
ATOM     11  N   UNL     1      -2.019   5.226  -2.159  1.00  0.00    -0.221 NA
ATOM     12  C   UNL     1      -3.123   4.631  -2.665  1.00  0.00     0.223 A 
BRANCH   8  13
ATOM     13  C   UNL     1      -1.627   3.229   1.008  1.00  0.00    -0.016 A 
ATOM     14  C   UNL     1      -0.689   1.307   2.186  1.00  0.00     0.040 A 
ATOM     15  C   UNL     1      -0.638   2.055   3.365  1.00  0.00     0.014 A 
ATOM     16  C   UNL     1      -1.204   1.887   1.024  1.00  0.00     0.022 A 
ATOM     17  C   UNL     1      -1.051   3.388   3.363  1.00  0.00     0.001 A 
ATOM     18  C   UNL     1      -1.534   3.976   2.189  1.00  0.00     0.009 A 
BRANCH  14  19
ATOM     19  C   UNL     1      -0.295  -0.120   2.224  1.00  0.00     0.251 C 
ATOM     20  C   UNL     1       1.158  -0.029   0.132  1.00  0.00     0.143 C 
ATOM     21  N   UNL     1       0.454  -0.673   1.217  1.00  0.00    -0.355 N 
ATOM     22  H   UNL     1       0.522  -1.655   1.236  1.00  0.00     0.163 HD
ATOM     23  O   UNL     1      -0.645  -0.819   3.170  1.00  0.00    -0.269 OA
ENDBRANCH  14  19
ENDBRANCH   8  13
BRANCH  12  24
ATOM     24  O   UNL     1      -3.486   5.123  -3.889  1.00  0.00    -0.493 OA
ATOM     25  H   UNL     1      -2.987   5.812  -4.283  1.00  0.00     0.295 HD
ENDBRANCH  12  24
ENDBRANCH   4   7
ENDBRANCH   2   3
ENDBRANCH   1   2
BRANCH   1  26
ATOM     26  C   UNL     1      -7.048  -0.153  -0.469  1.00  0.00     0.118 C 
BRANCH  26  27
ATOM     27  N   UNL     1      -6.936  -1.569  -0.785  1.00  0.00    -0.352 N 
ATOM     28  C   UNL     1      -7.474  -2.661  -0.151  1.00  0.00     0.251 C 
ATOM     29  H   UNL     1      -6.389  -1.776  -1.577  1.00  0.00     0.163 HD
ATOM     30  O   UNL     1      -7.078  -3.782  -0.459  1.00  0.00    -0.269 OA
BRANCH  28  31
ATOM     31  C   UNL     1      -8.511  -2.503   0.895  1.00  0.00     0.039 A 
ATOM     32  C   UNL     1      -8.463  -3.336   2.018  1.00  0.00     0.014 A 
ATOM     33  C   UNL     1      -9.558  -1.589   0.752  1.00  0.00     0.014 A 
ATOM     34  C   UNL     1      -9.436  -3.221   3.014  1.00  0.00     0.010 A 
ATOM     35  C   UNL     1     -10.492  -1.432   1.776  1.00  0.00     0.010 A 
ATOM     36  C   UNL     1     -10.446  -2.252   2.913  1.00  0.00    -0.014 A 
BRANCH  36  37
ATOM     37  C   UNL     1     -11.462  -2.084   3.984  1.00  0.00     0.031 A 
ATOM     38  C   UNL     1     -12.914  -2.370   3.704  1.00  0.00     0.074 A 
ATOM     39  C   UNL     1     -11.086  -1.614   5.190  1.00  0.00     0.049 A 
ATOM     40  N   UNL     1     -13.953  -2.205   4.482  1.00  0.00    -0.248 NA
ATOM     41  C   UNL     1     -13.243  -2.885   2.365  1.00  0.00     0.031 C 
ATOM     42  C   UNL     1      -9.717  -1.257   5.569  1.00  0.00     0.029 A 
ATOM     43  N   UNL     1     -11.822  -1.341   6.316  1.00  0.00    -0.354 N 
ATOM     44  C   UNL     1     -15.058  -2.575   3.724  1.00  0.00     0.074 A 
ATOM     45  C   UNL     1     -14.567  -2.935   2.411  1.00  0.00     0.031 C 
ATOM     46  C   UNL     1      -9.710  -0.824   6.840  1.00  0.00     0.029 A 
ATOM     47  C   UNL     1     -11.075  -0.840   7.356  1.00  0.00     0.049 A 
ATOM     48  H   UNL     1     -12.793  -1.490   6.373  1.00  0.00     0.167 HD
ATOM     49  C   UNL     1     -16.360  -2.626   4.094  1.00  0.00     0.037 A 
ATOM     50  C   UNL     1     -11.448  -0.431   8.584  1.00  0.00     0.037 A 
ATOM     51  C   UNL     1     -16.838  -2.301   5.413  1.00  0.00     0.049 A 
ATOM     52  C   UNL     1     -12.897  -0.520   8.978  1.00  0.00     0.074 A 
ATOM     53  C   UNL     1     -18.129  -2.385   5.906  1.00  0.00     0.029 A 
ATOM     54  N   UNL     1     -16.045  -1.835   6.451  1.00  0.00    -0.354 N 
ATOM     55  N   UNL     1     -13.921  -0.927   8.266  1.00  0.00    -0.248 NA
ATOM     56  C   UNL     1     -13.242  -0.101  10.344  1.00  0.00     0.031 C 
ATOM     57  C   UNL     1     -18.122  -1.936   7.231  1.00  0.00     0.029 A 
ATOM     58  C   UNL     1     -16.821  -1.612   7.577  1.00  0.00     0.049 A 
ATOM     59  H   UNL     1     -15.074  -1.684   6.395  1.00  0.00     0.167 HD
ATOM     60  C   UNL     1     -15.026  -0.837   9.105  1.00  0.00     0.074 A 
ATOM     61  C   UNL     1     -14.545  -0.348  10.380  1.00  0.00     0.031 C 
ATOM     62  C   UNL     1     -16.323  -1.133   8.842  1.00  0.00     0.037 A 
BRANCH  49  63
ATOM     63  C   UNL     1     -17.366  -3.058   3.062  1.00  0.00     0.058 A 
ATOM     64  C   UNL     1     -17.451  -4.391   2.630  1.00  0.00     0.135 A 
ATOM     65  C   UNL     1     -18.286  -2.139   2.533  1.00  0.00     0.135 A 
ATOM     66  F   UNL     1     -16.586  -5.308   3.092  1.00  0.00    -0.206 F 
ATOM     67  C   UNL     1     -18.396  -4.793   1.692  1.00  0.00     0.059 A 
ATOM     68  C   UNL     1     -19.257  -2.524   1.612  1.00  0.00     0.059 A 
ATOM     69  F   UNL     1     -18.250  -0.851   2.911  1.00  0.00    -0.206 F 
ATOM     70  C   UNL     1     -19.295  -3.851   1.188  1.00  0.00     0.060 A 
BRANCH  70  71
ATOM     71  S   UNL     1     -20.524  -4.391  -0.020  1.00  0.00     0.124 S 
ATOM     72  O   UNL     1     -19.705  -4.543  -1.219  1.00  0.00    -0.237 OA
ATOM     73  O   UNL     1     -21.019  -5.631   0.569  1.00  0.00    -0.237 OA
ATOM     74  O   UNL     1     -21.480  -3.288  -0.049  1.00  0.00    -0.744 OA
ENDBRANCH  70  71
ENDBRANCH  49  63
BRANCH  50  75
ATOM     75  C   UNL     1     -10.430   0.085   9.536  1.00  0.00     0.058 A 
ATOM     76  C   UNL     1     -10.046  -0.664  10.658  1.00  0.00     0.135 A 
ATOM     77  C   UNL     1      -9.814   1.331   9.338  1.00  0.00     0.135 A 
ATOM     78  F   UNL     1     -10.612  -1.858  10.891  1.00  0.00    -0.206 F 
ATOM     79  C   UNL     1      -9.102  -0.190  11.562  1.00  0.00     0.059 A 
ATOM     80  C   UNL     1      -8.849   1.816  10.216  1.00  0.00     0.059 A 
ATOM     81  F   UNL     1     -10.133   2.077   8.270  1.00  0.00    -0.206 F 
ATOM     82  C   UNL     1      -8.509   1.053  11.332  1.00  0.00     0.060 A 
BRANCH  82  83
ATOM     83  S   UNL     1      -7.253   1.643  12.488  1.00  0.00     0.124 S 
ATOM     84  O   UNL     1      -8.071   2.065  13.619  1.00  0.00    -0.237 OA
ATOM     85  O   UNL     1      -6.439   0.450  12.697  1.00  0.00    -0.237 OA
ATOM     86  O   UNL     1      -6.596   2.717  11.748  1.00  0.00    -0.744 OA
ENDBRANCH  82  83
ENDBRANCH  50  75
BRANCH  62  87
ATOM     87  C   UNL     1     -17.309  -0.968   9.963  1.00  0.00     0.058 A 
ATOM     88  C   UNL     1     -17.740   0.300  10.384  1.00  0.00     0.135 A 
ATOM     89  C   UNL     1     -17.866  -2.093  10.591  1.00  0.00     0.135 A 
ATOM     90  F   UNL     1     -17.232   1.407   9.820  1.00  0.00    -0.206 F 
ATOM     91  C   UNL     1     -18.674   0.447  11.404  1.00  0.00     0.059 A 
ATOM     92  C   UNL     1     -18.820  -1.970  11.597  1.00  0.00     0.059 A 
ATOM     93  F   UNL     1     -17.495  -3.328  10.219  1.00  0.00    -0.206 F 
ATOM     94  C   UNL     1     -19.209  -0.695  12.004  1.00  0.00     0.060 A 
BRANCH  94  95
ATOM     95  S   UNL     1     -20.445  -0.493  13.305  1.00  0.00     0.124 S 
ATOM     96  O   UNL     1     -19.616  -0.094  14.438  1.00  0.00    -0.237 OA
ATOM     97  O   UNL     1     -21.311   0.546  12.756  1.00  0.00    -0.237 OA
ATOM     98  O   UNL     1     -21.051  -1.817  13.404  1.00  0.00    -0.744 OA
ENDBRANCH  94  95
ENDBRANCH  62  87
ENDBRANCH  36  37
ENDBRANCH  28  31
ENDBRANCH  26  27
ENDBRANCH   1  26
TORSDOF 16
