REMARK SMILES Cc1cc(C(=O)NCCCNC(=O)c2ccc(-c3c4nc(c(-c5c(F)cc(S(=O)(=O)[O-])cc5F)c5ccc([nH]5)c(-c5c(F)cc(S(=O)(=O)[O-])cc5F)c5nc(c(-c6c(F)cc(S(=O)(=O)[O-])cc6F)c6ccc3[nH]6)C=C5)C=C4)cc2)ccc1NCCCC(=O)NC1CC1
REMARK SMILES IDX 5 1 6 2 7 3 4 5 1 6 2 7 3 8 82 9 81 10 80 11 83 12 84 14
REMARK SMILES IDX 85 15 86 16 87 17 88 18 89 19 90 21 91 22 92 23 8 24 9 25
REMARK SMILES IDX 10 26 11 27 12 28 13 30 14 31 15 32 79 33 16 34 78 35 17 36
REMARK SMILES IDX 18 37 19 38 72 39 20 40 77 41 71 42 73 43 21 44 76 45 70 46
REMARK SMILES IDX 69 47 22 49 56 50 35 51 55 52 36 53 39 54 54 55 74 56 37 57
REMARK SMILES IDX 38 58 53 60 75 61 40 62 23 63 24 64 33 65 25 66 26 67 32 68
REMARK SMILES IDX 34 69 27 70 28 71 29 72 30 73 31 74 57 75 58 76 67 77 59 78
REMARK SMILES IDX 60 79 66 80 68 81 61 82 62 83 63 84 64 85 65 86 41 87 42 88
REMARK SMILES IDX 51 89 43 90 44 91 50 92 52 93 45 94 46 95 47 96 48 97 49 98
REMARK H PARENT 7 4 83 13 89 20 11 29 73 48 39 59
REMARK Flexibility Score: inf
ROOT
ATOM      1  C   UNL     1      -1.979  -2.050   0.025  1.00  0.00     0.251 C 
ATOM      2  O   UNL     1      -1.589  -3.199  -0.166  1.00  0.00    -0.269 OA
ATOM      3  N   UNL     1      -3.268  -1.728   0.409  1.00  0.00    -0.352 N 
ATOM      4  H   UNL     1      -3.883  -2.480   0.251  1.00  0.00     0.163 HD
ENDROOT
BRANCH   1   5
ATOM      5  C   UNL     1      -1.022  -0.966  -0.150  1.00  0.00     0.040 A 
ATOM      6  C   UNL     1       2.516  -0.026   0.748  1.00  0.00     0.046 C 
ATOM      7  C   UNL     1       1.043   0.095   0.466  1.00  0.00    -0.027 A 
ATOM      8  C   UNL     1       0.304  -1.076   0.266  1.00  0.00     0.019 A 
ATOM      9  C   UNL     1       0.374   1.332   0.348  1.00  0.00     0.037 A 
ATOM     10  C   UNL     1      -0.832   1.371  -0.365  1.00  0.00     0.027 A 
ATOM     11  C   UNL     1      -1.503   0.215  -0.676  1.00  0.00     0.016 A 
BRANCH   9  12
ATOM     12  N   UNL     1       0.923   2.494   0.867  1.00  0.00    -0.385 N 
ATOM     13  H   UNL     1       1.826   2.472   1.258  1.00  0.00     0.160 HD
BRANCH  12  14
ATOM     14  C   UNL     1       0.186   3.744   0.841  1.00  0.00     0.113 C 
BRANCH  14  15
ATOM     15  C   UNL     1       1.030   4.889   1.370  1.00  0.00     0.031 C 
BRANCH  15  16
ATOM     16  C   UNL     1       2.476   4.900   0.881  1.00  0.00     0.102 C 
BRANCH  16  17
ATOM     17  C   UNL     1       2.757   5.719  -0.357  1.00  0.00     0.220 C 
ATOM     18  O   UNL     1       3.249   6.848  -0.250  1.00  0.00    -0.275 OA
ATOM     19  N   UNL     1       2.538   5.235  -1.612  1.00  0.00    -0.353 N 
ATOM     20  H   UNL     1       2.954   5.765  -2.329  1.00  0.00     0.163 HD
BRANCH  19  21
ATOM     21  C   UNL     1       1.813   4.098  -2.068  1.00  0.00     0.082 C 
ATOM     22  C   UNL     1       2.306   3.407  -3.320  1.00  0.00     0.027 C 
ATOM     23  C   UNL     1       2.291   2.679  -2.019  1.00  0.00     0.027 C 
ENDBRANCH  19  21
ENDBRANCH  16  17
ENDBRANCH  15  16
ENDBRANCH  14  15
ENDBRANCH  12  14
ENDBRANCH   9  12
ENDBRANCH   1   5
BRANCH   3  24
ATOM     24  C   UNL     1      -3.985  -0.563   0.995  1.00  0.00     0.118 C 
BRANCH  24  25
ATOM     25  C   UNL     1      -5.244   0.098   0.219  1.00  0.00     0.042 C 
BRANCH  25  26
ATOM     26  C   UNL     1      -6.692  -0.474   0.591  1.00  0.00     0.118 C 
BRANCH  26  27
ATOM     27  N   UNL     1      -8.033  -0.159  -0.147  1.00  0.00    -0.352 N 
ATOM     28  C   UNL     1      -9.279  -0.906  -0.290  1.00  0.00     0.251 C 
ATOM     29  H   UNL     1      -8.039   0.713  -0.605  1.00  0.00     0.163 HD
ATOM     30  O   UNL     1     -10.201  -0.507   0.441  1.00  0.00    -0.269 OA
BRANCH  28  31
ATOM     31  C   UNL     1      -9.696  -2.077  -1.284  1.00  0.00     0.039 A 
ATOM     32  C   UNL     1     -10.612  -3.098  -0.867  1.00  0.00     0.014 A 
ATOM     33  C   UNL     1      -9.136  -2.339  -2.529  1.00  0.00     0.014 A 
ATOM     34  C   UNL     1     -10.511  -4.462  -1.371  1.00  0.00     0.010 A 
ATOM     35  C   UNL     1      -9.031  -3.685  -3.024  1.00  0.00     0.010 A 
ATOM     36  C   UNL     1      -9.519  -4.795  -2.311  1.00  0.00    -0.014 A 
BRANCH  36  37
ATOM     37  C   UNL     1      -8.773  -6.139  -2.350  1.00  0.00     0.031 A 
ATOM     38  C   UNL     1      -8.995  -7.116  -3.413  1.00  0.00     0.074 A 
ATOM     39  C   UNL     1      -7.720  -6.563  -1.580  1.00  0.00     0.049 A 
ATOM     40  N   UNL     1      -9.202  -8.381  -3.226  1.00  0.00    -0.248 NA
ATOM     41  C   UNL     1      -8.842  -6.720  -4.800  1.00  0.00     0.031 C 
ATOM     42  C   UNL     1      -6.818  -7.731  -1.614  1.00  0.00     0.029 A 
ATOM     43  N   UNL     1      -7.129  -5.906  -0.530  1.00  0.00    -0.354 N 
ATOM     44  C   UNL     1      -8.874  -8.985  -4.423  1.00  0.00     0.074 A 
ATOM     45  C   UNL     1      -8.875  -7.911  -5.401  1.00  0.00     0.031 C 
ATOM     46  C   UNL     1      -6.148  -7.832  -0.440  1.00  0.00     0.029 A 
ATOM     47  C   UNL     1      -6.609  -6.770   0.427  1.00  0.00     0.049 A 
ATOM     48  H   UNL     1      -7.078  -4.925  -0.462  1.00  0.00     0.167 HD
ATOM     49  C   UNL     1      -8.325 -10.241  -4.480  1.00  0.00     0.037 A 
ATOM     50  C   UNL     1      -7.192  -6.800   1.671  1.00  0.00     0.037 A 
ATOM     51  C   UNL     1      -7.884 -10.723  -3.154  1.00  0.00     0.049 A 
ATOM     52  C   UNL     1      -8.000  -8.068   1.802  1.00  0.00     0.074 A 
ATOM     53  C   UNL     1      -6.642 -11.003  -2.592  1.00  0.00     0.029 A 
ATOM     54  N   UNL     1      -8.759 -10.708  -2.079  1.00  0.00    -0.354 N 
ATOM     55  N   UNL     1      -7.828  -9.084   1.006  1.00  0.00    -0.248 NA
ATOM     56  C   UNL     1      -9.098  -8.294   2.740  1.00  0.00     0.031 C 
ATOM     57  C   UNL     1      -6.798 -11.177  -1.183  1.00  0.00     0.029 A 
ATOM     58  C   UNL     1      -8.137 -11.023  -0.881  1.00  0.00     0.049 A 
ATOM     59  H   UNL     1      -9.717 -10.498  -2.158  1.00  0.00     0.167 HD
ATOM     60  C   UNL     1      -8.821  -9.996   1.180  1.00  0.00     0.074 A 
ATOM     61  C   UNL     1      -9.562  -9.490   2.324  1.00  0.00     0.031 C 
ATOM     62  C   UNL     1      -8.949 -11.062   0.333  1.00  0.00     0.037 A 
BRANCH  49  63
ATOM     63  C   UNL     1      -7.910 -10.897  -5.796  1.00  0.00     0.058 A 
ATOM     64  C   UNL     1      -7.000 -11.973  -5.851  1.00  0.00     0.135 A 
ATOM     65  C   UNL     1      -8.441 -10.535  -7.056  1.00  0.00     0.135 A 
ATOM     66  F   UNL     1      -6.531 -12.553  -4.739  1.00  0.00    -0.206 F 
ATOM     67  C   UNL     1      -6.562 -12.546  -7.050  1.00  0.00     0.059 A 
ATOM     68  C   UNL     1      -7.962 -11.031  -8.272  1.00  0.00     0.059 A 
ATOM     69  F   UNL     1      -9.518  -9.741  -7.159  1.00  0.00    -0.206 F 
ATOM     70  C   UNL     1      -7.023 -12.048  -8.261  1.00  0.00     0.060 A 
BRANCH  70  71
ATOM     71  S   UNL     1      -6.476 -12.812  -9.799  1.00  0.00     0.124 S 
ATOM     72  O   UNL     1      -5.024 -12.707  -9.701  1.00  0.00    -0.237 OA
ATOM     73  O   UNL     1      -7.026 -14.158  -9.679  1.00  0.00    -0.237 OA
ATOM     74  O   UNL     1      -7.088 -11.979 -10.831  1.00  0.00    -0.744 OA
ENDBRANCH  70  71
ENDBRANCH  49  63
BRANCH  50  75
ATOM     75  C   UNL     1      -7.566  -5.415   2.268  1.00  0.00     0.058 A 
ATOM     76  C   UNL     1      -6.441  -4.596   2.503  1.00  0.00     0.135 A 
ATOM     77  C   UNL     1      -8.547  -4.770   1.541  1.00  0.00     0.135 A 
ATOM     78  F   UNL     1      -5.721  -4.768   3.619  1.00  0.00    -0.206 F 
ATOM     79  C   UNL     1      -5.977  -3.690   1.540  1.00  0.00     0.059 A 
ATOM     80  C   UNL     1      -8.091  -3.875   0.564  1.00  0.00     0.059 A 
ATOM     81  F   UNL     1      -9.751  -5.348   1.381  1.00  0.00    -0.206 F 
ATOM     82  C   UNL     1      -6.768  -3.498   0.427  1.00  0.00     0.060 A 
BRANCH  82  83
ATOM     83  S   UNL     1      -6.014  -3.075  -1.333  1.00  0.00     0.124 S 
ATOM     84  O   UNL     1      -4.620  -3.026  -1.009  1.00  0.00    -0.237 OA
ATOM     85  O   UNL     1      -6.330  -4.214  -2.187  1.00  0.00    -0.237 OA
ATOM     86  O   UNL     1      -6.586  -1.814  -1.764  1.00  0.00    -0.744 OA
ENDBRANCH  82  83
ENDBRANCH  50  75
BRANCH  62  87
ATOM     87  C   UNL     1      -9.886 -12.219   0.551  1.00  0.00     0.058 A 
ATOM     88  C   UNL     1     -10.220 -12.695   1.829  1.00  0.00     0.135 A 
ATOM     89  C   UNL     1     -10.373 -12.991  -0.531  1.00  0.00     0.135 A 
ATOM     90  F   UNL     1      -9.691 -12.149   2.935  1.00  0.00    -0.206 F 
ATOM     91  C   UNL     1     -11.076 -13.779   2.018  1.00  0.00     0.059 A 
ATOM     92  C   UNL     1     -11.190 -14.099  -0.366  1.00  0.00     0.059 A 
ATOM     93  F   UNL     1     -10.081 -12.709  -1.806  1.00  0.00    -0.206 F 
ATOM     94  C   UNL     1     -11.570 -14.464   0.911  1.00  0.00     0.060 A 
BRANCH  94  95
ATOM     95  S   UNL     1     -12.691 -15.847   1.150  1.00  0.00     0.124 S 
ATOM     96  O   UNL     1     -12.048 -16.587   2.232  1.00  0.00    -0.237 OA
ATOM     97  O   UNL     1     -13.929 -15.157   1.503  1.00  0.00    -0.237 OA
ATOM     98  O   UNL     1     -12.693 -16.517  -0.146  1.00  0.00    -0.744 OA
ENDBRANCH  94  95
ENDBRANCH  62  87
ENDBRANCH  36  37
ENDBRANCH  28  31
ENDBRANCH  26  27
ENDBRANCH  25  26
ENDBRANCH  24  25
ENDBRANCH   3  24
TORSDOF 19
