REMARK SMILES CCC1(C)CC[NH+]([C@@H]2CC[C@]([NH2+]C3CC3)(C(=O)NCCCNC(=O)c3ccc(-c4c5nc(c(-c6c(F)cc(S(=O)(=O)[O-])cc6F)c6ccc([nH]6)c(-c6c(F)cc(S(=O)(=O)[O-])cc6F)c6nc(c(-c7c(F)cc(S(=O)(=O)[O-])cc7F)c7ccc4[nH]7)C=C6)C=C5)cc3)C2)CC1
REMARK SMILES IDX 20 1 19 2 18 3 16 4 17 5 11 7 8 8 9 9 91 10 10 11 7 12 3 13
REMARK SMILES IDX 4 14 5 15 93 16 6 17 92 18 2 20 1 21 12 22 13 25 14 26 15 27
REMARK SMILES IDX 21 28 22 29 23 30 24 32 25 33 26 34 90 35 27 36 89 37 28 38
REMARK SMILES IDX 29 39 30 40 83 41 31 42 88 43 82 44 84 45 32 46 87 47 81 48
REMARK SMILES IDX 80 49 33 51 67 52 46 53 66 54 47 55 50 56 65 57 85 58 48 59
REMARK SMILES IDX 49 60 64 62 86 63 51 64 34 65 35 66 44 67 36 68 37 69 43 70
REMARK SMILES IDX 45 71 38 72 39 73 40 74 41 75 42 76 68 77 69 78 78 79 70 80
REMARK SMILES IDX 71 81 77 82 79 83 72 84 73 85 74 86 75 87 76 88 52 89 53 90
REMARK SMILES IDX 62 91 54 92 55 93 61 94 63 95 56 96 57 97 58 98 59 99 60 100
REMARK H PARENT 18 6 7 19 12 23 12 24 22 31 84 50 50 61
REMARK Flexibility Score: inf
ROOT
ATOM      1  C   UNL     1       3.287   3.157  -7.028  1.00  0.00     0.042 C 
ENDROOT
BRANCH   1   2
ATOM      2  C   UNL     1       1.957   3.746  -7.504  1.00  0.00     0.118 C 
BRANCH   2   3
ATOM      3  N   UNL     1       0.846   2.834  -7.307  1.00  0.00    -0.351 N 
ATOM      4  C   UNL     1      -0.159   2.829  -6.386  1.00  0.00     0.281 C 
ATOM      5  O   UNL     1      -1.052   1.989  -6.568  1.00  0.00    -0.268 OA
ATOM      6  H   UNL     1       0.811   2.091  -7.951  1.00  0.00     0.163 HD
BRANCH   4   7
ATOM      7  C   UNL     1      -0.270   3.887  -5.232  1.00  0.00     0.181 C 
ATOM      8  C   UNL     1       0.745   4.483  -3.067  1.00  0.00     0.191 C 
ATOM      9  C   UNL     1      -0.526   3.684  -2.760  1.00  0.00     0.072 C 
ATOM     10  C   UNL     1       1.069   4.126  -4.519  1.00  0.00     0.144 C 
ATOM     11  C   UNL     1      -1.138   3.273  -4.103  1.00  0.00     0.085 C 
BRANCH   8  12
ATOM     12  N   UNL     1       1.895   4.457  -2.152  1.00  0.00    -0.332 N 
ATOM     13  C   UNL     1       1.718   2.392   0.003  1.00  0.00    -0.022 C 
ATOM     14  C   UNL     1       2.948   2.418   0.937  1.00  0.00     0.012 C 
ATOM     15  C   UNL     1       1.000   3.771   0.093  1.00  0.00     0.068 C 
ATOM     16  C   UNL     1       2.190   2.083  -1.440  1.00  0.00     0.068 C 
ATOM     17  C   UNL     1       1.612   4.870  -0.778  1.00  0.00     0.263 C 
ATOM     18  C   UNL     1       2.778   3.294  -2.156  1.00  0.00     0.263 C 
ATOM     19  H   UNL     1       2.440   5.185  -2.613  1.00  0.00     0.348 HD
BRANCH  13  20
ATOM     20  C   UNL     1       0.715   1.308   0.496  1.00  0.00     0.004 C 
ATOM     21  C   UNL     1       1.137  -0.139   0.277  1.00  0.00     0.004 C 
ENDBRANCH  13  20
ENDBRANCH   8  12
BRANCH   7  22
ATOM     22  N   UNL     1      -0.916   5.076  -5.846  1.00  0.00    -0.331 N 
ATOM     23  H   UNL     1      -1.801   4.768  -6.248  1.00  0.00     0.347 HD
ATOM     24  H   UNL     1      -0.231   5.428  -6.514  1.00  0.00     0.347 HD
BRANCH  22  25
ATOM     25  C   UNL     1      -1.204   6.214  -4.973  1.00  0.00     0.183 C 
ATOM     26  C   UNL     1      -0.318   7.424  -5.055  1.00  0.00     0.071 C 
ATOM     27  C   UNL     1      -1.717   7.485  -5.589  1.00  0.00     0.071 C 
ENDBRANCH  22  25
ENDBRANCH   7  22
ENDBRANCH   4   7
ENDBRANCH   2   3
ENDBRANCH   1   2
BRANCH   1  28
ATOM     28  C   UNL     1       3.801   1.998  -7.882  1.00  0.00     0.118 C 
BRANCH  28  29
ATOM     29  N   UNL     1       4.164   2.422  -9.226  1.00  0.00    -0.352 N 
ATOM     30  C   UNL     1       5.358   2.332  -9.896  1.00  0.00     0.251 C 
ATOM     31  H   UNL     1       3.434   2.841  -9.737  1.00  0.00     0.163 HD
ATOM     32  O   UNL     1       5.498   2.951 -10.947  1.00  0.00    -0.269 OA
BRANCH  30  33
ATOM     33  C   UNL     1       6.474   1.511  -9.371  1.00  0.00     0.039 A 
ATOM     34  C   UNL     1       7.780   1.997  -9.501  1.00  0.00     0.014 A 
ATOM     35  C   UNL     1       6.258   0.246  -8.817  1.00  0.00     0.014 A 
ATOM     36  C   UNL     1       8.858   1.240  -9.036  1.00  0.00     0.010 A 
ATOM     37  C   UNL     1       7.330  -0.482  -8.297  1.00  0.00     0.010 A 
ATOM     38  C   UNL     1       8.641   0.005  -8.405  1.00  0.00    -0.014 A 
BRANCH  38  39
ATOM     39  C   UNL     1       9.774  -0.792  -7.863  1.00  0.00     0.031 A 
ATOM     40  C   UNL     1      10.112  -2.132  -8.460  1.00  0.00     0.074 A 
ATOM     41  C   UNL     1      10.468  -0.328  -6.805  1.00  0.00     0.049 A 
ATOM     42  N   UNL     1      11.003  -3.008  -8.071  1.00  0.00    -0.248 NA
ATOM     43  C   UNL     1       9.332  -2.553  -9.635  1.00  0.00     0.031 C 
ATOM     44  C   UNL     1      10.217   0.941  -6.118  1.00  0.00     0.029 A 
ATOM     45  N   UNL     1      11.519  -0.875  -6.112  1.00  0.00    -0.354 N 
ATOM     46  C   UNL     1      10.891  -4.080  -8.949  1.00  0.00     0.074 A 
ATOM     47  C   UNL     1       9.808  -3.769  -9.857  1.00  0.00     0.031 C 
ATOM     48  C   UNL     1      11.097   1.080  -5.113  1.00  0.00     0.029 A 
ATOM     49  C   UNL     1      11.950  -0.103  -5.059  1.00  0.00     0.049 A 
ATOM     50  H   UNL     1      11.927  -1.740  -6.348  1.00  0.00     0.167 HD
ATOM     51  C   UNL     1      11.639  -5.209  -9.010  1.00  0.00     0.037 A 
ATOM     52  C   UNL     1      12.914  -0.327  -4.146  1.00  0.00     0.037 A 
ATOM     53  C   UNL     1      12.726  -5.508  -8.115  1.00  0.00     0.049 A 
ATOM     54  C   UNL     1      13.718  -1.598  -4.225  1.00  0.00     0.074 A 
ATOM     55  C   UNL     1      13.553  -6.619  -8.104  1.00  0.00     0.029 A 
ATOM     56  N   UNL     1      13.146  -4.689  -7.078  1.00  0.00    -0.354 N 
ATOM     57  N   UNL     1      13.615  -2.587  -5.081  1.00  0.00    -0.248 NA
ATOM     58  C   UNL     1      14.773  -1.781  -3.219  1.00  0.00     0.031 C 
ATOM     59  C   UNL     1      14.455  -6.483  -7.043  1.00  0.00     0.029 A 
ATOM     60  C   UNL     1      14.217  -5.270  -6.418  1.00  0.00     0.049 A 
ATOM     61  H   UNL     1      12.743  -3.821  -6.845  1.00  0.00     0.167 HD
ATOM     62  C   UNL     1      14.610  -3.494  -4.734  1.00  0.00     0.074 A 
ATOM     63  C   UNL     1      15.312  -2.931  -3.599  1.00  0.00     0.031 C 
ATOM     64  C   UNL     1      14.915  -4.686  -5.302  1.00  0.00     0.037 A 
BRANCH  51  65
ATOM     65  C   UNL     1      11.319  -6.199 -10.097  1.00  0.00     0.058 A 
ATOM     66  C   UNL     1      11.623  -5.929 -11.441  1.00  0.00     0.135 A 
ATOM     67  C   UNL     1      10.749  -7.446  -9.793  1.00  0.00     0.135 A 
ATOM     68  F   UNL     1      12.155  -4.746 -11.789  1.00  0.00    -0.206 F 
ATOM     69  C   UNL     1      11.352  -6.849 -12.448  1.00  0.00     0.059 A 
ATOM     70  C   UNL     1      10.493  -8.392 -10.782  1.00  0.00     0.059 A 
ATOM     71  F   UNL     1      10.438  -7.756  -8.525  1.00  0.00    -0.206 F 
ATOM     72  C   UNL     1      10.787  -8.079 -12.108  1.00  0.00     0.060 A 
BRANCH  72  73
ATOM     73  S   UNL     1      10.456  -9.267 -13.427  1.00  0.00     0.124 S 
ATOM     74  O   UNL     1       9.294  -8.666 -14.074  1.00  0.00    -0.237 OA
ATOM     75  O   UNL     1      11.695  -9.236 -14.195  1.00  0.00    -0.237 OA
ATOM     76  O   UNL     1      10.199 -10.511 -12.707  1.00  0.00    -0.744 OA
ENDBRANCH  72  73
ENDBRANCH  51  65
BRANCH  52  77
ATOM     77  C   UNL     1      13.184   0.672  -3.078  1.00  0.00     0.058 A 
ATOM     78  C   UNL     1      14.372   1.418  -3.070  1.00  0.00     0.135 A 
ATOM     79  C   UNL     1      12.272   0.884  -2.033  1.00  0.00     0.135 A 
ATOM     80  F   UNL     1      15.277   1.247  -4.046  1.00  0.00    -0.206 F 
ATOM     81  C   UNL     1      14.664   2.314  -2.047  1.00  0.00     0.059 A 
ATOM     82  C   UNL     1      12.529   1.794  -1.012  1.00  0.00     0.059 A 
ATOM     83  F   UNL     1      11.111   0.210  -2.004  1.00  0.00    -0.206 F 
ATOM     84  C   UNL     1      13.737   2.491  -1.018  1.00  0.00     0.060 A 
BRANCH  84  85
ATOM     85  S   UNL     1      14.116   3.664   0.302  1.00  0.00     0.124 S 
ATOM     86  O   UNL     1      15.081   2.910   1.093  1.00  0.00    -0.237 OA
ATOM     87  O   UNL     1      14.647   4.803  -0.439  1.00  0.00    -0.237 OA
ATOM     88  O   UNL     1      12.818   3.887   0.932  1.00  0.00    -0.744 OA
ENDBRANCH  84  85
ENDBRANCH  52  77
BRANCH  64  89
ATOM     89  C   UNL     1      16.084  -5.441  -4.735  1.00  0.00     0.058 A 
ATOM     90  C   UNL     1      16.005  -6.105  -3.501  1.00  0.00     0.135 A 
ATOM     91  C   UNL     1      17.284  -5.538  -5.457  1.00  0.00     0.135 A 
ATOM     92  F   UNL     1      14.882  -6.037  -2.769  1.00  0.00    -0.206 F 
ATOM     93  C   UNL     1      17.084  -6.820  -2.991  1.00  0.00     0.059 A 
ATOM     94  C   UNL     1      18.367  -6.268  -4.979  1.00  0.00     0.059 A 
ATOM     95  F   UNL     1      17.408  -4.929  -6.647  1.00  0.00    -0.206 F 
ATOM     96  C   UNL     1      18.261  -6.896  -3.738  1.00  0.00     0.060 A 
BRANCH  96  97
ATOM     97  S   UNL     1      19.643  -7.854  -3.082  1.00  0.00     0.124 S 
ATOM     98  O   UNL     1      20.159  -6.959  -2.051  1.00  0.00    -0.237 OA
ATOM     99  O   UNL     1      18.985  -9.064  -2.598  1.00  0.00    -0.237 OA
ATOM    100  O   UNL     1      20.509  -8.041  -4.242  1.00  0.00    -0.744 OA
ENDBRANCH  96  97
ENDBRANCH  64  89
ENDBRANCH  38  39
ENDBRANCH  30  33
ENDBRANCH  28  29
ENDBRANCH   1  28
TORSDOF 17
