REMARK SMILES O=C(NCCCNC(=O)[C@@H]1CCCC[C@@H]1C(=O)Nc1cccc(Br)c1)c1ccc(-c2c3nc(c(-c4c(F)cc(S(=O)(=O)[O-])cc4F)c4ccc([nH]4)c(-c4c(F)cc(S(=O)(=O)[O-])cc4F)c4nc(c(-c5c(F)cc(S(=O)(=O)[O-])cc5F)c5ccc2[nH]5)C=C4)C=C3)cc1
REMARK SMILES IDX 4 1 3 2 1 3 2 4 26 6 27 7 91 8 28 9 90 10 29 11 30 12 31 13
REMARK SMILES IDX 84 14 32 15 89 16 83 17 85 18 33 19 88 20 82 21 81 22 34 24
REMARK SMILES IDX 68 25 47 26 67 27 48 28 51 29 66 30 86 31 49 32 50 33 65 35
REMARK SMILES IDX 87 36 52 37 35 38 36 39 45 40 37 41 38 42 44 43 46 44 39 45
REMARK SMILES IDX 40 46 41 47 42 48 43 49 69 50 70 51 79 52 71 53 72 54 78 55
REMARK SMILES IDX 80 56 73 57 74 58 75 59 76 60 77 61 53 62 54 63 63 64 55 65
REMARK SMILES IDX 56 66 62 67 64 68 57 69 58 70 59 71 60 72 61 73 5 74 6 75
REMARK SMILES IDX 7 76 8 77 9 79 10 80 11 81 15 82 12 83 14 84 13 85 16 86
REMARK SMILES IDX 17 87 18 88 19 90 20 91 25 92 21 93 23 94 22 95 24 96
REMARK H PARENT 3 5 85 23 51 34 7 78 18 89
REMARK Flexibility Score: inf
ROOT
ATOM      1  C   UNL     1       5.698  -0.494  -1.151  1.00  0.00     0.118 C 
ENDROOT
BRANCH   1   2
ATOM      2  N   UNL     1       4.329  -0.154  -1.536  1.00  0.00    -0.352 N 
ATOM      3  O   UNL     1       2.195   0.570  -1.280  1.00  0.00    -0.269 OA
ATOM      4  C   UNL     1       3.357   0.601  -0.900  1.00  0.00     0.251 C 
ATOM      5  H   UNL     1       4.048  -0.528  -2.402  1.00  0.00     0.163 HD
BRANCH   4   6
ATOM      6  C   UNL     1       3.730   1.480   0.219  1.00  0.00     0.039 A 
ATOM      7  C   UNL     1       4.868   2.257   0.060  1.00  0.00     0.014 A 
ATOM      8  C   UNL     1       2.939   1.607   1.370  1.00  0.00     0.014 A 
ATOM      9  C   UNL     1       5.341   2.994   1.121  1.00  0.00     0.010 A 
ATOM     10  C   UNL     1       3.351   2.465   2.399  1.00  0.00     0.010 A 
ATOM     11  C   UNL     1       4.576   3.137   2.291  1.00  0.00    -0.014 A 
BRANCH  11  12
ATOM     12  C   UNL     1       5.123   4.074   3.301  1.00  0.00     0.031 A 
ATOM     13  C   UNL     1       5.675   3.567   4.596  1.00  0.00     0.074 A 
ATOM     14  C   UNL     1       5.329   5.343   2.893  1.00  0.00     0.049 A 
ATOM     15  N   UNL     1       6.480   4.169   5.431  1.00  0.00    -0.248 NA
ATOM     16  C   UNL     1       5.277   2.214   5.015  1.00  0.00     0.031 C 
ATOM     17  C   UNL     1       4.821   5.902   1.633  1.00  0.00     0.029 A 
ATOM     18  N   UNL     1       6.108   6.345   3.407  1.00  0.00    -0.354 N 
ATOM     19  C   UNL     1       6.669   3.283   6.484  1.00  0.00     0.074 A 
ATOM     20  C   UNL     1       5.888   2.102   6.188  1.00  0.00     0.031 C 
ATOM     21  C   UNL     1       5.417   7.079   1.403  1.00  0.00     0.029 A 
ATOM     22  C   UNL     1       6.277   7.399   2.535  1.00  0.00     0.049 A 
ATOM     23  H   UNL     1       6.507   6.315   4.307  1.00  0.00     0.167 HD
ATOM     24  C   UNL     1       7.424   3.456   7.595  1.00  0.00     0.037 A 
ATOM     25  C   UNL     1       7.055   8.493   2.629  1.00  0.00     0.037 A 
ATOM     26  C   UNL     1       8.198   4.645   7.851  1.00  0.00     0.049 A 
ATOM     27  C   UNL     1       7.905   8.644   3.856  1.00  0.00     0.074 A 
ATOM     28  C   UNL     1       8.992   4.940   8.945  1.00  0.00     0.029 A 
ATOM     29  N   UNL     1       8.273   5.738   6.997  1.00  0.00    -0.354 N 
ATOM     30  N   UNL     1       8.071   7.798   4.846  1.00  0.00    -0.248 NA
ATOM     31  C   UNL     1       8.655   9.896   3.991  1.00  0.00     0.031 C 
ATOM     32  C   UNL     1       9.511   6.229   8.771  1.00  0.00     0.029 A 
ATOM     33  C   UNL     1       9.085   6.716   7.545  1.00  0.00     0.049 A 
ATOM     34  H   UNL     1       7.815   5.807   6.128  1.00  0.00     0.167 HD
ATOM     35  C   UNL     1       8.947   8.417   5.728  1.00  0.00     0.074 A 
ATOM     36  C   UNL     1       9.299   9.693   5.133  1.00  0.00     0.031 C 
ATOM     37  C   UNL     1       9.410   7.978   6.925  1.00  0.00     0.037 A 
BRANCH  24  38
ATOM     38  C   UNL     1       7.400   2.367   8.633  1.00  0.00     0.058 A 
ATOM     39  C   UNL     1       8.029   1.127   8.435  1.00  0.00     0.135 A 
ATOM     40  C   UNL     1       6.743   2.575   9.858  1.00  0.00     0.135 A 
ATOM     41  F   UNL     1       8.654   0.864   7.276  1.00  0.00    -0.206 F 
ATOM     42  C   UNL     1       7.984   0.124   9.401  1.00  0.00     0.059 A 
ATOM     43  C   UNL     1       6.705   1.596  10.847  1.00  0.00     0.059 A 
ATOM     44  F   UNL     1       6.120   3.739  10.100  1.00  0.00    -0.206 F 
ATOM     45  C   UNL     1       7.316   0.367  10.602  1.00  0.00     0.060 A 
BRANCH  45  46
ATOM     46  S   UNL     1       7.252  -0.947  11.840  1.00  0.00     0.124 S 
ATOM     47  O   UNL     1       6.298  -1.870  11.234  1.00  0.00    -0.237 OA
ATOM     48  O   UNL     1       8.637  -1.405  11.881  1.00  0.00    -0.237 OA
ATOM     49  O   UNL     1       6.786  -0.261  13.041  1.00  0.00    -0.744 OA
ENDBRANCH  45  46
ENDBRANCH  24  38
BRANCH  25  50
ATOM     50  C   UNL     1       7.048   9.511   1.542  1.00  0.00     0.058 A 
ATOM     51  C   UNL     1       8.181   9.758   0.753  1.00  0.00     0.135 A 
ATOM     52  C   UNL     1       5.881  10.236   1.246  1.00  0.00     0.135 A 
ATOM     53  F   UNL     1       9.323   9.096   0.993  1.00  0.00    -0.206 F 
ATOM     54  C   UNL     1       8.161  10.689  -0.282  1.00  0.00     0.059 A 
ATOM     55  C   UNL     1       5.826  11.145   0.197  1.00  0.00     0.059 A 
ATOM     56  F   UNL     1       4.762  10.029   1.959  1.00  0.00    -0.206 F 
ATOM     57  C   UNL     1       6.975  11.375  -0.556  1.00  0.00     0.060 A 
BRANCH  57  58
ATOM     58  S   UNL     1       6.934  12.540  -1.935  1.00  0.00     0.124 S 
ATOM     59  O   UNL     1       7.659  13.676  -1.378  1.00  0.00    -0.237 OA
ATOM     60  O   UNL     1       7.620  11.797  -2.987  1.00  0.00    -0.237 OA
ATOM     61  O   UNL     1       5.506  12.748  -2.154  1.00  0.00    -0.744 OA
ENDBRANCH  57  58
ENDBRANCH  25  50
BRANCH  37  62
ATOM     62  C   UNL     1      10.363   8.884   7.647  1.00  0.00     0.058 A 
ATOM     63  C   UNL     1       9.929  10.067   8.267  1.00  0.00     0.135 A 
ATOM     64  C   UNL     1      11.724   8.554   7.733  1.00  0.00     0.135 A 
ATOM     65  F   UNL     1       8.638  10.428   8.204  1.00  0.00    -0.206 F 
ATOM     66  C   UNL     1      10.821  10.911   8.917  1.00  0.00     0.059 A 
ATOM     67  C   UNL     1      12.628   9.369   8.403  1.00  0.00     0.059 A 
ATOM     68  F   UNL     1      12.184   7.427   7.166  1.00  0.00    -0.206 F 
ATOM     69  C   UNL     1      12.170  10.555   8.976  1.00  0.00     0.060 A 
BRANCH  69  70
ATOM     70  S   UNL     1      13.319  11.654   9.828  1.00  0.00     0.124 S 
ATOM     71  O   UNL     1      13.481  12.723   8.848  1.00  0.00    -0.237 OA
ATOM     72  O   UNL     1      12.579  12.007  11.036  1.00  0.00    -0.237 OA
ATOM     73  O   UNL     1      14.493  10.814  10.043  1.00  0.00    -0.744 OA
ENDBRANCH  69  70
ENDBRANCH  37  62
ENDBRANCH  11  12
ENDBRANCH   4   6
ENDBRANCH   1   2
BRANCH   1  74
ATOM     74  C   UNL     1       5.843  -1.627  -0.132  1.00  0.00     0.042 C 
BRANCH  74  75
ATOM     75  C   UNL     1       5.770  -3.103  -0.575  1.00  0.00     0.117 C 
BRANCH  75  76
ATOM     76  N   UNL     1       5.707  -3.388  -1.996  1.00  0.00    -0.356 N 
ATOM     77  C   UNL     1       5.631  -4.597  -2.640  1.00  0.00     0.223 C 
ATOM     78  H   UNL     1       5.719  -2.599  -2.584  1.00  0.00     0.163 HD
ATOM     79  O   UNL     1       5.493  -4.574  -3.864  1.00  0.00    -0.275 OA
BRANCH  77  80
ATOM     80  C   UNL     1       5.736  -5.908  -1.858  1.00  0.00     0.091 C 
ATOM     81  C   UNL     1       6.325  -7.040  -2.711  1.00  0.00     0.014 C 
ATOM     82  C   UNL     1       4.432  -6.349  -1.175  1.00  0.00     0.091 C 
ATOM     83  C   UNL     1       6.552  -8.312  -1.889  1.00  0.00     0.001 C 
ATOM     84  C   UNL     1       4.727  -7.566  -0.273  1.00  0.00     0.014 C 
ATOM     85  C   UNL     1       5.352  -8.731  -1.041  1.00  0.00     0.001 C 
BRANCH  82  86
ATOM     86  C   UNL     1       3.237  -6.749  -2.088  1.00  0.00     0.228 C 
ATOM     87  O   UNL     1       3.316  -7.556  -3.011  1.00  0.00    -0.274 OA
ATOM     88  N   UNL     1       1.992  -6.327  -1.665  1.00  0.00    -0.326 N 
ATOM     89  H   UNL     1       1.234  -6.952  -1.728  1.00  0.00     0.169 HD
BRANCH  88  90
ATOM     90  C   UNL     1       1.768  -5.050  -1.151  1.00  0.00     0.042 A 
ATOM     91  C   UNL     1       2.339  -3.970  -1.813  1.00  0.00     0.026 A 
ATOM     92  C   UNL     1       1.055  -4.870   0.031  1.00  0.00     0.041 A 
ATOM     93  C   UNL     1       2.288  -2.720  -1.232  1.00  0.00     0.003 A 
ATOM     94  C   UNL     1       1.060  -3.608   0.627  1.00  0.00     0.020 A 
ATOM     95  C   UNL     1       1.700  -2.536   0.013  1.00  0.00     0.016 A 
ATOM     96  Br  UNL     1       0.231  -3.346   2.304  1.00  0.00    -0.051 Br
ENDBRANCH  88  90
ENDBRANCH  82  86
ENDBRANCH  77  80
ENDBRANCH  75  76
ENDBRANCH  74  75
ENDBRANCH   1  74
TORSDOF 15
