REMARK SMILES CC[NH2+]CCC(=O)NC1(CC(=O)NCCCNC(=O)c2ccc(-c3c4nc(c(-c5c(F)cc(S(=O)(=O)[O-])cc5F)c5ccc([nH]5)c(-c5c(F)cc(S(=O)(=O)[O-])cc5F)c5nc(c(-c6c(F)cc(S(=O)(=O)[O-])cc6F)c6ccc3[nH]6)C=C5)C=C4)cc2)CCC1
REMARK SMILES IDX 11 1 12 2 13 3 10 5 9 6 86 7 88 8 87 9 8 10 6 11 7 12 5 14
REMARK SMILES IDX 4 15 3 16 2 19 1 20 14 21 15 22 16 23 17 24 18 25 19 27
REMARK SMILES IDX 20 28 21 29 85 30 22 31 84 32 23 33 24 34 25 35 78 36 26 37
REMARK SMILES IDX 83 38 77 39 79 40 27 41 82 42 76 43 75 44 28 46 62 47 41 48
REMARK SMILES IDX 61 49 42 50 45 51 60 52 80 53 43 54 44 55 59 57 81 58 46 59
REMARK SMILES IDX 29 60 30 61 39 62 31 63 32 64 38 65 40 66 33 67 34 68 35 69
REMARK SMILES IDX 36 70 37 71 63 72 64 73 73 74 65 75 66 76 72 77 74 78 67 79
REMARK SMILES IDX 68 80 69 81 70 82 71 83 47 84 48 85 57 86 49 87 50 88 56 89
REMARK SMILES IDX 58 90 51 91 52 92 53 93 54 94 55 95
REMARK H PARENT 13 4 8 13 3 17 3 18 17 26 79 45 45 56
REMARK Flexibility Score: inf
ROOT
ATOM      1  C   UNL     1       1.585   3.319  -0.171  1.00  0.00     0.222 C 
ATOM      2  O   UNL     1       1.791   4.226  -0.973  1.00  0.00    -0.275 OA
ATOM      3  N   UNL     1       1.077   3.652   1.051  1.00  0.00    -0.356 N 
ATOM      4  H   UNL     1       0.554   4.485   1.096  1.00  0.00     0.163 HD
ENDROOT
BRANCH   1   5
ATOM      5  C   UNL     1       1.724   1.854  -0.516  1.00  0.00     0.128 C 
BRANCH   5   6
ATOM      6  C   UNL     1       2.934   1.407  -1.331  1.00  0.00     0.049 C 
ATOM      7  C   UNL     1       3.128  -0.143  -1.567  1.00  0.00     0.029 C 
ATOM      8  C   UNL     1       4.218   1.278  -0.433  1.00  0.00     0.029 C 
ATOM      9  C   UNL     1       3.872  -0.212  -0.230  1.00  0.00     0.005 C 
BRANCH   6  10
ATOM     10  N   UNL     1       3.181   2.146  -2.590  1.00  0.00    -0.350 N 
ATOM     11  C   UNL     1       2.394   2.565  -3.625  1.00  0.00     0.226 C 
ATOM     12  O   UNL     1       2.980   2.953  -4.643  1.00  0.00    -0.275 OA
ATOM     13  H   UNL     1       4.128   2.390  -2.709  1.00  0.00     0.164 HD
BRANCH  11  14
ATOM     14  C   UNL     1       0.877   2.599  -3.578  1.00  0.00     0.161 C 
BRANCH  14  15
ATOM     15  C   UNL     1       0.152   1.369  -4.129  1.00  0.00     0.270 C 
BRANCH  15  16
ATOM     16  N   UNL     1       0.063   0.205  -3.245  1.00  0.00    -0.346 N 
ATOM     17  H   UNL     1      -0.086  -0.622  -3.823  1.00  0.00     0.346 HD
ATOM     18  H   UNL     1       0.937   0.176  -2.719  1.00  0.00     0.346 HD
BRANCH  16  19
ATOM     19  C   UNL     1      -1.011   0.268  -2.255  1.00  0.00     0.257 C 
ATOM     20  C   UNL     1      -0.756  -0.724  -1.120  1.00  0.00     0.071 C 
ENDBRANCH  16  19
ENDBRANCH  15  16
ENDBRANCH  14  15
ENDBRANCH  11  14
ENDBRANCH   6  10
ENDBRANCH   5   6
ENDBRANCH   1   5
BRANCH   3  21
ATOM     21  C   UNL     1       1.222   2.915   2.293  1.00  0.00     0.117 C 
BRANCH  21  22
ATOM     22  C   UNL     1       2.629   3.114   2.841  1.00  0.00     0.042 C 
BRANCH  22  23
ATOM     23  C   UNL     1       2.888   4.567   3.215  1.00  0.00     0.118 C 
BRANCH  23  24
ATOM     24  N   UNL     1       2.152   4.929   4.417  1.00  0.00    -0.352 N 
ATOM     25  C   UNL     1       2.608   4.968   5.708  1.00  0.00     0.251 C 
ATOM     26  H   UNL     1       1.209   5.178   4.285  1.00  0.00     0.163 HD
ATOM     27  O   UNL     1       1.806   4.919   6.643  1.00  0.00    -0.269 OA
BRANCH  25  28
ATOM     28  C   UNL     1       4.058   5.061   5.965  1.00  0.00     0.039 A 
ATOM     29  C   UNL     1       4.625   4.336   7.013  1.00  0.00     0.014 A 
ATOM     30  C   UNL     1       4.856   5.889   5.169  1.00  0.00     0.014 A 
ATOM     31  C   UNL     1       6.000   4.418   7.240  1.00  0.00     0.010 A 
ATOM     32  C   UNL     1       6.234   5.877   5.321  1.00  0.00     0.010 A 
ATOM     33  C   UNL     1       6.817   5.175   6.383  1.00  0.00    -0.014 A 
BRANCH  33  34
ATOM     34  C   UNL     1       8.275   5.313   6.616  1.00  0.00     0.031 A 
ATOM     35  C   UNL     1       8.854   6.679   6.882  1.00  0.00     0.074 A 
ATOM     36  C   UNL     1       9.076   4.234   6.526  1.00  0.00     0.049 A 
ATOM     37  N   UNL     1      10.105   7.035   7.022  1.00  0.00    -0.248 NA
ATOM     38  C   UNL     1       7.904   7.803   6.956  1.00  0.00     0.031 C 
ATOM     39  C   UNL     1       8.633   2.873   6.213  1.00  0.00     0.029 A 
ATOM     40  N   UNL     1      10.433   4.113   6.681  1.00  0.00    -0.354 N 
ATOM     41  C   UNL     1      10.089   8.418   7.172  1.00  0.00     0.074 A 
ATOM     42  C   UNL     1       8.716   8.845   7.037  1.00  0.00     0.031 C 
ATOM     43  C   UNL     1       9.695   2.050   6.229  1.00  0.00     0.029 A 
ATOM     44  C   UNL     1      10.895   2.829   6.517  1.00  0.00     0.049 A 
ATOM     45  H   UNL     1      11.021   4.875   6.889  1.00  0.00     0.167 HD
ATOM     46  C   UNL     1      11.122   9.253   7.433  1.00  0.00     0.037 A 
ATOM     47  C   UNL     1      12.147   2.339   6.592  1.00  0.00     0.037 A 
ATOM     48  C   UNL     1      12.476   8.808   7.618  1.00  0.00     0.049 A 
ATOM     49  C   UNL     1      13.275   3.279   6.920  1.00  0.00     0.074 A 
ATOM     50  C   UNL     1      13.590   9.554   7.958  1.00  0.00     0.029 A 
ATOM     51  N   UNL     1      12.898   7.492   7.488  1.00  0.00    -0.354 N 
ATOM     52  N   UNL     1      13.234   4.575   7.122  1.00  0.00    -0.248 NA
ATOM     53  C   UNL     1      14.616   2.692   7.039  1.00  0.00     0.031 C 
ATOM     54  C   UNL     1      14.693   8.694   7.999  1.00  0.00     0.029 A 
ATOM     55  C   UNL     1      14.258   7.405   7.728  1.00  0.00     0.049 A 
ATOM     56  H   UNL     1      12.315   6.732   7.259  1.00  0.00     0.167 HD
ATOM     57  C   UNL     1      14.539   4.955   7.417  1.00  0.00     0.074 A 
ATOM     58  C   UNL     1      15.341   3.749   7.380  1.00  0.00     0.031 C 
ATOM     59  C   UNL     1      15.030   6.189   7.694  1.00  0.00     0.037 A 
BRANCH  46  60
ATOM     60  C   UNL     1      10.819  10.722   7.549  1.00  0.00     0.058 A 
ATOM     61  C   UNL     1      10.080  11.240   8.626  1.00  0.00     0.135 A 
ATOM     62  C   UNL     1      11.286  11.628   6.583  1.00  0.00     0.135 A 
ATOM     63  F   UNL     1       9.593  10.418   9.570  1.00  0.00    -0.206 F 
ATOM     64  C   UNL     1       9.784  12.595   8.722  1.00  0.00     0.059 A 
ATOM     65  C   UNL     1      11.027  12.993   6.675  1.00  0.00     0.059 A 
ATOM     66  F   UNL     1      11.995  11.189   5.531  1.00  0.00    -0.206 F 
ATOM     67  C   UNL     1      10.261  13.465   7.740  1.00  0.00     0.060 A 
BRANCH  67  68
ATOM     68  S   UNL     1       9.870  15.221   7.881  1.00  0.00     0.124 S 
ATOM     69  O   UNL     1       8.459  15.236   7.507  1.00  0.00    -0.237 OA
ATOM     70  O   UNL     1      10.155  15.493   9.287  1.00  0.00    -0.237 OA
ATOM     71  O   UNL     1      10.779  15.850   6.928  1.00  0.00    -0.744 OA
ENDBRANCH  67  68
ENDBRANCH  46  60
BRANCH  47  72
ATOM     72  C   UNL     1      12.389   0.886   6.390  1.00  0.00     0.058 A 
ATOM     73  C   UNL     1      12.740   0.058   7.466  1.00  0.00     0.135 A 
ATOM     74  C   UNL     1      12.252   0.291   5.126  1.00  0.00     0.135 A 
ATOM     75  F   UNL     1      12.886   0.580   8.694  1.00  0.00    -0.206 F 
ATOM     76  C   UNL     1      12.961  -1.305   7.297  1.00  0.00     0.059 A 
ATOM     77  C   UNL     1      12.444  -1.074   4.936  1.00  0.00     0.059 A 
ATOM     78  F   UNL     1      11.897   1.035   4.067  1.00  0.00    -0.206 F 
ATOM     79  C   UNL     1      12.809  -1.863   6.027  1.00  0.00     0.060 A 
BRANCH  79  80
ATOM     80  S   UNL     1      13.046  -3.642   5.827  1.00  0.00     0.124 S 
ATOM     81  O   UNL     1      14.496  -3.758   5.922  1.00  0.00    -0.237 OA
ATOM     82  O   UNL     1      12.286  -4.181   6.951  1.00  0.00    -0.237 OA
ATOM     83  O   UNL     1      12.474  -3.910   4.510  1.00  0.00    -0.744 OA
ENDBRANCH  79  80
ENDBRANCH  47  72
BRANCH  59  84
ATOM     84  C   UNL     1      16.494   6.291   8.010  1.00  0.00     0.058 A 
ATOM     85  C   UNL     1      17.472   6.174   7.011  1.00  0.00     0.135 A 
ATOM     86  C   UNL     1      16.919   6.569   9.319  1.00  0.00     0.135 A 
ATOM     87  F   UNL     1      17.117   5.904   5.745  1.00  0.00    -0.206 F 
ATOM     88  C   UNL     1      18.825   6.307   7.303  1.00  0.00     0.059 A 
ATOM     89  C   UNL     1      18.264   6.732   9.629  1.00  0.00     0.059 A 
ATOM     90  F   UNL     1      16.020   6.702  10.308  1.00  0.00    -0.206 F 
ATOM     91  C   UNL     1      19.211   6.588   8.616  1.00  0.00     0.060 A 
BRANCH  91  92
ATOM     92  S   UNL     1      20.967   6.794   8.975  1.00  0.00     0.124 S 
ATOM     93  O   UNL     1      21.438   5.413   8.937  1.00  0.00    -0.237 OA
ATOM     94  O   UNL     1      21.414   7.647   7.878  1.00  0.00    -0.237 OA
ATOM     95  O   UNL     1      20.973   7.424  10.293  1.00  0.00    -0.744 OA
ENDBRANCH  91  92
ENDBRANCH  59  84
ENDBRANCH  33  34
ENDBRANCH  25  28
ENDBRANCH  23  24
ENDBRANCH  22  23
ENDBRANCH  21  22
ENDBRANCH   3  21
TORSDOF 19
