REMARK SMILES COC(=O)[C@@H]1C[C@@H](C(=O)NCCCNC(=O)c2ccc(-c3c4nc(c(-c5c(F)cc(S(=O)(=O)[O-])cc5F)c5ccc([nH]5)c(-c5c(F)cc(S(=O)(=O)[O-])cc5F)c5nc(c(-c6c(F)cc(S(=O)(=O)[O-])cc6F)c6ccc3[nH]6)C=C5)C=C4)cc2)[C@@H](c2cccc(F)c2F)[N@H+]1C
REMARK SMILES IDX 12 1 11 2 10 3 8 4 9 5 7 7 5 8 6 9 92 10 83 11 93 12 3 14
REMARK SMILES IDX 4 15 2 16 1 17 84 18 85 19 90 20 86 21 88 22 91 23 87 24
REMARK SMILES IDX 89 25 13 26 14 27 15 28 16 30 17 31 18 32 82 33 19 34 81 35
REMARK SMILES IDX 20 36 21 37 22 38 75 39 23 40 80 41 74 42 76 43 24 44 79 45
REMARK SMILES IDX 73 46 72 47 25 49 59 50 38 51 58 52 39 53 42 54 57 55 77 56
REMARK SMILES IDX 40 57 41 58 56 60 78 61 43 62 26 63 27 64 36 65 28 66 29 67
REMARK SMILES IDX 35 68 37 69 30 70 31 71 32 72 33 73 34 74 60 75 61 76 70 77
REMARK SMILES IDX 62 78 63 79 69 80 71 81 64 82 65 83 66 84 67 85 68 86 44 87
REMARK SMILES IDX 45 88 54 89 46 90 47 91 53 92 55 93 48 94 49 95 50 96 51 97
REMARK SMILES IDX 52 98
REMARK H PARENT 10 6 92 13 14 29 76 48 42 59
REMARK Flexibility Score: inf
ROOT
ATOM      1  C   UNL     1      -0.101  -0.271   0.337  1.00  0.00     0.042 C 
ENDROOT
BRANCH   1   2
ATOM      2  C   UNL     1       0.046  -1.537  -0.500  1.00  0.00     0.117 C 
BRANCH   2   3
ATOM      3  N   UNL     1      -1.216  -2.128  -0.915  1.00  0.00    -0.356 N 
ATOM      4  C   UNL     1      -1.954  -2.103  -2.051  1.00  0.00     0.229 C 
ATOM      5  O   UNL     1      -2.964  -2.820  -2.044  1.00  0.00    -0.275 OA
ATOM      6  H   UNL     1      -1.631  -2.672  -0.207  1.00  0.00     0.163 HD
BRANCH   4   7
ATOM      7  C   UNL     1      -1.648  -1.278  -3.296  1.00  0.00     0.148 C 
ATOM      8  C   UNL     1       0.415  -0.172  -3.840  1.00  0.00     0.296 C 
ATOM      9  C   UNL     1      -0.235  -1.538  -3.814  1.00  0.00     0.097 C 
ATOM     10  N   UNL     1      -0.732   0.666  -4.199  1.00  0.00    -0.319 N 
ATOM     11  C   UNL     1      -1.921   0.271  -3.401  1.00  0.00     0.231 C 
ATOM     12  C   UNL     1      -0.413   2.036  -4.514  1.00  0.00     0.333 C 
ATOM     13  H   UNL     1      -1.074   0.480  -5.142  1.00  0.00     0.349 HD
BRANCH   8  14
ATOM     14  C   UNL     1       1.554  -0.193  -4.861  1.00  0.00     0.364 C 
ATOM     15  O   UNL     1       1.456  -0.019  -6.072  1.00  0.00    -0.245 OA
BRANCH  14  16
ATOM     16  O   UNL     1       2.720  -0.507  -4.219  1.00  0.00    -0.465 OA
ATOM     17  C   UNL     1       3.863  -0.545  -5.073  1.00  0.00     0.282 C 
ENDBRANCH  14  16
ENDBRANCH   8  14
BRANCH  11  18
ATOM     18  C   UNL     1      -2.390   1.014  -2.140  1.00  0.00     0.049 A 
ATOM     19  C   UNL     1      -3.323   0.384  -1.278  1.00  0.00     0.013 A 
ATOM     20  C   UNL     1      -2.120   2.349  -1.798  1.00  0.00     0.167 A 
ATOM     21  C   UNL     1      -3.756   0.946  -0.065  1.00  0.00     0.004 A 
ATOM     22  C   UNL     1      -2.559   2.922  -0.597  1.00  0.00     0.159 A 
ATOM     23  F   UNL     1      -1.486   3.185  -2.621  1.00  0.00    -0.203 F 
ATOM     24  C   UNL     1      -3.340   2.215   0.296  1.00  0.00     0.042 A 
ATOM     25  F   UNL     1      -2.232   4.191  -0.313  1.00  0.00    -0.204 F 
ENDBRANCH  11  18
ENDBRANCH   4   7
ENDBRANCH   2   3
ENDBRANCH   1   2
BRANCH   1  26
ATOM     26  C   UNL     1      -0.905  -0.451   1.622  1.00  0.00     0.118 C 
BRANCH  26  27
ATOM     27  N   UNL     1      -0.132  -1.134   2.643  1.00  0.00    -0.352 N 
ATOM     28  C   UNL     1       0.268  -0.693   3.880  1.00  0.00     0.251 C 
ATOM     29  H   UNL     1       0.148  -2.050   2.414  1.00  0.00     0.163 HD
ATOM     30  O   UNL     1       1.150  -1.315   4.468  1.00  0.00    -0.269 OA
BRANCH  28  31
ATOM     31  C   UNL     1      -0.337   0.505   4.514  1.00  0.00     0.039 A 
ATOM     32  C   UNL     1       0.492   1.339   5.269  1.00  0.00     0.014 A 
ATOM     33  C   UNL     1      -1.711   0.768   4.459  1.00  0.00     0.014 A 
ATOM     34  C   UNL     1      -0.046   2.434   5.950  1.00  0.00     0.010 A 
ATOM     35  C   UNL     1      -2.240   1.901   5.092  1.00  0.00     0.010 A 
ATOM     36  C   UNL     1      -1.416   2.736   5.861  1.00  0.00    -0.014 A 
BRANCH  36  37
ATOM     37  C   UNL     1      -1.952   3.932   6.569  1.00  0.00     0.031 A 
ATOM     38  C   UNL     1      -2.911   3.800   7.722  1.00  0.00     0.074 A 
ATOM     39  C   UNL     1      -1.554   5.159   6.177  1.00  0.00     0.049 A 
ATOM     40  N   UNL     1      -3.369   4.729   8.524  1.00  0.00    -0.248 NA
ATOM     41  C   UNL     1      -3.442   2.458   8.000  1.00  0.00     0.031 C 
ATOM     42  C   UNL     1      -0.688   5.433   5.029  1.00  0.00     0.029 A 
ATOM     43  N   UNL     1      -1.811   6.400   6.703  1.00  0.00    -0.354 N 
ATOM     44  C   UNL     1      -4.240   4.088   9.399  1.00  0.00     0.074 A 
ATOM     45  C   UNL     1      -4.286   2.699   8.994  1.00  0.00     0.031 C 
ATOM     46  C   UNL     1      -0.454   6.753   4.960  1.00  0.00     0.029 A 
ATOM     47  C   UNL     1      -1.170   7.421   6.043  1.00  0.00     0.049 A 
ATOM     48  H   UNL     1      -2.399   6.545   7.480  1.00  0.00     0.167 HD
ATOM     49  C   UNL     1      -4.924   4.604  10.451  1.00  0.00     0.037 A 
ATOM     50  C   UNL     1      -1.147   8.747   6.285  1.00  0.00     0.037 A 
ATOM     51  C   UNL     1      -4.870   5.988  10.854  1.00  0.00     0.049 A 
ATOM     52  C   UNL     1      -1.873   9.292   7.482  1.00  0.00     0.074 A 
ATOM     53  C   UNL     1      -5.465   6.590  11.951  1.00  0.00     0.029 A 
ATOM     54  N   UNL     1      -4.199   6.991  10.169  1.00  0.00    -0.354 N 
ATOM     55  N   UNL     1      -2.609   8.654   8.361  1.00  0.00    -0.248 NA
ATOM     56  C   UNL     1      -1.748  10.733   7.733  1.00  0.00     0.031 C 
ATOM     57  C   UNL     1      -5.199   7.964  11.898  1.00  0.00     0.029 A 
ATOM     58  C   UNL     1      -4.389   8.211  10.802  1.00  0.00     0.049 A 
ATOM     59  H   UNL     1      -3.664   6.857   9.353  1.00  0.00     0.167 HD
ATOM     60  C   UNL     1      -3.025   9.613   9.278  1.00  0.00     0.074 A 
ATOM     61  C   UNL     1      -2.436  10.869   8.859  1.00  0.00     0.031 C 
ATOM     62  C   UNL     1      -3.820   9.465  10.368  1.00  0.00     0.037 A 
BRANCH  49  63
ATOM     63  C   UNL     1      -5.805   3.666  11.236  1.00  0.00     0.058 A 
ATOM     64  C   UNL     1      -5.273   2.640  12.035  1.00  0.00     0.135 A 
ATOM     65  C   UNL     1      -7.203   3.809  11.208  1.00  0.00     0.135 A 
ATOM     66  F   UNL     1      -3.946   2.449  12.096  1.00  0.00    -0.206 F 
ATOM     67  C   UNL     1      -6.094   1.764  12.740  1.00  0.00     0.059 A 
ATOM     68  C   UNL     1      -8.042   2.963  11.930  1.00  0.00     0.059 A 
ATOM     69  F   UNL     1      -7.769   4.776  10.469  1.00  0.00    -0.206 F 
ATOM     70  C   UNL     1      -7.478   1.930  12.676  1.00  0.00     0.060 A 
BRANCH  70  71
ATOM     71  S   UNL     1      -8.531   0.770  13.575  1.00  0.00     0.124 S 
ATOM     72  O   UNL     1      -8.406  -0.430  12.754  1.00  0.00    -0.237 OA
ATOM     73  O   UNL     1      -7.887   0.712  14.883  1.00  0.00    -0.237 OA
ATOM     74  O   UNL     1      -9.841   1.412  13.553  1.00  0.00    -0.744 OA
ENDBRANCH  70  71
ENDBRANCH  49  63
BRANCH  50  75
ATOM     75  C   UNL     1      -0.369   9.636   5.381  1.00  0.00     0.058 A 
ATOM     76  C   UNL     1       0.839  10.217   5.793  1.00  0.00     0.135 A 
ATOM     77  C   UNL     1      -0.793   9.870   4.064  1.00  0.00     0.135 A 
ATOM     78  F   UNL     1       1.282  10.029   7.045  1.00  0.00    -0.206 F 
ATOM     79  C   UNL     1       1.601  11.000   4.931  1.00  0.00     0.059 A 
ATOM     80  C   UNL     1      -0.036  10.626   3.176  1.00  0.00     0.059 A 
ATOM     81  F   UNL     1      -1.935   9.322   3.618  1.00  0.00    -0.206 F 
ATOM     82  C   UNL     1       1.160  11.189   3.620  1.00  0.00     0.060 A 
BRANCH  82  83
ATOM     83  S   UNL     1       2.203  12.126   2.482  1.00  0.00     0.124 S 
ATOM     84  O   UNL     1       2.016  13.489   2.965  1.00  0.00    -0.237 OA
ATOM     85  O   UNL     1       3.518  11.539   2.719  1.00  0.00    -0.237 OA
ATOM     86  O   UNL     1       1.621  11.833   1.175  1.00  0.00    -0.744 OA
ENDBRANCH  82  83
ENDBRANCH  50  75
BRANCH  62  87
ATOM     87  C   UNL     1      -4.090  10.697  11.191  1.00  0.00     0.058 A 
ATOM     88  C   UNL     1      -4.885  11.751  10.711  1.00  0.00     0.135 A 
ATOM     89  C   UNL     1      -3.544  10.828  12.479  1.00  0.00     0.135 A 
ATOM     90  F   UNL     1      -5.431  11.681   9.486  1.00  0.00    -0.206 F 
ATOM     91  C   UNL     1      -5.086  12.910  11.455  1.00  0.00     0.059 A 
ATOM     92  C   UNL     1      -3.759  11.965  13.254  1.00  0.00     0.059 A 
ATOM     93  F   UNL     1      -2.789   9.846  12.997  1.00  0.00    -0.206 F 
ATOM     94  C   UNL     1      -4.511  13.011  12.723  1.00  0.00     0.060 A 
BRANCH  94  95
ATOM     95  S   UNL     1      -4.759  14.528  13.671  1.00  0.00     0.124 S 
ATOM     96  O   UNL     1      -3.861  15.451  12.986  1.00  0.00    -0.237 OA
ATOM     97  O   UNL     1      -6.186  14.781  13.491  1.00  0.00    -0.237 OA
ATOM     98  O   UNL     1      -4.361  14.151  15.024  1.00  0.00    -0.744 OA
ENDBRANCH  94  95
ENDBRANCH  62  87
ENDBRANCH  36  37
ENDBRANCH  28  31
ENDBRANCH  26  27
ENDBRANCH   1  26
TORSDOF 16
