REMARK SMILES COc1cc(C)cc2c1[C@@H](C)[C@@H](CC(=O)N[C@@H](Cc1c[nH]c3ccccc13)C(=O)NCCCNC(=O)c1ccc(-c3c4nc(c(-c5c(F)cc(S(=O)(=O)[O-])cc5F)c5ccc([nH]5)c(-c5c(F)cc(S(=O)(=O)[O-])cc5F)c5nc(c(-c6c(F)cc(S(=O)(=O)[O-])cc6F)c6ccc3[nH]6)C=C5)C=C4)cc1)C(=O)O2
REMARK SMILES IDX 31 1 30 2 28 3 29 4 17 6 16 7 14 8 15 9 13 11 12 12 3 13
REMARK SMILES IDX 4 14 9 15 5 16 8 17 10 18 6 19 7 20 105 21 11 22 103 23
REMARK SMILES IDX 104 24 2 25 1 26 18 27 19 28 20 29 27 30 21 31 22 32 26 33
REMARK SMILES IDX 23 35 25 36 24 37 32 38 33 39 34 40 35 41 36 43 37 44 38 45
REMARK SMILES IDX 102 46 39 47 101 48 40 49 41 50 42 51 95 52 43 53 100 54
REMARK SMILES IDX 94 55 96 56 44 57 99 58 93 59 92 60 45 62 79 63 58 64 78 65
REMARK SMILES IDX 59 66 62 67 77 68 97 69 60 70 61 71 76 73 98 74 63 75 46 76
REMARK SMILES IDX 47 77 56 78 48 79 49 80 55 81 57 82 50 83 51 84 52 85 53 86
REMARK SMILES IDX 54 87 80 88 81 89 90 90 82 91 83 92 89 93 91 94 84 95 85 96
REMARK SMILES IDX 86 97 87 98 88 99 64 100 65 101 74 102 66 103 67 104 73 105
REMARK SMILES IDX 75 106 68 107 69 108 70 109 71 110 72 111
REMARK H PARENT 30 5 16 10 21 34 34 42 96 61 62 72
REMARK Flexibility Score: inf
ROOT
ATOM      1  C   UNL     1      -3.224  -9.892  -1.614  1.00  0.00     0.117 C 
ENDROOT
BRANCH   1   2
ATOM      2  N   UNL     1      -2.078  -9.133  -2.055  1.00  0.00    -0.354 N 
ATOM      3  C   UNL     1      -1.924  -7.795  -2.183  1.00  0.00     0.242 C 
ATOM      4  O   UNL     1      -0.935  -7.422  -2.829  1.00  0.00    -0.273 OA
ATOM      5  H   UNL     1      -1.290  -9.670  -2.300  1.00  0.00     0.163 HD
BRANCH   3   6
ATOM      6  C   UNL     1      -2.844  -6.743  -1.522  1.00  0.00     0.175 C 
BRANCH   6   7
ATOM      7  N   UNL     1      -3.337  -5.683  -2.384  1.00  0.00    -0.344 N 
ATOM      8  C   UNL     1      -3.367  -4.353  -2.066  1.00  0.00     0.221 C 
ATOM      9  O   UNL     1      -4.273  -3.643  -2.496  1.00  0.00    -0.275 OA
ATOM     10  H   UNL     1      -3.679  -5.943  -3.270  1.00  0.00     0.164 HD
BRANCH   8  11
ATOM     11  C   UNL     1      -2.191  -3.758  -1.303  1.00  0.00     0.116 C 
BRANCH  11  12
ATOM     12  C   UNL     1      -2.314  -3.585   0.232  1.00  0.00     0.116 C 
ATOM     13  C   UNL     1       1.167  -2.094   0.370  1.00  0.00     0.126 A 
ATOM     14  C   UNL     1       2.414  -2.601  -0.035  1.00  0.00     0.050 A 
ATOM     15  C   UNL     1       0.073  -2.945   0.532  1.00  0.00     0.041 A 
ATOM     16  C   UNL     1       2.594  -3.969  -0.288  1.00  0.00    -0.044 A 
ATOM     17  C   UNL     1       0.323  -4.322   0.413  1.00  0.00     0.138 A 
ATOM     18  C   UNL     1      -1.361  -2.503   0.812  1.00  0.00     0.038 C 
ATOM     19  C   UNL     1       3.914  -4.494  -0.768  1.00  0.00     0.044 C 
ATOM     20  C   UNL     1       1.542  -4.840  -0.021  1.00  0.00     0.051 A 
ATOM     21  O   UNL     1      -0.645  -5.276   0.765  1.00  0.00    -0.426 OA
ATOM     22  C   UNL     1      -1.783  -1.119   0.309  1.00  0.00     0.014 C 
ATOM     23  C   UNL     1      -1.910  -4.798   1.038  1.00  0.00     0.315 C 
ATOM     24  O   UNL     1      -2.625  -5.331   1.880  1.00  0.00    -0.251 OA
BRANCH  13  25
ATOM     25  O   UNL     1       1.028  -0.783   0.737  1.00  0.00    -0.496 OA
ATOM     26  C   UNL     1       1.419   0.131  -0.281  1.00  0.00     0.278 C 
ENDBRANCH  13  25
ENDBRANCH  11  12
ENDBRANCH   8  11
ENDBRANCH   6   7
BRANCH   6  27
ATOM     27  C   UNL     1      -3.788  -7.032  -0.367  1.00  0.00     0.072 C 
BRANCH  27  28
ATOM     28  C   UNL     1      -5.223  -7.479  -0.408  1.00  0.00    -0.020 A 
ATOM     29  C   UNL     1      -5.725  -8.134   0.710  1.00  0.00     0.087 A 
ATOM     30  C   UNL     1      -6.359  -7.244  -1.271  1.00  0.00     0.003 A 
ATOM     31  N   UNL     1      -7.077  -8.016   0.701  1.00  0.00    -0.361 N 
ATOM     32  C   UNL     1      -7.496  -7.622  -0.540  1.00  0.00     0.046 A 
ATOM     33  C   UNL     1      -6.602  -6.720  -2.562  1.00  0.00     0.010 A 
ATOM     34  H   UNL     1      -7.667  -8.188   1.470  1.00  0.00     0.166 HD
ATOM     35  C   UNL     1      -8.808  -7.535  -1.022  1.00  0.00     0.026 A 
ATOM     36  C   UNL     1      -7.909  -6.668  -3.081  1.00  0.00     0.001 A 
ATOM     37  C   UNL     1      -8.996  -7.078  -2.321  1.00  0.00     0.002 A 
ENDBRANCH  27  28
ENDBRANCH   6  27
ENDBRANCH   3   6
ENDBRANCH   1   2
BRANCH   1  38
ATOM     38  C   UNL     1      -4.318  -9.863  -2.668  1.00  0.00     0.042 C 
BRANCH  38  39
ATOM     39  C   UNL     1      -3.986 -10.765  -3.844  1.00  0.00     0.118 C 
BRANCH  39  40
ATOM     40  N   UNL     1      -4.013 -12.174  -3.467  1.00  0.00    -0.352 N 
ATOM     41  C   UNL     1      -4.819 -13.185  -3.939  1.00  0.00     0.251 C 
ATOM     42  H   UNL     1      -3.363 -12.440  -2.777  1.00  0.00     0.163 HD
ATOM     43  O   UNL     1      -4.882 -14.249  -3.349  1.00  0.00    -0.269 OA
BRANCH  41  44
ATOM     44  C   UNL     1      -5.610 -12.943  -5.163  1.00  0.00     0.039 A 
ATOM     45  C   UNL     1      -5.027 -12.278  -6.243  1.00  0.00     0.014 A 
ATOM     46  C   UNL     1      -6.946 -13.343  -5.211  1.00  0.00     0.014 A 
ATOM     47  C   UNL     1      -5.826 -11.844  -7.287  1.00  0.00     0.010 A 
ATOM     48  C   UNL     1      -7.720 -13.008  -6.323  1.00  0.00     0.010 A 
ATOM     49  C   UNL     1      -7.177 -12.219  -7.350  1.00  0.00    -0.014 A 
BRANCH  49  50
ATOM     50  C   UNL     1      -7.990 -11.790  -8.514  1.00  0.00     0.031 A 
ATOM     51  C   UNL     1      -9.196 -10.910  -8.327  1.00  0.00     0.074 A 
ATOM     52  C   UNL     1      -7.601 -12.170  -9.748  1.00  0.00     0.049 A 
ATOM     53  N   UNL     1     -10.047 -10.486  -9.225  1.00  0.00    -0.248 NA
ATOM     54  C   UNL     1      -9.492 -10.451  -6.959  1.00  0.00     0.031 C 
ATOM     55  C   UNL     1      -6.434 -13.009 -10.043  1.00  0.00     0.029 A 
ATOM     56  N   UNL     1      -8.124 -11.890 -10.982  1.00  0.00    -0.354 N 
ATOM     57  C   UNL     1     -10.992  -9.737  -8.533  1.00  0.00     0.074 A 
ATOM     58  C   UNL     1     -10.623  -9.779  -7.135  1.00  0.00     0.031 C 
ATOM     59  C   UNL     1      -6.303 -13.133 -11.370  1.00  0.00     0.029 A 
ATOM     60  C   UNL     1      -7.422 -12.462 -12.018  1.00  0.00     0.049 A 
ATOM     61  H   UNL     1      -8.925 -11.334 -11.116  1.00  0.00     0.167 HD
ATOM     62  C   UNL     1     -12.062  -9.072  -9.027  1.00  0.00     0.037 A 
ATOM     63  C   UNL     1      -7.669 -12.477 -13.340  1.00  0.00     0.037 A 
ATOM     64  C   UNL     1     -12.394  -9.013 -10.428  1.00  0.00     0.049 A 
ATOM     65  C   UNL     1      -8.886 -11.763 -13.853  1.00  0.00     0.074 A 
ATOM     66  C   UNL     1     -13.444  -8.345 -11.034  1.00  0.00     0.029 A 
ATOM     67  N   UNL     1     -11.681  -9.638 -11.442  1.00  0.00    -0.354 N 
ATOM     68  N   UNL     1      -9.774 -11.069 -13.182  1.00  0.00    -0.248 NA
ATOM     69  C   UNL     1      -9.141 -11.841 -15.296  1.00  0.00     0.031 C 
ATOM     70  C   UNL     1     -13.395  -8.607 -12.406  1.00  0.00     0.029 A 
ATOM     71  C   UNL     1     -12.281  -9.390 -12.665  1.00  0.00     0.049 A 
ATOM     72  H   UNL     1     -10.868 -10.178 -11.311  1.00  0.00     0.167 HD
ATOM     73  C   UNL     1     -10.688 -10.616 -14.124  1.00  0.00     0.074 A 
ATOM     74  C   UNL     1     -10.231 -11.094 -15.413  1.00  0.00     0.031 C 
ATOM     75  C   UNL     1     -11.808  -9.875 -13.938  1.00  0.00     0.037 A 
BRANCH  62  76
ATOM     76  C   UNL     1     -12.969  -8.357  -8.062  1.00  0.00     0.058 A 
ATOM     77  C   UNL     1     -12.586  -7.163  -7.431  1.00  0.00     0.135 A 
ATOM     78  C   UNL     1     -14.277  -8.822  -7.843  1.00  0.00     0.135 A 
ATOM     79  F   UNL     1     -11.342  -6.684  -7.588  1.00  0.00    -0.206 F 
ATOM     80  C   UNL     1     -13.468  -6.455  -6.620  1.00  0.00     0.059 A 
ATOM     81  C   UNL     1     -15.183  -8.118  -7.056  1.00  0.00     0.059 A 
ATOM     82  F   UNL     1     -14.693  -9.962  -8.417  1.00  0.00    -0.206 F 
ATOM     83  C   UNL     1     -14.768  -6.935  -6.447  1.00  0.00     0.060 A 
BRANCH  83  84
ATOM     84  S   UNL     1     -15.911  -5.975  -5.431  1.00  0.00     0.124 S 
ATOM     85  O   UNL     1     -15.328  -6.137  -4.103  1.00  0.00    -0.237 OA
ATOM     86  O   UNL     1     -15.799  -4.642  -6.015  1.00  0.00    -0.237 OA
ATOM     87  O   UNL     1     -17.194  -6.641  -5.637  1.00  0.00    -0.744 OA
ENDBRANCH  83  84
ENDBRANCH  62  76
BRANCH  63  88
ATOM     88  C   UNL     1      -6.761 -13.220 -14.254  1.00  0.00     0.058 A 
ATOM     89  C   UNL     1      -5.960 -12.547 -15.186  1.00  0.00     0.135 A 
ATOM     90  C   UNL     1      -6.656 -14.620 -14.191  1.00  0.00     0.135 A 
ATOM     91  F   UNL     1      -6.027 -11.211 -15.287  1.00  0.00    -0.206 F 
ATOM     92  C   UNL     1      -5.099 -13.234 -16.035  1.00  0.00     0.059 A 
ATOM     93  C   UNL     1      -5.779 -15.326 -15.006  1.00  0.00     0.059 A 
ATOM     94  F   UNL     1      -7.388 -15.312 -13.303  1.00  0.00    -0.206 F 
ATOM     95  C   UNL     1      -5.012 -14.624 -15.934  1.00  0.00     0.060 A 
BRANCH  95  96
ATOM     96  S   UNL     1      -3.859 -15.500 -17.012  1.00  0.00     0.124 S 
ATOM     97  O   UNL     1      -4.510 -15.363 -18.310  1.00  0.00    -0.237 OA
ATOM     98  O   UNL     1      -2.630 -14.735 -16.829  1.00  0.00    -0.237 OA
ATOM     99  O   UNL     1      -3.838 -16.850 -16.456  1.00  0.00    -0.744 OA
ENDBRANCH  95  96
ENDBRANCH  63  88
BRANCH  75 100
ATOM    100  C   UNL     1     -12.604  -9.515 -15.161  1.00  0.00     0.058 A 
ATOM    101  C   UNL     1     -13.370 -10.470 -15.847  1.00  0.00     0.135 A 
ATOM    102  C   UNL     1     -12.642  -8.188 -15.619  1.00  0.00     0.135 A 
ATOM    103  F   UNL     1     -13.362 -11.753 -15.453  1.00  0.00    -0.206 F 
ATOM    104  C   UNL     1     -14.127 -10.126 -16.961  1.00  0.00     0.059 A 
ATOM    105  C   UNL     1     -13.416  -7.816 -16.712  1.00  0.00     0.059 A 
ATOM    106  F   UNL     1     -11.935  -7.235 -14.991  1.00  0.00    -0.206 F 
ATOM    107  C   UNL     1     -14.147  -8.795 -17.384  1.00  0.00     0.060 A 
BRANCH 107 108
ATOM    108  S   UNL     1     -15.158  -8.362 -18.814  1.00  0.00     0.124 S 
ATOM    109  O   UNL     1     -14.409  -8.982 -19.902  1.00  0.00    -0.237 OA
ATOM    110  O   UNL     1     -16.438  -8.984 -18.490  1.00  0.00    -0.237 OA
ATOM    111  O   UNL     1     -15.155  -6.902 -18.803  1.00  0.00    -0.744 OA
ENDBRANCH 107 108
ENDBRANCH  75 100
ENDBRANCH  49  50
ENDBRANCH  41  44
ENDBRANCH  39  40
ENDBRANCH  38  39
ENDBRANCH   1  38
TORSDOF 19
