REMARK SMILES Cc1cccc(Cl)c1Nc1ccccc1CC(=O)NCCCNC(=O)c1ccc(-c2c3nc(c(-c4c(F)cc(S(=O)(=O)[O-])cc4F)c4ccc([nH]4)c(-c4c(F)cc(S(=O)(=O)[O-])cc4F)c4nc(c(-c5c(F)cc(S(=O)(=O)[O-])cc5F)c5ccc2[nH]5)C=C4)C=C3)cc1
REMARK SMILES IDX 21 1 20 2 19 3 17 4 18 5 16 7 15 8 10 9 11 10 12 11 14 12
REMARK SMILES IDX 13 13 9 14 8 16 1 17 2 18 3 19 4 20 6 21 5 22 7 23 22 24
REMARK SMILES IDX 23 25 24 26 25 28 26 29 27 30 91 31 28 32 90 33 29 34 30 35
REMARK SMILES IDX 31 36 84 37 32 38 89 39 83 40 85 41 33 42 88 43 82 44 81 45
REMARK SMILES IDX 34 47 68 48 47 49 67 50 48 51 51 52 66 53 86 54 49 55 50 56
REMARK SMILES IDX 65 58 87 59 52 60 35 61 36 62 45 63 37 64 38 65 44 66 46 67
REMARK SMILES IDX 39 68 40 69 41 70 42 71 43 72 69 73 70 74 79 75 71 76 72 77
REMARK SMILES IDX 78 78 80 79 73 80 74 81 75 82 76 83 77 84 53 85 54 86 63 87
REMARK SMILES IDX 55 88 56 89 62 90 64 91 57 92 58 93 59 94 60 95 61 96
REMARK H PARENT 19 6 9 15 23 27 85 46 51 57
REMARK Flexibility Score: inf
ROOT
ATOM      1  C   UNL     1       0.457   5.025  -2.256  1.00  0.00     0.042 C 
ENDROOT
BRANCH   1   2
ATOM      2  C   UNL     1      -0.021   3.685  -2.806  1.00  0.00     0.117 C 
BRANCH   2   3
ATOM      3  N   UNL     1       0.949   3.084  -3.700  1.00  0.00    -0.356 N 
ATOM      4  C   UNL     1       1.859   2.103  -3.425  1.00  0.00     0.224 C 
ATOM      5  O   UNL     1       2.653   1.774  -4.309  1.00  0.00    -0.275 OA
ATOM      6  H   UNL     1       0.953   3.428  -4.623  1.00  0.00     0.163 HD
BRANCH   4   7
ATOM      7  C   UNL     1       1.835   1.407  -2.074  1.00  0.00     0.137 C 
BRANCH   7   8
ATOM      8  C   UNL     1       2.332   2.260  -0.925  1.00  0.00    -0.015 A 
ATOM      9  C   UNL     1       1.557   2.548   0.220  1.00  0.00     0.042 A 
ATOM     10  C   UNL     1       2.078   3.437   1.179  1.00  0.00     0.026 A 
ATOM     11  C   UNL     1       3.345   4.003   1.038  1.00  0.00     0.002 A 
ATOM     12  C   UNL     1       3.622   2.819  -1.038  1.00  0.00     0.006 A 
ATOM     13  C   UNL     1       4.123   3.682  -0.066  1.00  0.00     0.000 A 
BRANCH   9  14
ATOM     14  N   UNL     1       0.304   1.966   0.508  1.00  0.00    -0.354 N 
ATOM     15  H   UNL     1      -0.364   2.609   0.839  1.00  0.00     0.167 HD
BRANCH  14  16
ATOM     16  C   UNL     1      -0.179   0.639   0.415  1.00  0.00     0.060 A 
ATOM     17  C   UNL     1      -2.517   1.604   0.012  1.00  0.00     0.046 C 
ATOM     18  C   UNL     1      -1.558   0.446   0.134  1.00  0.00    -0.026 A 
ATOM     19  C   UNL     1      -2.062  -0.851  -0.079  1.00  0.00     0.005 A 
ATOM     20  C   UNL     1      -1.228  -1.961  -0.008  1.00  0.00     0.002 A 
ATOM     21  C   UNL     1       0.639  -0.511   0.519  1.00  0.00     0.064 A 
ATOM     22  C   UNL     1       0.116  -1.792   0.299  1.00  0.00     0.023 A 
ATOM     23  Cl  UNL     1       2.295  -0.460   1.028  1.00  0.00    -0.082 Cl
ENDBRANCH  14  16
ENDBRANCH   9  14
ENDBRANCH   7   8
ENDBRANCH   4   7
ENDBRANCH   2   3
ENDBRANCH   1   2
BRANCH   1  24
ATOM     24  C   UNL     1       0.538   6.123  -3.309  1.00  0.00     0.118 C 
BRANCH  24  25
ATOM     25  N   UNL     1      -0.766   6.447  -3.871  1.00  0.00    -0.352 N 
ATOM     26  C   UNL     1      -1.408   7.654  -3.963  1.00  0.00     0.251 C 
ATOM     27  H   UNL     1      -1.263   5.682  -4.242  1.00  0.00     0.163 HD
ATOM     28  O   UNL     1      -2.598   7.679  -4.282  1.00  0.00    -0.269 OA
BRANCH  26  29
ATOM     29  C   UNL     1      -0.692   8.914  -3.673  1.00  0.00     0.039 A 
ATOM     30  C   UNL     1      -1.362   9.928  -2.983  1.00  0.00     0.014 A 
ATOM     31  C   UNL     1       0.621   9.116  -4.109  1.00  0.00     0.014 A 
ATOM     32  C   UNL     1      -0.701  11.123  -2.690  1.00  0.00     0.010 A 
ATOM     33  C   UNL     1       1.303  10.273  -3.746  1.00  0.00     0.010 A 
ATOM     34  C   UNL     1       0.647  11.295  -3.045  1.00  0.00    -0.014 A 
BRANCH  34  35
ATOM     35  C   UNL     1       1.380  12.543  -2.711  1.00  0.00     0.031 A 
ATOM     36  C   UNL     1       1.910  13.421  -3.813  1.00  0.00     0.074 A 
ATOM     37  C   UNL     1       1.618  12.852  -1.421  1.00  0.00     0.049 A 
ATOM     38  N   UNL     1       2.639  14.504  -3.728  1.00  0.00    -0.248 NA
ATOM     39  C   UNL     1       1.604  13.015  -5.195  1.00  0.00     0.031 C 
ATOM     40  C   UNL     1       1.193  12.057  -0.266  1.00  0.00     0.029 A 
ATOM     41  N   UNL     1       2.287  13.912  -0.862  1.00  0.00    -0.354 N 
ATOM     42  C   UNL     1       2.892  14.896  -5.037  1.00  0.00     0.074 A 
ATOM     43  C   UNL     1       2.283  13.908  -5.900  1.00  0.00     0.031 C 
ATOM     44  C   UNL     1       1.593  12.667   0.861  1.00  0.00     0.029 A 
ATOM     45  C   UNL     1       2.338  13.872   0.513  1.00  0.00     0.049 A 
ATOM     46  H   UNL     1       2.692  14.634  -1.394  1.00  0.00     0.167 HD
ATOM     47  C   UNL     1       3.553  15.992  -5.480  1.00  0.00     0.037 A 
ATOM     48  C   UNL     1       2.930  14.705   1.391  1.00  0.00     0.037 A 
ATOM     49  C   UNL     1       4.128  16.988  -4.613  1.00  0.00     0.049 A 
ATOM     50  C   UNL     1       3.660  15.916   0.872  1.00  0.00     0.074 A 
ATOM     51  C   UNL     1       4.765  18.166  -4.963  1.00  0.00     0.029 A 
ATOM     52  N   UNL     1       4.137  16.924  -3.228  1.00  0.00    -0.354 N 
ATOM     53  N   UNL     1       3.834  16.305  -0.370  1.00  0.00    -0.248 NA
ATOM     54  C   UNL     1       4.266  16.806   1.871  1.00  0.00     0.031 C 
ATOM     55  C   UNL     1       5.202  18.791  -3.791  1.00  0.00     0.029 A 
ATOM     56  C   UNL     1       4.786  18.032  -2.708  1.00  0.00     0.049 A 
ATOM     57  H   UNL     1       3.741  16.199  -2.693  1.00  0.00     0.167 HD
ATOM     58  C   UNL     1       4.538  17.502  -0.298  1.00  0.00     0.074 A 
ATOM     59  C   UNL     1       4.748  17.778   1.108  1.00  0.00     0.031 C 
ATOM     60  C   UNL     1       4.970  18.302  -1.304  1.00  0.00     0.037 A 
BRANCH  47  61
ATOM     61  C   UNL     1       3.686  16.183  -6.967  1.00  0.00     0.058 A 
ATOM     62  C   UNL     1       2.583  16.512  -7.771  1.00  0.00     0.135 A 
ATOM     63  C   UNL     1       4.944  16.096  -7.587  1.00  0.00     0.135 A 
ATOM     64  F   UNL     1       1.355  16.591  -7.234  1.00  0.00    -0.206 F 
ATOM     65  C   UNL     1       2.718  16.728  -9.138  1.00  0.00     0.059 A 
ATOM     66  C   UNL     1       5.106  16.338  -8.948  1.00  0.00     0.059 A 
ATOM     67  F   UNL     1       6.032  15.783  -6.867  1.00  0.00    -0.206 F 
ATOM     68  C   UNL     1       3.985  16.644  -9.717  1.00  0.00     0.060 A 
BRANCH  68  69
ATOM     69  S   UNL     1       4.144  16.958 -11.488  1.00  0.00     0.124 S 
ATOM     70  O   UNL     1       3.522  15.764 -12.052  1.00  0.00    -0.237 OA
ATOM     71  O   UNL     1       3.396  18.200 -11.652  1.00  0.00    -0.237 OA
ATOM     72  O   UNL     1       5.586  17.067 -11.686  1.00  0.00    -0.744 OA
ENDBRANCH  68  69
ENDBRANCH  47  61
BRANCH  48  73
ATOM     73  C   UNL     1       2.848  14.436   2.853  1.00  0.00     0.058 A 
ATOM     74  C   UNL     1       2.112  15.275   3.702  1.00  0.00     0.135 A 
ATOM     75  C   UNL     1       3.514  13.344   3.432  1.00  0.00     0.135 A 
ATOM     76  F   UNL     1       1.461  16.334   3.198  1.00  0.00    -0.206 F 
ATOM     77  C   UNL     1       2.062  15.061   5.076  1.00  0.00     0.059 A 
ATOM     78  C   UNL     1       3.455  13.092   4.799  1.00  0.00     0.059 A 
ATOM     79  F   UNL     1       4.216  12.498   2.662  1.00  0.00    -0.206 F 
ATOM     80  C   UNL     1       2.739  13.966   5.615  1.00  0.00     0.060 A 
BRANCH  80  81
ATOM     81  S   UNL     1       2.649  13.684   7.397  1.00  0.00     0.124 S 
ATOM     82  O   UNL     1       3.502  14.752   7.906  1.00  0.00    -0.237 OA
ATOM     83  O   UNL     1       1.220  13.827   7.658  1.00  0.00    -0.237 OA
ATOM     84  O   UNL     1       3.174  12.330   7.548  1.00  0.00    -0.744 OA
ENDBRANCH  80  81
ENDBRANCH  48  73
BRANCH  60  85
ATOM     85  C   UNL     1       5.667  19.580  -0.926  1.00  0.00     0.058 A 
ATOM     86  C   UNL     1       6.963  19.588  -0.389  1.00  0.00     0.135 A 
ATOM     87  C   UNL     1       5.045  20.818  -1.157  1.00  0.00     0.135 A 
ATOM     88  F   UNL     1       7.601  18.432  -0.144  1.00  0.00    -0.206 F 
ATOM     89  C   UNL     1       7.609  20.778  -0.071  1.00  0.00     0.059 A 
ATOM     90  C   UNL     1       5.684  22.021  -0.875  1.00  0.00     0.059 A 
ATOM     91  F   UNL     1       3.809  20.868  -1.679  1.00  0.00    -0.206 F 
ATOM     92  C   UNL     1       6.962  21.990  -0.321  1.00  0.00     0.060 A 
BRANCH  92  93
ATOM     93  S   UNL     1       7.826  23.528   0.065  1.00  0.00     0.124 S 
ATOM     94  O   UNL     1       7.764  23.542   1.523  1.00  0.00    -0.237 OA
ATOM     95  O   UNL     1       9.147  23.297  -0.511  1.00  0.00    -0.237 OA
ATOM     96  O   UNL     1       7.024  24.546  -0.607  1.00  0.00    -0.744 OA
ENDBRANCH  92  93
ENDBRANCH  60  85
ENDBRANCH  34  35
ENDBRANCH  26  29
ENDBRANCH  24  25
ENDBRANCH   1  24
TORSDOF 16
