REMARK SMILES COc1cc(C(=O)NCCCNC(=O)c2ccc(-c3c4nc(c(-c5c(F)cc(S(=O)(=O)[O-])cc5F)c5ccc([nH]5)c(-c5c(F)cc(S(=O)(=O)[O-])cc5F)c5nc(c(-c6c(F)cc(S(=O)(=O)[O-])cc6F)c6ccc3[nH]6)C=C5)C=C4)cc2)cc(-c2cc(Cl)ccc2OC)c1
REMARK SMILES IDX 10 1 9 2 8 3 6 4 7 5 5 7 3 8 4 9 92 10 82 11 81 12 2 13 1 14
REMARK SMILES IDX 83 15 84 16 89 17 85 18 88 19 86 20 87 21 90 22 91 23 11 24
REMARK SMILES IDX 12 25 13 26 14 28 15 29 16 30 80 31 17 32 79 33 18 34 19 35
REMARK SMILES IDX 20 36 73 37 21 38 78 39 72 40 74 41 22 42 77 43 71 44 70 45
REMARK SMILES IDX 23 47 57 48 36 49 56 50 37 51 40 52 55 53 75 54 38 55 39 56
REMARK SMILES IDX 54 58 76 59 41 60 24 61 25 62 34 63 26 64 27 65 33 66 35 67
REMARK SMILES IDX 28 68 29 69 30 70 31 71 32 72 58 73 59 74 68 75 60 76 61 77
REMARK SMILES IDX 67 78 69 79 62 80 63 81 64 82 65 83 66 84 42 85 43 86 52 87
REMARK SMILES IDX 44 88 45 89 51 90 53 91 46 92 47 93 48 94 49 95 50 96
REMARK H PARENT 8 6 12 27 74 46 40 57
REMARK Flexibility Score: inf
ROOT
ATOM      1  C   UNL     1       1.424  -6.063  -6.046  1.00  0.00     0.042 C 
ENDROOT
BRANCH   1   2
ATOM      2  C   UNL     1       1.037  -4.602  -5.923  1.00  0.00     0.118 C 
BRANCH   2   3
ATOM      3  N   UNL     1      -0.282  -4.350  -5.350  1.00  0.00    -0.352 N 
ATOM      4  C   UNL     1      -0.739  -3.466  -4.394  1.00  0.00     0.251 C 
ATOM      5  O   UNL     1      -1.942  -3.466  -4.136  1.00  0.00    -0.269 OA
ATOM      6  H   UNL     1      -0.989  -4.927  -5.721  1.00  0.00     0.163 HD
BRANCH   4   7
ATOM      7  C   UNL     1       0.161  -2.562  -3.621  1.00  0.00     0.044 A 
ATOM      8  C   UNL     1       0.660  -1.401  -1.550  1.00  0.00     0.120 A 
ATOM      9  C   UNL     1      -0.220  -2.147  -2.342  1.00  0.00     0.060 A 
ATOM     10  C   UNL     1       1.976  -1.193  -1.979  1.00  0.00     0.055 A 
ATOM     11  C   UNL     1       2.388  -1.670  -3.224  1.00  0.00    -0.010 A 
ATOM     12  C   UNL     1       1.405  -2.167  -4.093  1.00  0.00     0.023 A 
BRANCH   8  13
ATOM     13  O   UNL     1       0.178  -1.032  -0.323  1.00  0.00    -0.497 OA
ATOM     14  C   UNL     1       0.788   0.125   0.242  1.00  0.00     0.278 C 
ENDBRANCH   8  13
BRANCH  11  15
ATOM     15  C   UNL     1       3.803  -1.864  -3.606  1.00  0.00     0.025 A 
ATOM     16  C   UNL     1       4.217  -1.383  -4.870  1.00  0.00     0.033 A 
ATOM     17  C   UNL     1       4.732  -2.637  -2.867  1.00  0.00     0.126 A 
ATOM     18  C   UNL     1       5.475  -1.682  -5.396  1.00  0.00     0.041 A 
ATOM     19  C   UNL     1       6.002  -2.913  -3.409  1.00  0.00     0.048 A 
ATOM     20  Cl  UNL     1       5.903  -1.108  -6.960  1.00  0.00    -0.084 Cl
ATOM     21  C   UNL     1       6.368  -2.457  -4.673  1.00  0.00     0.024 A 
BRANCH  17  22
ATOM     22  O   UNL     1       4.611  -3.129  -1.594  1.00  0.00    -0.496 OA
ATOM     23  C   UNL     1       3.414  -3.781  -1.193  1.00  0.00     0.278 C 
ENDBRANCH  17  22
ENDBRANCH  11  15
ENDBRANCH   4   7
ENDBRANCH   2   3
ENDBRANCH   1   2
BRANCH   1  24
ATOM     24  C   UNL     1       0.534  -6.902  -6.940  1.00  0.00     0.118 C 
BRANCH  24  25
ATOM     25  N   UNL     1       0.560  -6.486  -8.335  1.00  0.00    -0.352 N 
ATOM     26  C   UNL     1       1.119  -7.076  -9.448  1.00  0.00     0.251 C 
ATOM     27  H   UNL     1       0.098  -5.636  -8.515  1.00  0.00     0.163 HD
ATOM     28  O   UNL     1       1.141  -6.454 -10.504  1.00  0.00    -0.269 OA
BRANCH  26  29
ATOM     29  C   UNL     1       1.722  -8.429  -9.375  1.00  0.00     0.039 A 
ATOM     30  C   UNL     1       2.890  -8.690 -10.099  1.00  0.00     0.014 A 
ATOM     31  C   UNL     1       1.146  -9.447  -8.614  1.00  0.00     0.014 A 
ATOM     32  C   UNL     1       3.519  -9.933  -9.984  1.00  0.00     0.010 A 
ATOM     33  C   UNL     1       1.834 -10.638  -8.406  1.00  0.00     0.010 A 
ATOM     34  C   UNL     1       3.026 -10.901  -9.093  1.00  0.00    -0.014 A 
BRANCH  34  35
ATOM     35  C   UNL     1       3.738 -12.188  -8.867  1.00  0.00     0.031 A 
ATOM     36  C   UNL     1       3.046 -13.498  -9.144  1.00  0.00     0.074 A 
ATOM     37  C   UNL     1       4.980 -12.179  -8.341  1.00  0.00     0.049 A 
ATOM     38  N   UNL     1       3.474 -14.718  -8.939  1.00  0.00    -0.248 NA
ATOM     39  C   UNL     1       1.681 -13.431  -9.693  1.00  0.00     0.031 C 
ATOM     40  C   UNL     1       5.734 -10.979  -7.970  1.00  0.00     0.029 A 
ATOM     41  N   UNL     1       5.826 -13.211  -8.016  1.00  0.00    -0.354 N 
ATOM     42  C   UNL     1       2.430 -15.556  -9.314  1.00  0.00     0.074 A 
ATOM     43  C   UNL     1       1.326 -14.707  -9.703  1.00  0.00     0.031 C 
ATOM     44  C   UNL     1       6.937 -11.341  -7.497  1.00  0.00     0.029 A 
ATOM     45  C   UNL     1       7.026 -12.797  -7.485  1.00  0.00     0.049 A 
ATOM     46  H   UNL     1       5.596 -14.158  -8.151  1.00  0.00     0.167 HD
ATOM     47  C   UNL     1       2.402 -16.910  -9.357  1.00  0.00     0.037 A 
ATOM     48  C   UNL     1       8.076 -13.508  -7.029  1.00  0.00     0.037 A 
ATOM     49  C   UNL     1       3.517 -17.748  -8.997  1.00  0.00     0.049 A 
ATOM     50  C   UNL     1       8.024 -15.011  -7.092  1.00  0.00     0.074 A 
ATOM     51  C   UNL     1       3.615 -19.126  -9.074  1.00  0.00     0.029 A 
ATOM     52  N   UNL     1       4.724 -17.289  -8.490  1.00  0.00    -0.354 N 
ATOM     53  N   UNL     1       7.056 -15.784  -7.525  1.00  0.00    -0.248 NA
ATOM     54  C   UNL     1       9.207 -15.738  -6.614  1.00  0.00     0.031 C 
ATOM     55  C   UNL     1       4.859 -19.505  -8.561  1.00  0.00     0.029 A 
ATOM     56  C   UNL     1       5.562 -18.359  -8.223  1.00  0.00     0.049 A 
ATOM     57  H   UNL     1       4.952 -16.343  -8.342  1.00  0.00     0.167 HD
ATOM     58  C   UNL     1       7.524 -17.087  -7.396  1.00  0.00     0.074 A 
ATOM     59  C   UNL     1       8.867 -16.996  -6.861  1.00  0.00     0.031 C 
ATOM     60  C   UNL     1       6.899 -18.253  -7.694  1.00  0.00     0.037 A 
BRANCH  47  61
ATOM     61  C   UNL     1       1.130 -17.574  -9.812  1.00  0.00     0.058 A 
ATOM     62  C   UNL     1       0.688 -17.494 -11.143  1.00  0.00     0.135 A 
ATOM     63  C   UNL     1       0.367 -18.343  -8.917  1.00  0.00     0.135 A 
ATOM     64  F   UNL     1       1.368 -16.761 -12.039  1.00  0.00    -0.206 F 
ATOM     65  C   UNL     1      -0.476 -18.129 -11.564  1.00  0.00     0.059 A 
ATOM     66  C   UNL     1      -0.783 -19.013  -9.324  1.00  0.00     0.059 A 
ATOM     67  F   UNL     1       0.741 -18.453  -7.633  1.00  0.00    -0.206 F 
ATOM     68  C   UNL     1      -1.203 -18.890 -10.647  1.00  0.00     0.060 A 
BRANCH  68  69
ATOM     69  S   UNL     1      -2.700 -19.723 -11.216  1.00  0.00     0.124 S 
ATOM     70  O   UNL     1      -3.607 -18.594 -11.405  1.00  0.00    -0.237 OA
ATOM     71  O   UNL     1      -2.245 -20.380 -12.437  1.00  0.00    -0.237 OA
ATOM     72  O   UNL     1      -3.034 -20.617 -10.112  1.00  0.00    -0.744 OA
ENDBRANCH  68  69
ENDBRANCH  47  61
BRANCH  48  73
ATOM     73  C   UNL     1       9.271 -12.806  -6.485  1.00  0.00     0.058 A 
ATOM     74  C   UNL     1      10.497 -12.827  -7.166  1.00  0.00     0.135 A 
ATOM     75  C   UNL     1       9.210 -12.092  -5.277  1.00  0.00     0.135 A 
ATOM     76  F   UNL     1      10.610 -13.501  -8.322  1.00  0.00    -0.206 F 
ATOM     77  C   UNL     1      11.624 -12.185  -6.663  1.00  0.00     0.059 A 
ATOM     78  C   UNL     1      10.315 -11.417  -4.768  1.00  0.00     0.059 A 
ATOM     79  F   UNL     1       8.057 -12.024  -4.594  1.00  0.00    -0.206 F 
ATOM     80  C   UNL     1      11.521 -11.479  -5.463  1.00  0.00     0.060 A 
BRANCH  80  81
ATOM     81  S   UNL     1      12.978 -10.611  -4.841  1.00  0.00     0.124 S 
ATOM     82  O   UNL     1      13.814 -11.720  -4.397  1.00  0.00    -0.237 OA
ATOM     83  O   UNL     1      13.439  -9.898  -6.028  1.00  0.00    -0.237 OA
ATOM     84  O   UNL     1      12.436  -9.764  -3.782  1.00  0.00    -0.744 OA
ENDBRANCH  80  81
ENDBRANCH  48  73
BRANCH  60  85
ATOM     85  C   UNL     1       7.671 -19.528  -7.484  1.00  0.00     0.058 A 
ATOM     86  C   UNL     1       7.958 -20.017  -6.201  1.00  0.00     0.135 A 
ATOM     87  C   UNL     1       8.083 -20.296  -8.586  1.00  0.00     0.135 A 
ATOM     88  F   UNL     1       7.592 -19.320  -5.114  1.00  0.00    -0.206 F 
ATOM     89  C   UNL     1       8.649 -21.210  -6.016  1.00  0.00     0.059 A 
ATOM     90  C   UNL     1       8.747 -21.508  -8.424  1.00  0.00     0.059 A 
ATOM     91  F   UNL     1       7.825 -19.880  -9.836  1.00  0.00    -0.206 F 
ATOM     92  C   UNL     1       9.037 -21.950  -7.135  1.00  0.00     0.060 A 
BRANCH  92  93
ATOM     93  S   UNL     1       9.906 -23.511  -6.880  1.00  0.00     0.124 S 
ATOM     94  O   UNL     1      11.217 -23.049  -6.436  1.00  0.00    -0.237 OA
ATOM     95  O   UNL     1       9.086 -24.162  -5.863  1.00  0.00    -0.237 OA
ATOM     96  O   UNL     1       9.875 -24.138  -8.197  1.00  0.00    -0.744 OA
ENDBRANCH  92  93
ENDBRANCH  60  85
ENDBRANCH  34  35
ENDBRANCH  26  29
ENDBRANCH  24  25
ENDBRANCH   1  24
TORSDOF 16
