REMARK SMILES CC(C)[C@H](C(=O)NCCCNC(=O)c1ccc(-c2c3nc(c(-c4c(F)cc(S(=O)(=O)[O-])cc4F)c4ccc([nH]4)c(-c4c(F)cc(S(=O)(=O)[O-])cc4F)c4nc(c(-c5c(F)cc(S(=O)(=O)[O-])cc5F)c5ccc2[nH]5)C=C4)C=C3)cc1)c1ccc(Cl)cc1F
REMARK SMILES IDX 10 1 9 2 8 3 7 4 5 5 6 6 4 8 2 9 1 10 3 11 80 12 81 13 86 14
REMARK SMILES IDX 82 15 85 16 87 17 83 18 84 19 11 20 12 21 13 23 14 24 15 25
REMARK SMILES IDX 79 26 16 27 78 28 17 29 18 30 19 31 72 32 20 33 77 34 71 35
REMARK SMILES IDX 73 36 21 37 76 38 70 39 69 40 22 42 56 43 35 44 55 45 36 46
REMARK SMILES IDX 39 47 54 48 74 49 37 50 38 51 53 53 75 54 40 55 23 56 24 57
REMARK SMILES IDX 33 58 25 59 26 60 32 61 34 62 27 63 28 64 29 65 30 66 31 67
REMARK SMILES IDX 57 68 58 69 67 70 59 71 60 72 66 73 68 74 61 75 62 76 63 77
REMARK SMILES IDX 64 78 65 79 41 80 42 81 51 82 43 83 44 84 50 85 52 86 45 87
REMARK SMILES IDX 46 88 47 89 48 90 49 91
REMARK H PARENT 7 7 11 22 73 41 39 52
REMARK Flexibility Score: inf
ROOT
ATOM      1  C   UNL     1       2.815   4.707   1.088  1.00  0.00     0.118 C 
ENDROOT
BRANCH   1   2
ATOM      2  C   UNL     1       1.343   4.540   1.438  1.00  0.00     0.042 C 
BRANCH   2   3
ATOM      3  C   UNL     1       0.513   3.914   0.333  1.00  0.00     0.117 C 
BRANCH   3   4
ATOM      4  N   UNL     1       0.923   2.567  -0.034  1.00  0.00    -0.355 N 
ATOM      5  C   UNL     1       0.196   1.554  -0.589  1.00  0.00     0.227 C 
ATOM      6  O   UNL     1       0.836   0.619  -1.085  1.00  0.00    -0.274 OA
ATOM      7  H   UNL     1       1.867   2.354   0.146  1.00  0.00     0.163 HD
BRANCH   5   8
ATOM      8  C   UNL     1      -1.346   1.485  -0.514  1.00  0.00     0.114 C 
BRANCH   8   9
ATOM      9  C   UNL     1      -1.663   0.882   0.906  1.00  0.00    -0.000 C 
ATOM     10  C   UNL     1      -1.877   1.883   2.044  1.00  0.00     0.008 C 
ATOM     11  C   UNL     1      -2.775  -0.175   0.883  1.00  0.00     0.008 C 
ENDBRANCH   8   9
BRANCH   8  12
ATOM     12  C   UNL     1      -2.075   2.720  -1.050  1.00  0.00     0.001 A 
ATOM     13  C   UNL     1      -1.446   3.580  -1.974  1.00  0.00     0.009 A 
ATOM     14  C   UNL     1      -3.376   3.067  -0.671  1.00  0.00     0.128 A 
ATOM     15  C   UNL     1      -1.985   4.835  -2.280  1.00  0.00     0.021 A 
ATOM     16  C   UNL     1      -3.942   4.298  -0.997  1.00  0.00     0.060 A 
ATOM     17  F   UNL     1      -4.129   2.227   0.044  1.00  0.00    -0.207 F 
ATOM     18  C   UNL     1      -3.219   5.202  -1.758  1.00  0.00     0.043 A 
ATOM     19  Cl  UNL     1      -3.847   6.773  -2.054  1.00  0.00    -0.084 Cl
ENDBRANCH   8  12
ENDBRANCH   5   8
ENDBRANCH   3   4
ENDBRANCH   2   3
ENDBRANCH   1   2
BRANCH   1  20
ATOM     20  N   UNL     1       3.054   5.567  -0.067  1.00  0.00    -0.352 N 
ATOM     21  C   UNL     1       3.472   6.877  -0.173  1.00  0.00     0.251 C 
ATOM     22  H   UNL     1       2.886   5.130  -0.933  1.00  0.00     0.163 HD
ATOM     23  O   UNL     1       3.461   7.418  -1.270  1.00  0.00    -0.269 OA
BRANCH  21  24
ATOM     24  C   UNL     1       3.890   7.641   1.026  1.00  0.00     0.039 A 
ATOM     25  C   UNL     1       3.538   8.991   1.132  1.00  0.00     0.014 A 
ATOM     26  C   UNL     1       4.625   7.044   2.046  1.00  0.00     0.014 A 
ATOM     27  C   UNL     1       3.825   9.695   2.307  1.00  0.00     0.010 A 
ATOM     28  C   UNL     1       4.788   7.700   3.259  1.00  0.00     0.010 A 
ATOM     29  C   UNL     1       4.394   9.036   3.408  1.00  0.00    -0.014 A 
BRANCH  29  30
ATOM     30  C   UNL     1       4.595   9.707   4.721  1.00  0.00     0.031 A 
ATOM     31  C   UNL     1       5.967   9.744   5.347  1.00  0.00     0.074 A 
ATOM     32  C   UNL     1       3.531  10.179   5.404  1.00  0.00     0.049 A 
ATOM     33  N   UNL     1       6.320  10.129   6.546  1.00  0.00    -0.248 NA
ATOM     34  C   UNL     1       7.082   9.235   4.532  1.00  0.00     0.031 C 
ATOM     35  C   UNL     1       2.140  10.142   4.944  1.00  0.00     0.029 A 
ATOM     36  N   UNL     1       3.451  10.770   6.640  1.00  0.00    -0.354 N 
ATOM     37  C   UNL     1       7.682   9.867   6.642  1.00  0.00     0.074 A 
ATOM     38  C   UNL     1       8.080   9.238   5.403  1.00  0.00     0.031 C 
ATOM     39  C   UNL     1       1.353  10.713   5.870  1.00  0.00     0.029 A 
ATOM     40  C   UNL     1       2.171  11.115   7.008  1.00  0.00     0.049 A 
ATOM     41  H   UNL     1       4.237  10.932   7.211  1.00  0.00     0.167 HD
ATOM     42  C   UNL     1       8.533  10.152   7.657  1.00  0.00     0.037 A 
ATOM     43  C   UNL     1       1.706  11.684   8.137  1.00  0.00     0.037 A 
ATOM     44  C   UNL     1       8.145  10.838   8.861  1.00  0.00     0.049 A 
ATOM     45  C   UNL     1       2.676  12.040   9.230  1.00  0.00     0.074 A 
ATOM     46  C   UNL     1       8.943  11.250   9.913  1.00  0.00     0.029 A 
ATOM     47  N   UNL     1       6.848  11.224   9.166  1.00  0.00    -0.354 N 
ATOM     48  N   UNL     1       3.971  11.837   9.279  1.00  0.00    -0.248 NA
ATOM     49  C   UNL     1       2.125  12.706  10.418  1.00  0.00     0.031 C 
ATOM     50  C   UNL     1       8.124  11.860  10.869  1.00  0.00     0.029 A 
ATOM     51  C   UNL     1       6.822  11.863  10.395  1.00  0.00     0.049 A 
ATOM     52  H   UNL     1       6.062  11.068   8.594  1.00  0.00     0.167 HD
ATOM     53  C   UNL     1       4.394  12.372  10.490  1.00  0.00     0.074 A 
ATOM     54  C   UNL     1       3.219  12.918  11.138  1.00  0.00     0.031 C 
ATOM     55  C   UNL     1       5.642  12.409  11.018  1.00  0.00     0.037 A 
BRANCH  42  56
ATOM     56  C   UNL     1       9.971   9.737   7.497  1.00  0.00     0.058 A 
ATOM     57  C   UNL     1      10.818  10.358   6.564  1.00  0.00     0.135 A 
ATOM     58  C   UNL     1      10.514   8.716   8.294  1.00  0.00     0.135 A 
ATOM     59  F   UNL     1      10.348  11.329   5.765  1.00  0.00    -0.206 F 
ATOM     60  C   UNL     1      12.138   9.953   6.396  1.00  0.00     0.059 A 
ATOM     61  C   UNL     1      11.841   8.316   8.165  1.00  0.00     0.059 A 
ATOM     62  F   UNL     1       9.751   8.090   9.204  1.00  0.00    -0.206 F 
ATOM     63  C   UNL     1      12.640   8.928   7.199  1.00  0.00     0.060 A 
BRANCH  63  64
ATOM     64  S   UNL     1      14.352   8.407   6.962  1.00  0.00     0.124 S 
ATOM     65  O   UNL     1      14.253   7.643   5.722  1.00  0.00    -0.237 OA
ATOM     66  O   UNL     1      15.057   9.681   6.867  1.00  0.00    -0.237 OA
ATOM     67  O   UNL     1      14.637   7.624   8.161  1.00  0.00    -0.744 OA
ENDBRANCH  63  64
ENDBRANCH  42  56
BRANCH  43  68
ATOM     68  C   UNL     1       0.256  11.985   8.274  1.00  0.00     0.058 A 
ATOM     69  C   UNL     1      -0.210  13.307   8.212  1.00  0.00     0.135 A 
ATOM     70  C   UNL     1      -0.693  10.965   8.441  1.00  0.00     0.135 A 
ATOM     71  F   UNL     1       0.660  14.317   8.057  1.00  0.00    -0.206 F 
ATOM     72  C   UNL     1      -1.562  13.610   8.325  1.00  0.00     0.059 A 
ATOM     73  C   UNL     1      -2.054  11.241   8.533  1.00  0.00     0.059 A 
ATOM     74  F   UNL     1      -0.301   9.682   8.487  1.00  0.00    -0.206 F 
ATOM     75  C   UNL     1      -2.478  12.568   8.483  1.00  0.00     0.060 A 
BRANCH  75  76
ATOM     76  S   UNL     1      -4.237  12.969   8.572  1.00  0.00     0.124 S 
ATOM     77  O   UNL     1      -4.345  13.523   9.916  1.00  0.00    -0.237 OA
ATOM     78  O   UNL     1      -4.392  13.918   7.474  1.00  0.00    -0.237 OA
ATOM     79  O   UNL     1      -4.885  11.676   8.367  1.00  0.00    -0.744 OA
ENDBRANCH  75  76
ENDBRANCH  43  68
BRANCH  55  80
ATOM     80  C   UNL     1       5.810  13.091  12.346  1.00  0.00     0.058 A 
ATOM     81  C   UNL     1       5.381  12.493  13.540  1.00  0.00     0.135 A 
ATOM     82  C   UNL     1       6.461  14.333  12.428  1.00  0.00     0.135 A 
ATOM     83  F   UNL     1       4.748  11.310  13.514  1.00  0.00    -0.206 F 
ATOM     84  C   UNL     1       5.574  13.112  14.771  1.00  0.00     0.059 A 
ATOM     85  C   UNL     1       6.687  14.958  13.649  1.00  0.00     0.059 A 
ATOM     86  F   UNL     1       6.900  14.941  11.314  1.00  0.00    -0.206 F 
ATOM     87  C   UNL     1       6.231  14.344  14.815  1.00  0.00     0.060 A 
BRANCH  87  88
ATOM     88  S   UNL     1       6.511  15.119  16.421  1.00  0.00     0.124 S 
ATOM     89  O   UNL     1       5.179  15.622  16.740  1.00  0.00    -0.237 OA
ATOM     90  O   UNL     1       6.977  13.999  17.232  1.00  0.00    -0.237 OA
ATOM     91  O   UNL     1       7.516  16.139  16.135  1.00  0.00    -0.744 OA
ENDBRANCH  87  88
ENDBRANCH  55  80
ENDBRANCH  29  30
ENDBRANCH  21  24
ENDBRANCH   1  20
TORSDOF 15
