REMARK SMILES O=C(CSC(=S)NC(=O)c1ccc([N+](=O)[O-])cc1)NCCCNC(=O)c1ccc(-c2c3nc(c(-c4c(F)cc(S(=O)(=O)[O-])cc4F)c4ccc([nH]4)c(-c4c(F)cc(S(=O)(=O)[O-])cc4F)c4nc(c(-c5c(F)cc(S(=O)(=O)[O-])cc5F)c5ccc2[nH]5)C=C4)C=C3)cc1
REMARK SMILES IDX 20 1 19 2 1 3 2 4 3 6 4 7 5 8 6 9 7 10 8 11 9 13 10 14 11 15
REMARK SMILES IDX 18 16 12 17 17 18 13 19 14 20 15 21 16 22 21 23 22 24 23 25
REMARK SMILES IDX 24 26 25 28 26 29 27 30 91 31 28 32 90 33 29 34 30 35 31 36
REMARK SMILES IDX 84 37 32 38 89 39 83 40 85 41 33 42 88 43 82 44 81 45 34 47
REMARK SMILES IDX 68 48 47 49 67 50 48 51 51 52 66 53 86 54 49 55 50 56 65 58
REMARK SMILES IDX 87 59 52 60 35 61 36 62 45 63 37 64 38 65 44 66 46 67 39 68
REMARK SMILES IDX 40 69 41 70 42 71 43 72 69 73 70 74 79 75 71 76 72 77 78 78
REMARK SMILES IDX 80 79 73 80 74 81 75 82 76 83 77 84 53 85 54 86 63 87 55 88
REMARK SMILES IDX 56 89 62 90 64 91 57 92 58 93 59 94 60 95 61 96
REMARK H PARENT 19 5 7 12 23 27 85 46 51 57
REMARK Flexibility Score: inf
ROOT
ATOM      1  C   UNL     1       1.798   1.915  -1.954  1.00  0.00     0.117 C 
ENDROOT
BRANCH   1   2
ATOM      2  N   UNL     1       2.445   0.954  -1.092  1.00  0.00    -0.355 N 
ATOM      3  O   UNL     1       0.641   0.467   0.247  1.00  0.00    -0.274 OA
ATOM      4  C   UNL     1       1.798   0.248  -0.101  1.00  0.00     0.230 C 
ATOM      5  H   UNL     1       3.408   0.793  -1.220  1.00  0.00     0.163 HD
BRANCH   4   6
ATOM      6  C   UNL     1       2.669  -0.784   0.601  1.00  0.00     0.177 C 
BRANCH   6   7
ATOM      7  S   UNL     1       3.837  -1.564  -0.555  1.00  0.00    -0.087 SA
BRANCH   7   8
ATOM      8  C   UNL     1       2.984  -2.944  -1.200  1.00  0.00     0.141 C 
ATOM      9  S   UNL     1       1.327  -3.089  -1.377  1.00  0.00    -0.052 S 
BRANCH   8  10
ATOM     10  N   UNL     1       3.763  -3.983  -1.719  1.00  0.00    -0.307 N 
ATOM     11  C   UNL     1       5.120  -4.303  -1.822  1.00  0.00     0.256 C 
ATOM     12  H   UNL     1       3.200  -4.682  -2.123  1.00  0.00     0.171 HD
ATOM     13  O   UNL     1       5.516  -5.048  -2.714  1.00  0.00    -0.269 OA
BRANCH  11  14
ATOM     14  C   UNL     1       6.088  -3.733  -0.868  1.00  0.00     0.040 A 
ATOM     15  C   UNL     1       7.212  -3.060  -1.364  1.00  0.00     0.021 A 
ATOM     16  C   UNL     1       5.862  -3.830   0.512  1.00  0.00     0.021 A 
ATOM     17  C   UNL     1       8.065  -2.394  -0.480  1.00  0.00     0.086 A 
ATOM     18  C   UNL     1       6.703  -3.153   1.398  1.00  0.00     0.086 A 
ATOM     19  C   UNL     1       7.788  -2.419   0.894  1.00  0.00     0.269 A 
BRANCH  19  20
ATOM     20  N   UNL     1       8.621  -1.643   1.819  1.00  0.00     0.062 N 
ATOM     21  O   UNL     1       9.703  -1.215   1.396  1.00  0.00    -0.258 OA
ATOM     22  O   UNL     1       8.184  -1.461   2.964  1.00  0.00    -0.258 OA
ENDBRANCH  19  20
ENDBRANCH  11  14
ENDBRANCH   8  10
ENDBRANCH   7   8
ENDBRANCH   6   7
ENDBRANCH   4   6
ENDBRANCH   1   2
BRANCH   1  23
ATOM     23  C   UNL     1       2.251   3.343  -1.681  1.00  0.00     0.042 C 
BRANCH  23  24
ATOM     24  C   UNL     1       3.758   3.566  -1.772  1.00  0.00     0.118 C 
BRANCH  24  25
ATOM     25  N   UNL     1       4.307   3.295  -3.092  1.00  0.00    -0.352 N 
ATOM     26  C   UNL     1       5.013   4.108  -3.946  1.00  0.00     0.251 C 
ATOM     27  H   UNL     1       4.146   2.384  -3.428  1.00  0.00     0.163 HD
ATOM     28  O   UNL     1       5.262   3.706  -5.081  1.00  0.00    -0.269 OA
BRANCH  26  29
ATOM     29  C   UNL     1       5.453   5.460  -3.528  1.00  0.00     0.039 A 
ATOM     30  C   UNL     1       5.360   6.509  -4.447  1.00  0.00     0.014 A 
ATOM     31  C   UNL     1       5.988   5.697  -2.259  1.00  0.00     0.014 A 
ATOM     32  C   UNL     1       5.752   7.800  -4.076  1.00  0.00     0.010 A 
ATOM     33  C   UNL     1       6.297   6.998  -1.863  1.00  0.00     0.010 A 
ATOM     34  C   UNL     1       6.198   8.063  -2.771  1.00  0.00    -0.014 A 
BRANCH  34  35
ATOM     35  C   UNL     1       6.596   9.435  -2.355  1.00  0.00     0.031 A 
ATOM     36  C   UNL     1       8.016   9.717  -1.935  1.00  0.00     0.074 A 
ATOM     37  C   UNL     1       5.676  10.420  -2.315  1.00  0.00     0.049 A 
ATOM     38  N   UNL     1       8.545  10.834  -1.504  1.00  0.00    -0.248 NA
ATOM     39  C   UNL     1       8.960   8.588  -1.978  1.00  0.00     0.031 C 
ATOM     40  C   UNL     1       4.258  10.269  -2.651  1.00  0.00     0.029 A 
ATOM     41  N   UNL     1       5.793  11.744  -1.970  1.00  0.00    -0.354 N 
ATOM     42  C   UNL     1       9.873  10.540  -1.215  1.00  0.00     0.074 A 
ATOM     43  C   UNL     1      10.054   9.126  -1.461  1.00  0.00     0.031 C 
ATOM     44  C   UNL     1       3.645  11.456  -2.522  1.00  0.00     0.029 A 
ATOM     45  C   UNL     1       4.613  12.446  -2.059  1.00  0.00     0.049 A 
ATOM     46  H   UNL     1       6.642  12.153  -1.684  1.00  0.00     0.167 HD
ATOM     47  C   UNL     1      10.861  11.374  -0.810  1.00  0.00     0.037 A 
ATOM     48  C   UNL     1       4.341  13.740  -1.796  1.00  0.00     0.037 A 
ATOM     49  C   UNL     1      10.684  12.787  -0.592  1.00  0.00     0.049 A 
ATOM     50  C   UNL     1       5.455  14.649  -1.349  1.00  0.00     0.074 A 
ATOM     51  C   UNL     1      11.633  13.727  -0.230  1.00  0.00     0.029 A 
ATOM     52  N   UNL     1       9.479  13.463  -0.715  1.00  0.00    -0.354 N 
ATOM     53  N   UNL     1       6.718  14.366  -1.140  1.00  0.00    -0.248 NA
ATOM     54  C   UNL     1       5.109  16.058  -1.113  1.00  0.00     0.031 C 
ATOM     55  C   UNL     1      10.993  14.963  -0.089  1.00  0.00     0.029 A 
ATOM     56  C   UNL     1       9.657  14.805  -0.420  1.00  0.00     0.049 A 
ATOM     57  H   UNL     1       8.623  13.051  -0.974  1.00  0.00     0.167 HD
ATOM     58  C   UNL     1       7.325  15.566  -0.785  1.00  0.00     0.074 A 
ATOM     59  C   UNL     1       6.290  16.580  -0.814  1.00  0.00     0.031 C 
ATOM     60  C   UNL     1       8.621  15.808  -0.467  1.00  0.00     0.037 A 
BRANCH  47  61
ATOM     61  C   UNL     1      12.226  10.781  -0.581  1.00  0.00     0.058 A 
ATOM     62  C   UNL     1      13.013  10.309  -1.643  1.00  0.00     0.135 A 
ATOM     63  C   UNL     1      12.768  10.714   0.713  1.00  0.00     0.135 A 
ATOM     64  F   UNL     1      12.540  10.334  -2.900  1.00  0.00    -0.206 F 
ATOM     65  C   UNL     1      14.274   9.760  -1.429  1.00  0.00     0.059 A 
ATOM     66  C   UNL     1      14.040  10.198   0.948  1.00  0.00     0.059 A 
ATOM     67  F   UNL     1      12.061  11.152   1.767  1.00  0.00    -0.206 F 
ATOM     68  C   UNL     1      14.778   9.709  -0.129  1.00  0.00     0.060 A 
BRANCH  68  69
ATOM     69  S   UNL     1      16.417   8.997   0.131  1.00  0.00     0.124 S 
ATOM     70  O   UNL     1      16.154   7.577  -0.087  1.00  0.00    -0.237 OA
ATOM     71  O   UNL     1      17.211   9.659  -0.899  1.00  0.00    -0.237 OA
ATOM     72  O   UNL     1      16.738   9.371   1.504  1.00  0.00    -0.744 OA
ENDBRANCH  68  69
ENDBRANCH  47  61
BRANCH  48  73
ATOM     73  C   UNL     1       2.959  14.262  -1.978  1.00  0.00     0.058 A 
ATOM     74  C   UNL     1       2.655  15.159  -3.013  1.00  0.00     0.135 A 
ATOM     75  C   UNL     1       1.913  13.871  -1.126  1.00  0.00     0.135 A 
ATOM     76  F   UNL     1       3.620  15.569  -3.850  1.00  0.00    -0.206 F 
ATOM     77  C   UNL     1       1.371  15.668  -3.186  1.00  0.00     0.059 A 
ATOM     78  C   UNL     1       0.616  14.344  -1.296  1.00  0.00     0.059 A 
ATOM     79  F   UNL     1       2.146  13.002  -0.131  1.00  0.00    -0.206 F 
ATOM     80  C   UNL     1       0.357  15.251  -2.322  1.00  0.00     0.060 A 
BRANCH  80  81
ATOM     81  S   UNL     1      -1.315  15.884  -2.582  1.00  0.00     0.124 S 
ATOM     82  O   UNL     1      -1.179  17.265  -2.135  1.00  0.00    -0.237 OA
ATOM     83  O   UNL     1      -1.495  15.691  -4.018  1.00  0.00    -0.237 OA
ATOM     84  O   UNL     1      -2.134  15.023  -1.734  1.00  0.00    -0.744 OA
ENDBRANCH  80  81
ENDBRANCH  48  73
BRANCH  60  85
ATOM     85  C   UNL     1       9.012  17.232  -0.176  1.00  0.00     0.058 A 
ATOM     86  C   UNL     1       8.616  17.887   1.000  1.00  0.00     0.135 A 
ATOM     87  C   UNL     1       9.837  17.935  -1.070  1.00  0.00     0.135 A 
ATOM     88  F   UNL     1       7.824  17.264   1.888  1.00  0.00    -0.206 F 
ATOM     89  C   UNL     1       8.997  19.199   1.265  1.00  0.00     0.059 A 
ATOM     90  C   UNL     1      10.256  19.235  -0.811  1.00  0.00     0.059 A 
ATOM     91  F   UNL     1      10.256  17.351  -2.204  1.00  0.00    -0.206 F 
ATOM     92  C   UNL     1       9.819  19.865   0.353  1.00  0.00     0.060 A 
BRANCH  92  93
ATOM     93  S   UNL     1      10.327  21.558   0.720  1.00  0.00     0.124 S 
ATOM     94  O   UNL     1       9.093  22.296   0.471  1.00  0.00    -0.237 OA
ATOM     95  O   UNL     1      10.739  21.464   2.117  1.00  0.00    -0.237 OA
ATOM     96  O   UNL     1      11.407  21.802  -0.231  1.00  0.00    -0.744 OA
ENDBRANCH  92  93
ENDBRANCH  60  85
ENDBRANCH  34  35
ENDBRANCH  26  29
ENDBRANCH  24  25
ENDBRANCH  23  24
ENDBRANCH   1  23
TORSDOF 18
