REMARK SMILES Cc1cc(C(=O)N[C@H](C(=O)NCCCNC(=O)c2ccc(-c3c4nc(c(-c5c(F)cc(S(=O)(=O)[O-])cc5F)c5ccc([nH]5)c(-c5c(F)cc(S(=O)(=O)[O-])cc5F)c5nc(c(-c6c(F)cc(S(=O)(=O)[O-])cc6F)c6ccc3[nH]6)C=C5)C=C4)cc2)C(C)C)c(C)s1
REMARK SMILES IDX 13 1 12 2 11 3 9 4 10 5 8 7 7 8 5 9 6 10 4 12 1 13 2 14 3 15
REMARK SMILES IDX 89 16 87 17 88 18 84 19 85 20 86 21 14 22 15 23 16 24 17 26
REMARK SMILES IDX 18 27 19 28 83 29 20 30 82 31 21 32 22 33 23 34 76 35 24 36
REMARK SMILES IDX 81 37 75 38 77 39 25 40 80 41 74 42 73 43 26 45 60 46 39 47
REMARK SMILES IDX 59 48 40 49 43 50 58 51 78 52 41 53 42 54 57 56 79 57 44 58
REMARK SMILES IDX 27 59 28 60 37 61 29 62 30 63 36 64 38 65 31 66 32 67 33 68
REMARK SMILES IDX 34 69 35 70 61 71 62 72 71 73 63 74 64 75 70 76 72 77 65 78
REMARK SMILES IDX 66 79 67 80 68 81 69 82 45 83 46 84 55 85 47 86 48 87 54 88
REMARK SMILES IDX 56 89 49 90 50 91 51 92 52 93 53 94
REMARK H PARENT 11 6 7 11 15 25 77 44 43 55
REMARK Flexibility Score: inf
ROOT
ATOM      1  C   UNL     1       1.087  -2.247  -3.353  1.00  0.00     0.042 C 
ENDROOT
BRANCH   1   2
ATOM      2  C   UNL     1       0.726  -3.495  -2.559  1.00  0.00     0.117 C 
BRANCH   2   3
ATOM      3  N   UNL     1       1.243  -3.452  -1.200  1.00  0.00    -0.354 N 
ATOM      4  C   UNL     1       0.637  -3.706  -0.002  1.00  0.00     0.242 C 
ATOM      5  O   UNL     1       1.290  -3.418   1.002  1.00  0.00    -0.273 OA
ATOM      6  H   UNL     1       2.192  -3.196  -1.132  1.00  0.00     0.163 HD
BRANCH   4   7
ATOM      7  C   UNL     1      -0.844  -4.190   0.053  1.00  0.00     0.174 C 
BRANCH   7   8
ATOM      8  N   UNL     1      -1.076  -5.230  -0.962  1.00  0.00    -0.340 N 
ATOM      9  C   UNL     1      -0.664  -6.524  -1.149  1.00  0.00     0.253 C 
ATOM     10  O   UNL     1      -0.977  -7.002  -2.238  1.00  0.00    -0.269 OA
ATOM     11  H   UNL     1      -1.672  -4.921  -1.682  1.00  0.00     0.164 HD
BRANCH   9  12
ATOM     12  C   UNL     1       0.039  -7.307  -0.120  1.00  0.00     0.053 A 
ATOM     13  C   UNL     1       1.671  -7.637   3.291  1.00  0.00     0.056 C 
ATOM     14  C   UNL     1       1.108  -7.816   1.924  1.00  0.00     0.003 A 
ATOM     15  C   UNL     1       0.784  -6.836   1.014  1.00  0.00     0.029 A 
ATOM     16  S   UNL     1       0.787  -9.356   1.298  1.00  0.00    -0.145 S 
ATOM     17  C   UNL     1       0.084  -8.705  -0.132  1.00  0.00     0.014 A 
ATOM     18  C   UNL     1      -0.404  -9.697  -1.143  1.00  0.00     0.057 C 
ENDBRANCH   9  12
ENDBRANCH   7   8
BRANCH   7  19
ATOM     19  C   UNL     1      -1.500  -4.535   1.419  1.00  0.00     0.015 C 
ATOM     20  C   UNL     1      -1.054  -3.658   2.592  1.00  0.00     0.010 C 
ATOM     21  C   UNL     1      -3.030  -4.452   1.304  1.00  0.00     0.010 C 
ENDBRANCH   7  19
ENDBRANCH   4   7
ENDBRANCH   2   3
ENDBRANCH   1   2
BRANCH   1  22
ATOM     22  C   UNL     1       2.578  -2.048  -3.589  1.00  0.00     0.118 C 
BRANCH  22  23
ATOM     23  N   UNL     1       3.148  -3.022  -4.508  1.00  0.00    -0.352 N 
ATOM     24  C   UNL     1       3.791  -2.823  -5.708  1.00  0.00     0.251 C 
ATOM     25  H   UNL     1       3.061  -3.962  -4.230  1.00  0.00     0.163 HD
ATOM     26  O   UNL     1       4.078  -3.788  -6.411  1.00  0.00    -0.269 OA
BRANCH  24  27
ATOM     27  C   UNL     1       4.104  -1.451  -6.171  1.00  0.00     0.039 A 
ATOM     28  C   UNL     1       3.837  -1.110  -7.500  1.00  0.00     0.014 A 
ATOM     29  C   UNL     1       4.649  -0.500  -5.304  1.00  0.00     0.014 A 
ATOM     30  C   UNL     1       4.038   0.203  -7.935  1.00  0.00     0.010 A 
ATOM     31  C   UNL     1       4.774   0.825  -5.716  1.00  0.00     0.010 A 
ATOM     32  C   UNL     1       4.466   1.193  -7.035  1.00  0.00    -0.014 A 
BRANCH  32  33
ATOM     33  C   UNL     1       4.584   2.617  -7.446  1.00  0.00     0.031 A 
ATOM     34  C   UNL     1       5.920   3.311  -7.399  1.00  0.00     0.074 A 
ATOM     35  C   UNL     1       3.474   3.311  -7.775  1.00  0.00     0.049 A 
ATOM     36  N   UNL     1       6.203   4.570  -7.614  1.00  0.00    -0.248 NA
ATOM     37  C   UNL     1       7.086   2.489  -7.034  1.00  0.00     0.031 C 
ATOM     38  C   UNL     1       2.111   2.774  -7.794  1.00  0.00     0.029 A 
ATOM     39  N   UNL     1       3.313   4.627  -8.135  1.00  0.00    -0.354 N 
ATOM     40  C   UNL     1       7.567   4.698  -7.381  1.00  0.00     0.074 A 
ATOM     41  C   UNL     1       8.051   3.396  -6.976  1.00  0.00     0.031 C 
ATOM     42  C   UNL     1       1.257   3.746  -8.152  1.00  0.00     0.029 A 
ATOM     43  C   UNL     1       2.002   4.984  -8.355  1.00  0.00     0.049 A 
ATOM     44  H   UNL     1       4.065   5.256  -8.227  1.00  0.00     0.167 HD
ATOM     45  C   UNL     1       8.348   5.796  -7.510  1.00  0.00     0.037 A 
ATOM     46  C   UNL     1       1.459   6.176  -8.671  1.00  0.00     0.037 A 
ATOM     47  C   UNL     1       7.875   7.075  -7.970  1.00  0.00     0.049 A 
ATOM     48  C   UNL     1       2.359   7.369  -8.855  1.00  0.00     0.074 A 
ATOM     49  C   UNL     1       8.611   8.219  -8.231  1.00  0.00     0.029 A 
ATOM     50  N   UNL     1       6.551   7.380  -8.243  1.00  0.00    -0.354 N 
ATOM     51  N   UNL     1       3.660   7.448  -8.711  1.00  0.00    -0.248 NA
ATOM     52  C   UNL     1       1.719   8.633  -9.250  1.00  0.00     0.031 C 
ATOM     53  C   UNL     1       7.726   9.227  -8.627  1.00  0.00     0.029 A 
ATOM     54  C   UNL     1       6.445   8.699  -8.650  1.00  0.00     0.049 A 
ATOM     55  H   UNL     1       5.798   6.752  -8.159  1.00  0.00     0.167 HD
ATOM     56  C   UNL     1       3.996   8.761  -9.021  1.00  0.00     0.074 A 
ATOM     57  C   UNL     1       2.766   9.438  -9.373  1.00  0.00     0.031 C 
ATOM     58  C   UNL     1       5.215   9.354  -9.012  1.00  0.00     0.037 A 
BRANCH  45  59
ATOM     59  C   UNL     1       9.806   5.672  -7.169  1.00  0.00     0.058 A 
ATOM     60  C   UNL     1      10.704   4.997  -8.011  1.00  0.00     0.135 A 
ATOM     61  C   UNL     1      10.326   6.306  -6.029  1.00  0.00     0.135 A 
ATOM     62  F   UNL     1      10.256   4.360  -9.104  1.00  0.00    -0.206 F 
ATOM     63  C   UNL     1      12.065   4.949  -7.731  1.00  0.00     0.059 A 
ATOM     64  C   UNL     1      11.687   6.290  -5.741  1.00  0.00     0.059 A 
ATOM     65  F   UNL     1       9.509   6.962  -5.189  1.00  0.00    -0.206 F 
ATOM     66  C   UNL     1      12.549   5.604  -6.596  1.00  0.00     0.060 A 
BRANCH  66  67
ATOM     67  S   UNL     1      14.324   5.570  -6.272  1.00  0.00     0.124 S 
ATOM     68  O   UNL     1      14.509   4.200  -5.804  1.00  0.00    -0.237 OA
ATOM     69  O   UNL     1      14.887   5.873  -7.584  1.00  0.00    -0.237 OA
ATOM     70  O   UNL     1      14.505   6.608  -5.261  1.00  0.00    -0.744 OA
ENDBRANCH  66  67
ENDBRANCH  45  59
BRANCH  46  71
ATOM     71  C   UNL     1      -0.013   6.310  -8.834  1.00  0.00     0.058 A 
ATOM     72  C   UNL     1      -0.585   6.521 -10.097  1.00  0.00     0.135 A 
ATOM     73  C   UNL     1      -0.874   6.248  -7.728  1.00  0.00     0.135 A 
ATOM     74  F   UNL     1       0.199   6.593 -11.184  1.00  0.00    -0.206 F 
ATOM     75  C   UNL     1      -1.956   6.698 -10.256  1.00  0.00     0.059 A 
ATOM     76  C   UNL     1      -2.251   6.397  -7.865  1.00  0.00     0.059 A 
ATOM     77  F   UNL     1      -0.379   6.027  -6.500  1.00  0.00    -0.206 F 
ATOM     78  C   UNL     1      -2.780   6.638  -9.132  1.00  0.00     0.060 A 
BRANCH  78  79
ATOM     79  S   UNL     1      -4.561   6.848  -9.345  1.00  0.00     0.124 S 
ATOM     80  O   UNL     1      -4.668   8.293  -9.506  1.00  0.00    -0.237 OA
ATOM     81  O   UNL     1      -4.827   6.050 -10.538  1.00  0.00    -0.237 OA
ATOM     82  O   UNL     1      -5.111   6.306  -8.105  1.00  0.00    -0.744 OA
ENDBRANCH  78  79
ENDBRANCH  46  71
BRANCH  58  83
ATOM     83  C   UNL     1       5.287  10.796  -9.426  1.00  0.00     0.058 A 
ATOM     84  C   UNL     1       4.849  11.826  -8.580  1.00  0.00     0.135 A 
ATOM     85  C   UNL     1       5.853  11.154 -10.660  1.00  0.00     0.135 A 
ATOM     86  F   UNL     1       4.295  11.535  -7.392  1.00  0.00    -0.206 F 
ATOM     87  C   UNL     1       4.952  13.162  -8.951  1.00  0.00     0.059 A 
ATOM     88  C   UNL     1       5.987  12.484 -11.042  1.00  0.00     0.059 A 
ATOM     89  F   UNL     1       6.296  10.205 -11.501  1.00  0.00    -0.206 F 
ATOM     90  C   UNL     1       5.524  13.482 -10.185  1.00  0.00     0.060 A 
BRANCH  90  91
ATOM     91  S   UNL     1       5.687  15.221 -10.641  1.00  0.00     0.124 S 
ATOM     92  O   UNL     1       4.319  15.554 -11.023  1.00  0.00    -0.237 OA
ATOM     93  O   UNL     1       6.166  15.828  -9.403  1.00  0.00    -0.237 OA
ATOM     94  O   UNL     1       6.655  15.195 -11.733  1.00  0.00    -0.744 OA
ENDBRANCH  90  91
ENDBRANCH  58  83
ENDBRANCH  32  33
ENDBRANCH  24  27
ENDBRANCH  22  23
ENDBRANCH   1  22
TORSDOF 16
