REMARK SMILES CC[NH+]1CCN(c2ccc(NC(=O)C3CCCC3)c(C(=O)NCCCNC(=O)c3ccc(-c4c5nc(c(-c6c(F)cc(S(=O)(=O)[O-])cc6F)c6ccc([nH]6)c(-c6c(F)cc(S(=O)(=O)[O-])cc6F)c6nc(c(-c7c(F)cc(S(=O)(=O)[O-])cc7F)c7ccc4[nH]7)C=C6)C=C5)cc3)c2)CC1
REMARK SMILES IDX 24 1 23 2 22 3 20 4 21 5 19 7 7 8 8 9 95 10 9 11 10 12 6 13
REMARK SMILES IDX 3 14 4 15 97 16 5 18 96 19 2 20 1 21 11 22 12 23 13 25 14 26
REMARK SMILES IDX 15 27 18 28 16 29 17 30 25 31 26 32 27 33 28 35 29 36 30 37
REMARK SMILES IDX 94 38 31 39 93 40 32 41 33 42 34 43 87 44 35 45 92 46 86 47
REMARK SMILES IDX 88 48 36 49 91 50 85 51 84 52 37 54 71 55 50 56 70 57 51 58
REMARK SMILES IDX 54 59 69 60 89 61 52 62 53 63 68 65 90 66 55 67 38 68 39 69
REMARK SMILES IDX 48 70 40 71 41 72 47 73 49 74 42 75 43 76 44 77 45 78 46 79
REMARK SMILES IDX 72 80 73 81 82 82 74 83 75 84 81 85 83 86 76 87 77 88 78 89
REMARK SMILES IDX 79 90 80 91 56 92 57 93 66 94 58 95 59 96 65 97 67 98 60 99
REMARK SMILES IDX 61 100 62 101 63 102 64 103
REMARK H PARENT 22 6 3 17 11 24 26 34 88 53 54 64
REMARK Flexibility Score: inf
ROOT
ATOM      1  C   UNL     1       4.729   5.452  -2.876  1.00  0.00     0.042 C 
ENDROOT
BRANCH   1   2
ATOM      2  C   UNL     1       5.382   5.094  -1.552  1.00  0.00     0.118 C 
BRANCH   2   3
ATOM      3  N   UNL     1       6.098   6.188  -0.892  1.00  0.00    -0.352 N 
ATOM      4  C   UNL     1       5.902   6.873   0.293  1.00  0.00     0.253 C 
ATOM      5  O   UNL     1       6.706   7.757   0.591  1.00  0.00    -0.269 OA
ATOM      6  H   UNL     1       6.882   6.501  -1.398  1.00  0.00     0.163 HD
BRANCH   4   7
ATOM      7  C   UNL     1       4.704   6.655   1.153  1.00  0.00     0.065 A 
ATOM      8  C   UNL     1       2.773   5.214   1.587  1.00  0.00     0.038 A 
ATOM      9  C   UNL     1       2.128   6.352   2.069  1.00  0.00     0.028 A 
ATOM     10  C   UNL     1       4.106   5.392   1.217  1.00  0.00     0.042 A 
ATOM     11  C   UNL     1       2.792   7.569   2.224  1.00  0.00     0.029 A 
ATOM     12  C   UNL     1       4.123   7.704   1.879  1.00  0.00     0.054 A 
BRANCH   8  13
ATOM     13  N   UNL     1       2.111   4.011   1.447  1.00  0.00    -0.360 N 
ATOM     14  N   UNL     1       1.017   2.102  -0.533  1.00  0.00    -0.332 N 
ATOM     15  C   UNL     1       0.408   3.431  -0.283  1.00  0.00     0.283 C 
ATOM     16  C   UNL     1       2.463   2.211  -0.235  1.00  0.00     0.283 C 
ATOM     17  H   UNL     1       0.913   1.811  -1.505  1.00  0.00     0.348 HD
ATOM     18  C   UNL     1       0.663   4.001   1.134  1.00  0.00     0.178 C 
ATOM     19  C   UNL     1       2.789   2.726   1.187  1.00  0.00     0.178 C 
BRANCH  14  20
ATOM     20  C   UNL     1       0.326   1.074   0.263  1.00  0.00     0.258 C 
ATOM     21  C   UNL     1       0.785  -0.344  -0.047  1.00  0.00     0.071 C 
ENDBRANCH  14  20
ENDBRANCH   8  13
BRANCH  12  22
ATOM     22  N   UNL     1       4.892   8.811   2.279  1.00  0.00    -0.325 N 
ATOM     23  C   UNL     1       4.874   9.610   3.384  1.00  0.00     0.227 C 
ATOM     24  H   UNL     1       5.585   9.062   1.627  1.00  0.00     0.169 HD
ATOM     25  O   UNL     1       5.719  10.519   3.420  1.00  0.00    -0.274 OA
BRANCH  23  26
ATOM     26  C   UNL     1       3.933   9.482   4.592  1.00  0.00     0.079 C 
ATOM     27  C   UNL     1       2.611  10.223   4.416  1.00  0.00     0.013 C 
ATOM     28  C   UNL     1       3.618   8.105   5.187  1.00  0.00     0.013 C 
ATOM     29  C   UNL     1       1.607   9.485   5.290  1.00  0.00     0.001 C 
ATOM     30  C   UNL     1       2.106   8.053   5.404  1.00  0.00     0.001 C 
ENDBRANCH  23  26
ENDBRANCH  12  22
ENDBRANCH   4   7
ENDBRANCH   2   3
ENDBRANCH   1   2
BRANCH   1  31
ATOM     31  C   UNL     1       5.707   5.715  -4.007  1.00  0.00     0.118 C 
BRANCH  31  32
ATOM     32  N   UNL     1       6.582   4.578  -4.274  1.00  0.00    -0.352 N 
ATOM     33  C   UNL     1       6.601   3.668  -5.305  1.00  0.00     0.251 C 
ATOM     34  H   UNL     1       7.283   4.438  -3.597  1.00  0.00     0.163 HD
ATOM     35  O   UNL     1       7.300   2.664  -5.202  1.00  0.00    -0.269 OA
BRANCH  33  36
ATOM     36  C   UNL     1       5.781   3.878  -6.519  1.00  0.00     0.039 A 
ATOM     37  C   UNL     1       5.181   2.776  -7.137  1.00  0.00     0.014 A 
ATOM     38  C   UNL     1       5.620   5.150  -7.068  1.00  0.00     0.014 A 
ATOM     39  C   UNL     1       4.356   2.966  -8.249  1.00  0.00     0.010 A 
ATOM     40  C   UNL     1       4.713   5.351  -8.102  1.00  0.00     0.010 A 
ATOM     41  C   UNL     1       4.074   4.262  -8.711  1.00  0.00    -0.014 A 
BRANCH  41  42
ATOM     42  C   UNL     1       3.123   4.509  -9.826  1.00  0.00     0.031 A 
ATOM     43  C   UNL     1       3.591   5.210 -11.075  1.00  0.00     0.074 A 
ATOM     44  C   UNL     1       1.823   4.181  -9.678  1.00  0.00     0.049 A 
ATOM     45  N   UNL     1       2.894   5.612 -12.106  1.00  0.00    -0.248 NA
ATOM     46  C   UNL     1       5.026   5.534 -11.162  1.00  0.00     0.031 C 
ATOM     47  C   UNL     1       1.238   3.551  -8.492  1.00  0.00     0.029 A 
ATOM     48  N   UNL     1       0.753   4.349 -10.522  1.00  0.00    -0.354 N 
ATOM     49  C   UNL     1       3.797   6.253 -12.948  1.00  0.00     0.074 A 
ATOM     50  C   UNL     1       5.081   6.235 -12.284  1.00  0.00     0.031 C 
ATOM     51  C   UNL     1      -0.077   3.367  -8.692  1.00  0.00     0.029 A 
ATOM     52  C   UNL     1      -0.440   3.908  -9.997  1.00  0.00     0.049 A 
ATOM     53  H   UNL     1       0.833   4.747 -11.419  1.00  0.00     0.167 HD
ATOM     54  C   UNL     1       3.580   6.785 -14.174  1.00  0.00     0.037 A 
ATOM     55  C   UNL     1      -1.689   3.950 -10.502  1.00  0.00     0.037 A 
ATOM     56  C   UNL     1       2.305   6.766 -14.842  1.00  0.00     0.049 A 
ATOM     57  C   UNL     1      -1.903   4.543 -11.870  1.00  0.00     0.074 A 
ATOM     58  C   UNL     1       1.996   7.210 -16.116  1.00  0.00     0.029 A 
ATOM     59  N   UNL     1       1.128   6.279 -14.291  1.00  0.00    -0.354 N 
ATOM     60  N   UNL     1      -1.022   5.074 -12.684  1.00  0.00    -0.248 NA
ATOM     61  C   UNL     1      -3.276   4.537 -12.391  1.00  0.00     0.031 C 
ATOM     62  C   UNL     1       0.623   7.044 -16.314  1.00  0.00     0.029 A 
ATOM     63  C   UNL     1       0.086   6.439 -15.189  1.00  0.00     0.049 A 
ATOM     64  H   UNL     1       1.046   5.880 -13.395  1.00  0.00     0.167 HD
ATOM     65  C   UNL     1      -1.730   5.440 -13.824  1.00  0.00     0.074 A 
ATOM     66  C   UNL     1      -3.108   5.056 -13.600  1.00  0.00     0.031 C 
ATOM     67  C   UNL     1      -1.280   6.040 -14.954  1.00  0.00     0.037 A 
BRANCH  54  68
ATOM     68  C   UNL     1       4.743   7.428 -14.881  1.00  0.00     0.058 A 
ATOM     69  C   UNL     1       5.817   6.672 -15.377  1.00  0.00     0.135 A 
ATOM     70  C   UNL     1       4.756   8.813 -15.117  1.00  0.00     0.135 A 
ATOM     71  F   UNL     1       5.867   5.347 -15.167  1.00  0.00    -0.206 F 
ATOM     72  C   UNL     1       6.872   7.267 -16.062  1.00  0.00     0.059 A 
ATOM     73  C   UNL     1       5.785   9.425 -15.827  1.00  0.00     0.059 A 
ATOM     74  F   UNL     1       3.756   9.585 -14.663  1.00  0.00    -0.206 F 
ATOM     75  C   UNL     1       6.844   8.644 -16.287  1.00  0.00     0.060 A 
BRANCH  75  76
ATOM     76  S   UNL     1       8.207   9.394 -17.202  1.00  0.00     0.124 S 
ATOM     77  O   UNL     1       9.294   9.302 -16.233  1.00  0.00    -0.237 OA
ATOM     78  O   UNL     1       8.319   8.518 -18.364  1.00  0.00    -0.237 OA
ATOM     79  O   UNL     1       7.729  10.744 -17.481  1.00  0.00    -0.744 OA
ENDBRANCH  75  76
ENDBRANCH  54  68
BRANCH  55  80
ATOM     80  C   UNL     1      -2.832   3.412  -9.715  1.00  0.00     0.058 A 
ATOM     81  C   UNL     1      -3.512   2.254 -10.122  1.00  0.00     0.135 A 
ATOM     82  C   UNL     1      -3.268   4.043  -8.538  1.00  0.00     0.135 A 
ATOM     83  F   UNL     1      -3.138   1.617 -11.242  1.00  0.00    -0.206 F 
ATOM     84  C   UNL     1      -4.596   1.754  -9.407  1.00  0.00     0.059 A 
ATOM     85  C   UNL     1      -4.330   3.546  -7.790  1.00  0.00     0.059 A 
ATOM     86  F   UNL     1      -2.642   5.144  -8.093  1.00  0.00    -0.206 F 
ATOM     87  C   UNL     1      -4.997   2.408  -8.241  1.00  0.00     0.060 A 
BRANCH  87  88
ATOM     88  S   UNL     1      -6.385   1.732  -7.302  1.00  0.00     0.124 S 
ATOM     89  O   UNL     1      -7.513   2.065  -8.165  1.00  0.00    -0.237 OA
ATOM     90  O   UNL     1      -6.039   0.317  -7.220  1.00  0.00    -0.237 OA
ATOM     91  O   UNL     1      -6.321   2.459  -6.038  1.00  0.00    -0.744 OA
ENDBRANCH  87  88
ENDBRANCH  55  80
BRANCH  67  92
ATOM     92  C   UNL     1      -2.275   6.286 -16.054  1.00  0.00     0.058 A 
ATOM     93  C   UNL     1      -3.267   7.273 -15.947  1.00  0.00     0.135 A 
ATOM     94  C   UNL     1      -2.192   5.567 -17.258  1.00  0.00     0.135 A 
ATOM     95  F   UNL     1      -3.395   7.984 -14.816  1.00  0.00    -0.206 F 
ATOM     96  C   UNL     1      -4.155   7.524 -16.988  1.00  0.00     0.059 A 
ATOM     97  C   UNL     1      -3.049   5.824 -18.323  1.00  0.00     0.059 A 
ATOM     98  F   UNL     1      -1.254   4.619 -17.417  1.00  0.00    -0.206 F 
ATOM     99  C   UNL     1      -4.035   6.798 -18.174  1.00  0.00     0.060 A 
BRANCH  99 100
ATOM    100  S   UNL     1      -5.167   7.165 -19.531  1.00  0.00     0.124 S 
ATOM    101  O   UNL     1      -6.417   6.602 -19.032  1.00  0.00    -0.237 OA
ATOM    102  O   UNL     1      -5.110   8.622 -19.599  1.00  0.00    -0.237 OA
ATOM    103  O   UNL     1      -4.574   6.466 -20.668  1.00  0.00    -0.744 OA
ENDBRANCH  99 100
ENDBRANCH  67  92
ENDBRANCH  41  42
ENDBRANCH  33  36
ENDBRANCH  31  32
ENDBRANCH   1  31
TORSDOF 17
