REMARK SMILES C[C@H](CNC(=O)N1C[C@H]2CCCC[N@@H+]2C[C@@H]1C)C(=O)NCCCNC(=O)c1ccc(-c2c3nc(c(-c4c(F)cc(S(=O)(=O)[O-])cc4F)c4ccc([nH]4)c(-c4c(F)cc(S(=O)(=O)[O-])cc4F)c4nc(c(-c5c(F)cc(S(=O)(=O)[O-])cc5F)c5ccc2[nH]5)C=C4)C=C3)cc1
REMARK SMILES IDX 22 1 21 2 20 3 18 4 19 5 2 7 1 8 3 9 4 10 5 11 6 13 7 14
REMARK SMILES IDX 8 15 16 16 9 17 15 18 17 19 10 20 14 21 11 22 13 23 12 25
REMARK SMILES IDX 23 26 24 27 25 28 26 30 27 31 28 32 92 33 29 34 91 35 30 36
REMARK SMILES IDX 31 37 32 38 85 39 33 40 90 41 84 42 86 43 34 44 89 45 83 46
REMARK SMILES IDX 82 47 35 49 69 50 48 51 68 52 49 53 52 54 67 55 87 56 50 57
REMARK SMILES IDX 51 58 66 60 88 61 53 62 36 63 37 64 46 65 38 66 39 67 45 68
REMARK SMILES IDX 47 69 40 70 41 71 42 72 43 73 44 74 70 75 71 76 80 77 72 78
REMARK SMILES IDX 73 79 79 80 81 81 74 82 75 83 76 84 77 85 78 86 54 87 55 88
REMARK SMILES IDX 64 89 56 90 57 91 63 92 65 93 58 94 59 95 60 96 61 97 62 98
REMARK H PARENT 20 6 4 12 14 24 24 29 86 48 52 59
REMARK Flexibility Score: inf
ROOT
ATOM      1  C   UNL     1      -1.885  -2.564   0.843  1.00  0.00     0.042 C 
ENDROOT
BRANCH   1   2
ATOM      2  C   UNL     1      -1.353  -2.390  -0.574  1.00  0.00     0.117 C 
BRANCH   2   3
ATOM      3  N   UNL     1      -1.684  -1.087  -1.130  1.00  0.00    -0.356 N 
ATOM      4  C   UNL     1      -0.923  -0.023  -1.481  1.00  0.00     0.224 C 
ATOM      5  O   UNL     1      -1.528   0.990  -1.854  1.00  0.00    -0.275 OA
ATOM      6  H   UNL     1      -2.647  -0.953  -1.279  1.00  0.00     0.163 HD
BRANCH   4   7
ATOM      7  C   UNL     1       0.598  -0.007  -1.436  1.00  0.00     0.094 C 
ATOM      8  C   UNL     1       1.294  -1.142  -2.176  1.00  0.00     0.020 C 
BRANCH   7   9
ATOM      9  C   UNL     1       1.183   0.353  -0.066  1.00  0.00     0.130 C 
BRANCH   9  10
ATOM     10  N   UNL     1       0.873  -0.527   1.047  1.00  0.00    -0.337 N 
ATOM     11  C   UNL     1       1.467  -1.656   1.516  1.00  0.00     0.318 C 
ATOM     12  H   UNL     1       0.079  -0.253   1.561  1.00  0.00     0.165 HD
ATOM     13  O   UNL     1       0.856  -2.340   2.332  1.00  0.00    -0.249 OA
BRANCH  11  14
ATOM     14  N   UNL     1       2.683  -2.002   1.000  1.00  0.00    -0.311 N 
ATOM     15  C   UNL     1       3.797  -1.085   1.229  1.00  0.00     0.186 C 
ATOM     16  C   UNL     1       3.123  -3.413   0.937  1.00  0.00     0.139 C 
ATOM     17  C   UNL     1       4.794  -1.185   0.070  1.00  0.00     0.203 C 
ATOM     18  C   UNL     1       4.316  -3.566  -0.066  1.00  0.00     0.287 C 
ATOM     19  C   UNL     1       2.026  -4.395   0.499  1.00  0.00     0.037 C 
ATOM     20  C   UNL     1       5.879  -0.114   0.207  1.00  0.00     0.067 C 
ATOM     21  N   UNL     1       5.386  -2.542   0.031  1.00  0.00    -0.329 N 
ATOM     22  C   UNL     1       6.865  -0.212  -0.950  1.00  0.00     0.012 C 
ATOM     23  C   UNL     1       6.324  -2.679  -1.092  1.00  0.00     0.262 C 
ATOM     24  H   UNL     1       5.906  -2.687   0.896  1.00  0.00     0.348 HD
ATOM     25  C   UNL     1       7.432  -1.625  -1.040  1.00  0.00     0.062 C 
ENDBRANCH  11  14
ENDBRANCH   9  10
ENDBRANCH   7   9
ENDBRANCH   4   7
ENDBRANCH   2   3
ENDBRANCH   1   2
BRANCH   1  26
ATOM     26  C   UNL     1      -3.401  -2.622   0.941  1.00  0.00     0.118 C 
BRANCH  26  27
ATOM     27  N   UNL     1      -3.935  -3.919   0.563  1.00  0.00    -0.352 N 
ATOM     28  C   UNL     1      -4.359  -4.973   1.338  1.00  0.00     0.251 C 
ATOM     29  H   UNL     1      -4.005  -4.068  -0.407  1.00  0.00     0.163 HD
ATOM     30  O   UNL     1      -4.566  -6.056   0.792  1.00  0.00    -0.269 OA
BRANCH  28  31
ATOM     31  C   UNL     1      -4.557  -4.840   2.804  1.00  0.00     0.039 A 
ATOM     32  C   UNL     1      -4.255  -5.934   3.623  1.00  0.00     0.014 A 
ATOM     33  C   UNL     1      -5.103  -3.691   3.378  1.00  0.00     0.014 A 
ATOM     34  C   UNL     1      -4.457  -5.857   5.006  1.00  0.00     0.010 A 
ATOM     35  C   UNL     1      -5.210  -3.578   4.765  1.00  0.00     0.010 A 
ATOM     36  C   UNL     1      -4.914  -4.667   5.595  1.00  0.00    -0.014 A 
BRANCH  36  37
ATOM     37  C   UNL     1      -5.140  -4.559   7.062  1.00  0.00     0.031 A 
ATOM     38  C   UNL     1      -6.523  -4.271   7.593  1.00  0.00     0.074 A 
ATOM     39  C   UNL     1      -4.104  -4.662   7.918  1.00  0.00     0.049 A 
ATOM     40  N   UNL     1      -6.908  -4.046   8.824  1.00  0.00    -0.248 NA
ATOM     41  C   UNL     1      -7.612  -4.194   6.605  1.00  0.00     0.031 C 
ATOM     42  C   UNL     1      -2.708  -4.887   7.537  1.00  0.00     0.029 A 
ATOM     43  N   UNL     1      -4.063  -4.579   9.288  1.00  0.00    -0.354 N 
ATOM     44  C   UNL     1      -8.268  -3.765   8.752  1.00  0.00     0.074 A 
ATOM     45  C   UNL     1      -8.634  -3.808   7.353  1.00  0.00     0.031 C 
ATOM     46  C   UNL     1      -1.953  -4.952   8.646  1.00  0.00     0.029 A 
ATOM     47  C   UNL     1      -2.802  -4.738   9.815  1.00  0.00     0.049 A 
ATOM     48  H   UNL     1      -4.861  -4.421   9.842  1.00  0.00     0.167 HD
ATOM     49  C   UNL     1      -9.141  -3.519   9.759  1.00  0.00     0.037 A 
ATOM     50  C   UNL     1      -2.377  -4.712  11.093  1.00  0.00     0.037 A 
ATOM     51  C   UNL     1      -8.792  -3.537  11.154  1.00  0.00     0.049 A 
ATOM     52  C   UNL     1      -3.373  -4.488  12.198  1.00  0.00     0.074 A 
ATOM     53  C   UNL     1      -9.618  -3.367  12.252  1.00  0.00     0.029 A 
ATOM     54  N   UNL     1      -7.513  -3.751  11.646  1.00  0.00    -0.354 N 
ATOM     55  N   UNL     1      -4.663  -4.268  12.112  1.00  0.00    -0.248 NA
ATOM     56  C   UNL     1      -2.857  -4.515  13.574  1.00  0.00     0.031 C 
ATOM     57  C   UNL     1      -8.834  -3.458  13.408  1.00  0.00     0.029 A 
ATOM     58  C   UNL     1      -7.526  -3.714  13.030  1.00  0.00     0.049 A 
ATOM     59  H   UNL     1      -6.714  -3.906  11.092  1.00  0.00     0.167 HD
ATOM     60  C   UNL     1      -5.116  -4.151  13.421  1.00  0.00     0.074 A 
ATOM     61  C   UNL     1      -3.965  -4.335  14.280  1.00  0.00     0.031 C 
ATOM     62  C   UNL     1      -6.372  -3.910  13.870  1.00  0.00     0.037 A 
BRANCH  49  63
ATOM     63  C   UNL     1     -10.567  -3.221   9.383  1.00  0.00     0.058 A 
ATOM     64  C   UNL     1     -11.425  -4.223   8.901  1.00  0.00     0.135 A 
ATOM     65  C   UNL     1     -11.087  -1.925   9.524  1.00  0.00     0.135 A 
ATOM     66  F   UNL     1     -10.973  -5.476   8.732  1.00  0.00    -0.206 F 
ATOM     67  C   UNL     1     -12.738  -3.943   8.539  1.00  0.00     0.059 A 
ATOM     68  C   UNL     1     -12.406  -1.627   9.192  1.00  0.00     0.059 A 
ATOM     69  F   UNL     1     -10.311  -0.930   9.982  1.00  0.00    -0.206 F 
ATOM     70  C   UNL     1     -13.219  -2.640   8.683  1.00  0.00     0.060 A 
BRANCH  70  71
ATOM     71  S   UNL     1     -14.923  -2.287   8.204  1.00  0.00     0.124 S 
ATOM     72  O   UNL     1     -14.809  -2.231   6.750  1.00  0.00    -0.237 OA
ATOM     73  O   UNL     1     -15.646  -3.438   8.738  1.00  0.00    -0.237 OA
ATOM     74  O   UNL     1     -15.204  -1.016   8.862  1.00  0.00    -0.744 OA
ENDBRANCH  70  71
ENDBRANCH  49  63
BRANCH  50  75
ATOM     75  C   UNL     1      -0.941  -4.938  11.399  1.00  0.00     0.058 A 
ATOM     76  C   UNL     1      -0.509  -6.149  11.959  1.00  0.00     0.135 A 
ATOM     77  C   UNL     1       0.027  -3.960  11.125  1.00  0.00     0.135 A 
ATOM     78  F   UNL     1      -1.400  -7.110  12.245  1.00  0.00    -0.206 F 
ATOM     79  C   UNL     1       0.831  -6.381  12.248  1.00  0.00     0.059 A 
ATOM     80  C   UNL     1       1.377  -4.177  11.386  1.00  0.00     0.059 A 
ATOM     81  F   UNL     1      -0.335  -2.790  10.577  1.00  0.00    -0.206 F 
ATOM     82  C   UNL     1       1.768  -5.388  11.956  1.00  0.00     0.060 A 
BRANCH  82  83
ATOM     83  S   UNL     1       3.514  -5.718  12.286  1.00  0.00     0.124 S 
ATOM     84  O   UNL     1       3.578  -5.537  13.731  1.00  0.00    -0.237 OA
ATOM     85  O   UNL     1       3.667  -7.088  11.806  1.00  0.00    -0.237 OA
ATOM     86  O   UNL     1       4.200  -4.704  11.490  1.00  0.00    -0.744 OA
ENDBRANCH  82  83
ENDBRANCH  50  75
BRANCH  62  87
ATOM     87  C   UNL     1      -6.575  -3.863  15.357  1.00  0.00     0.058 A 
ATOM     88  C   UNL     1      -6.181  -2.751  16.116  1.00  0.00     0.135 A 
ATOM     89  C   UNL     1      -7.216  -4.921  16.021  1.00  0.00     0.135 A 
ATOM     90  F   UNL     1      -5.560  -1.717  15.528  1.00  0.00    -0.206 F 
ATOM     91  C   UNL     1      -6.398  -2.697  17.489  1.00  0.00     0.059 A 
ATOM     92  C   UNL     1      -7.461  -4.880  17.390  1.00  0.00     0.059 A 
ATOM     93  F   UNL     1      -7.620  -6.003  15.337  1.00  0.00    -0.206 F 
ATOM     94  C   UNL     1      -7.038  -3.768  18.118  1.00  0.00     0.060 A 
BRANCH  94  95
ATOM     95  S   UNL     1      -7.347  -3.675  19.894  1.00  0.00     0.124 S 
ATOM     96  O   UNL     1      -6.032  -3.996  20.438  1.00  0.00    -0.237 OA
ATOM     97  O   UNL     1      -7.784  -2.293  20.068  1.00  0.00    -0.237 OA
ATOM     98  O   UNL     1      -8.380  -4.683  20.111  1.00  0.00    -0.744 OA
ENDBRANCH  94  95
ENDBRANCH  62  87
ENDBRANCH  36  37
ENDBRANCH  28  31
ENDBRANCH  26  27
ENDBRANCH   1  26
TORSDOF 16
