REMARK SMILES CS(=O)(=O)c1ccc(-n2nc(C(F)(F)F)cc2-c2ccc(CC(=O)NCCCNC(=O)c3ccc(-c4c5nc(c(-c6c(F)cc(S(=O)(=O)[O-])cc6F)c6ccc([nH]6)c(-c6c(F)cc(S(=O)(=O)[O-])cc6F)c6nc(c(-c7c(F)cc(S(=O)(=O)[O-])cc7F)c7ccc4[nH]7)C=C6)C=C5)cc3)cc2)cc1
REMARK SMILES IDX 26 1 25 2 23 3 24 4 22 6 21 7 18 8 19 9 99 10 20 11 98 12
REMARK SMILES IDX 17 13 9 14 10 15 11 16 16 17 8 18 5 19 6 20 101 21 7 22
REMARK SMILES IDX 100 23 2 24 1 25 3 26 4 27 12 28 13 29 14 30 15 31 27 32
REMARK SMILES IDX 28 33 29 34 30 35 31 37 32 38 33 39 97 40 34 41 96 42 35 43
REMARK SMILES IDX 36 44 37 45 90 46 38 47 95 48 89 49 91 50 39 51 94 52 88 53
REMARK SMILES IDX 87 54 40 56 74 57 53 58 73 59 54 60 57 61 72 62 92 63 55 64
REMARK SMILES IDX 56 65 71 67 93 68 58 69 41 70 42 71 51 72 43 73 44 74 50 75
REMARK SMILES IDX 52 76 45 77 46 78 47 79 48 80 49 81 75 82 76 83 85 84 77 85
REMARK SMILES IDX 78 86 84 87 86 88 79 89 80 90 81 91 82 92 83 93 59 94 60 95
REMARK SMILES IDX 69 96 61 97 62 98 68 99 70 100 63 101 64 102 65 103 66 104
REMARK SMILES IDX 67 105
REMARK H PARENT 25 5 29 36 91 55 57 66
REMARK Flexibility Score: inf
ROOT
ATOM      1  C   UNL     1      -3.810  -6.805  -2.814  1.00  0.00     0.117 C 
ENDROOT
BRANCH   1   2
ATOM      2  N   UNL     1      -4.470  -5.513  -2.743  1.00  0.00    -0.356 N 
ATOM      3  C   UNL     1      -4.814  -4.663  -3.755  1.00  0.00     0.224 C 
ATOM      4  O   UNL     1      -5.442  -3.640  -3.479  1.00  0.00    -0.275 OA
ATOM      5  H   UNL     1      -4.701  -5.207  -1.836  1.00  0.00     0.163 HD
BRANCH   3   6
ATOM      6  C   UNL     1      -4.477  -5.012  -5.194  1.00  0.00     0.135 C 
BRANCH   6   7
ATOM      7  C   UNL     1      -2.999  -4.995  -5.497  1.00  0.00    -0.039 A 
ATOM      8  C   UNL     1      -0.206  -4.999  -5.904  1.00  0.00     0.000 A 
ATOM      9  C   UNL     1      -0.883  -3.816  -5.571  1.00  0.00     0.010 A 
ATOM     10  C   UNL     1      -0.953  -6.166  -6.093  1.00  0.00     0.010 A 
ATOM     11  C   UNL     1      -2.261  -3.816  -5.350  1.00  0.00     0.005 A 
ATOM     12  C   UNL     1      -2.337  -6.160  -5.906  1.00  0.00     0.005 A 
BRANCH   8  13
ATOM     13  C   UNL     1       1.251  -5.022  -6.077  1.00  0.00     0.075 A 
ATOM     14  N   UNL     1       2.184  -4.405  -5.245  1.00  0.00    -0.233 N 
ATOM     15  N   UNL     1       3.421  -4.372  -5.800  1.00  0.00    -0.163 NA
ATOM     16  C   UNL     1       3.327  -5.139  -6.902  1.00  0.00     0.167 A 
ATOM     17  C   UNL     1       1.989  -5.547  -7.119  1.00  0.00     0.064 A 
BRANCH  14  18
ATOM     18  C   UNL     1       1.935  -3.788  -3.996  1.00  0.00     0.065 A 
ATOM     19  C   UNL     1       0.935  -2.349  -1.855  1.00  0.00     0.067 A 
ATOM     20  C   UNL     1       0.630  -3.711  -1.976  1.00  0.00     0.022 A 
ATOM     21  C   UNL     1       1.832  -1.732  -2.729  1.00  0.00     0.022 A 
ATOM     22  C   UNL     1       1.118  -4.431  -3.059  1.00  0.00     0.030 A 
ATOM     23  C   UNL     1       2.361  -2.467  -3.795  1.00  0.00     0.030 A 
BRANCH  19  24
ATOM     24  S   UNL     1       0.033  -1.448  -0.615  1.00  0.00     0.175 S 
ATOM     25  C   UNL     1       0.915   0.048  -0.279  1.00  0.00     0.163 C 
ATOM     26  O   UNL     1       0.073  -2.281   0.557  1.00  0.00    -0.224 OA
ATOM     27  O   UNL     1      -1.239  -1.117  -1.244  1.00  0.00    -0.224 OA
ENDBRANCH  19  24
ENDBRANCH  14  18
BRANCH  16  28
ATOM     28  C   UNL     1       4.504  -5.469  -7.778  1.00  0.00     0.435 C 
ATOM     29  F   UNL     1       5.270  -4.390  -8.081  1.00  0.00    -0.164 F 
ATOM     30  F   UNL     1       5.321  -6.397  -7.211  1.00  0.00    -0.164 F 
ATOM     31  F   UNL     1       4.105  -6.000  -8.970  1.00  0.00    -0.164 F 
ENDBRANCH  16  28
ENDBRANCH   8  13
ENDBRANCH   6   7
ENDBRANCH   3   6
ENDBRANCH   1   2
BRANCH   1  32
ATOM     32  C   UNL     1      -2.321  -6.747  -2.462  1.00  0.00     0.042 C 
BRANCH  32  33
ATOM     33  C   UNL     1      -2.085  -6.581  -0.972  1.00  0.00     0.118 C 
BRANCH  33  34
ATOM     34  N   UNL     1      -2.482  -7.759  -0.193  1.00  0.00    -0.352 N 
ATOM     35  C   UNL     1      -2.364  -7.960   1.171  1.00  0.00     0.251 C 
ATOM     36  H   UNL     1      -2.882  -8.499  -0.705  1.00  0.00     0.163 HD
ATOM     37  O   UNL     1      -2.411  -9.092   1.639  1.00  0.00    -0.269 OA
BRANCH  35  38
ATOM     38  C   UNL     1      -2.177  -6.790   2.046  1.00  0.00     0.039 A 
ATOM     39  C   UNL     1      -1.332  -6.818   3.160  1.00  0.00     0.014 A 
ATOM     40  C   UNL     1      -2.846  -5.625   1.698  1.00  0.00     0.014 A 
ATOM     41  C   UNL     1      -1.121  -5.638   3.872  1.00  0.00     0.010 A 
ATOM     42  C   UNL     1      -2.449  -4.437   2.241  1.00  0.00     0.010 A 
ATOM     43  C   UNL     1      -1.670  -4.441   3.392  1.00  0.00    -0.014 A 
BRANCH  43  44
ATOM     44  C   UNL     1      -1.380  -3.146   4.008  1.00  0.00     0.031 A 
ATOM     45  C   UNL     1       0.079  -2.820   4.157  1.00  0.00     0.074 A 
ATOM     46  C   UNL     1      -2.381  -2.240   4.174  1.00  0.00     0.049 A 
ATOM     47  N   UNL     1       0.668  -2.254   5.158  1.00  0.00    -0.248 NA
ATOM     48  C   UNL     1       1.029  -3.232   3.103  1.00  0.00     0.031 C 
ATOM     49  C   UNL     1      -3.805  -2.380   3.820  1.00  0.00     0.029 A 
ATOM     50  N   UNL     1      -2.328  -0.936   4.560  1.00  0.00    -0.354 N 
ATOM     51  C   UNL     1       1.994  -2.044   4.779  1.00  0.00     0.074 A 
ATOM     52  C   UNL     1       2.181  -2.704   3.518  1.00  0.00     0.031 C 
ATOM     53  C   UNL     1      -4.385  -1.164   3.735  1.00  0.00     0.029 A 
ATOM     54  C   UNL     1      -3.440  -0.170   4.198  1.00  0.00     0.049 A 
ATOM     55  H   UNL     1      -1.565  -0.561   5.056  1.00  0.00     0.167 HD
ATOM     56  C   UNL     1       2.795  -1.195   5.475  1.00  0.00     0.037 A 
ATOM     57  C   UNL     1      -3.555   1.185   4.240  1.00  0.00     0.037 A 
ATOM     58  C   UNL     1       2.345  -1.076   6.836  1.00  0.00     0.049 A 
ATOM     59  C   UNL     1      -2.489   1.663   5.164  1.00  0.00     0.074 A 
ATOM     60  C   UNL     1       2.121  -2.015   7.828  1.00  0.00     0.029 A 
ATOM     61  N   UNL     1       1.619   0.033   7.199  1.00  0.00    -0.354 N 
ATOM     62  N   UNL     1      -2.470   1.396   6.444  1.00  0.00    -0.248 NA
ATOM     63  C   UNL     1      -1.196   1.978   4.571  1.00  0.00     0.031 C 
ATOM     64  C   UNL     1       0.870  -1.641   8.393  1.00  0.00     0.029 A 
ATOM     65  C   UNL     1       0.479  -0.435   7.809  1.00  0.00     0.049 A 
ATOM     66  H   UNL     1       1.865   0.974   7.051  1.00  0.00     0.167 HD
ATOM     67  C   UNL     1      -1.148   1.080   6.719  1.00  0.00     0.074 A 
ATOM     68  C   UNL     1      -0.400   1.506   5.534  1.00  0.00     0.031 C 
ATOM     69  C   UNL     1      -0.800   0.234   7.735  1.00  0.00     0.037 A 
BRANCH  56  70
ATOM     70  C   UNL     1       3.747  -0.225   4.832  1.00  0.00     0.058 A 
ATOM     71  C   UNL     1       4.622   0.525   5.643  1.00  0.00     0.135 A 
ATOM     72  C   UNL     1       3.602   0.223   3.499  1.00  0.00     0.135 A 
ATOM     73  F   UNL     1       4.833   0.178   6.923  1.00  0.00    -0.206 F 
ATOM     74  C   UNL     1       5.237   1.692   5.193  1.00  0.00     0.059 A 
ATOM     75  C   UNL     1       4.236   1.364   3.020  1.00  0.00     0.059 A 
ATOM     76  F   UNL     1       2.768  -0.371   2.635  1.00  0.00    -0.206 F 
ATOM     77  C   UNL     1       5.018   2.115   3.885  1.00  0.00     0.060 A 
BRANCH  77  78
ATOM     78  S   UNL     1       5.718   3.684   3.342  1.00  0.00     0.124 S 
ATOM     79  O   UNL     1       4.962   4.636   4.148  1.00  0.00    -0.237 OA
ATOM     80  O   UNL     1       7.125   3.522   3.693  1.00  0.00    -0.237 OA
ATOM     81  O   UNL     1       5.431   3.699   1.911  1.00  0.00    -0.744 OA
ENDBRANCH  77  78
ENDBRANCH  56  70
BRANCH  57  82
ATOM     82  C   UNL     1      -4.268   2.088   3.284  1.00  0.00     0.058 A 
ATOM     83  C   UNL     1      -4.421   3.464   3.548  1.00  0.00     0.135 A 
ATOM     84  C   UNL     1      -4.571   1.687   1.965  1.00  0.00     0.135 A 
ATOM     85  F   UNL     1      -4.149   3.950   4.769  1.00  0.00    -0.206 F 
ATOM     86  C   UNL     1      -4.788   4.387   2.556  1.00  0.00     0.059 A 
ATOM     87  C   UNL     1      -4.948   2.586   0.964  1.00  0.00     0.059 A 
ATOM     88  F   UNL     1      -4.423   0.413   1.578  1.00  0.00    -0.206 F 
ATOM     89  C   UNL     1      -5.024   3.940   1.257  1.00  0.00     0.060 A 
BRANCH  89  90
ATOM     90  S   UNL     1      -5.294   5.142  -0.071  1.00  0.00     0.124 S 
ATOM     91  O   UNL     1      -6.614   5.670   0.257  1.00  0.00    -0.237 OA
ATOM     92  O   UNL     1      -4.176   6.062   0.113  1.00  0.00    -0.237 OA
ATOM     93  O   UNL     1      -5.231   4.331  -1.284  1.00  0.00    -0.744 OA
ENDBRANCH  89  90
ENDBRANCH  57  82
BRANCH  69  94
ATOM     94  C   UNL     1      -1.844  -0.215   8.729  1.00  0.00     0.058 A 
ATOM     95  C   UNL     1      -3.018  -0.923   8.410  1.00  0.00     0.135 A 
ATOM     96  C   UNL     1      -1.534  -0.092  10.094  1.00  0.00     0.135 A 
ATOM     97  F   UNL     1      -3.341  -1.192   7.138  1.00  0.00    -0.206 F 
ATOM     98  C   UNL     1      -3.862  -1.441   9.398  1.00  0.00     0.059 A 
ATOM     99  C   UNL     1      -2.337  -0.632  11.092  1.00  0.00     0.059 A 
ATOM    100  F   UNL     1      -0.395   0.513  10.473  1.00  0.00    -0.206 F 
ATOM    101  C   UNL     1      -3.511  -1.290  10.738  1.00  0.00     0.060 A 
BRANCH 101 102
ATOM    102  S   UNL     1      -4.570  -1.997  12.018  1.00  0.00     0.124 S 
ATOM    103  O   UNL     1      -5.748  -1.139  11.949  1.00  0.00    -0.237 OA
ATOM    104  O   UNL     1      -4.756  -3.370  11.558  1.00  0.00    -0.237 OA
ATOM    105  O   UNL     1      -3.772  -1.861  13.235  1.00  0.00    -0.744 OA
ENDBRANCH 101 102
ENDBRANCH  69  94
ENDBRANCH  43  44
ENDBRANCH  35  38
ENDBRANCH  33  34
ENDBRANCH  32  33
ENDBRANCH   1  32
TORSDOF 18
