REMARK SMILES Cc1ccn(CC(=O)N2CCC3(CC2)NC(=O)C[C@@H]3C(=O)NCCCNC(=O)c2ccc(-c3c4nc(c(-c5c(F)cc(S(=O)(=O)[O-])cc5F)c5ccc([nH]5)c(-c5c(F)cc(S(=O)(=O)[O-])cc5F)c5nc(c(-c6c(F)cc(S(=O)(=O)[O-])cc6F)c6ccc3[nH]6)C=C5)C=C4)cc2)n1
REMARK SMILES IDX 24 1 23 2 22 3 20 4 21 5 19 7 7 8 8 9 9 10 10 11 14 12 11 13
REMARK SMILES IDX 13 14 12 15 15 16 16 17 18 19 17 20 6 21 5 22 1 23 2 24 3 25
REMARK SMILES IDX 95 26 4 27 25 28 26 29 27 30 28 32 29 33 30 34 94 35 31 36
REMARK SMILES IDX 93 37 32 38 33 39 34 40 87 41 35 42 92 43 86 44 88 45 36 46
REMARK SMILES IDX 91 47 85 48 84 49 37 51 71 52 50 53 70 54 51 55 54 56 69 57
REMARK SMILES IDX 89 58 52 59 53 60 68 62 90 63 55 64 38 65 39 66 48 67 40 68
REMARK SMILES IDX 41 69 47 70 49 71 42 72 43 73 44 74 45 75 46 76 72 77 73 78
REMARK SMILES IDX 82 79 74 80 75 81 81 82 83 83 76 84 77 85 78 86 79 87 80 88
REMARK SMILES IDX 56 89 57 90 66 91 58 92 59 93 65 94 67 95 60 96 61 97 62 98
REMARK SMILES IDX 63 99 64 100
REMARK H PARENT 22 6 15 18 26 31 88 50 54 61
REMARK Flexibility Score: inf
ROOT
ATOM      1  C   UNL     1       0.149  -3.785  -9.394  1.00  0.00     0.042 C 
ENDROOT
BRANCH   1   2
ATOM      2  C   UNL     1       1.038  -3.759  -8.157  1.00  0.00     0.117 C 
BRANCH   2   3
ATOM      3  N   UNL     1       2.337  -3.072  -8.298  1.00  0.00    -0.356 N 
ATOM      4  C   UNL     1       3.237  -2.826  -7.282  1.00  0.00     0.226 C 
ATOM      5  O   UNL     1       4.128  -3.664  -7.112  1.00  0.00    -0.275 OA
ATOM      6  H   UNL     1       2.583  -2.761  -9.199  1.00  0.00     0.163 HD
BRANCH   4   7
ATOM      7  C   UNL     1       3.346  -1.466  -6.521  1.00  0.00     0.113 C 
ATOM      8  C   UNL     1      -0.185  -3.420  -3.311  1.00  0.00     0.244 C 
ATOM      9  O   UNL     1      -0.431  -4.547  -3.760  1.00  0.00    -0.273 OA
ATOM     10  N   UNL     1       0.787  -2.612  -3.891  1.00  0.00    -0.341 N 
ATOM     11  C   UNL     1       0.993  -2.856  -5.275  1.00  0.00     0.122 C 
ATOM     12  C   UNL     1       1.811  -1.738  -3.296  1.00  0.00     0.122 C 
ATOM     13  C   UNL     1       0.858  -1.500  -5.971  1.00  0.00     0.051 C 
ATOM     14  C   UNL     1       2.287  -0.575  -4.218  1.00  0.00     0.051 C 
ATOM     15  C   UNL     1       2.163  -0.775  -5.766  1.00  0.00     0.055 C 
ATOM     16  N   UNL     1       2.094   0.537  -6.385  1.00  0.00    -0.350 N 
ATOM     17  C   UNL     1       2.996   0.758  -7.387  1.00  0.00     0.221 C 
ATOM     18  H   UNL     1       1.444   1.220  -6.102  1.00  0.00     0.164 HD
ATOM     19  C   UNL     1       3.878  -0.436  -7.536  1.00  0.00     0.116 C 
ATOM     20  O   UNL     1       3.063   1.794  -8.035  1.00  0.00    -0.275 OA
BRANCH   8  21
ATOM     21  C   UNL     1      -1.157  -2.823  -2.337  1.00  0.00     0.244 C 
BRANCH  21  22
ATOM     22  N   UNL     1      -0.525  -2.439  -1.110  1.00  0.00    -0.263 N 
ATOM     23  C   UNL     1       0.954   0.273   0.537  1.00  0.00     0.069 C 
ATOM     24  C   UNL     1       0.465  -1.059   0.128  1.00  0.00     0.059 A 
ATOM     25  C   UNL     1       0.953  -2.338   0.484  1.00  0.00     0.045 A 
ATOM     26  N   UNL     1      -0.517  -1.141  -0.774  1.00  0.00    -0.178 NA
ATOM     27  C   UNL     1       0.263  -3.218  -0.316  1.00  0.00     0.109 A 
ENDBRANCH  21  22
ENDBRANCH   8  21
ENDBRANCH   4   7
ENDBRANCH   2   3
ENDBRANCH   1   2
BRANCH   1  28
ATOM     28  C   UNL     1      -0.624  -5.097  -9.463  1.00  0.00     0.118 C 
BRANCH  28  29
ATOM     29  N   UNL     1      -1.550  -5.348  -8.344  1.00  0.00    -0.352 N 
ATOM     30  C   UNL     1      -2.159  -6.563  -8.041  1.00  0.00     0.251 C 
ATOM     31  H   UNL     1      -1.758  -4.586  -7.757  1.00  0.00     0.163 HD
ATOM     32  O   UNL     1      -3.143  -6.647  -7.321  1.00  0.00    -0.269 OA
BRANCH  30  33
ATOM     33  C   UNL     1      -1.535  -7.762  -8.619  1.00  0.00     0.039 A 
ATOM     34  C   UNL     1      -2.179  -8.507  -9.612  1.00  0.00     0.014 A 
ATOM     35  C   UNL     1      -0.174  -7.887  -8.362  1.00  0.00     0.014 A 
ATOM     36  C   UNL     1      -1.400  -9.285 -10.464  1.00  0.00     0.010 A 
ATOM     37  C   UNL     1       0.594  -8.512  -9.309  1.00  0.00     0.010 A 
ATOM     38  C   UNL     1      -0.003  -9.232 -10.349  1.00  0.00    -0.014 A 
BRANCH  38  39
ATOM     39  C   UNL     1       0.861  -9.744 -11.416  1.00  0.00     0.031 A 
ATOM     40  C   UNL     1       0.527  -9.261 -12.796  1.00  0.00     0.074 A 
ATOM     41  C   UNL     1       2.036 -10.352 -11.133  1.00  0.00     0.049 A 
ATOM     42  N   UNL     1       0.136  -9.959 -13.812  1.00  0.00    -0.248 NA
ATOM     43  C   UNL     1       0.476  -7.806 -13.041  1.00  0.00     0.031 C 
ATOM     44  C   UNL     1       2.630 -10.601  -9.812  1.00  0.00     0.029 A 
ATOM     45  N   UNL     1       3.030 -10.742 -11.972  1.00  0.00    -0.354 N 
ATOM     46  C   UNL     1       0.044  -9.070 -14.884  1.00  0.00     0.074 A 
ATOM     47  C   UNL     1       0.039  -7.755 -14.303  1.00  0.00     0.031 C 
ATOM     48  C   UNL     1       3.954 -10.824  -9.941  1.00  0.00     0.029 A 
ATOM     49  C   UNL     1       4.263 -10.932 -11.351  1.00  0.00     0.049 A 
ATOM     50  H   UNL     1       2.891 -10.879 -12.937  1.00  0.00     0.167 HD
ATOM     51  C   UNL     1       0.250  -9.482 -16.170  1.00  0.00     0.037 A 
ATOM     52  C   UNL     1       5.460 -11.127 -11.962  1.00  0.00     0.037 A 
ATOM     53  C   UNL     1       0.181 -10.922 -16.260  1.00  0.00     0.049 A 
ATOM     54  C   UNL     1       5.156 -11.600 -13.340  1.00  0.00     0.074 A 
ATOM     55  C   UNL     1      -0.772 -11.868 -15.931  1.00  0.00     0.029 A 
ATOM     56  N   UNL     1       1.365 -11.613 -16.369  1.00  0.00    -0.354 N 
ATOM     57  N   UNL     1       4.555 -12.733 -13.596  1.00  0.00    -0.248 NA
ATOM     58  C   UNL     1       5.063 -10.599 -14.392  1.00  0.00     0.031 C 
ATOM     59  C   UNL     1      -0.032 -12.941 -15.351  1.00  0.00     0.029 A 
ATOM     60  C   UNL     1       1.326 -12.633 -15.454  1.00  0.00     0.049 A 
ATOM     61  H   UNL     1       2.103 -11.412 -16.989  1.00  0.00     0.167 HD
ATOM     62  C   UNL     1       3.660 -12.442 -14.617  1.00  0.00     0.074 A 
ATOM     63  C   UNL     1       4.074 -11.131 -15.116  1.00  0.00     0.031 C 
ATOM     64  C   UNL     1       2.493 -13.140 -14.762  1.00  0.00     0.037 A 
BRANCH  51  65
ATOM     65  C   UNL     1       0.897  -8.648 -17.263  1.00  0.00     0.058 A 
ATOM     66  C   UNL     1       0.988  -9.179 -18.570  1.00  0.00     0.135 A 
ATOM     67  C   UNL     1       1.683  -7.498 -17.030  1.00  0.00     0.135 A 
ATOM     68  F   UNL     1       0.278 -10.264 -18.920  1.00  0.00    -0.206 F 
ATOM     69  C   UNL     1       1.867  -8.672 -19.530  1.00  0.00     0.059 A 
ATOM     70  C   UNL     1       2.526  -6.945 -17.989  1.00  0.00     0.059 A 
ATOM     71  F   UNL     1       1.753  -6.901 -15.836  1.00  0.00    -0.206 F 
ATOM     72  C   UNL     1       2.649  -7.566 -19.220  1.00  0.00     0.060 A 
BRANCH  72  73
ATOM     73  S   UNL     1       3.869  -6.978 -20.407  1.00  0.00     0.124 S 
ATOM     74  O   UNL     1       4.838  -8.068 -20.389  1.00  0.00    -0.237 OA
ATOM     75  O   UNL     1       3.070  -6.850 -21.622  1.00  0.00    -0.237 OA
ATOM     76  O   UNL     1       4.321  -5.718 -19.826  1.00  0.00    -0.744 OA
ENDBRANCH  72  73
ENDBRANCH  51  65
BRANCH  52  77
ATOM     77  C   UNL     1       6.776 -10.557 -11.554  1.00  0.00     0.058 A 
ATOM     78  C   UNL     1       7.970 -10.967 -12.172  1.00  0.00     0.135 A 
ATOM     79  C   UNL     1       6.868  -9.404 -10.743  1.00  0.00     0.135 A 
ATOM     80  F   UNL     1       7.977 -12.046 -12.971  1.00  0.00    -0.206 F 
ATOM     81  C   UNL     1       9.165 -10.247 -12.045  1.00  0.00     0.059 A 
ATOM     82  C   UNL     1       8.049  -8.679 -10.590  1.00  0.00     0.059 A 
ATOM     83  F   UNL     1       5.785  -8.886 -10.144  1.00  0.00    -0.206 F 
ATOM     84  C   UNL     1       9.188  -9.088 -11.270  1.00  0.00     0.060 A 
BRANCH  84  85
ATOM     85  S   UNL     1      10.665  -8.043 -11.261  1.00  0.00     0.124 S 
ATOM     86  O   UNL     1      11.605  -8.854 -10.495  1.00  0.00    -0.237 OA
ATOM     87  O   UNL     1      10.954  -7.907 -12.685  1.00  0.00    -0.237 OA
ATOM     88  O   UNL     1      10.212  -6.821 -10.602  1.00  0.00    -0.744 OA
ENDBRANCH  84  85
ENDBRANCH  52  77
BRANCH  64  89
ATOM     89  C   UNL     1       2.303 -14.417 -13.979  1.00  0.00     0.058 A 
ATOM     90  C   UNL     1       2.250 -14.502 -12.576  1.00  0.00     0.135 A 
ATOM     91  C   UNL     1       1.983 -15.581 -14.695  1.00  0.00     0.135 A 
ATOM     92  F   UNL     1       2.433 -13.418 -11.811  1.00  0.00    -0.206 F 
ATOM     93  C   UNL     1       1.938 -15.694 -11.917  1.00  0.00     0.059 A 
ATOM     94  C   UNL     1       1.637 -16.771 -14.062  1.00  0.00     0.059 A 
ATOM     95  F   UNL     1       1.947 -15.555 -16.038  1.00  0.00    -0.206 F 
ATOM     96  C   UNL     1       1.631 -16.826 -12.671  1.00  0.00     0.060 A 
BRANCH  96  97
ATOM     97  S   UNL     1       1.168 -18.352 -11.824  1.00  0.00     0.124 S 
ATOM     98  O   UNL     1       2.433 -18.766 -11.227  1.00  0.00    -0.237 OA
ATOM     99  O   UNL     1       0.143 -17.898 -10.888  1.00  0.00    -0.237 OA
ATOM    100  O   UNL     1       0.678 -19.206 -12.903  1.00  0.00    -0.744 OA
ENDBRANCH  96  97
ENDBRANCH  64  89
ENDBRANCH  38  39
ENDBRANCH  30  33
ENDBRANCH  28  29
ENDBRANCH   1  28
TORSDOF 15
