REMARK SMILES [NH3+][C@H]1CCCCC[C@@H]1C(=O)N[C@@H](CCO)C(=O)NCCCNC(=O)c1ccc(-c2c3nc(c(-c4c(F)cc(S(=O)(=O)[O-])cc4F)c4ccc([nH]4)c(-c4c(F)cc(S(=O)(=O)[O-])cc4F)c4nc(c(-c5c(F)cc(S(=O)(=O)[O-])cc5F)c5ccc2[nH]5)C=C4)C=C3)cc1
REMARK SMILES IDX 19 1 18 2 16 3 17 4 12 6 11 7 9 8 10 9 8 11 2 12 1 13 3 17
REMARK SMILES IDX 4 18 7 20 6 21 5 22 13 24 14 25 15 26 20 28 21 29 22 30
REMARK SMILES IDX 23 31 24 33 25 34 26 35 90 36 27 37 89 38 28 39 29 40 30 41
REMARK SMILES IDX 83 42 31 43 88 44 82 45 84 46 32 47 87 48 81 49 80 50 33 52
REMARK SMILES IDX 67 53 46 54 66 55 47 56 50 57 65 58 85 59 48 60 49 61 64 63
REMARK SMILES IDX 86 64 51 65 34 66 35 67 44 68 36 69 37 70 43 71 45 72 38 73
REMARK SMILES IDX 39 74 40 75 41 76 42 77 68 78 69 79 78 80 70 81 71 82 77 83
REMARK SMILES IDX 79 84 72 85 73 86 74 87 75 88 76 89 52 90 53 91 62 92 54 93
REMARK SMILES IDX 55 94 61 95 63 96 56 97 57 98 58 99 59 100 60 101
REMARK H PARENT 18 5 11 10 1 14 1 15 1 16 15 27 22 32 84 51 50 62
REMARK Flexibility Score: 90.00
ROOT
ATOM      1  C   UNL     1       5.256   4.027  -3.143  1.00  0.00     0.117 C 
ENDROOT
BRANCH   1   2
ATOM      2  N   UNL     1       4.041   4.252  -3.911  1.00  0.00    -0.354 N 
ATOM      3  C   UNL     1       2.724   4.036  -3.655  1.00  0.00     0.242 C 
ATOM      4  O   UNL     1       1.930   4.517  -4.472  1.00  0.00    -0.273 OA
ATOM      5  H   UNL     1       4.208   4.641  -4.800  1.00  0.00     0.163 HD
BRANCH   3   6
ATOM      6  C   UNL     1       2.195   3.424  -2.345  1.00  0.00     0.173 C 
BRANCH   6   7
ATOM      7  N   UNL     1       2.867   2.198  -1.918  1.00  0.00    -0.344 N 
ATOM      8  C   UNL     1       2.385   0.929  -1.789  1.00  0.00     0.229 C 
ATOM      9  O   UNL     1       3.189   0.073  -1.420  1.00  0.00    -0.275 OA
ATOM     10  H   UNL     1       3.818   2.305  -1.688  1.00  0.00     0.164 HD
BRANCH   8  11
ATOM     11  C   UNL     1       0.912   0.612  -2.067  1.00  0.00     0.136 C 
BRANCH  11  12
ATOM     12  C   UNL     1       0.462  -0.608  -1.228  1.00  0.00     0.193 C 
BRANCH  12  13
ATOM     13  N   UNL     1      -1.002  -0.566  -1.029  1.00  0.00    -0.354 N 
ATOM     14  H   UNL     1      -1.293  -1.372  -0.476  1.00  0.00     0.344 HD
ATOM     15  H   UNL     1      -1.470  -0.589  -1.935  1.00  0.00     0.344 HD
ATOM     16  H   UNL     1      -1.254   0.292  -0.538  1.00  0.00     0.344 HD
ENDBRANCH  12  13
BRANCH  12  17
ATOM     17  C   UNL     1       0.869  -1.993  -1.769  1.00  0.00     0.066 C 
BRANCH  17  18
ATOM     18  C   UNL     1       0.193  -2.417  -3.070  1.00  0.00     0.006 CG0
ATOM     19  G   UNL     1       0.878  -1.931  -4.341  1.00  0.00     0.000 G0
ENDBRANCH  17  18
ENDBRANCH  12  17
ENDBRANCH  11  12
BRANCH  11  20
ATOM     20  C   UNL     1       0.598   0.524  -3.572  1.00  0.00     0.020 C 
BRANCH  20  21
ATOM     21  C   UNL     1       1.416  -0.505  -4.351  1.00  0.00     0.001 C 
BRANCH  21  22
ATOM     22  C   UNL     1       0.878  -1.931  -4.341  1.00  0.00     0.000 CG0
ATOM     23  G   UNL     1       0.193  -2.417  -3.070  1.00  0.00     0.000 G0
ENDBRANCH  21  22
ENDBRANCH  20  21
ENDBRANCH  11  20
ENDBRANCH   8  11
ENDBRANCH   6   7
BRANCH   6  24
ATOM     24  C   UNL     1       2.027   4.444  -1.203  1.00  0.00     0.063 C 
BRANCH  24  25
ATOM     25  C   UNL     1       3.259   5.215  -0.748  1.00  0.00     0.158 C 
BRANCH  25  26
ATOM     26  O   UNL     1       3.543   6.320  -1.593  1.00  0.00    -0.396 OA
ATOM     27  H   UNL     1       3.722   6.003  -2.492  1.00  0.00     0.210 HD
ENDBRANCH  25  26
ENDBRANCH  24  25
ENDBRANCH   6  24
ENDBRANCH   3   6
ENDBRANCH   1   2
BRANCH   1  28
ATOM     28  C   UNL     1       6.287   3.201  -3.891  1.00  0.00     0.042 C 
BRANCH  28  29
ATOM     29  C   UNL     1       6.810   3.873  -5.154  1.00  0.00     0.118 C 
BRANCH  29  30
ATOM     30  N   UNL     1       7.452   5.157  -4.895  1.00  0.00    -0.352 N 
ATOM     31  C   UNL     1       8.772   5.532  -4.996  1.00  0.00     0.251 C 
ATOM     32  H   UNL     1       6.841   5.871  -4.600  1.00  0.00     0.163 HD
ATOM     33  O   UNL     1       9.130   6.615  -4.553  1.00  0.00    -0.269 OA
BRANCH  31  34
ATOM     34  C   UNL     1       9.754   4.617  -5.614  1.00  0.00     0.039 A 
ATOM     35  C   UNL     1      11.009   4.456  -5.022  1.00  0.00     0.014 A 
ATOM     36  C   UNL     1       9.432   3.910  -6.773  1.00  0.00     0.014 A 
ATOM     37  C   UNL     1      11.904   3.519  -5.544  1.00  0.00     0.010 A 
ATOM     38  C   UNL     1      10.274   2.903  -7.222  1.00  0.00     0.010 A 
ATOM     39  C   UNL     1      11.524   2.700  -6.619  1.00  0.00    -0.014 A 
BRANCH  39  40
ATOM     40  C   UNL     1      12.413   1.638  -7.157  1.00  0.00     0.031 A 
ATOM     41  C   UNL     1      12.833   1.684  -8.602  1.00  0.00     0.074 A 
ATOM     42  C   UNL     1      12.753   0.589  -6.382  1.00  0.00     0.049 A 
ATOM     43  N   UNL     1      13.464   0.784  -9.310  1.00  0.00    -0.248 NA
ATOM     44  C   UNL     1      12.451   2.885  -9.366  1.00  0.00     0.031 C 
ATOM     45  C   UNL     1      12.360   0.401  -4.984  1.00  0.00     0.029 A 
ATOM     46  N   UNL     1      13.494  -0.530  -6.669  1.00  0.00    -0.354 N 
ATOM     47  C   UNL     1      13.520   1.291 -10.603  1.00  0.00     0.074 A 
ATOM     48  C   UNL     1      12.812   2.551 -10.595  1.00  0.00     0.031 C 
ATOM     49  C   UNL     1      12.883  -0.750  -4.529  1.00  0.00     0.029 A 
ATOM     50  C   UNL     1      13.610  -1.403  -5.612  1.00  0.00     0.049 A 
ATOM     51  H   UNL     1      13.904  -0.694  -7.549  1.00  0.00     0.167 HD
ATOM     52  C   UNL     1      14.131   0.768 -11.692  1.00  0.00     0.037 A 
ATOM     53  C   UNL     1      14.226  -2.598  -5.529  1.00  0.00     0.037 A 
ATOM     54  C   UNL     1      14.883  -0.458 -11.676  1.00  0.00     0.049 A 
ATOM     55  C   UNL     1      14.935  -3.139  -6.741  1.00  0.00     0.074 A 
ATOM     56  C   UNL     1      15.600  -1.042 -12.706  1.00  0.00     0.029 A 
ATOM     57  N   UNL     1      15.028  -1.281 -10.569  1.00  0.00    -0.354 N 
ATOM     58  N   UNL     1      15.020  -2.622  -7.944  1.00  0.00    -0.248 NA
ATOM     59  C   UNL     1      15.636  -4.421  -6.585  1.00  0.00     0.031 C 
ATOM     60  C   UNL     1      16.155  -2.234 -12.228  1.00  0.00     0.029 A 
ATOM     61  C   UNL     1      15.818  -2.370 -10.891  1.00  0.00     0.049 A 
ATOM     62  H   UNL     1      14.628  -1.114  -9.685  1.00  0.00     0.167 HD
ATOM     63  C   UNL     1      15.810  -3.499  -8.679  1.00  0.00     0.074 A 
ATOM     64  C   UNL     1      16.182  -4.576  -7.784  1.00  0.00     0.031 C 
ATOM     65  C   UNL     1      16.194  -3.420  -9.977  1.00  0.00     0.037 A 
BRANCH  52  66
ATOM     66  C   UNL     1      14.023   1.530 -12.984  1.00  0.00     0.058 A 
ATOM     67  C   UNL     1      14.679   2.757 -13.173  1.00  0.00     0.135 A 
ATOM     68  C   UNL     1      13.270   1.020 -14.054  1.00  0.00     0.135 A 
ATOM     69  F   UNL     1      15.398   3.300 -12.177  1.00  0.00    -0.206 F 
ATOM     70  C   UNL     1      14.563   3.470 -14.362  1.00  0.00     0.059 A 
ATOM     71  C   UNL     1      13.165   1.702 -15.264  1.00  0.00     0.059 A 
ATOM     72  F   UNL     1      12.621  -0.148 -13.929  1.00  0.00    -0.206 F 
ATOM     73  C   UNL     1      13.801   2.935 -15.401  1.00  0.00     0.060 A 
BRANCH  73  74
ATOM     74  S   UNL     1      13.661   3.872 -16.937  1.00  0.00     0.124 S 
ATOM     75  O   UNL     1      12.735   4.931 -16.547  1.00  0.00    -0.237 OA
ATOM     76  O   UNL     1      15.038   4.292 -17.176  1.00  0.00    -0.237 OA
ATOM     77  O   UNL     1      13.134   2.894 -17.884  1.00  0.00    -0.744 OA
ENDBRANCH  73  74
ENDBRANCH  52  66
BRANCH  53  78
ATOM     78  C   UNL     1      14.230  -3.346  -4.244  1.00  0.00     0.058 A 
ATOM     79  C   UNL     1      15.402  -3.454  -3.480  1.00  0.00     0.135 A 
ATOM     80  C   UNL     1      13.067  -3.953  -3.744  1.00  0.00     0.135 A 
ATOM     81  F   UNL     1      16.540  -2.894  -3.917  1.00  0.00    -0.206 F 
ATOM     82  C   UNL     1      15.428  -4.151  -2.276  1.00  0.00     0.059 A 
ATOM     83  C   UNL     1      13.062  -4.635  -2.531  1.00  0.00     0.059 A 
ATOM     84  F   UNL     1      11.915  -3.862  -4.427  1.00  0.00    -0.206 F 
ATOM     85  C   UNL     1      14.250  -4.738  -1.809  1.00  0.00     0.060 A 
BRANCH  85  86
ATOM     86  S   UNL     1      14.284  -5.600  -0.223  1.00  0.00     0.124 S 
ATOM     87  O   UNL     1      14.984  -6.830  -0.572  1.00  0.00    -0.237 OA
ATOM     88  O   UNL     1      15.020  -4.663   0.621  1.00  0.00    -0.237 OA
ATOM     89  O   UNL     1      12.869  -5.749   0.107  1.00  0.00    -0.744 OA
ENDBRANCH  85  86
ENDBRANCH  53  78
BRANCH  65  90
ATOM     90  C   UNL     1      17.100  -4.498 -10.498  1.00  0.00     0.058 A 
ATOM     91  C   UNL     1      16.625  -5.785 -10.788  1.00  0.00     0.135 A 
ATOM     92  C   UNL     1      18.448  -4.215 -10.774  1.00  0.00     0.135 A 
ATOM     93  F   UNL     1      15.346  -6.106 -10.536  1.00  0.00    -0.206 F 
ATOM     94  C   UNL     1      17.459  -6.762 -11.321  1.00  0.00     0.059 A 
ATOM     95  C   UNL     1      19.293  -5.169 -11.330  1.00  0.00     0.059 A 
ATOM     96  F   UNL     1      18.948  -2.994 -10.524  1.00  0.00    -0.206 F 
ATOM     97  C   UNL     1      18.792  -6.443 -11.591  1.00  0.00     0.060 A 
BRANCH  97  98
ATOM     98  S   UNL     1      19.853  -7.705 -12.327  1.00  0.00     0.124 S 
ATOM     99  O   UNL     1      20.114  -8.572 -11.182  1.00  0.00    -0.237 OA
ATOM    100  O   UNL     1      18.996  -8.267 -13.366  1.00  0.00    -0.237 OA
ATOM    101  O   UNL     1      20.999  -6.943 -12.813  1.00  0.00    -0.744 OA
ENDBRANCH  97  98
ENDBRANCH  65  90
ENDBRANCH  39  40
ENDBRANCH  31  34
ENDBRANCH  29  30
ENDBRANCH  28  29
ENDBRANCH   1  28
TORSDOF 19
