REMARK SMILES O=C(NCCCNC(=O)[C@@H]1CCCN1S(=O)(=O)c1ccc2c3c(cccc13)C(=O)N2)c1ccc(-c2c3nc(c(-c4c(F)cc(S(=O)(=O)[O-])cc4F)c4ccc([nH]4)c(-c4c(F)cc(S(=O)(=O)[O-])cc4F)c4nc(c(-c5c(F)cc(S(=O)(=O)[O-])cc5F)c5ccc2[nH]5)C=C4)C=C3)cc1
REMARK SMILES IDX 4 1 3 2 1 3 2 4 31 6 32 7 96 8 33 9 95 10 34 11 35 12 36 13
REMARK SMILES IDX 89 14 37 15 94 16 88 17 90 18 38 19 93 20 87 21 86 22 39 24
REMARK SMILES IDX 73 25 52 26 72 27 53 28 56 29 71 30 91 31 54 32 55 33 70 35
REMARK SMILES IDX 92 36 57 37 40 38 41 39 50 40 42 41 43 42 49 43 51 44 44 45
REMARK SMILES IDX 45 46 46 47 47 48 48 49 74 50 75 51 84 52 76 53 77 54 83 55
REMARK SMILES IDX 85 56 78 57 79 58 80 59 81 60 82 61 58 62 59 63 68 64 60 65
REMARK SMILES IDX 61 66 67 67 69 68 62 69 63 70 64 71 65 72 66 73 5 74 6 75
REMARK SMILES IDX 7 76 8 77 9 79 10 80 11 81 14 82 12 83 13 84 15 85 16 86
REMARK SMILES IDX 17 87 18 88 19 89 27 90 20 91 22 92 26 93 21 94 23 95 25 96
REMARK SMILES IDX 30 97 24 98 28 99 29 101
REMARK H PARENT 3 5 90 23 56 34 7 78 30 100
REMARK Flexibility Score: inf
ROOT
ATOM      1  C   UNL     1       3.303  -0.672   1.227  1.00  0.00     0.118 C 
ENDROOT
BRANCH   1   2
ATOM      2  N   UNL     1       1.968  -0.642   0.669  1.00  0.00    -0.352 N 
ATOM      3  O   UNL     1       0.332   0.205  -0.610  1.00  0.00    -0.269 OA
ATOM      4  C   UNL     1       1.533  -0.020  -0.479  1.00  0.00     0.251 C 
ATOM      5  H   UNL     1       1.280  -1.130   1.178  1.00  0.00     0.163 HD
BRANCH   4   6
ATOM      6  C   UNL     1       2.476   0.376  -1.559  1.00  0.00     0.039 A 
ATOM      7  C   UNL     1       3.426  -0.515  -2.061  1.00  0.00     0.014 A 
ATOM      8  C   UNL     1       2.310   1.617  -2.183  1.00  0.00     0.014 A 
ATOM      9  C   UNL     1       4.239  -0.141  -3.142  1.00  0.00     0.010 A 
ATOM     10  C   UNL     1       3.106   1.976  -3.284  1.00  0.00     0.010 A 
ATOM     11  C   UNL     1       4.096   1.109  -3.772  1.00  0.00    -0.014 A 
BRANCH  11  12
ATOM     12  C   UNL     1       4.934   1.483  -4.957  1.00  0.00     0.031 A 
ATOM     13  C   UNL     1       5.862   2.679  -4.920  1.00  0.00     0.074 A 
ATOM     14  C   UNL     1       4.870   0.746  -6.088  1.00  0.00     0.049 A 
ATOM     15  N   UNL     1       6.630   3.162  -5.867  1.00  0.00    -0.248 NA
ATOM     16  C   UNL     1       5.951   3.421  -3.653  1.00  0.00     0.031 C 
ATOM     17  C   UNL     1       4.045  -0.450  -6.273  1.00  0.00     0.029 A 
ATOM     18  N   UNL     1       5.512   0.889  -7.297  1.00  0.00    -0.354 N 
ATOM     19  C   UNL     1       7.307   4.242  -5.309  1.00  0.00     0.074 A 
ATOM     20  C   UNL     1       6.830   4.372  -3.948  1.00  0.00     0.031 C 
ATOM     21  C   UNL     1       4.253  -0.947  -7.502  1.00  0.00     0.029 A 
ATOM     22  C   UNL     1       5.173  -0.072  -8.223  1.00  0.00     0.049 A 
ATOM     23  H   UNL     1       6.154   1.612  -7.482  1.00  0.00     0.167 HD
ATOM     24  C   UNL     1       8.248   5.045  -5.867  1.00  0.00     0.037 A 
ATOM     25  C   UNL     1       5.534  -0.227  -9.513  1.00  0.00     0.037 A 
ATOM     26  C   UNL     1       8.704   4.950  -7.232  1.00  0.00     0.049 A 
ATOM     27  C   UNL     1       6.471   0.768 -10.146  1.00  0.00     0.074 A 
ATOM     28  C   UNL     1       9.629   5.748  -7.887  1.00  0.00     0.029 A 
ATOM     29  N   UNL     1       8.272   4.010  -8.155  1.00  0.00    -0.354 N 
ATOM     30  N   UNL     1       7.098   1.781  -9.597  1.00  0.00    -0.248 NA
ATOM     31  C   UNL     1       6.743   0.602 -11.582  1.00  0.00     0.031 C 
ATOM     32  C   UNL     1       9.717   5.324  -9.217  1.00  0.00     0.029 A 
ATOM     33  C   UNL     1       8.892   4.225  -9.377  1.00  0.00     0.049 A 
ATOM     34  H   UNL     1       7.620   3.295  -7.970  1.00  0.00     0.167 HD
ATOM     35  C   UNL     1       7.863   2.348 -10.612  1.00  0.00     0.074 A 
ATOM     36  C   UNL     1       7.636   1.557 -11.802  1.00  0.00     0.031 C 
ATOM     37  C   UNL     1       8.677   3.431 -10.560  1.00  0.00     0.037 A 
BRANCH  24  38
ATOM     38  C   UNL     1       8.877   6.112  -5.007  1.00  0.00     0.058 A 
ATOM     39  C   UNL     1       9.821   5.786  -4.021  1.00  0.00     0.135 A 
ATOM     40  C   UNL     1       8.632   7.474  -5.251  1.00  0.00     0.135 A 
ATOM     41  F   UNL     1      10.082   4.500  -3.735  1.00  0.00    -0.206 F 
ATOM     42  C   UNL     1      10.503   6.770  -3.311  1.00  0.00     0.059 A 
ATOM     43  C   UNL     1       9.319   8.476  -4.569  1.00  0.00     0.059 A 
ATOM     44  F   UNL     1       7.740   7.844  -6.184  1.00  0.00    -0.206 F 
ATOM     45  C   UNL     1      10.254   8.113  -3.601  1.00  0.00     0.060 A 
BRANCH  45  46
ATOM     46  S   UNL     1      11.187   9.372  -2.702  1.00  0.00     0.124 S 
ATOM     47  O   UNL     1      10.684   9.196  -1.343  1.00  0.00    -0.237 OA
ATOM     48  O   UNL     1      12.566   8.954  -2.927  1.00  0.00    -0.237 OA
ATOM     49  O   UNL     1      10.797  10.618  -3.355  1.00  0.00    -0.744 OA
ENDBRANCH  45  46
ENDBRANCH  24  38
BRANCH  25  50
ATOM     50  C   UNL     1       5.004  -1.365 -10.317  1.00  0.00     0.058 A 
ATOM     51  C   UNL     1       5.863  -2.361 -10.806  1.00  0.00     0.135 A 
ATOM     52  C   UNL     1       3.643  -1.458 -10.651  1.00  0.00     0.135 A 
ATOM     53  F   UNL     1       7.175  -2.310 -10.529  1.00  0.00    -0.206 F 
ATOM     54  C   UNL     1       5.400  -3.388 -11.622  1.00  0.00     0.059 A 
ATOM     55  C   UNL     1       3.150  -2.496 -11.436  1.00  0.00     0.059 A 
ATOM     56  F   UNL     1       2.775  -0.536 -10.206  1.00  0.00    -0.206 F 
ATOM     57  C   UNL     1       4.041  -3.446 -11.932  1.00  0.00     0.060 A 
BRANCH  57  58
ATOM     58  S   UNL     1       3.453  -4.787 -12.990  1.00  0.00     0.124 S 
ATOM     59  O   UNL     1       4.035  -4.423 -14.277  1.00  0.00    -0.237 OA
ATOM     60  O   UNL     1       4.025  -5.962 -12.339  1.00  0.00    -0.237 OA
ATOM     61  O   UNL     1       2.000  -4.674 -12.900  1.00  0.00    -0.744 OA
ENDBRANCH  57  58
ENDBRANCH  25  50
BRANCH  37  62
ATOM     62  C   UNL     1       9.418   3.811 -11.816  1.00  0.00     0.058 A 
ATOM     63  C   UNL     1       8.755   4.347 -12.931  1.00  0.00     0.135 A 
ATOM     64  C   UNL     1      10.814   3.674 -11.892  1.00  0.00     0.135 A 
ATOM     65  F   UNL     1       7.421   4.497 -12.917  1.00  0.00    -0.206 F 
ATOM     66  C   UNL     1       9.444   4.704 -14.087  1.00  0.00     0.059 A 
ATOM     67  C   UNL     1      11.528   4.055 -13.025  1.00  0.00     0.059 A 
ATOM     68  F   UNL     1      11.503   3.178 -10.852  1.00  0.00    -0.206 F 
ATOM     69  C   UNL     1      10.832   4.557 -14.123  1.00  0.00     0.060 A 
BRANCH  69  70
ATOM     70  S   UNL     1      11.711   5.044 -15.623  1.00  0.00     0.124 S 
ATOM     71  O   UNL     1      11.278   4.018 -16.567  1.00  0.00    -0.237 OA
ATOM     72  O   UNL     1      11.191   6.387 -15.864  1.00  0.00    -0.237 OA
ATOM     73  O   UNL     1      13.116   4.982 -15.232  1.00  0.00    -0.744 OA
ENDBRANCH  69  70
ENDBRANCH  37  62
ENDBRANCH  11  12
ENDBRANCH   4   6
ENDBRANCH   1   2
BRANCH   1  74
ATOM     74  C   UNL     1       3.497   0.426   2.269  1.00  0.00     0.042 C 
BRANCH  74  75
ATOM     75  C   UNL     1       3.240   0.062   3.732  1.00  0.00     0.117 C 
BRANCH  75  76
ATOM     76  N   UNL     1       3.964  -1.107   4.191  1.00  0.00    -0.355 N 
ATOM     77  C   UNL     1       4.886  -1.296   5.162  1.00  0.00     0.238 C 
ATOM     78  H   UNL     1       3.739  -1.928   3.697  1.00  0.00     0.163 HD
ATOM     79  O   UNL     1       5.126  -2.483   5.433  1.00  0.00    -0.273 OA
BRANCH  77  80
ATOM     80  C   UNL     1       5.607  -0.210   5.929  1.00  0.00     0.162 C 
ATOM     81  C   UNL     1       4.704   0.479   6.955  1.00  0.00     0.032 C 
ATOM     82  N   UNL     1       6.548   0.819   5.433  1.00  0.00    -0.185 NA
ATOM     83  C   UNL     1       5.561   1.612   7.481  1.00  0.00     0.019 C 
ATOM     84  C   UNL     1       6.337   2.059   6.257  1.00  0.00     0.103 C 
BRANCH  82  85
ATOM     85  S   UNL     1       6.982   1.214   3.853  1.00  0.00     0.244 S 
ATOM     86  O   UNL     1       5.888   2.029   3.364  1.00  0.00    -0.207 OA
ATOM     87  O   UNL     1       8.311   1.781   3.942  1.00  0.00    -0.207 OA
BRANCH  85  88
ATOM     88  C   UNL     1       7.119  -0.195   2.786  1.00  0.00     0.090 A 
ATOM     89  C   UNL     1       7.182  -1.509   3.295  1.00  0.00     0.024 A 
ATOM     90  C   UNL     1       7.095   0.032   1.374  1.00  0.00     0.005 A 
ATOM     91  C   UNL     1       7.016  -2.638   2.463  1.00  0.00     0.028 A 
ATOM     92  C   UNL     1       6.989  -1.097   0.617  1.00  0.00     0.019 A 
ATOM     93  C   UNL     1       7.164   1.231   0.617  1.00  0.00     0.010 A 
ATOM     94  C   UNL     1       6.896  -2.376   1.113  1.00  0.00     0.050 A 
ATOM     95  C   UNL     1       6.933  -1.161  -0.767  1.00  0.00     0.050 A 
ATOM     96  C   UNL     1       7.180   1.204  -0.792  1.00  0.00     0.002 A 
ATOM     97  N   UNL     1       6.717  -3.223   0.034  1.00  0.00    -0.321 N 
ATOM     98  C   UNL     1       7.082   0.004  -1.512  1.00  0.00     0.014 A 
ATOM     99  C   UNL     1       6.725  -2.530  -1.184  1.00  0.00     0.256 C 
ATOM    100  H   UNL     1       6.597  -4.197   0.113  1.00  0.00     0.170 HD
ATOM    101  O   UNL     1       6.547  -3.053  -2.278  1.00  0.00    -0.269 OA
ENDBRANCH  85  88
ENDBRANCH  82  85
ENDBRANCH  77  80
ENDBRANCH  75  76
ENDBRANCH  74  75
ENDBRANCH   1  74
TORSDOF 15
