REMARK SMILES COc1cc2c(c(OC)c1)[C@H](C)C[C@H](CC(=O)NCCCNC(=O)c1ccc(-c3c4nc(c(-c5c(F)cc(S(=O)(=O)[O-])cc5F)c5ccc([nH]5)c(-c5c(F)cc(S(=O)(=O)[O-])cc5F)c5nc(c(-c6c(F)cc(S(=O)(=O)[O-])cc6F)c6ccc3[nH]6)C=C5)C=C4)cc1)C2
REMARK SMILES IDX 20 1 19 2 18 3 16 4 17 5 15 7 14 8 3 9 4 10 10 11 5 12 7 13
REMARK SMILES IDX 6 14 91 15 11 16 12 17 13 18 2 19 1 20 8 21 9 22 21 23 22 24
REMARK SMILES IDX 23 25 24 27 25 28 26 29 90 30 27 31 89 32 28 33 29 34 30 35
REMARK SMILES IDX 83 36 31 37 88 38 82 39 84 40 32 41 87 42 81 43 80 44 33 46
REMARK SMILES IDX 67 47 46 48 66 49 47 50 50 51 65 52 85 53 48 54 49 55 64 57
REMARK SMILES IDX 86 58 51 59 34 60 35 61 44 62 36 63 37 64 43 65 45 66 38 67
REMARK SMILES IDX 39 68 40 69 41 70 42 71 68 72 69 73 78 74 70 75 71 76 77 77
REMARK SMILES IDX 79 78 72 79 73 80 74 81 75 82 76 83 52 84 53 85 62 86 54 87
REMARK SMILES IDX 55 88 61 89 63 90 56 91 57 92 58 93 59 94 60 95
REMARK H PARENT 18 6 22 26 84 45 50 56
REMARK Flexibility Score: inf
ROOT
ATOM      1  C   UNL     1       2.169   3.425   9.544  1.00  0.00     0.042 C 
ENDROOT
BRANCH   1   2
ATOM      2  C   UNL     1       0.701   3.889   9.552  1.00  0.00     0.117 C 
BRANCH   2   3
ATOM      3  N   UNL     1       0.450   5.156   8.864  1.00  0.00    -0.356 N 
ATOM      4  C   UNL     1      -0.297   5.481   7.765  1.00  0.00     0.220 C 
ATOM      5  O   UNL     1      -0.436   6.682   7.513  1.00  0.00    -0.275 OA
ATOM      6  H   UNL     1       0.910   5.925   9.271  1.00  0.00     0.163 HD
BRANCH   4   7
ATOM      7  C   UNL     1      -0.924   4.432   6.845  1.00  0.00     0.104 C 
BRANCH   7   8
ATOM      8  C   UNL     1       0.052   3.952   5.744  1.00  0.00     0.003 C 
ATOM      9  C   UNL     1       0.923   1.576   1.512  1.00  0.00     0.122 A 
ATOM     10  C   UNL     1       0.035   2.198   2.392  1.00  0.00     0.050 A 
ATOM     11  C   UNL     1       2.230   1.320   1.915  1.00  0.00     0.093 A 
ATOM     12  C   UNL     1       0.419   2.503   3.709  1.00  0.00    -0.037 A 
ATOM     13  C   UNL     1       2.637   1.625   3.212  1.00  0.00     0.126 A 
ATOM     14  C   UNL     1       1.725   2.170   4.139  1.00  0.00     0.000 A 
ATOM     15  C   UNL     1      -0.606   3.099   4.657  1.00  0.00     0.040 C 
ATOM     16  C   UNL     1       2.126   2.361   5.576  1.00  0.00     0.020 C 
ATOM     17  C   UNL     1       2.415   1.026   6.286  1.00  0.00     0.013 C 
ATOM     18  C   UNL     1       1.135   3.143   6.423  1.00  0.00     0.012 C 
BRANCH   9  19
ATOM     19  O   UNL     1       0.427   1.263   0.274  1.00  0.00    -0.497 OA
ATOM     20  C   UNL     1       0.971   0.065  -0.281  1.00  0.00     0.278 C 
ENDBRANCH   9  19
BRANCH  13  21
ATOM     21  O   UNL     1       3.907   1.206   3.516  1.00  0.00    -0.496 OA
ATOM     22  C   UNL     1       4.797   2.212   3.994  1.00  0.00     0.278 C 
ENDBRANCH  13  21
ENDBRANCH   7   8
ENDBRANCH   4   7
ENDBRANCH   2   3
ENDBRANCH   1   2
BRANCH   1  23
ATOM     23  C   UNL     1       3.141   4.301  10.328  1.00  0.00     0.118 C 
BRANCH  23  24
ATOM     24  N   UNL     1       3.470   3.695  11.605  1.00  0.00    -0.352 N 
ATOM     25  C   UNL     1       4.547   2.929  11.987  1.00  0.00     0.251 C 
ATOM     26  H   UNL     1       2.812   3.859  12.318  1.00  0.00     0.163 HD
ATOM     27  O   UNL     1       4.435   2.251  13.008  1.00  0.00    -0.269 OA
BRANCH  25  28
ATOM     28  C   UNL     1       5.827   2.894  11.227  1.00  0.00     0.039 A 
ATOM     29  C   UNL     1       6.593   1.721  11.272  1.00  0.00     0.014 A 
ATOM     30  C   UNL     1       6.355   4.016  10.583  1.00  0.00     0.014 A 
ATOM     31  C   UNL     1       7.859   1.670  10.673  1.00  0.00     0.010 A 
ATOM     32  C   UNL     1       7.585   3.942   9.918  1.00  0.00     0.010 A 
ATOM     33  C   UNL     1       8.367   2.778   9.979  1.00  0.00    -0.014 A 
BRANCH  33  34
ATOM     34  C   UNL     1       9.723   2.749   9.359  1.00  0.00     0.031 A 
ATOM     35  C   UNL     1      10.806   3.684   9.840  1.00  0.00     0.074 A 
ATOM     36  C   UNL     1       9.978   1.922   8.326  1.00  0.00     0.049 A 
ATOM     37  N   UNL     1      12.024   3.847   9.386  1.00  0.00    -0.248 NA
ATOM     38  C   UNL     1      10.463   4.572  10.961  1.00  0.00     0.031 C 
ATOM     39  C   UNL     1       9.012   1.001   7.724  1.00  0.00     0.029 A 
ATOM     40  N   UNL     1      11.121   1.735   7.586  1.00  0.00    -0.354 N 
ATOM     41  C   UNL     1      12.581   4.873  10.143  1.00  0.00     0.074 A 
ATOM     42  C   UNL     1      11.551   5.323  11.055  1.00  0.00     0.031 C 
ATOM     43  C   UNL     1       9.603   0.344   6.714  1.00  0.00     0.029 A 
ATOM     44  C   UNL     1      10.979   0.815   6.574  1.00  0.00     0.049 A 
ATOM     45  H   UNL     1      11.962   2.214   7.765  1.00  0.00     0.167 HD
ATOM     46  C   UNL     1      13.837   5.383  10.101  1.00  0.00     0.037 A 
ATOM     47  C   UNL     1      11.849   0.402   5.631  1.00  0.00     0.037 A 
ATOM     48  C   UNL     1      14.873   4.912   9.217  1.00  0.00     0.049 A 
ATOM     49  C   UNL     1      13.249   0.950   5.620  1.00  0.00     0.074 A 
ATOM     50  C   UNL     1      16.198   5.307   9.157  1.00  0.00     0.029 A 
ATOM     51  N   UNL     1      14.700   3.947   8.235  1.00  0.00    -0.354 N 
ATOM     52  N   UNL     1      13.780   1.864   6.395  1.00  0.00    -0.248 NA
ATOM     53  C   UNL     1      14.171   0.403   4.615  1.00  0.00     0.031 C 
ATOM     54  C   UNL     1      16.816   4.611   8.111  1.00  0.00     0.029 A 
ATOM     55  C   UNL     1      15.887   3.750   7.548  1.00  0.00     0.049 A 
ATOM     56  H   UNL     1      13.857   3.472   8.054  1.00  0.00     0.167 HD
ATOM     57  C   UNL     1      15.102   1.994   5.982  1.00  0.00     0.074 A 
ATOM     58  C   UNL     1      15.294   1.052   4.898  1.00  0.00     0.031 C 
ATOM     59  C   UNL     1      16.068   2.817   6.462  1.00  0.00     0.037 A 
BRANCH  46  60
ATOM     60  C   UNL     1      14.151   6.522  11.035  1.00  0.00     0.058 A 
ATOM     61  C   UNL     1      14.235   6.339  12.425  1.00  0.00     0.135 A 
ATOM     62  C   UNL     1      14.358   7.818  10.534  1.00  0.00     0.135 A 
ATOM     63  F   UNL     1      14.039   5.124  12.960  1.00  0.00    -0.206 F 
ATOM     64  C   UNL     1      14.454   7.408  13.289  1.00  0.00     0.059 A 
ATOM     65  C   UNL     1      14.608   8.897  11.378  1.00  0.00     0.059 A 
ATOM     66  F   UNL     1      14.299   8.050   9.213  1.00  0.00    -0.206 F 
ATOM     67  C   UNL     1      14.626   8.687  12.756  1.00  0.00     0.060 A 
BRANCH  67  68
ATOM     68  S   UNL     1      14.855  10.073  13.889  1.00  0.00     0.124 S 
ATOM     69  O   UNL     1      13.493  10.281  14.369  1.00  0.00    -0.237 OA
ATOM     70  O   UNL     1      15.795   9.532  14.864  1.00  0.00    -0.237 OA
ATOM     71  O   UNL     1      15.386  11.128  13.030  1.00  0.00    -0.744 OA
ENDBRANCH  67  68
ENDBRANCH  46  60
BRANCH  47  72
ATOM     72  C   UNL     1      11.406  -0.608   4.634  1.00  0.00     0.058 A 
ATOM     73  C   UNL     1      11.824  -1.943   4.722  1.00  0.00     0.135 A 
ATOM     74  C   UNL     1      10.495  -0.271   3.620  1.00  0.00     0.135 A 
ATOM     75  F   UNL     1      12.701  -2.310   5.669  1.00  0.00    -0.206 F 
ATOM     76  C   UNL     1      11.346  -2.914   3.848  1.00  0.00     0.059 A 
ATOM     77  C   UNL     1       9.987  -1.228   2.748  1.00  0.00     0.059 A 
ATOM     78  F   UNL     1      10.054   0.992   3.506  1.00  0.00    -0.206 F 
ATOM     79  C   UNL     1      10.417  -2.548   2.872  1.00  0.00     0.060 A 
BRANCH  79  80
ATOM     80  S   UNL     1       9.720  -3.837   1.814  1.00  0.00     0.124 S 
ATOM     81  O   UNL     1      10.837  -4.120   0.920  1.00  0.00    -0.237 OA
ATOM     82  O   UNL     1       9.394  -4.882   2.779  1.00  0.00    -0.237 OA
ATOM     83  O   UNL     1       8.570  -3.180   1.200  1.00  0.00    -0.744 OA
ENDBRANCH  79  80
ENDBRANCH  47  72
BRANCH  59  84
ATOM     84  C   UNL     1      17.429   2.734   5.827  1.00  0.00     0.058 A 
ATOM     85  C   UNL     1      17.679   3.262   4.551  1.00  0.00     0.135 A 
ATOM     86  C   UNL     1      18.508   2.169   6.526  1.00  0.00     0.135 A 
ATOM     87  F   UNL     1      16.681   3.808   3.838  1.00  0.00    -0.206 F 
ATOM     88  C   UNL     1      18.948   3.216   3.981  1.00  0.00     0.059 A 
ATOM     89  C   UNL     1      19.790   2.133   5.985  1.00  0.00     0.059 A 
ATOM     90  F   UNL     1      18.326   1.658   7.754  1.00  0.00    -0.206 F 
ATOM     91  C   UNL     1      19.998   2.650   4.707  1.00  0.00     0.060 A 
BRANCH  91  92
ATOM     92  S   UNL     1      21.648   2.626   3.972  1.00  0.00     0.124 S 
ATOM     93  O   UNL     1      21.518   1.552   2.993  1.00  0.00    -0.237 OA
ATOM     94  O   UNL     1      21.766   3.974   3.424  1.00  0.00    -0.237 OA
ATOM     95  O   UNL     1      22.520   2.340   5.107  1.00  0.00    -0.744 OA
ENDBRANCH  91  92
ENDBRANCH  59  84
ENDBRANCH  33  34
ENDBRANCH  25  28
ENDBRANCH  23  24
ENDBRANCH   1  23
TORSDOF 16
