REMARK SMILES COc1ccc(-n2ccnc2C[N@@H+]2Cc3[nH]cnc3C[C@H]2C(=O)NCCCNC(=O)c2ccc(-c3c4nc(c(-c5c(F)cc(S(=O)(=O)[O-])cc5F)c5ccc([nH]5)c(-c5c(F)cc(S(=O)(=O)[O-])cc5F)c5nc(c(-c6c(F)cc(S(=O)(=O)[O-])cc6F)c6ccc3[nH]6)C=C5)C=C4)cc2)cc1
REMARK SMILES IDX 25 1 24 2 22 3 23 4 21 6 13 7 14 8 15 10 20 11 16 12 19 13
REMARK SMILES IDX 17 14 18 16 12 17 11 18 7 19 8 20 9 21 10 22 6 23 3 24 4 25
REMARK SMILES IDX 98 26 5 27 97 28 2 29 1 30 26 31 27 32 28 33 29 34 30 36
REMARK SMILES IDX 31 37 32 38 96 39 33 40 95 41 34 42 35 43 36 44 89 45 37 46
REMARK SMILES IDX 94 47 88 48 90 49 38 50 93 51 87 52 86 53 39 55 73 56 52 57
REMARK SMILES IDX 72 58 53 59 56 60 71 61 91 62 54 63 55 64 70 66 92 67 57 68
REMARK SMILES IDX 40 69 41 70 50 71 42 72 43 73 49 74 51 75 44 76 45 77 46 78
REMARK SMILES IDX 47 79 48 80 74 81 75 82 84 83 76 84 77 85 83 86 85 87 78 88
REMARK SMILES IDX 79 89 80 90 81 91 82 92 58 93 59 94 68 95 60 96 61 97 67 98
REMARK SMILES IDX 69 99 62 100 63 101 64 102 65 103 66 104
REMARK H PARENT 24 5 13 9 16 15 28 35 90 54 56 65
REMARK Flexibility Score: inf
ROOT
ATOM      1  C   UNL     1       2.287   0.712   9.208  1.00  0.00     0.118 C 
ENDROOT
BRANCH   1   2
ATOM      2  N   UNL     1       1.236   1.642   9.585  1.00  0.00    -0.351 N 
ATOM      3  C   UNL     1       0.152   2.126   8.919  1.00  0.00     0.278 C 
ATOM      4  O   UNL     1      -0.688   2.741   9.588  1.00  0.00    -0.268 OA
ATOM      5  H   UNL     1       1.326   1.991  10.501  1.00  0.00     0.163 HD
BRANCH   3   6
ATOM      6  C   UNL     1      -0.059   1.956   7.405  1.00  0.00     0.280 C 
ATOM      7  N   UNL     1       0.961   2.807   6.680  1.00  0.00    -0.313 N 
ATOM      8  C   UNL     1       1.943   2.053   5.902  1.00  0.00     0.320 C 
ATOM      9  H   UNL     1       1.526   3.253   7.403  1.00  0.00     0.349 HD
ATOM     10  C   UNL     1       1.296   0.956   5.182  1.00  0.00     0.093 A 
ATOM     11  C   UNL     1      -0.320   0.469   7.005  1.00  0.00     0.134 C 
ATOM     12  N   UNL     1       1.536   0.487   3.931  1.00  0.00    -0.344 N 
ATOM     13  C   UNL     1       0.276   0.195   5.681  1.00  0.00     0.074 A 
ATOM     14  C   UNL     1       0.667  -0.554   3.736  1.00  0.00     0.197 A 
ATOM     15  H   UNL     1       2.202   0.828   3.291  1.00  0.00     0.167 HD
ATOM     16  N   UNL     1      -0.110  -0.754   4.782  1.00  0.00    -0.241 NA
BRANCH   7  17
ATOM     17  C   UNL     1       0.293   3.876   5.897  1.00  0.00     0.340 C 
BRANCH  17  18
ATOM     18  C   UNL     1       1.258   4.926   5.397  1.00  0.00     0.168 A 
ATOM     19  N   UNL     1       1.888   4.912   4.154  1.00  0.00    -0.299 N 
ATOM     20  C   UNL     1       2.977   5.750   4.271  1.00  0.00     0.113 A 
ATOM     21  C   UNL     1       2.851   6.364   5.491  1.00  0.00     0.132 A 
ATOM     22  N   UNL     1       1.774   5.873   6.165  1.00  0.00    -0.236 NA
BRANCH  19  23
ATOM     23  C   UNL     1       1.586   4.116   3.017  1.00  0.00     0.047 A 
ATOM     24  C   UNL     1       1.000   2.433   0.860  1.00  0.00     0.119 A 
ATOM     25  C   UNL     1      -0.027   3.086   1.540  1.00  0.00     0.048 A 
ATOM     26  C   UNL     1       2.328   2.670   1.215  1.00  0.00     0.048 A 
ATOM     27  C   UNL     1       0.259   3.917   2.626  1.00  0.00     0.030 A 
ATOM     28  C   UNL     1       2.625   3.523   2.285  1.00  0.00     0.030 A 
BRANCH  24  29
ATOM     29  O   UNL     1       0.625   1.641  -0.190  1.00  0.00    -0.497 OA
ATOM     30  C   UNL     1       1.261   0.366  -0.217  1.00  0.00     0.278 C 
ENDBRANCH  24  29
ENDBRANCH  19  23
ENDBRANCH  17  18
ENDBRANCH   7  17
ENDBRANCH   3   6
ENDBRANCH   1   2
BRANCH   1  31
ATOM     31  C   UNL     1       3.670   1.359   9.127  1.00  0.00     0.042 C 
BRANCH  31  32
ATOM     32  C   UNL     1       4.793   0.430   9.576  1.00  0.00     0.118 C 
BRANCH  32  33
ATOM     33  N   UNL     1       4.783  -0.887   8.937  1.00  0.00    -0.352 N 
ATOM     34  C   UNL     1       5.219  -2.087   9.482  1.00  0.00     0.251 C 
ATOM     35  H   UNL     1       4.428  -0.926   8.020  1.00  0.00     0.163 HD
ATOM     36  O   UNL     1       5.419  -3.071   8.794  1.00  0.00    -0.269 OA
BRANCH  34  37
ATOM     37  C   UNL     1       5.461  -2.107  10.937  1.00  0.00     0.039 A 
ATOM     38  C   UNL     1       6.769  -2.187  11.413  1.00  0.00     0.014 A 
ATOM     39  C   UNL     1       4.402  -1.744  11.767  1.00  0.00     0.014 A 
ATOM     40  C   UNL     1       7.035  -1.739  12.704  1.00  0.00     0.010 A 
ATOM     41  C   UNL     1       4.691  -1.203  13.007  1.00  0.00     0.010 A 
ATOM     42  C   UNL     1       6.008  -1.169  13.479  1.00  0.00    -0.014 A 
BRANCH  42  43
ATOM     43  C   UNL     1       6.370  -0.357  14.656  1.00  0.00     0.031 A 
ATOM     44  C   UNL     1       7.493   0.619  14.460  1.00  0.00     0.074 A 
ATOM     45  C   UNL     1       5.639  -0.248  15.787  1.00  0.00     0.049 A 
ATOM     46  N   UNL     1       8.653   0.629  15.034  1.00  0.00    -0.248 NA
ATOM     47  C   UNL     1       7.338   1.661  13.433  1.00  0.00     0.031 C 
ATOM     48  C   UNL     1       4.328  -0.837  16.072  1.00  0.00     0.029 A 
ATOM     49  N   UNL     1       5.868   0.531  16.886  1.00  0.00    -0.354 N 
ATOM     50  C   UNL     1       9.296   1.794  14.608  1.00  0.00     0.074 A 
ATOM     51  C   UNL     1       8.515   2.289  13.505  1.00  0.00     0.031 C 
ATOM     52  C   UNL     1       3.773  -0.208  17.128  1.00  0.00     0.029 A 
ATOM     53  C   UNL     1       4.759   0.685  17.707  1.00  0.00     0.049 A 
ATOM     54  H   UNL     1       6.739   0.947  17.078  1.00  0.00     0.167 HD
ATOM     55  C   UNL     1      10.293   2.370  15.342  1.00  0.00     0.037 A 
ATOM     56  C   UNL     1       4.635   1.487  18.790  1.00  0.00     0.037 A 
ATOM     57  C   UNL     1      10.773   1.461  16.356  1.00  0.00     0.049 A 
ATOM     58  C   UNL     1       5.998   1.760  19.302  1.00  0.00     0.074 A 
ATOM     59  C   UNL     1      11.368   0.216  16.375  1.00  0.00     0.029 A 
ATOM     60  N   UNL     1      10.351   1.703  17.639  1.00  0.00    -0.354 N 
ATOM     61  N   UNL     1       6.781   0.852  19.818  1.00  0.00    -0.248 NA
ATOM     62  C   UNL     1       6.649   3.015  18.956  1.00  0.00     0.031 C 
ATOM     63  C   UNL     1      10.908  -0.405  17.574  1.00  0.00     0.029 A 
ATOM     64  C   UNL     1      10.088   0.504  18.243  1.00  0.00     0.049 A 
ATOM     65  H   UNL     1      10.255   2.590  18.055  1.00  0.00     0.167 HD
ATOM     66  C   UNL     1       8.058   1.247  19.464  1.00  0.00     0.074 A 
ATOM     67  C   UNL     1       7.926   2.650  19.093  1.00  0.00     0.031 C 
ATOM     68  C   UNL     1       9.034   0.324  19.221  1.00  0.00     0.037 A 
BRANCH  55  69
ATOM     69  C   UNL     1      10.578   3.866  15.450  1.00  0.00     0.058 A 
ATOM     70  C   UNL     1      11.651   4.298  16.269  1.00  0.00     0.135 A 
ATOM     71  C   UNL     1       9.676   4.882  15.069  1.00  0.00     0.135 A 
ATOM     72  F   UNL     1      12.603   3.437  16.664  1.00  0.00    -0.206 F 
ATOM     73  C   UNL     1      11.732   5.591  16.790  1.00  0.00     0.059 A 
ATOM     74  C   UNL     1       9.769   6.192  15.535  1.00  0.00     0.059 A 
ATOM     75  F   UNL     1       8.607   4.646  14.303  1.00  0.00    -0.206 F 
ATOM     76  C   UNL     1      10.762   6.522  16.443  1.00  0.00     0.060 A 
BRANCH  76  77
ATOM     77  S   UNL     1      10.758   8.139  17.238  1.00  0.00     0.124 S 
ATOM     78  O   UNL     1      10.301   7.796  18.579  1.00  0.00    -0.237 OA
ATOM     79  O   UNL     1      12.156   8.542  17.120  1.00  0.00    -0.237 OA
ATOM     80  O   UNL     1       9.820   8.907  16.424  1.00  0.00    -0.744 OA
ENDBRANCH  76  77
ENDBRANCH  55  69
BRANCH  56  81
ATOM     81  C   UNL     1       3.424   2.174  19.299  1.00  0.00     0.058 A 
ATOM     82  C   UNL     1       3.386   2.716  20.595  1.00  0.00     0.135 A 
ATOM     83  C   UNL     1       2.375   2.548  18.434  1.00  0.00     0.135 A 
ATOM     84  F   UNL     1       4.351   2.424  21.479  1.00  0.00    -0.206 F 
ATOM     85  C   UNL     1       2.400   3.624  20.992  1.00  0.00     0.059 A 
ATOM     86  C   UNL     1       1.373   3.439  18.812  1.00  0.00     0.059 A 
ATOM     87  F   UNL     1       2.346   2.129  17.159  1.00  0.00    -0.206 F 
ATOM     88  C   UNL     1       1.410   3.998  20.084  1.00  0.00     0.060 A 
BRANCH  88  89
ATOM     89  S   UNL     1       0.257   5.317  20.528  1.00  0.00     0.124 S 
ATOM     90  O   UNL     1      -0.571   4.668  21.538  1.00  0.00    -0.237 OA
ATOM     91  O   UNL     1       1.155   6.360  21.013  1.00  0.00    -0.237 OA
ATOM     92  O   UNL     1      -0.416   5.617  19.267  1.00  0.00    -0.744 OA
ENDBRANCH  88  89
ENDBRANCH  56  81
BRANCH  68  93
ATOM     93  C   UNL     1       8.889  -1.044  19.829  1.00  0.00     0.058 A 
ATOM     94  C   UNL     1       7.859  -1.954  19.542  1.00  0.00     0.135 A 
ATOM     95  C   UNL     1       9.922  -1.488  20.671  1.00  0.00     0.135 A 
ATOM     96  F   UNL     1       6.890  -1.651  18.666  1.00  0.00    -0.206 F 
ATOM     97  C   UNL     1       7.830  -3.229  20.111  1.00  0.00     0.059 A 
ATOM     98  C   UNL     1       9.933  -2.766  21.220  1.00  0.00     0.059 A 
ATOM     99  F   UNL     1      10.967  -0.686  20.937  1.00  0.00    -0.206 F 
ATOM    100  C   UNL     1       8.872  -3.626  20.951  1.00  0.00     0.060 A 
BRANCH 100 101
ATOM    101  S   UNL     1       8.869  -5.297  21.634  1.00  0.00     0.124 S 
ATOM    102  O   UNL     1       7.834  -5.207  22.658  1.00  0.00    -0.237 OA
ATOM    103  O   UNL     1       8.542  -6.117  20.471  1.00  0.00    -0.237 OA
ATOM    104  O   UNL     1      10.231  -5.462  22.136  1.00  0.00    -0.744 OA
ENDBRANCH 100 101
ENDBRANCH  68  93
ENDBRANCH  42  43
ENDBRANCH  34  37
ENDBRANCH  32  33
ENDBRANCH  31  32
ENDBRANCH   1  31
TORSDOF 17
