REMARK SMILES CC(C)(C(=O)NCCCNC(=O)c1ccc(-c2c3nc(c(-c4c(F)cc(S(=O)(=O)[O-])cc4F)c4ccc([nH]4)c(-c4c(F)cc(S(=O)(=O)[O-])cc4F)c4nc(c(-c5c(F)cc(S(=O)(=O)[O-])cc5F)c5ccc2[nH]5)C=C4)C=C3)cc1)N1C(=O)/C(=C/c2ccc(C=O)cc2)SC1=S
REMARK SMILES IDX 8 1 7 2 6 3 4 4 5 5 2 7 1 8 3 9 79 10 80 11 93 12 81 13
REMARK SMILES IDX 82 14 92 15 94 16 83 17 84 18 85 19 91 20 86 21 90 22 87 23
REMARK SMILES IDX 88 24 89 25 9 26 10 27 11 28 12 30 13 31 14 32 78 33 15 34
REMARK SMILES IDX 77 35 16 36 17 37 18 38 71 39 19 40 76 41 70 42 72 43 20 44
REMARK SMILES IDX 75 45 69 46 68 47 21 49 55 50 34 51 54 52 35 53 38 54 53 55
REMARK SMILES IDX 73 56 36 57 37 58 52 60 74 61 39 62 22 63 23 64 32 65 24 66
REMARK SMILES IDX 25 67 31 68 33 69 26 70 27 71 28 72 29 73 30 74 56 75 57 76
REMARK SMILES IDX 66 77 58 78 59 79 65 80 67 81 60 82 61 83 62 84 63 85 64 86
REMARK SMILES IDX 40 87 41 88 50 89 42 90 43 91 49 92 51 93 44 94 45 95 46 96
REMARK SMILES IDX 47 97 48 98
REMARK H PARENT 6 6 10 29 72 48 38 59
REMARK Flexibility Score: inf
ROOT
ATOM      1  C   UNL     1      -1.510  -1.986   1.840  1.00  0.00     0.042 C 
ENDROOT
BRANCH   1   2
ATOM      2  C   UNL     1      -1.074  -2.328   0.425  1.00  0.00     0.117 C 
BRANCH   2   3
ATOM      3  N   UNL     1      -1.487  -1.347  -0.562  1.00  0.00    -0.354 N 
ATOM      4  C   UNL     1      -0.780  -0.583  -1.445  1.00  0.00     0.245 C 
ATOM      5  O   UNL     1      -1.450  -0.006  -2.312  1.00  0.00    -0.272 OA
ATOM      6  H   UNL     1      -2.461  -1.206  -0.603  1.00  0.00     0.163 HD
BRANCH   4   7
ATOM      7  C   UNL     1       0.780  -0.473  -1.420  1.00  0.00     0.122 C 
ATOM      8  C   UNL     1       1.309  -0.053  -0.027  1.00  0.00     0.046 C 
ATOM      9  C   UNL     1       1.387  -1.855  -1.731  1.00  0.00     0.046 C 
BRANCH   7  10
ATOM     10  N   UNL     1       1.134   0.600  -2.453  1.00  0.00    -0.278 N 
ATOM     11  C   UNL     1       0.812   1.929  -2.138  1.00  0.00     0.267 C 
ATOM     12  C   UNL     1       1.570   0.419  -3.758  1.00  0.00     0.149 C 
ATOM     13  O   UNL     1       0.304   2.341  -1.106  1.00  0.00    -0.268 OA
ATOM     14  C   UNL     1       1.132   2.846  -3.265  1.00  0.00     0.081 C 
ATOM     15  S   UNL     1       1.886   1.972  -4.523  1.00  0.00    -0.054 SA
ATOM     16  S   UNL     1       1.861  -0.944  -4.679  1.00  0.00    -0.052 S 
ATOM     17  C   UNL     1       0.838   4.156  -3.268  1.00  0.00     0.029 C 
BRANCH  17  18
ATOM     18  C   UNL     1       1.122   5.040  -4.408  1.00  0.00    -0.024 A 
ATOM     19  C   UNL     1       2.132   6.004  -4.315  1.00  0.00     0.009 A 
ATOM     20  C   UNL     1       0.449   4.859  -5.626  1.00  0.00     0.009 A 
ATOM     21  C   UNL     1       2.503   6.740  -5.444  1.00  0.00     0.012 A 
ATOM     22  C   UNL     1       0.825   5.583  -6.758  1.00  0.00     0.012 A 
ATOM     23  C   UNL     1       1.863   6.511  -6.666  1.00  0.00     0.014 A 
BRANCH  23  24
ATOM     24  C   UNL     1       2.296   7.226  -7.884  1.00  0.00     0.260 C 
ATOM     25  O   UNL     1       3.193   8.059  -7.872  1.00  0.00    -0.298 OA
ENDBRANCH  23  24
ENDBRANCH  17  18
ENDBRANCH   7  10
ENDBRANCH   4   7
ENDBRANCH   2   3
ENDBRANCH   1   2
BRANCH   1  26
ATOM     26  C   UNL     1      -3.010  -2.090   2.070  1.00  0.00     0.118 C 
BRANCH  26  27
ATOM     27  N   UNL     1      -3.522  -3.435   1.839  1.00  0.00    -0.352 N 
ATOM     28  C   UNL     1      -4.097  -4.337   2.700  1.00  0.00     0.251 C 
ATOM     29  H   UNL     1      -3.442  -3.750   0.910  1.00  0.00     0.163 HD
ATOM     30  O   UNL     1      -4.258  -5.497   2.325  1.00  0.00    -0.269 OA
BRANCH  28  31
ATOM     31  C   UNL     1      -4.508  -3.935   4.064  1.00  0.00     0.039 A 
ATOM     32  C   UNL     1      -4.369  -4.852   5.109  1.00  0.00     0.014 A 
ATOM     33  C   UNL     1      -5.063  -2.678   4.315  1.00  0.00     0.014 A 
ATOM     34  C   UNL     1      -4.730  -4.484   6.407  1.00  0.00     0.010 A 
ATOM     35  C   UNL     1      -5.318  -2.276   5.622  1.00  0.00     0.010 A 
ATOM     36  C   UNL     1      -5.174  -3.180   6.682  1.00  0.00    -0.014 A 
BRANCH  36  37
ATOM     37  C   UNL     1      -5.503  -2.758   8.068  1.00  0.00     0.031 A 
ATOM     38  C   UNL     1      -6.898  -2.306   8.416  1.00  0.00     0.074 A 
ATOM     39  C   UNL     1      -4.533  -2.744   9.004  1.00  0.00     0.049 A 
ATOM     40  N   UNL     1      -7.369  -1.897   9.566  1.00  0.00    -0.248 NA
ATOM     41  C   UNL     1      -7.886  -2.281   7.325  1.00  0.00     0.031 C 
ATOM     42  C   UNL     1      -3.129  -3.095   8.773  1.00  0.00     0.029 A 
ATOM     43  N   UNL     1      -4.576  -2.424  10.338  1.00  0.00    -0.354 N 
ATOM     44  C   UNL     1      -8.699  -1.561   9.335  1.00  0.00     0.074 A 
ATOM     45  C   UNL     1      -8.941  -1.747   7.922  1.00  0.00     0.031 C 
ATOM     46  C   UNL     1      -2.457  -3.012   9.931  1.00  0.00     0.029 A 
ATOM     47  C   UNL     1      -3.368  -2.564  10.979  1.00  0.00     0.049 A 
ATOM     48  H   UNL     1      -5.396  -2.123  10.793  1.00  0.00     0.167 HD
ATOM     49  C   UNL     1      -9.641  -1.163  10.223  1.00  0.00     0.037 A 
ATOM     50  C   UNL     1      -3.031  -2.357  12.267  1.00  0.00     0.037 A 
ATOM     51  C   UNL     1      -9.396  -1.003  11.633  1.00  0.00     0.049 A 
ATOM     52  C   UNL     1      -4.097  -1.924  13.237  1.00  0.00     0.074 A 
ATOM     53  C   UNL     1     -10.294  -0.661  12.629  1.00  0.00     0.029 A 
ATOM     54  N   UNL     1      -8.163  -1.169  12.248  1.00  0.00    -0.354 N 
ATOM     55  N   UNL     1      -5.368  -1.684  13.014  1.00  0.00    -0.248 NA
ATOM     56  C   UNL     1      -3.688  -1.747  14.636  1.00  0.00     0.031 C 
ATOM     57  C   UNL     1      -9.594  -0.569  13.837  1.00  0.00     0.029 A 
ATOM     58  C   UNL     1      -8.272  -0.915  13.605  1.00  0.00     0.049 A 
ATOM     59  H   UNL     1      -7.333  -1.430  11.787  1.00  0.00     0.167 HD
ATOM     60  C   UNL     1      -5.915  -1.355  14.249  1.00  0.00     0.074 A 
ATOM     61  C   UNL     1      -4.840  -1.446  15.216  1.00  0.00     0.031 C 
ATOM     62  C   UNL     1      -7.191  -1.010  14.556  1.00  0.00     0.037 A 
BRANCH  49  63
ATOM     63  C   UNL     1     -11.025  -0.883   9.699  1.00  0.00     0.058 A 
ATOM     64  C   UNL     1     -11.853  -1.909   9.213  1.00  0.00     0.135 A 
ATOM     65  C   UNL     1     -11.545   0.421   9.716  1.00  0.00     0.135 A 
ATOM     66  F   UNL     1     -11.403  -3.173   9.157  1.00  0.00    -0.206 F 
ATOM     67  C   UNL     1     -13.133  -1.648   8.735  1.00  0.00     0.059 A 
ATOM     68  C   UNL     1     -12.836   0.701   9.273  1.00  0.00     0.059 A 
ATOM     69  F   UNL     1     -10.799   1.442  10.168  1.00  0.00    -0.206 F 
ATOM     70  C   UNL     1     -13.617  -0.339   8.771  1.00  0.00     0.060 A 
BRANCH  70  71
ATOM     71  S   UNL     1     -15.284  -0.021   8.157  1.00  0.00     0.124 S 
ATOM     72  O   UNL     1     -15.103  -0.196   6.719  1.00  0.00    -0.237 OA
ATOM     73  O   UNL     1     -16.065  -1.056   8.827  1.00  0.00    -0.237 OA
ATOM     74  O   UNL     1     -15.553   1.345   8.594  1.00  0.00    -0.744 OA
ENDBRANCH  70  71
ENDBRANCH  49  63
BRANCH  50  75
ATOM     75  C   UNL     1      -1.632  -2.587  12.717  1.00  0.00     0.058 A 
ATOM     76  C   UNL     1      -1.311  -3.654  13.569  1.00  0.00     0.135 A 
ATOM     77  C   UNL     1      -0.585  -1.752  12.295  1.00  0.00     0.135 A 
ATOM     78  F   UNL     1      -2.276  -4.479  14.003  1.00  0.00    -0.206 F 
ATOM     79  C   UNL     1      -0.008  -3.874  14.005  1.00  0.00     0.059 A 
ATOM     80  C   UNL     1       0.731  -1.969  12.693  1.00  0.00     0.059 A 
ATOM     81  F   UNL     1      -0.834  -0.728  11.464  1.00  0.00    -0.206 F 
ATOM     82  C   UNL     1       1.007  -3.027  13.558  1.00  0.00     0.060 A 
BRANCH  82  83
ATOM     83  S   UNL     1       2.702  -3.349  14.093  1.00  0.00     0.124 S 
ATOM     84  O   UNL     1       2.650  -2.946  15.493  1.00  0.00    -0.237 OA
ATOM     85  O   UNL     1       2.834  -4.781  13.844  1.00  0.00    -0.237 OA
ATOM     86  O   UNL     1       3.497  -2.493  13.218  1.00  0.00    -0.744 OA
ENDBRANCH  82  83
ENDBRANCH  50  75
BRANCH  62  87
ATOM     87  C   UNL     1      -7.502  -0.740  16.003  1.00  0.00     0.058 A 
ATOM     88  C   UNL     1      -7.017   0.399  16.666  1.00  0.00     0.135 A 
ATOM     89  C   UNL     1      -8.321  -1.621  16.729  1.00  0.00     0.135 A 
ATOM     90  F   UNL     1      -6.227   1.272  16.021  1.00  0.00    -0.206 F 
ATOM     91  C   UNL     1      -7.300   0.633  18.008  1.00  0.00     0.059 A 
ATOM     92  C   UNL     1      -8.645  -1.388  18.061  1.00  0.00     0.059 A 
ATOM     93  F   UNL     1      -8.824  -2.717  16.140  1.00  0.00    -0.206 F 
ATOM     94  C   UNL     1      -8.114  -0.267  18.697  1.00  0.00     0.060 A 
BRANCH  94  95
ATOM     95  S   UNL     1      -8.480   0.053  20.436  1.00  0.00     0.124 S 
ATOM     96  O   UNL     1      -7.205  -0.269  21.068  1.00  0.00    -0.237 OA
ATOM     97  O   UNL     1      -8.841   1.467  20.423  1.00  0.00    -0.237 OA
ATOM     98  O   UNL     1      -9.576  -0.866  20.728  1.00  0.00    -0.744 OA
ENDBRANCH  94  95
ENDBRANCH  62  87
ENDBRANCH  36  37
ENDBRANCH  28  31
ENDBRANCH  26  27
ENDBRANCH   1  26
TORSDOF 16
