REMARK SMILES COc1cccc(-c2nn(-c3cc4c(cc3C(N)=O)OCO4)cc2C(=O)NCCCNC(=O)c2ccc(-c3c4nc(c(-c5c(F)cc(S(=O)(=O)[O-])cc5F)c5ccc([nH]5)c(-c5c(F)cc(S(=O)(=O)[O-])cc5F)c5nc(c(-c6c(F)cc(S(=O)(=O)[O-])cc6F)c6ccc3[nH]6)C=C5)C=C4)cc2)c1
REMARK SMILES IDX 29 1 28 2 27 3 25 4 26 5 24 7 8 8 9 9 10 10 23 11 7 12 3 13
REMARK SMILES IDX 4 14 100 15 5 16 6 17 2 18 1 19 11 20 12 21 16 22 13 23
REMARK SMILES IDX 15 24 14 25 22 26 20 27 21 28 17 29 18 30 19 31 30 34 31 35
REMARK SMILES IDX 32 36 33 38 34 39 35 40 99 41 36 42 98 43 37 44 38 45 39 46
REMARK SMILES IDX 92 47 40 48 97 49 91 50 93 51 41 52 96 53 90 54 89 55 42 57
REMARK SMILES IDX 76 58 55 59 75 60 56 61 59 62 74 63 94 64 57 65 58 66 73 68
REMARK SMILES IDX 95 69 60 70 43 71 44 72 53 73 45 74 46 75 52 76 54 77 47 78
REMARK SMILES IDX 48 79 49 80 50 81 51 82 77 83 78 84 87 85 79 86 80 87 86 88
REMARK SMILES IDX 88 89 81 90 82 91 83 92 84 93 85 94 61 95 62 96 71 97 63 98
REMARK SMILES IDX 64 99 70 100 72 101 65 102 66 103 67 104 68 105 69 106
REMARK H PARENT 27 6 18 32 18 33 31 37 93 56 59 67
REMARK Flexibility Score: inf
ROOT
ATOM      1  C   UNL     1       6.538   6.581   4.955  1.00  0.00     0.042 C 
ENDROOT
BRANCH   1   2
ATOM      2  C   UNL     1       5.856   5.211   5.013  1.00  0.00     0.118 C 
BRANCH   2   3
ATOM      3  N   UNL     1       4.464   5.272   4.607  1.00  0.00    -0.352 N 
ATOM      4  C   UNL     1       3.830   5.035   3.409  1.00  0.00     0.255 C 
ATOM      5  O   UNL     1       2.606   5.074   3.436  1.00  0.00    -0.269 OA
ATOM      6  H   UNL     1       3.852   5.535   5.332  1.00  0.00     0.163 HD
BRANCH   4   7
ATOM      7  C   UNL     1       4.575   4.718   2.196  1.00  0.00     0.086 A 
ATOM      8  C   UNL     1       4.080   4.178   0.955  1.00  0.00     0.106 A 
ATOM      9  N   UNL     1       5.090   3.898   0.099  1.00  0.00    -0.167 NA
ATOM     10  N   UNL     1       6.197   4.103   0.842  1.00  0.00    -0.239 N 
ATOM     11  C   UNL     1       5.920   4.870   1.944  1.00  0.00     0.129 A 
BRANCH   8  12
ATOM     12  C   UNL     1       2.684   3.927   0.585  1.00  0.00     0.007 A 
ATOM     13  C   UNL     1       0.909   2.398  -0.055  1.00  0.00     0.119 A 
ATOM     14  C   UNL     1      -0.007   3.452  -0.015  1.00  0.00     0.046 A 
ATOM     15  C   UNL     1       2.257   2.637   0.234  1.00  0.00     0.056 A 
ATOM     16  C   UNL     1       0.411   4.738   0.321  1.00  0.00     0.005 A 
ATOM     17  C   UNL     1       1.754   4.976   0.609  1.00  0.00     0.011 A 
BRANCH  13  18
ATOM     18  O   UNL     1       0.383   1.193  -0.438  1.00  0.00    -0.497 OA
ATOM     19  C   UNL     1       0.994   0.045   0.138  1.00  0.00     0.278 C 
ENDBRANCH  13  18
ENDBRANCH   8  12
BRANCH  10  20
ATOM     20  C   UNL     1       7.498   3.715   0.439  1.00  0.00     0.081 A 
ATOM     21  C   UNL     1       7.892   3.996  -0.882  1.00  0.00     0.079 A 
ATOM     22  C   UNL     1       8.418   3.155   1.377  1.00  0.00     0.069 A 
ATOM     23  C   UNL     1       9.218   3.790  -1.200  1.00  0.00     0.167 A 
ATOM     24  C   UNL     1       9.775   3.064   1.030  1.00  0.00     0.066 A 
ATOM     25  C   UNL     1      10.132   3.369  -0.263  1.00  0.00     0.166 A 
ATOM     26  O   UNL     1       9.796   3.976  -2.418  1.00  0.00    -0.454 OA
ATOM     27  O   UNL     1      11.387   3.240  -0.772  1.00  0.00    -0.454 OA
ATOM     28  C   UNL     1      11.115   3.445  -2.173  1.00  0.00     0.468 C 
BRANCH  22  29
ATOM     29  C   UNL     1       7.954   2.463   2.630  1.00  0.00     0.251 C 
ATOM     30  N   UNL     1       8.827   1.647   3.294  1.00  0.00    -0.366 N 
ATOM     31  O   UNL     1       6.804   2.516   3.050  1.00  0.00    -0.269 OA
ATOM     32  H   UNL     1       9.760   1.574   2.990  1.00  0.00     0.159 HD
ATOM     33  H   UNL     1       8.521   1.133   4.076  1.00  0.00     0.159 HD
ENDBRANCH  22  29
ENDBRANCH  10  20
ENDBRANCH   4   7
ENDBRANCH   2   3
ENDBRANCH   1   2
BRANCH   1  34
ATOM     34  C   UNL     1       6.174   7.435   6.159  1.00  0.00     0.118 C 
BRANCH  34  35
ATOM     35  N   UNL     1       6.761   6.913   7.394  1.00  0.00    -0.352 N 
ATOM     36  C   UNL     1       6.637   7.385   8.683  1.00  0.00     0.251 C 
ATOM     37  H   UNL     1       7.323   6.112   7.289  1.00  0.00     0.163 HD
ATOM     38  O   UNL     1       7.444   7.044   9.539  1.00  0.00    -0.269 OA
BRANCH  36  39
ATOM     39  C   UNL     1       5.536   8.309   9.013  1.00  0.00     0.039 A 
ATOM     40  C   UNL     1       5.743   9.372   9.897  1.00  0.00     0.014 A 
ATOM     41  C   UNL     1       4.288   8.110   8.426  1.00  0.00     0.014 A 
ATOM     42  C   UNL     1       4.709  10.280  10.111  1.00  0.00     0.010 A 
ATOM     43  C   UNL     1       3.318   9.077   8.529  1.00  0.00     0.010 A 
ATOM     44  C   UNL     1       3.506  10.142   9.401  1.00  0.00    -0.014 A 
BRANCH  44  45
ATOM     45  C   UNL     1       2.491  11.189   9.452  1.00  0.00     0.031 A 
ATOM     46  C   UNL     1       2.995  12.534   9.059  1.00  0.00     0.074 A 
ATOM     47  C   UNL     1       1.172  10.944   9.612  1.00  0.00     0.049 A 
ATOM     48  N   UNL     1       3.190  13.553   9.827  1.00  0.00    -0.248 NA
ATOM     49  C   UNL     1       3.508  12.719   7.691  1.00  0.00     0.031 C 
ATOM     50  C   UNL     1       0.495   9.644   9.682  1.00  0.00     0.029 A 
ATOM     51  N   UNL     1       0.130  11.819   9.636  1.00  0.00    -0.354 N 
ATOM     52  C   UNL     1       3.607  14.586   8.992  1.00  0.00     0.074 A 
ATOM     53  C   UNL     1       3.993  13.962   7.754  1.00  0.00     0.031 C 
ATOM     54  C   UNL     1      -0.833   9.814   9.499  1.00  0.00     0.029 A 
ATOM     55  C   UNL     1      -1.123  11.236   9.465  1.00  0.00     0.049 A 
ATOM     56  H   UNL     1       0.252  12.787   9.765  1.00  0.00     0.167 HD
ATOM     57  C   UNL     1       3.352  15.888   9.305  1.00  0.00     0.037 A 
ATOM     58  C   UNL     1      -2.307  11.878   9.280  1.00  0.00     0.037 A 
ATOM     59  C   UNL     1       2.922  16.008  10.677  1.00  0.00     0.049 A 
ATOM     60  C   UNL     1      -2.123  13.268   9.774  1.00  0.00     0.074 A 
ATOM     61  C   UNL     1       3.472  15.687  11.903  1.00  0.00     0.029 A 
ATOM     62  N   UNL     1       1.575  16.171  10.898  1.00  0.00    -0.354 N 
ATOM     63  N   UNL     1      -1.931  13.573  11.028  1.00  0.00    -0.248 NA
ATOM     64  C   UNL     1      -1.691  14.276   8.818  1.00  0.00     0.031 C 
ATOM     65  C   UNL     1       2.379  15.207  12.682  1.00  0.00     0.029 A 
ATOM     66  C   UNL     1       1.214  15.337  11.923  1.00  0.00     0.049 A 
ATOM     67  H   UNL     1       0.976  16.778  10.406  1.00  0.00     0.167 HD
ATOM     68  C   UNL     1      -0.967  14.569  11.005  1.00  0.00     0.074 A 
ATOM     69  C   UNL     1      -0.932  15.030   9.618  1.00  0.00     0.031 C 
ATOM     70  C   UNL     1      -0.090  14.723  12.041  1.00  0.00     0.037 A 
BRANCH  57  71
ATOM     71  C   UNL     1       3.103  16.996   8.303  1.00  0.00     0.058 A 
ATOM     72  C   UNL     1       2.968  18.321   8.773  1.00  0.00     0.135 A 
ATOM     73  C   UNL     1       2.707  16.786   6.965  1.00  0.00     0.135 A 
ATOM     74  F   UNL     1       3.315  18.641  10.030  1.00  0.00    -0.206 F 
ATOM     75  C   UNL     1       2.401  19.336   8.003  1.00  0.00     0.059 A 
ATOM     76  C   UNL     1       2.190  17.797   6.161  1.00  0.00     0.059 A 
ATOM     77  F   UNL     1       2.707  15.576   6.396  1.00  0.00    -0.206 F 
ATOM     78  C   UNL     1       2.001  19.058   6.701  1.00  0.00     0.060 A 
BRANCH  78  79
ATOM     79  S   UNL     1       1.188  20.341   5.734  1.00  0.00     0.124 S 
ATOM     80  O   UNL     1      -0.088  20.464   6.429  1.00  0.00    -0.237 OA
ATOM     81  O   UNL     1       2.111  21.462   5.885  1.00  0.00    -0.237 OA
ATOM     82  O   UNL     1       1.127  19.763   4.395  1.00  0.00    -0.744 OA
ENDBRANCH  78  79
ENDBRANCH  57  71
BRANCH  58  83
ATOM     83  C   UNL     1      -3.476  11.478   8.449  1.00  0.00     0.058 A 
ATOM     84  C   UNL     1      -4.700  12.169   8.537  1.00  0.00     0.135 A 
ATOM     85  C   UNL     1      -3.335  10.613   7.346  1.00  0.00     0.135 A 
ATOM     86  F   UNL     1      -4.922  13.024   9.547  1.00  0.00    -0.206 F 
ATOM     87  C   UNL     1      -5.694  12.061   7.557  1.00  0.00     0.059 A 
ATOM     88  C   UNL     1      -4.316  10.480   6.362  1.00  0.00     0.059 A 
ATOM     89  F   UNL     1      -2.194   9.939   7.137  1.00  0.00    -0.206 F 
ATOM     90  C   UNL     1      -5.481  11.232   6.457  1.00  0.00     0.060 A 
BRANCH  90  91
ATOM     91  S   UNL     1      -6.666  11.246   5.089  1.00  0.00     0.124 S 
ATOM     92  O   UNL     1      -7.818  10.573   5.678  1.00  0.00    -0.237 OA
ATOM     93  O   UNL     1      -6.825  12.673   4.832  1.00  0.00    -0.237 OA
ATOM     94  O   UNL     1      -5.978  10.501   4.037  1.00  0.00    -0.744 OA
ENDBRANCH  90  91
ENDBRANCH  58  83
BRANCH  70  95
ATOM     95  C   UNL     1      -0.397  14.038  13.349  1.00  0.00     0.058 A 
ATOM     96  C   UNL     1      -0.491  12.647  13.533  1.00  0.00     0.135 A 
ATOM     97  C   UNL     1      -0.459  14.840  14.499  1.00  0.00     0.135 A 
ATOM     98  F   UNL     1      -0.337  11.800  12.505  1.00  0.00    -0.206 F 
ATOM     99  C   UNL     1      -0.687  12.085  14.797  1.00  0.00     0.059 A 
ATOM    100  C   UNL     1      -0.617  14.300  15.771  1.00  0.00     0.059 A 
ATOM    101  F   UNL     1      -0.314  16.172  14.400  1.00  0.00    -0.206 F 
ATOM    102  C   UNL     1      -0.748  12.922  15.912  1.00  0.00     0.060 A 
BRANCH 102 103
ATOM    103  S   UNL     1      -0.946  12.196  17.553  1.00  0.00     0.124 S 
ATOM    104  O   UNL     1      -2.327  11.729  17.518  1.00  0.00    -0.237 OA
ATOM    105  O   UNL     1       0.077  11.154  17.566  1.00  0.00    -0.237 OA
ATOM    106  O   UNL     1      -0.690  13.317  18.455  1.00  0.00    -0.744 OA
ENDBRANCH 102 103
ENDBRANCH  70  95
ENDBRANCH  44  45
ENDBRANCH  36  39
ENDBRANCH  34  35
ENDBRANCH   1  34
TORSDOF 17
