REMARK SMILES [NH3+][C@H](Cc1cc(F)c(F)c(F)c1)C(=O)NCCCNC(=O)c1ccc(-c2c3nc(c(-c4c(F)cc(S(=O)(=O)[O-])cc4F)c4ccc([nH]4)c(-c4c(F)cc(S(=O)(=O)[O-])cc4F)c4nc(c(-c5c(F)cc(S(=O)(=O)[O-])cc5F)c5ccc2[nH]5)C=C4)C=C3)cc1
REMARK SMILES IDX 17 1 16 2 15 3 13 4 14 5 2 7 1 8 3 12 4 13 5 14 12 15 6 16
REMARK SMILES IDX 10 17 7 18 8 19 11 20 9 21 18 22 19 23 20 24 21 26 22 27
REMARK SMILES IDX 23 28 87 29 24 30 86 31 25 32 26 33 27 34 80 35 28 36 85 37
REMARK SMILES IDX 79 38 81 39 29 40 84 41 78 42 77 43 30 45 64 46 43 47 63 48
REMARK SMILES IDX 44 49 47 50 62 51 82 52 45 53 46 54 61 56 83 57 48 58 31 59
REMARK SMILES IDX 32 60 41 61 33 62 34 63 40 64 42 65 35 66 36 67 37 68 38 69
REMARK SMILES IDX 39 70 65 71 66 72 75 73 67 74 68 75 74 76 76 77 69 78 70 79
REMARK SMILES IDX 71 80 72 81 73 82 49 83 50 84 59 85 51 86 52 87 58 88 60 89
REMARK SMILES IDX 53 90 54 91 55 92 56 93 57 94
REMARK H PARENT 15 6 1 9 1 10 1 11 19 25 81 44 47 55
REMARK Flexibility Score: inf
ROOT
ATOM      1  C   UNL     1      -1.525   0.787   2.345  1.00  0.00     0.042 C 
ENDROOT
BRANCH   1   2
ATOM      2  C   UNL     1      -1.379  -0.687   1.990  1.00  0.00     0.118 C 
BRANCH   2   3
ATOM      3  N   UNL     1      -1.706  -0.949   0.606  1.00  0.00    -0.351 N 
ATOM      4  C   UNL     1      -0.899  -1.307  -0.437  1.00  0.00     0.278 C 
ATOM      5  O   UNL     1      -1.429  -1.431  -1.545  1.00  0.00    -0.268 OA
ATOM      6  H   UNL     1      -2.659  -0.854   0.380  1.00  0.00     0.163 HD
BRANCH   4   7
ATOM      7  C   UNL     1       0.615  -1.584  -0.240  1.00  0.00     0.275 C 
BRANCH   7   8
ATOM      8  N   UNL     1       0.785  -2.840   0.526  1.00  0.00    -0.347 N 
ATOM      9  H   UNL     1       0.212  -3.573   0.109  1.00  0.00     0.345 HD
ATOM     10  H   UNL     1       0.495  -2.690   1.492  1.00  0.00     0.345 HD
ATOM     11  H   UNL     1       1.765  -3.120   0.505  1.00  0.00     0.345 HD
ENDBRANCH   7   8
BRANCH   7  12
ATOM     12  C   UNL     1       1.409  -0.338   0.239  1.00  0.00     0.111 C 
BRANCH  12  13
ATOM     13  C   UNL     1       2.591  -0.603   1.153  1.00  0.00    -0.036 A 
ATOM     14  C   UNL     1       3.895  -0.656   0.639  1.00  0.00     0.046 A 
ATOM     15  C   UNL     1       2.413  -0.820   2.530  1.00  0.00     0.046 A 
ATOM     16  C   UNL     1       4.971  -0.954   1.480  1.00  0.00     0.162 A 
ATOM     17  C   UNL     1       3.493  -1.143   3.349  1.00  0.00     0.162 A 
ATOM     18  F   UNL     1       6.206  -1.004   0.963  1.00  0.00    -0.204 F 
ATOM     19  C   UNL     1       4.772  -1.215   2.828  1.00  0.00     0.194 A 
ATOM     20  F   UNL     1       3.270  -1.403   4.644  1.00  0.00    -0.204 F 
ATOM     21  F   UNL     1       5.804  -1.543   3.618  1.00  0.00    -0.200 F 
ENDBRANCH  12  13
ENDBRANCH   7  12
ENDBRANCH   4   7
ENDBRANCH   2   3
ENDBRANCH   1   2
BRANCH   1  22
ATOM     22  C   UNL     1      -2.965   1.178   2.641  1.00  0.00     0.118 C 
BRANCH  22  23
ATOM     23  N   UNL     1      -3.464   0.549   3.858  1.00  0.00    -0.352 N 
ATOM     24  C   UNL     1      -4.014   1.117   4.980  1.00  0.00     0.251 C 
ATOM     25  H   UNL     1      -3.396  -0.433   3.879  1.00  0.00     0.163 HD
ATOM     26  O   UNL     1      -4.192   0.427   5.981  1.00  0.00    -0.269 OA
BRANCH  24  27
ATOM     27  C   UNL     1      -4.365   2.552   4.989  1.00  0.00     0.039 A 
ATOM     28  C   UNL     1      -4.094   3.311   6.130  1.00  0.00     0.014 A 
ATOM     29  C   UNL     1      -4.954   3.150   3.872  1.00  0.00     0.014 A 
ATOM     30  C   UNL     1      -4.348   4.684   6.121  1.00  0.00     0.010 A 
ATOM     31  C   UNL     1      -5.112   4.530   3.830  1.00  0.00     0.010 A 
ATOM     32  C   UNL     1      -4.817   5.312   4.956  1.00  0.00    -0.014 A 
BRANCH  32  33
ATOM     33  C   UNL     1      -5.011   6.783   4.889  1.00  0.00     0.031 A 
ATOM     34  C   UNL     1      -6.378   7.349   4.609  1.00  0.00     0.074 A 
ATOM     35  C   UNL     1      -3.946   7.601   5.003  1.00  0.00     0.049 A 
ATOM     36  N   UNL     1      -6.733   8.594   4.424  1.00  0.00    -0.248 NA
ATOM     37  C   UNL     1      -7.486   6.387   4.487  1.00  0.00     0.031 C 
ATOM     38  C   UNL     1      -2.564   7.167   5.220  1.00  0.00     0.029 A 
ATOM     39  N   UNL     1      -3.856   8.969   4.941  1.00  0.00    -0.354 N 
ATOM     40  C   UNL     1      -8.095   8.563   4.147  1.00  0.00     0.074 A 
ATOM     41  C   UNL     1      -8.490   7.172   4.128  1.00  0.00     0.031 C 
ATOM     42  C   UNL     1      -1.770   8.246   5.299  1.00  0.00     0.029 A 
ATOM     43  C   UNL     1      -2.575   9.446   5.094  1.00  0.00     0.049 A 
ATOM     44  H   UNL     1      -4.635   9.554   4.799  1.00  0.00     0.167 HD
ATOM     45  C   UNL     1      -8.944   9.600   3.954  1.00  0.00     0.037 A 
ATOM     46  C   UNL     1      -2.101  10.707   5.064  1.00  0.00     0.037 A 
ATOM     47  C   UNL     1      -8.546  10.982   4.005  1.00  0.00     0.049 A 
ATOM     48  C   UNL     1      -3.064  11.843   4.851  1.00  0.00     0.074 A 
ATOM     49  C   UNL     1      -9.338  12.110   3.884  1.00  0.00     0.029 A 
ATOM     50  N   UNL     1      -7.244  11.425   4.192  1.00  0.00    -0.354 N 
ATOM     51  N   UNL     1      -4.361  11.798   4.656  1.00  0.00    -0.248 NA
ATOM     52  C   UNL     1      -2.504  13.201   4.862  1.00  0.00     0.031 C 
ATOM     53  C   UNL     1      -8.509  13.234   3.949  1.00  0.00     0.029 A 
ATOM     54  C   UNL     1      -7.208  12.809   4.170  1.00  0.00     0.049 A 
ATOM     55  H   UNL     1      -6.462  10.842   4.322  1.00  0.00     0.167 HD
ATOM     56  C   UNL     1      -4.776  13.121   4.554  1.00  0.00     0.074 A 
ATOM     57  C   UNL     1      -3.594  13.942   4.718  1.00  0.00     0.031 C 
ATOM     58  C   UNL     1      -6.023  13.612   4.347  1.00  0.00     0.037 A 
BRANCH  45  59
ATOM     59  C   UNL     1     -10.388   9.279   3.677  1.00  0.00     0.058 A 
ATOM     60  C   UNL     1     -11.225   8.730   4.663  1.00  0.00     0.135 A 
ATOM     61  C   UNL     1     -10.954   9.558   2.422  1.00  0.00     0.135 A 
ATOM     62  F   UNL     1     -10.735   8.428   5.875  1.00  0.00    -0.206 F 
ATOM     63  C   UNL     1     -12.560   8.439   4.405  1.00  0.00     0.059 A 
ATOM     64  C   UNL     1     -12.296   9.304   2.152  1.00  0.00     0.059 A 
ATOM     65  F   UNL     1     -10.201  10.082   1.442  1.00  0.00    -0.206 F 
ATOM     66  C   UNL     1     -13.087   8.731   3.146  1.00  0.00     0.060 A 
BRANCH  66  67
ATOM     67  S   UNL     1     -14.824   8.354   2.832  1.00  0.00     0.124 S 
ATOM     68  O   UNL     1     -14.796   6.896   2.759  1.00  0.00    -0.237 OA
ATOM     69  O   UNL     1     -15.482   8.917   4.006  1.00  0.00    -0.237 OA
ATOM     70  O   UNL     1     -15.099   9.039   1.573  1.00  0.00    -0.744 OA
ENDBRANCH  66  67
ENDBRANCH  45  59
BRANCH  46  71
ATOM     71  C   UNL     1      -0.648  10.960   5.264  1.00  0.00     0.058 A 
ATOM     72  C   UNL     1      -0.178  11.578   6.433  1.00  0.00     0.135 A 
ATOM     73  C   UNL     1       0.299  10.578   4.302  1.00  0.00     0.135 A 
ATOM     74  F   UNL     1      -1.044  11.966   7.381  1.00  0.00    -0.206 F 
ATOM     75  C   UNL     1       1.176  11.825   6.633  1.00  0.00     0.059 A 
ATOM     76  C   UNL     1       1.661  10.789   4.491  1.00  0.00     0.059 A 
ATOM     77  F   UNL     1      -0.096   9.965   3.175  1.00  0.00    -0.206 F 
ATOM     78  C   UNL     1       2.089  11.423   5.656  1.00  0.00     0.060 A 
BRANCH  78  79
ATOM     79  S   UNL     1       3.849  11.706   5.947  1.00  0.00     0.124 S 
ATOM     80  O   UNL     1       3.945  13.152   5.779  1.00  0.00    -0.237 OA
ATOM     81  O   UNL     1       4.017  11.208   7.309  1.00  0.00    -0.237 OA
ATOM     82  O   UNL     1       4.493  10.905   4.911  1.00  0.00    -0.744 OA
ENDBRANCH  78  79
ENDBRANCH  46  71
BRANCH  58  83
ATOM     83  C   UNL     1      -6.188  15.107   4.331  1.00  0.00     0.058 A 
ATOM     84  C   UNL     1      -5.732  15.892   3.262  1.00  0.00     0.135 A 
ATOM     85  C   UNL     1      -6.870  15.753   5.376  1.00  0.00     0.135 A 
ATOM     86  F   UNL     1      -5.068  15.325   2.242  1.00  0.00    -0.206 F 
ATOM     87  C   UNL     1      -5.926  17.269   3.238  1.00  0.00     0.059 A 
ATOM     88  C   UNL     1      -7.103  17.124   5.358  1.00  0.00     0.059 A 
ATOM     89  F   UNL     1      -7.337  15.046   6.418  1.00  0.00    -0.206 F 
ATOM     90  C   UNL     1      -6.618  17.875   4.289  1.00  0.00     0.060 A 
BRANCH  90  91
ATOM     91  S   UNL     1      -6.900  19.657   4.225  1.00  0.00     0.124 S 
ATOM     92  O   UNL     1      -5.565  20.176   4.506  1.00  0.00    -0.237 OA
ATOM     93  O   UNL     1      -7.380  19.847   2.860  1.00  0.00    -0.237 OA
ATOM     94  O   UNL     1      -7.894  19.882   5.270  1.00  0.00    -0.744 OA
ENDBRANCH  90  91
ENDBRANCH  58  83
ENDBRANCH  32  33
ENDBRANCH  24  27
ENDBRANCH  22  23
ENDBRANCH   1  22
TORSDOF 16
