REMARK SMILES CC[C@H](C)[C@H](NC(=O)[C@H](C(C)C)n1c(=O)[nH]c2ccccc2c1=O)C(=O)NCCCNC(=O)c1ccc(-c2c3nc(c(-c4c(F)cc(S(=O)(=O)[O-])cc4F)c4ccc([nH]4)c(-c4c(F)cc(S(=O)(=O)[O-])cc4F)c4nc(c(-c5c(F)cc(S(=O)(=O)[O-])cc5F)c5ccc2[nH]5)C=C4)C=C3)cc1
REMARK SMILES IDX 29 1 28 2 27 3 25 4 26 5 5 7 3 8 4 9 2 10 1 11 6 12 7 13
REMARK SMILES IDX 8 15 9 16 13 17 14 18 23 19 15 20 16 21 22 22 24 23 17 24
REMARK SMILES IDX 21 26 18 27 20 28 19 29 10 30 11 31 12 32 30 33 31 34 32 35
REMARK SMILES IDX 33 37 34 38 35 39 99 40 36 41 98 42 37 43 38 44 39 45 92 46
REMARK SMILES IDX 40 47 97 48 91 49 93 50 41 51 96 52 90 53 89 54 42 56 76 57
REMARK SMILES IDX 55 58 75 59 56 60 59 61 74 62 94 63 57 64 58 65 73 67 95 68
REMARK SMILES IDX 60 69 43 70 44 71 53 72 45 73 46 74 52 75 54 76 47 77 48 78
REMARK SMILES IDX 49 79 50 80 51 81 77 82 78 83 87 84 79 85 80 86 86 87 88 88
REMARK SMILES IDX 81 89 82 90 83 91 84 92 85 93 61 94 62 95 71 96 63 97 64 98
REMARK SMILES IDX 70 99 72 100 65 101 66 102 67 103 68 104 69 105
REMARK H PARENT 27 6 6 14 16 25 31 36 93 55 59 66
REMARK Flexibility Score: inf
ROOT
ATOM      1  C   UNL     1       0.596  -4.476   1.584  1.00  0.00     0.042 C 
ENDROOT
BRANCH   1   2
ATOM      2  C   UNL     1       1.669  -3.928   2.514  1.00  0.00     0.117 C 
BRANCH   2   3
ATOM      3  N   UNL     1       2.239  -4.913   3.417  1.00  0.00    -0.354 N 
ATOM      4  C   UNL     1       3.307  -4.846   4.266  1.00  0.00     0.242 C 
ATOM      5  O   UNL     1       3.434  -5.807   5.037  1.00  0.00    -0.273 OA
ATOM      6  H   UNL     1       1.775  -5.782   3.417  1.00  0.00     0.163 HD
BRANCH   4   7
ATOM      7  C   UNL     1       4.182  -3.557   4.497  1.00  0.00     0.174 C 
BRANCH   7   8
ATOM      8  C   UNL     1       3.381  -2.683   5.475  1.00  0.00     0.018 C 
ATOM      9  C   UNL     1       4.341  -2.212   6.574  1.00  0.00     0.010 C 
BRANCH   8  10
ATOM     10  C   UNL     1       2.624  -1.631   4.657  1.00  0.00     0.002 C 
ATOM     11  C   UNL     1       1.330  -1.069   5.186  1.00  0.00     0.004 C 
ENDBRANCH   8  10
ENDBRANCH   7   8
BRANCH   7  12
ATOM     12  N   UNL     1       4.690  -2.852   3.299  1.00  0.00    -0.342 N 
ATOM     13  C   UNL     1       5.620  -1.882   3.067  1.00  0.00     0.244 C 
ATOM     14  H   UNL     1       4.252  -3.155   2.471  1.00  0.00     0.164 HD
ATOM     15  O   UNL     1       6.427  -2.291   2.204  1.00  0.00    -0.273 OA
BRANCH  13  16
ATOM     16  C   UNL     1       5.903  -0.428   3.768  1.00  0.00     0.187 C 
BRANCH  16  17
ATOM     17  N   UNL     1       6.926   0.187   2.871  1.00  0.00    -0.247 N 
ATOM     18  C   UNL     1       6.580   0.376   1.530  1.00  0.00     0.329 A 
ATOM     19  C   UNL     1       7.993   0.837   3.482  1.00  0.00     0.264 A 
ATOM     20  O   UNL     1       5.504   0.038   1.037  1.00  0.00    -0.248 OA
ATOM     21  N   UNL     1       7.452   1.111   0.771  1.00  0.00    -0.307 N 
ATOM     22  C   UNL     1       8.548   1.974   2.723  1.00  0.00     0.064 A 
ATOM     23  O   UNL     1       8.368   0.636   4.634  1.00  0.00    -0.268 OA
ATOM     24  C   UNL     1       8.322   2.029   1.354  1.00  0.00     0.055 A 
ATOM     25  H   UNL     1       7.463   0.988  -0.205  1.00  0.00     0.171 HD
ATOM     26  C   UNL     1       9.092   3.075   3.391  1.00  0.00     0.016 A 
ATOM     27  C   UNL     1       8.768   3.118   0.608  1.00  0.00     0.027 A 
ATOM     28  C   UNL     1       9.441   4.213   2.664  1.00  0.00     0.001 A 
ATOM     29  C   UNL     1       9.309   4.221   1.272  1.00  0.00     0.002 A 
ENDBRANCH  16  17
BRANCH  16  30
ATOM     30  C   UNL     1       4.859   0.765   4.093  1.00  0.00     0.016 C 
ATOM     31  C   UNL     1       4.429   0.898   5.579  1.00  0.00     0.010 C 
ATOM     32  C   UNL     1       5.362   2.219   3.843  1.00  0.00     0.010 C 
ENDBRANCH  16  30
ENDBRANCH  13  16
ENDBRANCH   7  12
ENDBRANCH   4   7
ENDBRANCH   2   3
ENDBRANCH   1   2
BRANCH   1  33
ATOM     33  C   UNL     1      -0.753  -4.575   2.304  1.00  0.00     0.118 C 
BRANCH  33  34
ATOM     34  N   UNL     1      -1.490  -3.308   2.392  1.00  0.00    -0.352 N 
ATOM     35  C   UNL     1      -2.348  -2.661   1.516  1.00  0.00     0.251 C 
ATOM     36  H   UNL     1      -1.345  -2.823   3.237  1.00  0.00     0.163 HD
ATOM     37  O   UNL     1      -2.783  -1.558   1.794  1.00  0.00    -0.269 OA
BRANCH  35  38
ATOM     38  C   UNL     1      -2.675  -3.284   0.212  1.00  0.00     0.039 A 
ATOM     39  C   UNL     1      -2.896  -4.648   0.131  1.00  0.00     0.014 A 
ATOM     40  C   UNL     1      -2.673  -2.513  -0.954  1.00  0.00     0.014 A 
ATOM     41  C   UNL     1      -2.751  -5.283  -1.089  1.00  0.00     0.010 A 
ATOM     42  C   UNL     1      -2.723  -3.148  -2.202  1.00  0.00     0.010 A 
ATOM     43  C   UNL     1      -2.662  -4.547  -2.281  1.00  0.00    -0.014 A 
BRANCH  43  44
ATOM     44  C   UNL     1      -2.455  -5.270  -3.570  1.00  0.00     0.031 A 
ATOM     45  C   UNL     1      -1.284  -4.934  -4.463  1.00  0.00     0.074 A 
ATOM     46  C   UNL     1      -3.259  -6.305  -3.889  1.00  0.00     0.049 A 
ATOM     47  N   UNL     1      -0.993  -5.399  -5.652  1.00  0.00    -0.248 NA
ATOM     48  C   UNL     1      -0.319  -3.940  -3.965  1.00  0.00     0.031 C 
ATOM     49  C   UNL     1      -4.397  -6.770  -3.089  1.00  0.00     0.029 A 
ATOM     50  N   UNL     1      -3.218  -7.187  -4.937  1.00  0.00    -0.354 N 
ATOM     51  C   UNL     1       0.147  -4.715  -6.066  1.00  0.00     0.074 A 
ATOM     52  C   UNL     1       0.491  -3.795  -5.004  1.00  0.00     0.031 C 
ATOM     53  C   UNL     1      -4.868  -7.909  -3.608  1.00  0.00     0.029 A 
ATOM     54  C   UNL     1      -4.165  -8.181  -4.854  1.00  0.00     0.049 A 
ATOM     55  H   UNL     1      -2.574  -7.117  -5.678  1.00  0.00     0.167 HD
ATOM     56  C   UNL     1       0.843  -4.845  -7.223  1.00  0.00     0.037 A 
ATOM     57  C   UNL     1      -4.472  -9.179  -5.703  1.00  0.00     0.037 A 
ATOM     58  C   UNL     1       0.516  -5.802  -8.251  1.00  0.00     0.049 A 
ATOM     59  C   UNL     1      -3.725  -9.274  -6.997  1.00  0.00     0.074 A 
ATOM     60  C   UNL     1       1.141  -6.011  -9.469  1.00  0.00     0.029 A 
ATOM     61  N   UNL     1      -0.519  -6.724  -8.173  1.00  0.00    -0.354 N 
ATOM     62  N   UNL     1      -2.719  -8.546  -7.420  1.00  0.00    -0.248 NA
ATOM     63  C   UNL     1      -4.179 -10.297  -7.945  1.00  0.00     0.031 C 
ATOM     64  C   UNL     1       0.462  -7.036 -10.140  1.00  0.00     0.029 A 
ATOM     65  C   UNL     1      -0.560  -7.496  -9.324  1.00  0.00     0.049 A 
ATOM     66  H   UNL     1      -1.135  -6.817  -7.411  1.00  0.00     0.167 HD
ATOM     67  C   UNL     1      -2.429  -9.010  -8.695  1.00  0.00     0.074 A 
ATOM     68  C   UNL     1      -3.342 -10.108  -8.955  1.00  0.00     0.031 C 
ATOM     69  C   UNL     1      -1.500  -8.560  -9.576  1.00  0.00     0.037 A 
BRANCH  56  70
ATOM     70  C   UNL     1       1.996  -3.901  -7.452  1.00  0.00     0.058 A 
ATOM     71  C   UNL     1       3.199  -3.999  -6.734  1.00  0.00     0.135 A 
ATOM     72  C   UNL     1       1.892  -2.875  -8.407  1.00  0.00     0.135 A 
ATOM     73  F   UNL     1       3.350  -4.948  -5.797  1.00  0.00    -0.206 F 
ATOM     74  C   UNL     1       4.239  -3.091  -6.924  1.00  0.00     0.059 A 
ATOM     75  C   UNL     1       2.929  -1.973  -8.633  1.00  0.00     0.059 A 
ATOM     76  F   UNL     1       0.767  -2.733  -9.126  1.00  0.00    -0.206 F 
ATOM     77  C   UNL     1       4.091  -2.076  -7.871  1.00  0.00     0.060 A 
BRANCH  77  78
ATOM     78  S   UNL     1       5.435  -0.888  -8.086  1.00  0.00     0.124 S 
ATOM     79  O   UNL     1       5.314  -0.087  -6.871  1.00  0.00    -0.237 OA
ATOM     80  O   UNL     1       6.609  -1.751  -8.160  1.00  0.00    -0.237 OA
ATOM     81  O   UNL     1       5.087  -0.201  -9.326  1.00  0.00    -0.744 OA
ENDBRANCH  77  78
ENDBRANCH  56  70
BRANCH  57  82
ATOM     82  C   UNL     1      -5.567 -10.121  -5.353  1.00  0.00     0.058 A 
ATOM     83  C   UNL     1      -5.287 -11.444  -4.989  1.00  0.00     0.135 A 
ATOM     84  C   UNL     1      -6.901  -9.687  -5.277  1.00  0.00     0.135 A 
ATOM     85  F   UNL     1      -4.031 -11.909  -5.059  1.00  0.00    -0.206 F 
ATOM     86  C   UNL     1      -6.287 -12.298  -4.532  1.00  0.00     0.059 A 
ATOM     87  C   UNL     1      -7.912 -10.511  -4.796  1.00  0.00     0.059 A 
ATOM     88  F   UNL     1      -7.217  -8.424  -5.603  1.00  0.00    -0.206 F 
ATOM     89  C   UNL     1      -7.593 -11.815  -4.421  1.00  0.00     0.060 A 
BRANCH  89  90
ATOM     90  S   UNL     1      -8.855 -12.890  -3.703  1.00  0.00     0.124 S 
ATOM     91  O   UNL     1      -9.059 -13.859  -4.772  1.00  0.00    -0.237 OA
ATOM     92  O   UNL     1      -8.184 -13.389  -2.506  1.00  0.00    -0.237 OA
ATOM     93  O   UNL     1      -9.968 -11.979  -3.453  1.00  0.00    -0.744 OA
ENDBRANCH  89  90
ENDBRANCH  57  82
BRANCH  69  94
ATOM     94  C   UNL     1      -1.448  -9.258 -10.904  1.00  0.00     0.058 A 
ATOM     95  C   UNL     1      -2.447  -9.060 -11.871  1.00  0.00     0.135 A 
ATOM     96  C   UNL     1      -0.401 -10.140 -11.209  1.00  0.00     0.135 A 
ATOM     97  F   UNL     1      -3.475  -8.233 -11.622  1.00  0.00    -0.206 F 
ATOM     98  C   UNL     1      -2.431  -9.745 -13.080  1.00  0.00     0.059 A 
ATOM     99  C   UNL     1      -0.351 -10.817 -12.423  1.00  0.00     0.059 A 
ATOM    100  F   UNL     1       0.582 -10.357 -10.321  1.00  0.00    -0.206 F 
ATOM    101  C   UNL     1      -1.382 -10.628 -13.344  1.00  0.00     0.060 A 
BRANCH 101 102
ATOM    102  S   UNL     1      -1.381 -11.526 -14.909  1.00  0.00     0.124 S 
ATOM    103  O   UNL     1      -2.427 -12.517 -14.678  1.00  0.00    -0.237 OA
ATOM    104  O   UNL     1      -1.703 -10.477 -15.872  1.00  0.00    -0.237 OA
ATOM    105  O   UNL     1      -0.023 -12.054 -14.997  1.00  0.00    -0.744 OA
ENDBRANCH 101 102
ENDBRANCH  69  94
ENDBRANCH  43  44
ENDBRANCH  35  38
ENDBRANCH  33  34
ENDBRANCH   1  33
TORSDOF 19
