REMARK SMILES CC[NH+](CC)CC[N@H+]1CC[C@@H](C(=O)NCCCNC(=O)c2ccc(-c3c4nc(c(-c5c(F)cc(S(=O)(=O)[O-])cc5F)c5ccc([nH]5)c(-c5c(F)cc(S(=O)(=O)[O-])cc5F)c5nc(c(-c6c(F)cc(S(=O)(=O)[O-])cc6F)c6ccc3[nH]6)C=C5)C=C4)cc2)[C@@H]1C
REMARK SMILES IDX 15 1 14 2 12 3 13 4 11 6 8 7 9 8 87 9 10 11 88 12 7 13 6 14
REMARK SMILES IDX 3 15 2 17 1 18 4 19 5 20 16 21 17 22 18 23 19 24 20 26 21 27
REMARK SMILES IDX 22 28 86 29 23 30 85 31 24 32 25 33 26 34 79 35 27 36 84 37
REMARK SMILES IDX 78 38 80 39 28 40 83 41 77 42 76 43 29 45 63 46 42 47 62 48
REMARK SMILES IDX 43 49 46 50 61 51 81 52 44 53 45 54 60 56 82 57 47 58 30 59
REMARK SMILES IDX 31 60 40 61 32 62 33 63 39 64 41 65 34 66 35 67 36 68 37 69
REMARK SMILES IDX 38 70 64 71 65 72 74 73 66 74 67 75 73 76 75 77 68 78 69 79
REMARK SMILES IDX 70 80 71 81 72 82 48 83 49 84 58 85 50 86 51 87 57 88 59 89
REMARK SMILES IDX 52 90 53 91 54 92 55 93 56 94
REMARK H PARENT 14 5 8 10 3 16 18 25 80 44 46 55
REMARK Flexibility Score: inf
ROOT
ATOM      1  C   UNL     1       4.494  -2.822   4.758  1.00  0.00     0.117 C 
ENDROOT
BRANCH   1   2
ATOM      2  N   UNL     1       3.833  -4.112   4.769  1.00  0.00    -0.356 N 
ATOM      3  C   UNL     1       3.122  -4.771   3.817  1.00  0.00     0.229 C 
ATOM      4  O   UNL     1       2.704  -5.895   4.118  1.00  0.00    -0.275 OA
ATOM      5  H   UNL     1       3.914  -4.599   5.620  1.00  0.00     0.163 HD
BRANCH   3   6
ATOM      6  C   UNL     1       2.779  -4.185   2.454  1.00  0.00     0.142 C 
ATOM      7  N   UNL     1       2.304  -1.931   1.663  1.00  0.00    -0.327 N 
ATOM      8  C   UNL     1       3.316  -2.553   0.793  1.00  0.00     0.263 C 
ATOM      9  C   UNL     1       1.797  -3.011   2.546  1.00  0.00     0.193 C 
ATOM     10  H   UNL     1       1.541  -1.537   1.113  1.00  0.00     0.348 HD
ATOM     11  C   UNL     1       3.916  -3.722   1.563  1.00  0.00     0.081 C 
ATOM     12  C   UNL     1       0.411  -3.466   2.064  1.00  0.00     0.076 C 
BRANCH   7  13
ATOM     13  C   UNL     1       2.836  -0.771   2.406  1.00  0.00     0.324 C 
BRANCH  13  14
ATOM     14  C   UNL     1       2.299   0.637   2.025  1.00  0.00     0.324 C 
BRANCH  14  15
ATOM     15  N   UNL     1       0.864   0.939   2.024  1.00  0.00    -0.331 N 
ATOM     16  H   UNL     1       0.887   1.883   1.638  1.00  0.00     0.348 HD
BRANCH  15  17
ATOM     17  C   UNL     1       0.041   0.210   1.065  1.00  0.00     0.258 C 
ATOM     18  C   UNL     1       0.533   0.308  -0.376  1.00  0.00     0.071 C 
ENDBRANCH  15  17
BRANCH  15  19
ATOM     19  C   UNL     1       0.235   1.122   3.336  1.00  0.00     0.258 C 
ATOM     20  C   UNL     1       0.092  -0.094   4.243  1.00  0.00     0.071 C 
ENDBRANCH  15  19
ENDBRANCH  14  15
ENDBRANCH  13  14
ENDBRANCH   7  13
ENDBRANCH   3   6
ENDBRANCH   1   2
BRANCH   1  21
ATOM     21  C   UNL     1       3.836  -1.806   5.681  1.00  0.00     0.042 C 
BRANCH  21  22
ATOM     22  C   UNL     1       4.120  -2.010   7.161  1.00  0.00     0.118 C 
BRANCH  22  23
ATOM     23  N   UNL     1       5.528  -1.842   7.482  1.00  0.00    -0.352 N 
ATOM     24  C   UNL     1       6.184  -0.903   8.237  1.00  0.00     0.251 C 
ATOM     25  H   UNL     1       6.117  -2.524   7.086  1.00  0.00     0.163 HD
ATOM     26  O   UNL     1       7.411  -0.859   8.167  1.00  0.00    -0.269 OA
BRANCH  24  27
ATOM     27  C   UNL     1       5.463   0.052   9.115  1.00  0.00     0.039 A 
ATOM     28  C   UNL     1       6.030   1.314   9.326  1.00  0.00     0.014 A 
ATOM     29  C   UNL     1       4.289  -0.289   9.791  1.00  0.00     0.014 A 
ATOM     30  C   UNL     1       5.403   2.233  10.171  1.00  0.00     0.010 A 
ATOM     31  C   UNL     1       3.612   0.662  10.555  1.00  0.00     0.010 A 
ATOM     32  C   UNL     1       4.171   1.928  10.771  1.00  0.00    -0.014 A 
BRANCH  32  33
ATOM     33  C   UNL     1       3.476   2.928  11.625  1.00  0.00     0.031 A 
ATOM     34  C   UNL     1       3.232   2.660  13.088  1.00  0.00     0.074 A 
ATOM     35  C   UNL     1       3.041   4.077  11.071  1.00  0.00     0.049 A 
ATOM     36  N   UNL     1       2.687   3.437  13.990  1.00  0.00    -0.248 NA
ATOM     37  C   UNL     1       3.627   1.339  13.602  1.00  0.00     0.031 C 
ATOM     38  C   UNL     1       3.154   4.426   9.652  1.00  0.00     0.029 A 
ATOM     39  N   UNL     1       2.429   5.169  11.632  1.00  0.00    -0.354 N 
ATOM     40  C   UNL     1       2.658   2.696  15.167  1.00  0.00     0.074 A 
ATOM     41  C   UNL     1       3.192   1.389  14.852  1.00  0.00     0.031 C 
ATOM     42  C   UNL     1       2.677   5.666   9.465  1.00  0.00     0.029 A 
ATOM     43  C   UNL     1       2.198   6.189  10.739  1.00  0.00     0.049 A 
ATOM     44  H   UNL     1       2.178   5.217  12.583  1.00  0.00     0.167 HD
ATOM     45  C   UNL     1       2.248   3.077  16.401  1.00  0.00     0.037 A 
ATOM     46  C   UNL     1       1.675   7.416  10.929  1.00  0.00     0.037 A 
ATOM     47  C   UNL     1       1.746   4.391  16.715  1.00  0.00     0.049 A 
ATOM     48  C   UNL     1       1.263   7.829  12.315  1.00  0.00     0.074 A 
ATOM     49  C   UNL     1       1.381   4.903  17.948  1.00  0.00     0.029 A 
ATOM     50  N   UNL     1       1.534   5.400  15.786  1.00  0.00    -0.354 N 
ATOM     51  N   UNL     1       1.323   7.145  13.432  1.00  0.00    -0.248 NA
ATOM     52  C   UNL     1       0.724   9.187  12.465  1.00  0.00     0.031 C 
ATOM     53  C   UNL     1       0.908   6.207  17.758  1.00  0.00     0.029 A 
ATOM     54  C   UNL     1       1.022   6.524  16.414  1.00  0.00     0.049 A 
ATOM     55  H   UNL     1       1.721   5.328  14.822  1.00  0.00     0.167 HD
ATOM     56  C   UNL     1       0.849   7.996  14.424  1.00  0.00     0.074 A 
ATOM     57  C   UNL     1       0.528   9.252  13.774  1.00  0.00     0.031 C 
ATOM     58  C   UNL     1       0.693   7.762  15.751  1.00  0.00     0.037 A 
BRANCH  45  59
ATOM     59  C   UNL     1       2.324   2.056  17.506  1.00  0.00     0.058 A 
ATOM     60  C   UNL     1       3.552   1.614  18.023  1.00  0.00     0.135 A 
ATOM     61  C   UNL     1       1.151   1.526  18.070  1.00  0.00     0.135 A 
ATOM     62  F   UNL     1       4.706   2.075  17.514  1.00  0.00    -0.206 F 
ATOM     63  C   UNL     1       3.617   0.656  19.031  1.00  0.00     0.059 A 
ATOM     64  C   UNL     1       1.192   0.589  19.098  1.00  0.00     0.059 A 
ATOM     65  F   UNL     1      -0.052   1.914  17.617  1.00  0.00    -0.206 F 
ATOM     66  C   UNL     1       2.430   0.145  19.559  1.00  0.00     0.060 A 
BRANCH  66  67
ATOM     67  S   UNL     1       2.531  -1.105  20.858  1.00  0.00     0.124 S 
ATOM     68  O   UNL     1       2.935  -2.282  20.096  1.00  0.00    -0.237 OA
ATOM     69  O   UNL     1       3.542  -0.550  21.751  1.00  0.00    -0.237 OA
ATOM     70  O   UNL     1       1.175  -1.142  21.398  1.00  0.00    -0.744 OA
ENDBRANCH  66  67
ENDBRANCH  45  59
BRANCH  46  71
ATOM     71  C   UNL     1       1.568   8.360   9.786  1.00  0.00     0.058 A 
ATOM     72  C   UNL     1       2.413   9.477   9.697  1.00  0.00     0.135 A 
ATOM     73  C   UNL     1       0.644   8.154   8.750  1.00  0.00     0.135 A 
ATOM     74  F   UNL     1       3.309   9.718  10.665  1.00  0.00    -0.206 F 
ATOM     75  C   UNL     1       2.337  10.365   8.630  1.00  0.00     0.059 A 
ATOM     76  C   UNL     1       0.566   9.014   7.660  1.00  0.00     0.059 A 
ATOM     77  F   UNL     1      -0.173   7.090   8.780  1.00  0.00    -0.206 F 
ATOM     78  C   UNL     1       1.412  10.122   7.613  1.00  0.00     0.060 A 
BRANCH  78  79
ATOM     79  S   UNL     1       1.364  11.248   6.201  1.00  0.00     0.124 S 
ATOM     80  O   UNL     1       0.716  12.418   6.781  1.00  0.00    -0.237 OA
ATOM     81  O   UNL     1       2.779  11.395   5.878  1.00  0.00    -0.237 OA
ATOM     82  O   UNL     1       0.577  10.513   5.215  1.00  0.00    -0.744 OA
ENDBRANCH  78  79
ENDBRANCH  46  71
BRANCH  58  83
ATOM     83  C   UNL     1       0.167   8.899  16.584  1.00  0.00     0.058 A 
ATOM     84  C   UNL     1      -1.166   9.328  16.488  1.00  0.00     0.135 A 
ATOM     85  C   UNL     1       1.009   9.572  17.484  1.00  0.00     0.135 A 
ATOM     86  F   UNL     1      -2.012   8.720  15.640  1.00  0.00    -0.206 F 
ATOM     87  C   UNL     1      -1.634  10.416  17.216  1.00  0.00     0.059 A 
ATOM     88  C   UNL     1       0.555  10.645  18.244  1.00  0.00     0.059 A 
ATOM     89  F   UNL     1       2.289   9.193  17.626  1.00  0.00    -0.206 F 
ATOM     90  C   UNL     1      -0.762  11.075  18.085  1.00  0.00     0.060 A 
BRANCH  90  91
ATOM     91  S   UNL     1      -1.370  12.500  19.012  1.00  0.00     0.124 S 
ATOM     92  O   UNL     1      -1.362  13.539  17.987  1.00  0.00    -0.237 OA
ATOM     93  O   UNL     1      -2.688  12.052  19.451  1.00  0.00    -0.237 OA
ATOM     94  O   UNL     1      -0.383  12.658  20.075  1.00  0.00    -0.744 OA
ENDBRANCH  90  91
ENDBRANCH  58  83
ENDBRANCH  32  33
ENDBRANCH  24  27
ENDBRANCH  22  23
ENDBRANCH  21  22
ENDBRANCH   1  21
TORSDOF 18
