REMARK SMILES CC[NH2+][C@]1(C(=O)NCCCNC(=O)c2ccc(-c3c4nc(c(-c5c(F)cc(S(=O)(=O)[O-])cc5F)c5ccc([nH]5)c(-c5c(F)cc(S(=O)(=O)[O-])cc5F)c5nc(c(-c6c(F)cc(S(=O)(=O)[O-])cc6F)c6ccc3[nH]6)C=C5)C=C4)cc2)CC[C@@H](Sc2ccccc2C)C1
REMARK SMILES IDX 9 1 8 2 7 3 5 4 6 5 4 7 80 8 91 9 81 10 82 11 3 12 2 15 1 16
REMARK SMILES IDX 83 17 84 18 85 19 89 20 86 21 88 22 90 23 87 24 10 25 11 26
REMARK SMILES IDX 12 27 13 29 14 30 15 31 79 32 16 33 78 34 17 35 18 36 19 37
REMARK SMILES IDX 72 38 20 39 77 40 71 41 73 42 21 43 76 44 70 45 69 46 22 48
REMARK SMILES IDX 56 49 35 50 55 51 36 52 39 53 54 54 74 55 37 56 38 57 53 59
REMARK SMILES IDX 75 60 40 61 23 62 24 63 33 64 25 65 26 66 32 67 34 68 27 69
REMARK SMILES IDX 28 70 29 71 30 72 31 73 57 74 58 75 67 76 59 77 60 78 66 79
REMARK SMILES IDX 68 80 61 81 62 82 63 83 64 84 65 85 41 86 42 87 51 88 43 89
REMARK SMILES IDX 44 90 50 91 52 92 45 93 46 94 47 95 48 96 49 97
REMARK H PARENT 7 6 3 13 3 14 11 28 73 47 39 58
REMARK Flexibility Score: inf
ROOT
ATOM      1  C   UNL     1       3.978   0.488  -2.682  1.00  0.00     0.042 C 
ENDROOT
BRANCH   1   2
ATOM      2  C   UNL     1       3.329  -0.881  -2.586  1.00  0.00     0.118 C 
BRANCH   2   3
ATOM      3  N   UNL     1       2.163  -0.883  -1.721  1.00  0.00    -0.351 N 
ATOM      4  C   UNL     1       0.839  -1.110  -1.970  1.00  0.00     0.281 C 
ATOM      5  O   UNL     1       0.098  -0.990  -0.987  1.00  0.00    -0.268 OA
ATOM      6  H   UNL     1       2.364  -0.683  -0.778  1.00  0.00     0.163 HD
BRANCH   4   7
ATOM      7  C   UNL     1       0.319  -1.534  -3.391  1.00  0.00     0.176 C 
ATOM      8  C   UNL     1       0.675  -0.464  -4.451  1.00  0.00     0.080 C 
ATOM      9  C   UNL     1       1.011  -2.815  -3.890  1.00  0.00     0.094 C 
ATOM     10  C   UNL     1       1.084  -1.200  -5.731  1.00  0.00     0.022 C 
ATOM     11  C   UNL     1       1.062  -2.692  -5.405  1.00  0.00     0.058 C 
BRANCH   7  12
ATOM     12  N   UNL     1      -1.165  -1.649  -3.410  1.00  0.00    -0.334 N 
ATOM     13  H   UNL     1      -1.550  -0.778  -3.046  1.00  0.00     0.347 HD
ATOM     14  H   UNL     1      -1.412  -1.843  -4.381  1.00  0.00     0.347 HD
BRANCH  12  15
ATOM     15  C   UNL     1      -1.735  -2.747  -2.634  1.00  0.00     0.257 C 
ATOM     16  C   UNL     1      -3.226  -2.510  -2.451  1.00  0.00     0.071 C 
ENDBRANCH  12  15
ENDBRANCH   7  12
BRANCH  11  17
ATOM     17  S   UNL     1       2.346  -3.728  -6.224  1.00  0.00    -0.122 SA
BRANCH  17  18
ATOM     18  C   UNL     1       3.910  -3.124  -5.575  1.00  0.00     0.010 A 
ATOM     19  C   UNL     1       4.606  -2.189  -6.360  1.00  0.00     0.015 A 
ATOM     20  C   UNL     1       4.527  -3.621  -4.407  1.00  0.00    -0.038 A 
ATOM     21  C   UNL     1       5.860  -1.705  -5.972  1.00  0.00     0.001 A 
ATOM     22  C   UNL     1       5.781  -3.102  -4.019  1.00  0.00     0.004 A 
ATOM     23  C   UNL     1       3.927  -4.665  -3.504  1.00  0.00     0.045 C 
ATOM     24  C   UNL     1       6.441  -2.150  -4.792  1.00  0.00     0.000 A 
ENDBRANCH  17  18
ENDBRANCH  11  17
ENDBRANCH   4   7
ENDBRANCH   2   3
ENDBRANCH   1   2
BRANCH   1  25
ATOM     25  C   UNL     1       4.707   0.888  -1.411  1.00  0.00     0.118 C 
BRANCH  25  26
ATOM     26  N   UNL     1       5.895   0.077  -1.174  1.00  0.00    -0.352 N 
ATOM     27  C   UNL     1       7.206   0.471  -1.030  1.00  0.00     0.251 C 
ATOM     28  H   UNL     1       5.737  -0.892  -1.106  1.00  0.00     0.163 HD
ATOM     29  O   UNL     1       8.098  -0.364  -1.039  1.00  0.00    -0.269 OA
BRANCH  27  30
ATOM     30  C   UNL     1       7.521   1.912  -0.897  1.00  0.00     0.039 A 
ATOM     31  C   UNL     1       8.602   2.441  -1.606  1.00  0.00     0.014 A 
ATOM     32  C   UNL     1       6.735   2.740  -0.093  1.00  0.00     0.014 A 
ATOM     33  C   UNL     1       8.847   3.816  -1.565  1.00  0.00     0.010 A 
ATOM     34  C   UNL     1       6.919   4.117  -0.133  1.00  0.00     0.010 A 
ATOM     35  C   UNL     1       7.983   4.669  -0.861  1.00  0.00    -0.014 A 
BRANCH  35  36
ATOM     36  C   UNL     1       8.174   6.141  -0.844  1.00  0.00     0.031 A 
ATOM     37  C   UNL     1       8.423   6.843   0.464  1.00  0.00     0.074 A 
ATOM     38  C   UNL     1       8.037   6.851  -1.982  1.00  0.00     0.049 A 
ATOM     39  N   UNL     1       8.486   8.125   0.717  1.00  0.00    -0.248 NA
ATOM     40  C   UNL     1       8.585   5.990   1.653  1.00  0.00     0.031 C 
ATOM     41  C   UNL     1       7.748   6.289  -3.303  1.00  0.00     0.029 A 
ATOM     42  N   UNL     1       8.104   8.204  -2.206  1.00  0.00    -0.354 N 
ATOM     43  C   UNL     1       8.669   8.230   2.091  1.00  0.00     0.074 A 
ATOM     44  C   UNL     1       8.650   6.887   2.625  1.00  0.00     0.031 C 
ATOM     45  C   UNL     1       7.682   7.286  -4.201  1.00  0.00     0.029 A 
ATOM     46  C   UNL     1       7.879   8.559  -3.516  1.00  0.00     0.049 A 
ATOM     47  H   UNL     1       8.295   8.858  -1.496  1.00  0.00     0.167 HD
ATOM     48  C   UNL     1       8.861   9.344   2.837  1.00  0.00     0.037 A 
ATOM     49  C   UNL     1       7.826   9.774  -4.095  1.00  0.00     0.037 A 
ATOM     50  C   UNL     1       8.915  10.674   2.291  1.00  0.00     0.049 A 
ATOM     51  C   UNL     1       8.051  10.998  -3.247  1.00  0.00     0.074 A 
ATOM     52  C   UNL     1       9.163  11.865   2.950  1.00  0.00     0.029 A 
ATOM     53  N   UNL     1       8.721  10.989   0.954  1.00  0.00    -0.354 N 
ATOM     54  N   UNL     1       8.277  11.077  -1.957  1.00  0.00    -0.248 NA
ATOM     55  C   UNL     1       8.021  12.297  -3.933  1.00  0.00     0.031 C 
ATOM     56  C   UNL     1       9.080  12.904   2.018  1.00  0.00     0.029 A 
ATOM     57  C   UNL     1       8.830  12.357   0.769  1.00  0.00     0.049 A 
ATOM     58  H   UNL     1       8.533  10.336   0.241  1.00  0.00     0.167 HD
ATOM     59  C   UNL     1       8.447  12.429  -1.683  1.00  0.00     0.074 A 
ATOM     60  C   UNL     1       8.306  13.131  -2.942  1.00  0.00     0.031 C 
ATOM     61  C   UNL     1       8.701  13.036  -0.496  1.00  0.00     0.037 A 
BRANCH  48  62
ATOM     62  C   UNL     1       9.034   9.167   4.321  1.00  0.00     0.058 A 
ATOM     63  C   UNL     1      10.182   8.566   4.863  1.00  0.00     0.135 A 
ATOM     64  C   UNL     1       8.053   9.625   5.215  1.00  0.00     0.135 A 
ATOM     65  F   UNL     1      11.144   8.094   4.055  1.00  0.00    -0.206 F 
ATOM     66  C   UNL     1      10.335   8.394   6.235  1.00  0.00     0.059 A 
ATOM     67  C   UNL     1       8.199   9.491   6.593  1.00  0.00     0.059 A 
ATOM     68  F   UNL     1       6.935  10.207   4.752  1.00  0.00    -0.206 F 
ATOM     69  C   UNL     1       9.337   8.859   7.092  1.00  0.00     0.060 A 
BRANCH  69  70
ATOM     70  S   UNL     1       9.552   8.629   8.869  1.00  0.00     0.124 S 
ATOM     71  O   UNL     1       9.317   7.195   9.007  1.00  0.00    -0.237 OA
ATOM     72  O   UNL     1      10.929   9.068   9.076  1.00  0.00    -0.237 OA
ATOM     73  O   UNL     1       8.529   9.492   9.451  1.00  0.00    -0.744 OA
ENDBRANCH  69  70
ENDBRANCH  48  62
BRANCH  49  74
ATOM     74  C   UNL     1       7.573   9.893  -5.556  1.00  0.00     0.058 A 
ATOM     75  C   UNL     1       8.591  10.298  -6.432  1.00  0.00     0.135 A 
ATOM     76  C   UNL     1       6.319   9.590  -6.109  1.00  0.00     0.135 A 
ATOM     77  F   UNL     1       9.806  10.604  -5.951  1.00  0.00    -0.206 F 
ATOM     78  C   UNL     1       8.373  10.417  -7.800  1.00  0.00     0.059 A 
ATOM     79  C   UNL     1       6.083   9.677  -7.478  1.00  0.00     0.059 A 
ATOM     80  F   UNL     1       5.316   9.180  -5.317  1.00  0.00    -0.206 F 
ATOM     81  C   UNL     1       7.114  10.101  -8.315  1.00  0.00     0.060 A 
BRANCH  81  82
ATOM     82  S   UNL     1       6.856  10.211 -10.099  1.00  0.00     0.124 S 
ATOM     83  O   UNL     1       6.819  11.655 -10.302  1.00  0.00    -0.237 OA
ATOM     84  O   UNL     1       8.031   9.522 -10.621  1.00  0.00    -0.237 OA
ATOM     85  O   UNL     1       5.589   9.512 -10.297  1.00  0.00    -0.744 OA
ENDBRANCH  81  82
ENDBRANCH  49  74
BRANCH  61  86
ATOM     86  C   UNL     1       8.889  14.527  -0.505  1.00  0.00     0.058 A 
ATOM     87  C   UNL     1       7.810  15.408  -0.677  1.00  0.00     0.135 A 
ATOM     88  C   UNL     1      10.159  15.080  -0.275  1.00  0.00     0.135 A 
ATOM     89  F   UNL     1       6.577  14.930  -0.906  1.00  0.00    -0.206 F 
ATOM     90  C   UNL     1       7.988  16.787  -0.640  1.00  0.00     0.059 A 
ATOM     91  C   UNL     1      10.355  16.455  -0.206  1.00  0.00     0.059 A 
ATOM     92  F   UNL     1      11.222  14.280  -0.094  1.00  0.00    -0.206 F 
ATOM     93  C   UNL     1       9.264  17.301  -0.400  1.00  0.00     0.060 A 
BRANCH  93  94
ATOM     94  S   UNL     1       9.474  19.092  -0.313  1.00  0.00     0.124 S 
ATOM     95  O   UNL     1       9.365  19.469  -1.718  1.00  0.00    -0.237 OA
ATOM     96  O   UNL     1       8.360  19.496   0.540  1.00  0.00    -0.237 OA
ATOM     97  O   UNL     1      10.798  19.251   0.280  1.00  0.00    -0.744 OA
ENDBRANCH  93  94
ENDBRANCH  61  86
ENDBRANCH  35  36
ENDBRANCH  27  30
ENDBRANCH  25  26
ENDBRANCH   1  25
TORSDOF 17
