REMARK SMILES CS(=O)(=O)Nc1cc(C(=O)NCCCNC(=O)c2ccc(-c3c4nc(c(-c5c(F)cc(S(=O)(=O)[O-])cc5F)c5ccc([nH]5)c(-c5c(F)cc(S(=O)(=O)[O-])cc5F)c5nc(c(-c6c(F)cc(S(=O)(=O)[O-])cc6F)c6ccc3[nH]6)C=C5)C=C4)cc2)ccc1N1CC[NH+](CC(=O)N2CCCC2)CC1
REMARK SMILES IDX 13 1 12 2 11 3 9 4 10 5 8 7 6 8 7 9 86 10 85 11 84 12 5 13
REMARK SMILES IDX 2 15 1 16 3 17 4 18 87 19 88 20 100 21 89 22 99 23 90 24
REMARK SMILES IDX 91 26 92 27 93 28 94 29 95 30 98 31 96 32 97 33 14 34 15 35
REMARK SMILES IDX 16 36 17 38 18 39 19 40 83 41 20 42 82 43 21 44 22 45 23 46
REMARK SMILES IDX 76 47 24 48 81 49 75 50 77 51 25 52 80 53 74 54 73 55 26 57
REMARK SMILES IDX 60 58 39 59 59 60 40 61 43 62 58 63 78 64 41 65 42 66 57 68
REMARK SMILES IDX 79 69 44 70 27 71 28 72 37 73 29 74 30 75 36 76 38 77 31 78
REMARK SMILES IDX 32 79 33 80 34 81 35 82 61 83 62 84 71 85 63 86 64 87 70 88
REMARK SMILES IDX 72 89 65 90 66 91 67 92 68 93 69 94 45 95 46 96 55 97 47 98
REMARK SMILES IDX 48 99 54 100 56 101 49 102 50 103 51 104 52 105 53 106
REMARK H PARENT 11 6 5 14 90 25 15 37 77 56 43 67
REMARK Flexibility Score: inf
ROOT
ATOM      1  C   UNL     1       6.148   5.317   4.324  1.00  0.00     0.042 C 
ENDROOT
BRANCH   1   2
ATOM      2  C   UNL     1       4.910   4.452   4.508  1.00  0.00     0.118 C 
BRANCH   2   3
ATOM      3  N   UNL     1       3.662   5.180   4.335  1.00  0.00    -0.352 N 
ATOM      4  C   UNL     1       2.518   4.906   3.632  1.00  0.00     0.251 C 
ATOM      5  O   UNL     1       1.637   5.766   3.612  1.00  0.00    -0.269 OA
ATOM      6  H   UNL     1       3.634   6.038   4.817  1.00  0.00     0.163 HD
BRANCH   4   7
ATOM      7  C   UNL     1       2.310   3.647   2.870  1.00  0.00     0.042 A 
ATOM      8  C   UNL     1       1.219   2.553   0.978  1.00  0.00     0.073 A 
ATOM      9  C   UNL     1       1.438   3.684   1.780  1.00  0.00     0.042 A 
ATOM     10  C   UNL     1       2.001   1.380   1.161  1.00  0.00     0.062 A 
ATOM     11  C   UNL     1       2.766   1.333   2.342  1.00  0.00     0.029 A 
ATOM     12  C   UNL     1       2.888   2.431   3.203  1.00  0.00     0.016 A 
BRANCH   8  13
ATOM     13  N   UNL     1       0.330   2.796  -0.113  1.00  0.00    -0.282 N 
ATOM     14  H   UNL     1       0.532   3.563  -0.696  1.00  0.00     0.180 HD
BRANCH  13  15
ATOM     15  S   UNL     1      -1.013   1.896  -0.482  1.00  0.00     0.229 S 
ATOM     16  C   UNL     1      -1.050   0.425   0.526  1.00  0.00     0.183 C 
ATOM     17  O   UNL     1      -0.842   1.495  -1.868  1.00  0.00    -0.207 OA
ATOM     18  O   UNL     1      -2.161   2.699  -0.117  1.00  0.00    -0.207 OA
ENDBRANCH  13  15
ENDBRANCH   8  13
BRANCH  10  19
ATOM     19  N   UNL     1       2.060   0.320   0.234  1.00  0.00    -0.359 N 
ATOM     20  C   UNL     1       2.874  -0.897   0.544  1.00  0.00     0.178 C 
ATOM     21  C   UNL     1       2.256   0.722  -1.163  1.00  0.00     0.178 C 
ATOM     22  C   UNL     1       2.752  -2.009  -0.544  1.00  0.00     0.284 C 
ATOM     23  C   UNL     1       1.878  -0.410  -2.123  1.00  0.00     0.284 C 
ATOM     24  N   UNL     1       2.709  -1.599  -1.960  1.00  0.00    -0.324 N 
ATOM     25  H   UNL     1       2.266  -2.382  -2.440  1.00  0.00     0.348 HD
BRANCH  24  26
ATOM     26  C   UNL     1       3.991  -1.533  -2.684  1.00  0.00     0.363 C 
BRANCH  26  27
ATOM     27  C   UNL     1       5.111  -0.680  -2.078  1.00  0.00     0.277 C 
ATOM     28  O   UNL     1       5.790  -1.140  -1.154  1.00  0.00    -0.268 OA
ATOM     29  N   UNL     1       5.393   0.561  -2.624  1.00  0.00    -0.338 N 
ATOM     30  C   UNL     1       4.572   1.419  -3.476  1.00  0.00     0.119 C 
ATOM     31  C   UNL     1       6.662   1.207  -2.324  1.00  0.00     0.119 C 
ATOM     32  C   UNL     1       5.509   2.511  -3.965  1.00  0.00     0.023 C 
ATOM     33  C   UNL     1       6.517   2.635  -2.829  1.00  0.00     0.023 C 
ENDBRANCH  26  27
ENDBRANCH  24  26
ENDBRANCH  10  19
ENDBRANCH   4   7
ENDBRANCH   2   3
ENDBRANCH   1   2
BRANCH   1  34
ATOM     34  C   UNL     1       6.257   6.500   5.272  1.00  0.00     0.118 C 
BRANCH  34  35
ATOM     35  N   UNL     1       6.396   6.111   6.669  1.00  0.00    -0.352 N 
ATOM     36  C   UNL     1       7.484   6.162   7.511  1.00  0.00     0.251 C 
ATOM     37  H   UNL     1       5.576   5.751   7.078  1.00  0.00     0.163 HD
ATOM     38  O   UNL     1       7.420   5.615   8.609  1.00  0.00    -0.269 OA
BRANCH  36  39
ATOM     39  C   UNL     1       8.733   6.838   7.092  1.00  0.00     0.039 A 
ATOM     40  C   UNL     1       9.965   6.258   7.410  1.00  0.00     0.014 A 
ATOM     41  C   UNL     1       8.697   8.044   6.393  1.00  0.00     0.014 A 
ATOM     42  C   UNL     1      11.149   6.843   6.949  1.00  0.00     0.010 A 
ATOM     43  C   UNL     1       9.862   8.558   5.836  1.00  0.00     0.010 A 
ATOM     44  C   UNL     1      11.105   7.973   6.116  1.00  0.00    -0.014 A 
BRANCH  44  45
ATOM     45  C   UNL     1      12.334   8.581   5.543  1.00  0.00     0.031 A 
ATOM     46  C   UNL     1      12.674  10.017   5.852  1.00  0.00     0.074 A 
ATOM     47  C   UNL     1      13.092   7.880   4.677  1.00  0.00     0.049 A 
ATOM     48  N   UNL     1      13.632  10.764   5.368  1.00  0.00    -0.248 NA
ATOM     49  C   UNL     1      11.794  10.714   6.804  1.00  0.00     0.031 C 
ATOM     50  C   UNL     1      12.848   6.496   4.263  1.00  0.00     0.029 A 
ATOM     51  N   UNL     1      14.220   8.238   3.981  1.00  0.00    -0.354 N 
ATOM     52  C   UNL     1      13.450  12.023   5.931  1.00  0.00     0.074 A 
ATOM     53  C   UNL     1      12.254  11.954   6.741  1.00  0.00     0.031 C 
ATOM     54  C   UNL     1      13.819   6.111   3.418  1.00  0.00     0.029 A 
ATOM     55  C   UNL     1      14.725   7.232   3.191  1.00  0.00     0.049 A 
ATOM     56  H   UNL     1      14.629   9.131   4.042  1.00  0.00     0.167 HD
ATOM     57  C   UNL     1      14.222  13.130   5.807  1.00  0.00     0.037 A 
ATOM     58  C   UNL     1      15.796   7.216   2.373  1.00  0.00     0.037 A 
ATOM     59  C   UNL     1      15.429  13.180   5.025  1.00  0.00     0.049 A 
ATOM     60  C   UNL     1      16.634   8.459   2.239  1.00  0.00     0.074 A 
ATOM     61  C   UNL     1      16.323  14.226   4.887  1.00  0.00     0.029 A 
ATOM     62  N   UNL     1      15.909  12.137   4.245  1.00  0.00    -0.354 N 
ATOM     63  N   UNL     1      16.484   9.622   2.827  1.00  0.00    -0.248 NA
ATOM     64  C   UNL     1      17.786   8.387   1.330  1.00  0.00     0.031 C 
ATOM     65  C   UNL     1      17.316  13.835   3.982  1.00  0.00     0.029 A 
ATOM     66  C   UNL     1      17.073  12.524   3.601  1.00  0.00     0.049 A 
ATOM     67  H   UNL     1      15.485  11.253   4.161  1.00  0.00     0.167 HD
ATOM     68  C   UNL     1      17.544  10.409   2.390  1.00  0.00     0.074 A 
ATOM     69  C   UNL     1      18.327   9.588   1.488  1.00  0.00     0.031 C 
ATOM     70  C   UNL     1      17.846  11.691   2.713  1.00  0.00     0.037 A 
BRANCH  57  71
ATOM     71  C   UNL     1      13.770  14.373   6.528  1.00  0.00     0.058 A 
ATOM     72  C   UNL     1      13.756  14.455   7.931  1.00  0.00     0.135 A 
ATOM     73  C   UNL     1      13.331  15.495   5.806  1.00  0.00     0.135 A 
ATOM     74  F   UNL     1      14.154  13.410   8.674  1.00  0.00    -0.206 F 
ATOM     75  C   UNL     1      13.269  15.579   8.590  1.00  0.00     0.059 A 
ATOM     76  C   UNL     1      12.873  16.643   6.445  1.00  0.00     0.059 A 
ATOM     77  F   UNL     1      13.327  15.477   4.464  1.00  0.00    -0.206 F 
ATOM     78  C   UNL     1      12.820  16.665   7.838  1.00  0.00     0.060 A 
BRANCH  78  79
ATOM     79  S   UNL     1      12.152  18.099   8.707  1.00  0.00     0.124 S 
ATOM     80  O   UNL     1      10.856  17.590   9.149  1.00  0.00    -0.237 OA
ATOM     81  O   UNL     1      13.139  18.316   9.759  1.00  0.00    -0.237 OA
ATOM     82  O   UNL     1      12.102  19.129   7.675  1.00  0.00    -0.744 OA
ENDBRANCH  78  79
ENDBRANCH  57  71
BRANCH  58  83
ATOM     83  C   UNL     1      16.166   5.963   1.661  1.00  0.00     0.058 A 
ATOM     84  C   UNL     1      17.303   5.236   2.045  1.00  0.00     0.135 A 
ATOM     85  C   UNL     1      15.384   5.449   0.615  1.00  0.00     0.135 A 
ATOM     86  F   UNL     1      18.086   5.690   3.035  1.00  0.00    -0.206 F 
ATOM     87  C   UNL     1      17.656   4.047   1.415  1.00  0.00     0.059 A 
ATOM     88  C   UNL     1      15.704   4.249  -0.014  1.00  0.00     0.059 A 
ATOM     89  F   UNL     1      14.278   6.098   0.220  1.00  0.00    -0.206 F 
ATOM     90  C   UNL     1      16.845   3.558   0.390  1.00  0.00     0.060 A 
BRANCH  90  91
ATOM     91  S   UNL     1      17.278   1.979  -0.373  1.00  0.00     0.124 S 
ATOM     92  O   UNL     1      18.469   2.337  -1.134  1.00  0.00    -0.237 OA
ATOM     93  O   UNL     1      17.495   1.127   0.792  1.00  0.00    -0.237 OA
ATOM     94  O   UNL     1      16.095   1.655  -1.166  1.00  0.00    -0.744 OA
ENDBRANCH  90  91
ENDBRANCH  58  83
BRANCH  70  95
ATOM     95  C   UNL     1      19.100  12.279   2.126  1.00  0.00     0.058 A 
ATOM     96  C   UNL     1      19.188  12.637   0.772  1.00  0.00     0.135 A 
ATOM     97  C   UNL     1      20.205  12.549   2.950  1.00  0.00     0.135 A 
ATOM     98  F   UNL     1      18.164  12.393  -0.060  1.00  0.00    -0.206 F 
ATOM     99  C   UNL     1      20.336  13.227   0.251  1.00  0.00     0.059 A 
ATOM    100  C   UNL     1      21.351  13.165   2.457  1.00  0.00     0.059 A 
ATOM    101  F   UNL     1      20.169  12.235   4.254  1.00  0.00    -0.206 F 
ATOM    102  C   UNL     1      21.410  13.492   1.103  1.00  0.00     0.060 A 
BRANCH 102 103
ATOM    103  S   UNL     1      22.873  14.302   0.424  1.00  0.00     0.124 S 
ATOM    104  O   UNL     1      23.472  13.224  -0.355  1.00  0.00    -0.237 OA
ATOM    105  O   UNL     1      22.293  15.396  -0.348  1.00  0.00    -0.237 OA
ATOM    106  O   UNL     1      23.619  14.708   1.612  1.00  0.00    -0.744 OA
ENDBRANCH 102 103
ENDBRANCH  70  95
ENDBRANCH  44  45
ENDBRANCH  36  39
ENDBRANCH  34  35
ENDBRANCH   1  34
TORSDOF 18
