REMARK SMILES Cc1coc2cc3oc(=O)c(CC(=O)N[C@H](Cc4c[nH]c5ccc(O)cc45)C(=O)NCCCNC(=O)c4ccc(-c5c6nc(c(-c7c(F)cc(S(=O)(=O)[O-])cc7F)c7ccc([nH]7)c(-c7c(F)cc(S(=O)(=O)[O-])cc7F)c7nc(c(-c8c(F)cc(S(=O)(=O)[O-])cc8F)c8ccc5[nH]8)C=C7)C=C6)cc4)c(C)c3cc12
REMARK SMILES IDX 32 1 31 2 30 3 28 4 29 5 16 7 15 8 13 9 14 10 12 12 11 13
REMARK SMILES IDX 1 14 2 15 3 16 107 17 4 18 5 19 106 20 6 21 105 22 7 23
REMARK SMILES IDX 103 24 8 25 104 26 9 27 10 28 17 29 18 30 19 31 27 32 20 33
REMARK SMILES IDX 21 34 26 35 22 37 24 38 23 39 25 40 33 42 34 43 35 44 36 46
REMARK SMILES IDX 37 47 38 48 102 49 39 50 101 51 40 52 41 53 42 54 95 55
REMARK SMILES IDX 43 56 100 57 94 58 96 59 44 60 99 61 93 62 92 63 45 65 79 66
REMARK SMILES IDX 58 67 78 68 59 69 62 70 77 71 97 72 60 73 61 74 76 76 98 77
REMARK SMILES IDX 63 78 46 79 47 80 56 81 48 82 49 83 55 84 57 85 50 86 51 87
REMARK SMILES IDX 52 88 53 89 54 90 80 91 81 92 90 93 82 94 83 95 89 96 91 97
REMARK SMILES IDX 84 98 85 99 86 100 87 101 88 102 64 103 65 104 74 105 66 106
REMARK SMILES IDX 67 107 73 108 75 109 68 110 69 111 70 112 71 113 72 114
REMARK H PARENT 30 6 15 11 20 36 25 41 34 45 96 64 62 75
REMARK Flexibility Score: inf
ROOT
ATOM      1  C   UNL     1      -3.787  -9.955  -0.491  1.00  0.00     0.042 C 
ENDROOT
BRANCH   1   2
ATOM      2  C   UNL     1      -3.871  -8.986   0.687  1.00  0.00     0.117 C 
BRANCH   2   3
ATOM      3  N   UNL     1      -3.272  -9.592   1.861  1.00  0.00    -0.354 N 
ATOM      4  C   UNL     1      -2.067  -9.328   2.430  1.00  0.00     0.242 C 
ATOM      5  O   UNL     1      -1.446 -10.282   2.906  1.00  0.00    -0.273 OA
ATOM      6  H   UNL     1      -3.810 -10.287   2.304  1.00  0.00     0.163 HD
BRANCH   4   7
ATOM      7  C   UNL     1      -1.464  -7.915   2.454  1.00  0.00     0.175 C 
BRANCH   7   8
ATOM      8  N   UNL     1      -2.494  -6.877   2.570  1.00  0.00    -0.344 N 
ATOM      9  C   UNL     1      -3.162  -6.413   3.660  1.00  0.00     0.225 C 
ATOM     10  O   UNL     1      -4.056  -5.581   3.478  1.00  0.00    -0.275 OA
ATOM     11  H   UNL     1      -2.742  -6.446   1.720  1.00  0.00     0.164 HD
BRANCH   9  12
ATOM     12  C   UNL     1      -2.805  -6.858   5.078  1.00  0.00     0.143 C 
BRANCH  12  13
ATOM     13  C   UNL     1      -2.987  -8.337   5.341  1.00  0.00     0.051 A 
ATOM     14  C   UNL     1      -6.894 -13.804   3.240  1.00  0.00     0.048 C 
ATOM     15  C   UNL     1      -5.532 -13.823   3.825  1.00  0.00    -0.005 A 
ATOM     16  C   UNL     1      -4.687 -14.911   3.920  1.00  0.00     0.199 A 
ATOM     17  C   UNL     1      -4.811 -12.726   4.391  1.00  0.00     0.024 A 
ATOM     18  O   UNL     1      -3.521 -14.573   4.524  1.00  0.00    -0.464 OA
ATOM     19  C   UNL     1      -3.592 -13.246   4.807  1.00  0.00     0.137 A 
ATOM     20  C   UNL     1      -5.049 -11.344   4.568  1.00  0.00     0.024 A 
ATOM     21  C   UNL     1      -2.591 -12.498   5.408  1.00  0.00     0.095 A 
ATOM     22  C   UNL     1      -4.038 -10.523   5.109  1.00  0.00     0.022 A 
ATOM     23  C   UNL     1      -2.852 -11.129   5.528  1.00  0.00     0.142 A 
ATOM     24  C   UNL     1      -4.115  -9.044   5.099  1.00  0.00    -0.029 A 
ATOM     25  O   UNL     1      -1.793 -10.365   6.045  1.00  0.00    -0.422 OA
ATOM     26  C   UNL     1      -5.421  -8.414   4.687  1.00  0.00     0.046 C 
ATOM     27  C   UNL     1      -1.766  -8.995   5.891  1.00  0.00     0.340 A 
ATOM     28  O   UNL     1      -0.783  -8.345   6.233  1.00  0.00    -0.246 OA
ENDBRANCH  12  13
ENDBRANCH   9  12
ENDBRANCH   7   8
BRANCH   7  29
ATOM     29  C   UNL     1      -0.422  -7.766   1.323  1.00  0.00     0.072 C 
BRANCH  29  30
ATOM     30  C   UNL     1      -0.794  -6.948   0.123  1.00  0.00    -0.020 A 
ATOM     31  C   UNL     1      -1.159  -5.612   0.119  1.00  0.00     0.087 A 
ATOM     32  C   UNL     1      -0.711  -7.350  -1.255  1.00  0.00     0.006 A 
ATOM     33  N   UNL     1      -1.391  -5.224  -1.172  1.00  0.00    -0.361 N 
ATOM     34  C   UNL     1      -1.119  -6.263  -2.025  1.00  0.00     0.046 A 
ATOM     35  C   UNL     1      -0.297  -8.519  -1.931  1.00  0.00     0.056 A 
ATOM     36  H   UNL     1      -1.706  -4.333  -1.447  1.00  0.00     0.166 HD
ATOM     37  C   UNL     1      -1.170  -6.290  -3.421  1.00  0.00     0.030 A 
ATOM     38  C   UNL     1      -0.297  -8.532  -3.331  1.00  0.00     0.116 A 
ATOM     39  C   UNL     1      -0.736  -7.443  -4.071  1.00  0.00     0.048 A 
BRANCH  38  40
ATOM     40  O   UNL     1       0.170  -9.653  -3.958  1.00  0.00    -0.508 OA
ATOM     41  H   UNL     1       0.184  -9.695  -4.894  1.00  0.00     0.293 HD
ENDBRANCH  38  40
ENDBRANCH  29  30
ENDBRANCH   7  29
ENDBRANCH   4   7
ENDBRANCH   2   3
ENDBRANCH   1   2
BRANCH   1  42
ATOM     42  C   UNL     1      -4.589 -11.246  -0.287  1.00  0.00     0.118 C 
BRANCH  42  43
ATOM     43  N   UNL     1      -6.019 -11.051  -0.153  1.00  0.00    -0.352 N 
ATOM     44  C   UNL     1      -7.046 -10.920  -1.050  1.00  0.00     0.251 C 
ATOM     45  H   UNL     1      -6.316 -11.002   0.784  1.00  0.00     0.163 HD
ATOM     46  O   UNL     1      -8.185 -10.950  -0.576  1.00  0.00    -0.269 OA
BRANCH  44  47
ATOM     47  C   UNL     1      -6.873 -10.681  -2.510  1.00  0.00     0.039 A 
ATOM     48  C   UNL     1      -5.655 -10.695  -3.186  1.00  0.00     0.014 A 
ATOM     49  C   UNL     1      -8.034 -10.347  -3.236  1.00  0.00     0.014 A 
ATOM     50  C   UNL     1      -5.574 -10.266  -4.502  1.00  0.00     0.010 A 
ATOM     51  C   UNL     1      -7.964  -9.958  -4.573  1.00  0.00     0.010 A 
ATOM     52  C   UNL     1      -6.723  -9.871  -5.191  1.00  0.00    -0.014 A 
BRANCH  52  53
ATOM     53  C   UNL     1      -6.543  -9.477  -6.585  1.00  0.00     0.031 A 
ATOM     54  C   UNL     1      -5.886 -10.505  -7.443  1.00  0.00     0.074 A 
ATOM     55  C   UNL     1      -6.944  -8.306  -7.114  1.00  0.00     0.049 A 
ATOM     56  N   UNL     1      -4.711 -10.460  -7.984  1.00  0.00    -0.248 NA
ATOM     57  C   UNL     1      -6.571 -11.794  -7.602  1.00  0.00     0.031 C 
ATOM     58  C   UNL     1      -7.809  -7.284  -6.524  1.00  0.00     0.029 A 
ATOM     59  N   UNL     1      -6.693  -7.818  -8.362  1.00  0.00    -0.354 N 
ATOM     60  C   UNL     1      -4.578 -11.639  -8.715  1.00  0.00     0.074 A 
ATOM     61  C   UNL     1      -5.685 -12.475  -8.330  1.00  0.00     0.031 C 
ATOM     62  C   UNL     1      -8.176  -6.404  -7.484  1.00  0.00     0.029 A 
ATOM     63  C   UNL     1      -7.458  -6.714  -8.710  1.00  0.00     0.049 A 
ATOM     64  H   UNL     1      -6.026  -8.216  -8.966  1.00  0.00     0.167 HD
ATOM     65  C   UNL     1      -3.665 -11.762  -9.720  1.00  0.00     0.037 A 
ATOM     66  C   UNL     1      -7.525  -6.130  -9.932  1.00  0.00     0.037 A 
ATOM     67  C   UNL     1      -2.631 -10.764  -9.611  1.00  0.00     0.049 A 
ATOM     68  C   UNL     1      -6.272  -6.477 -10.651  1.00  0.00     0.074 A 
ATOM     69  C   UNL     1      -1.668 -10.455  -8.669  1.00  0.00     0.029 A 
ATOM     70  N   UNL     1      -2.694  -9.676 -10.445  1.00  0.00    -0.354 N 
ATOM     71  N   UNL     1      -5.088  -6.051 -10.304  1.00  0.00    -0.248 NA
ATOM     72  C   UNL     1      -6.283  -7.633 -11.534  1.00  0.00     0.031 C 
ATOM     73  C   UNL     1      -1.554  -9.035  -8.704  1.00  0.00     0.029 A 
ATOM     74  C   UNL     1      -2.428  -8.566  -9.686  1.00  0.00     0.049 A 
ATOM     75  H   UNL     1      -2.894  -9.690 -11.409  1.00  0.00     0.167 HD
ATOM     76  C   UNL     1      -4.234  -7.110 -10.574  1.00  0.00     0.074 A 
ATOM     77  C   UNL     1      -5.007  -8.011 -11.424  1.00  0.00     0.031 C 
ATOM     78  C   UNL     1      -3.076  -7.286  -9.871  1.00  0.00     0.037 A 
BRANCH  65  79
ATOM     79  C   UNL     1      -3.888 -12.556 -10.991  1.00  0.00     0.058 A 
ATOM     80  C   UNL     1      -2.844 -12.653 -11.937  1.00  0.00     0.135 A 
ATOM     81  C   UNL     1      -5.158 -12.968 -11.453  1.00  0.00     0.135 A 
ATOM     82  F   UNL     1      -1.588 -12.306 -11.611  1.00  0.00    -0.206 F 
ATOM     83  C   UNL     1      -3.066 -13.020 -13.266  1.00  0.00     0.059 A 
ATOM     84  C   UNL     1      -5.391 -13.387 -12.758  1.00  0.00     0.059 A 
ATOM     85  F   UNL     1      -6.257 -12.894 -10.694  1.00  0.00    -0.206 F 
ATOM     86  C   UNL     1      -4.352 -13.358 -13.672  1.00  0.00     0.060 A 
BRANCH  86  87
ATOM     87  S   UNL     1      -4.674 -13.679 -15.414  1.00  0.00     0.124 S 
ATOM     88  O   UNL     1      -4.469 -12.357 -15.993  1.00  0.00    -0.237 OA
ATOM     89  O   UNL     1      -3.661 -14.681 -15.729  1.00  0.00    -0.237 OA
ATOM     90  O   UNL     1      -6.051 -14.165 -15.417  1.00  0.00    -0.744 OA
ENDBRANCH  86  87
ENDBRANCH  65  79
BRANCH  66  91
ATOM     91  C   UNL     1      -8.726  -5.590 -10.625  1.00  0.00     0.058 A 
ATOM     92  C   UNL     1      -8.607  -4.872 -11.830  1.00  0.00     0.135 A 
ATOM     93  C   UNL     1     -10.027  -6.011 -10.283  1.00  0.00     0.135 A 
ATOM     94  F   UNL     1      -7.404  -4.445 -12.246  1.00  0.00    -0.206 F 
ATOM     95  C   UNL     1      -9.699  -4.643 -12.675  1.00  0.00     0.059 A 
ATOM     96  C   UNL     1     -11.131  -5.784 -11.101  1.00  0.00     0.059 A 
ATOM     97  F   UNL     1     -10.252  -6.744  -9.182  1.00  0.00    -0.206 F 
ATOM     98  C   UNL     1     -10.955  -5.126 -12.312  1.00  0.00     0.060 A 
BRANCH  98  99
ATOM     99  S   UNL     1     -12.328  -4.997 -13.481  1.00  0.00     0.124 S 
ATOM    100  O   UNL     1     -12.556  -3.557 -13.522  1.00  0.00    -0.237 OA
ATOM    101  O   UNL     1     -11.760  -5.589 -14.687  1.00  0.00    -0.237 OA
ATOM    102  O   UNL     1     -13.388  -5.778 -12.847  1.00  0.00    -0.744 OA
ENDBRANCH  98  99
ENDBRANCH  66  91
BRANCH  78 103
ATOM    103  C   UNL     1      -2.567  -6.142  -9.031  1.00  0.00     0.058 A 
ATOM    104  C   UNL     1      -3.235  -5.619  -7.910  1.00  0.00     0.135 A 
ATOM    105  C   UNL     1      -1.274  -5.659  -9.286  1.00  0.00     0.135 A 
ATOM    106  F   UNL     1      -4.427  -6.100  -7.531  1.00  0.00    -0.206 F 
ATOM    107  C   UNL     1      -2.662  -4.627  -7.108  1.00  0.00     0.059 A 
ATOM    108  C   UNL     1      -0.671  -4.693  -8.483  1.00  0.00     0.059 A 
ATOM    109  F   UNL     1      -0.555  -6.165 -10.302  1.00  0.00    -0.206 F 
ATOM    110  C   UNL     1      -1.380  -4.165  -7.405  1.00  0.00     0.060 A 
BRANCH 110 111
ATOM    111  S   UNL     1      -0.607  -2.917  -6.350  1.00  0.00     0.124 S 
ATOM    112  O   UNL     1      -1.264  -1.690  -6.798  1.00  0.00    -0.237 OA
ATOM    113  O   UNL     1      -0.969  -3.357  -5.002  1.00  0.00    -0.237 OA
ATOM    114  O   UNL     1       0.806  -3.029  -6.671  1.00  0.00    -0.744 OA
ENDBRANCH 110 111
ENDBRANCH  78 103
ENDBRANCH  52  53
ENDBRANCH  44  47
ENDBRANCH  42  43
ENDBRANCH   1  42
TORSDOF 19
