REMARK SMILES C[C@H]1CC[C@H](CNC(=O)NCc2ccc(C(=O)NCCCNC(=O)c3ccc(-c4c5nc(c(-c6c(F)cc(S(=O)(=O)[O-])cc6F)c6ccc([nH]6)c(-c6c(F)cc(S(=O)(=O)[O-])cc6F)c6nc(c(-c7c(F)cc(S(=O)(=O)[O-])cc7F)c7ccc4[nH]7)C=C6)C=C5)cc3)o2)CC1
REMARK SMILES IDX 19 1 18 2 16 3 17 4 15 6 12 7 13 8 91 9 14 10 11 11 10 12
REMARK SMILES IDX 7 13 8 14 9 16 6 18 5 19 1 20 2 21 93 22 3 23 92 24 4 25
REMARK SMILES IDX 20 26 21 27 22 28 23 29 24 31 25 32 26 33 90 34 27 35 89 36
REMARK SMILES IDX 28 37 29 38 30 39 83 40 31 41 88 42 82 43 84 44 32 45 87 46
REMARK SMILES IDX 81 47 80 48 33 50 67 51 46 52 66 53 47 54 50 55 65 56 85 57
REMARK SMILES IDX 48 58 49 59 64 61 86 62 51 63 34 64 35 65 44 66 36 67 37 68
REMARK SMILES IDX 43 69 45 70 38 71 39 72 40 73 41 74 42 75 68 76 69 77 78 78
REMARK SMILES IDX 70 79 71 80 77 81 79 82 72 83 73 84 74 85 75 86 76 87 52 88
REMARK SMILES IDX 53 89 62 90 54 91 55 92 61 93 63 94 56 95 57 96 58 97 59 98
REMARK SMILES IDX 60 99
REMARK H PARENT 18 5 7 15 10 17 22 30 84 49 50 60
REMARK Flexibility Score: inf
ROOT
ATOM      1  C   UNL     1      -9.011  -5.298   2.028  1.00  0.00     0.118 C 
ENDROOT
BRANCH   1   2
ATOM      2  N   UNL     1      -9.098  -3.876   2.299  1.00  0.00    -0.349 N 
ATOM      3  C   UNL     1      -8.395  -2.819   1.768  1.00  0.00     0.286 C 
ATOM      4  O   UNL     1      -8.833  -1.695   2.037  1.00  0.00    -0.266 OA
ATOM      5  H   UNL     1      -9.771  -3.625   2.973  1.00  0.00     0.163 HD
BRANCH   3   6
ATOM      6  C   UNL     1      -7.223  -3.031   0.938  1.00  0.00     0.191 A 
ATOM      7  C   UNL     1      -5.746  -2.385  -0.590  1.00  0.00     0.124 A 
ATOM      8  C   UNL     1      -5.347  -3.633  -0.165  1.00  0.00     0.048 A 
ATOM      9  O   UNL     1      -6.886  -2.023   0.067  1.00  0.00    -0.454 OA
ATOM     10  C   UNL     1      -6.280  -4.038   0.823  1.00  0.00     0.056 A 
BRANCH   7  11
ATOM     11  C   UNL     1      -5.183  -1.439  -1.593  1.00  0.00     0.193 C 
BRANCH  11  12
ATOM     12  N   UNL     1      -5.739  -0.115  -1.443  1.00  0.00    -0.331 N 
ATOM     13  N   UNL     1      -4.107   1.150  -0.304  1.00  0.00    -0.338 N 
ATOM     14  C   UNL     1      -5.244   1.044  -1.002  1.00  0.00     0.315 C 
ATOM     15  H   UNL     1      -3.744   2.065  -0.281  1.00  0.00     0.165 HD
ATOM     16  O   UNL     1      -5.859   2.081  -1.261  1.00  0.00    -0.249 OA
ATOM     17  H   UNL     1      -6.680  -0.053  -1.725  1.00  0.00     0.165 HD
BRANCH  13  18
ATOM     18  C   UNL     1      -3.300   0.190   0.427  1.00  0.00     0.121 C 
BRANCH  18  19
ATOM     19  C   UNL     1      -1.872   0.112  -0.137  1.00  0.00     0.008 C 
ATOM     20  C   UNL     1       2.517  -0.076  -0.182  1.00  0.00     0.007 C 
ATOM     21  C   UNL     1       1.074   0.004   0.311  1.00  0.00    -0.014 C 
ATOM     22  C   UNL     1       0.280  -1.237  -0.114  1.00  0.00     0.003 C 
ATOM     23  C   UNL     1       0.394   1.276  -0.206  1.00  0.00     0.003 C 
ATOM     24  C   UNL     1      -1.171  -1.162   0.359  1.00  0.00     0.006 C 
ATOM     25  C   UNL     1      -1.061   1.362   0.250  1.00  0.00     0.006 C 
ENDBRANCH  18  19
ENDBRANCH  13  18
ENDBRANCH  11  12
ENDBRANCH   7  11
ENDBRANCH   3   6
ENDBRANCH   1   2
BRANCH   1  26
ATOM     26  C   UNL     1      -8.341  -6.066   3.165  1.00  0.00     0.042 C 
BRANCH  26  27
ATOM     27  C   UNL     1      -9.230  -6.263   4.394  1.00  0.00     0.118 C 
BRANCH  27  28
ATOM     28  N   UNL     1     -10.361  -7.140   4.122  1.00  0.00    -0.352 N 
ATOM     29  C   UNL     1     -10.746  -8.319   4.710  1.00  0.00     0.251 C 
ATOM     30  H   UNL     1     -10.948  -6.836   3.393  1.00  0.00     0.163 HD
ATOM     31  O   UNL     1     -11.621  -8.988   4.163  1.00  0.00    -0.269 OA
BRANCH  29  32
ATOM     32  C   UNL     1     -10.133  -8.803   5.970  1.00  0.00     0.039 A 
ATOM     33  C   UNL     1      -9.940 -10.180   6.130  1.00  0.00     0.014 A 
ATOM     34  C   UNL     1      -9.821  -7.937   7.022  1.00  0.00     0.014 A 
ATOM     35  C   UNL     1      -9.396 -10.680   7.316  1.00  0.00     0.010 A 
ATOM     36  C   UNL     1      -9.220  -8.431   8.182  1.00  0.00     0.010 A 
ATOM     37  C   UNL     1      -9.008  -9.807   8.345  1.00  0.00    -0.014 A 
BRANCH  37  38
ATOM     38  C   UNL     1      -8.380 -10.328   9.588  1.00  0.00     0.031 A 
ATOM     39  C   UNL     1      -9.084 -10.207  10.913  1.00  0.00     0.074 A 
ATOM     40  C   UNL     1      -7.150 -10.875   9.529  1.00  0.00     0.049 A 
ATOM     41  N   UNL     1      -8.677 -10.577  12.101  1.00  0.00    -0.248 NA
ATOM     42  C   UNL     1     -10.408  -9.566  10.906  1.00  0.00     0.031 C 
ATOM     43  C   UNL     1      -6.341 -11.006   8.314  1.00  0.00     0.029 A 
ATOM     44  N   UNL     1      -6.362 -11.419  10.511  1.00  0.00    -0.354 N 
ATOM     45  C   UNL     1      -9.685 -10.204  12.983  1.00  0.00     0.074 A 
ATOM     46  C   UNL     1     -10.703  -9.537  12.198  1.00  0.00     0.031 C 
ATOM     47  C   UNL     1      -5.184 -11.615   8.620  1.00  0.00     0.029 A 
ATOM     48  C   UNL     1      -5.155 -11.892  10.052  1.00  0.00     0.049 A 
ATOM     49  H   UNL     1      -6.635 -11.467  11.456  1.00  0.00     0.167 HD
ATOM     50  C   UNL     1      -9.767 -10.414  14.320  1.00  0.00     0.037 A 
ATOM     51  C   UNL     1      -4.140 -12.486  10.709  1.00  0.00     0.037 A 
ATOM     52  C   UNL     1      -8.764 -11.099  15.095  1.00  0.00     0.049 A 
ATOM     53  C   UNL     1      -4.265 -12.733  12.187  1.00  0.00     0.074 A 
ATOM     54  C   UNL     1      -8.777 -11.405  16.446  1.00  0.00     0.029 A 
ATOM     55  N   UNL     1      -7.568 -11.588  14.589  1.00  0.00    -0.354 N 
ATOM     56  N   UNL     1      -5.249 -12.418  12.995  1.00  0.00    -0.248 NA
ATOM     57  C   UNL     1      -3.146 -13.427  12.839  1.00  0.00     0.031 C 
ATOM     58  C   UNL     1      -7.577 -12.053  16.761  1.00  0.00     0.029 A 
ATOM     59  C   UNL     1      -6.832 -12.184  15.600  1.00  0.00     0.049 A 
ATOM     60  H   UNL     1      -7.285 -11.520  13.649  1.00  0.00     0.167 HD
ATOM     61  C   UNL     1      -4.878 -12.894  14.247  1.00  0.00     0.074 A 
ATOM     62  C   UNL     1      -3.586 -13.531  14.085  1.00  0.00     0.031 C 
ATOM     63  C   UNL     1      -5.546 -12.811  15.424  1.00  0.00     0.037 A 
BRANCH  50  64
ATOM     64  C   UNL     1     -10.990  -9.897  15.028  1.00  0.00     0.058 A 
ATOM     65  C   UNL     1     -12.248 -10.497  14.855  1.00  0.00     0.135 A 
ATOM     66  C   UNL     1     -10.903  -8.802  15.903  1.00  0.00     0.135 A 
ATOM     67  F   UNL     1     -12.390 -11.539  14.020  1.00  0.00    -0.206 F 
ATOM     68  C   UNL     1     -13.382 -10.008  15.495  1.00  0.00     0.059 A 
ATOM     69  C   UNL     1     -12.020  -8.312  16.573  1.00  0.00     0.059 A 
ATOM     70  F   UNL     1      -9.725  -8.192  16.108  1.00  0.00    -0.206 F 
ATOM     71  C   UNL     1     -13.259  -8.910  16.348  1.00  0.00     0.060 A 
BRANCH  71  72
ATOM     72  S   UNL     1     -14.742  -8.277  17.161  1.00  0.00     0.124 S 
ATOM     73  O   UNL     1     -15.390  -7.562  16.065  1.00  0.00    -0.237 OA
ATOM     74  O   UNL     1     -15.407  -9.499  17.601  1.00  0.00    -0.237 OA
ATOM     75  O   UNL     1     -14.210  -7.437  18.230  1.00  0.00    -0.744 OA
ENDBRANCH  71  72
ENDBRANCH  50  64
BRANCH  51  76
ATOM     76  C   UNL     1      -2.933 -12.922   9.961  1.00  0.00     0.058 A 
ATOM     77  C   UNL     1      -2.699 -14.282   9.708  1.00  0.00     0.135 A 
ATOM     78  C   UNL     1      -2.008 -11.993   9.463  1.00  0.00     0.135 A 
ATOM     79  F   UNL     1      -3.553 -15.207  10.169  1.00  0.00    -0.206 F 
ATOM     80  C   UNL     1      -1.583 -14.707   8.994  1.00  0.00     0.059 A 
ATOM     81  C   UNL     1      -0.896 -12.393   8.728  1.00  0.00     0.059 A 
ATOM     82  F   UNL     1      -2.199 -10.680   9.664  1.00  0.00    -0.206 F 
ATOM     83  C   UNL     1      -0.689 -13.754   8.505  1.00  0.00     0.060 A 
BRANCH  83  84
ATOM     84  S   UNL     1       0.720 -14.309   7.521  1.00  0.00     0.124 S 
ATOM     85  O   UNL     1       1.611 -14.829   8.551  1.00  0.00    -0.237 OA
ATOM     86  O   UNL     1       0.110 -15.302   6.641  1.00  0.00    -0.237 OA
ATOM     87  O   UNL     1       1.165 -13.087   6.857  1.00  0.00    -0.744 OA
ENDBRANCH  83  84
ENDBRANCH  51  76
BRANCH  63  88
ATOM     88  C   UNL     1      -4.899 -13.448  16.622  1.00  0.00     0.058 A 
ATOM     89  C   UNL     1      -3.784 -12.870  17.250  1.00  0.00     0.135 A 
ATOM     90  C   UNL     1      -5.405 -14.644  17.153  1.00  0.00     0.135 A 
ATOM     91  F   UNL     1      -3.259 -11.729  16.777  1.00  0.00    -0.206 F 
ATOM     92  C   UNL     1      -3.172 -13.475  18.343  1.00  0.00     0.059 A 
ATOM     93  C   UNL     1      -4.823 -15.255  18.259  1.00  0.00     0.059 A 
ATOM     94  F   UNL     1      -6.476 -15.232  16.595  1.00  0.00    -0.206 F 
ATOM     95  C   UNL     1      -3.695 -14.672  18.836  1.00  0.00     0.060 A 
BRANCH  95  96
ATOM     96  S   UNL     1      -2.895 -15.452  20.254  1.00  0.00     0.124 S 
ATOM     97  O   UNL     1      -1.738 -16.081  19.627  1.00  0.00    -0.237 OA
ATOM     98  O   UNL     1      -2.606 -14.313  21.120  1.00  0.00    -0.237 OA
ATOM     99  O   UNL     1      -3.915 -16.369  20.755  1.00  0.00    -0.744 OA
ENDBRANCH  95  96
ENDBRANCH  63  88
ENDBRANCH  37  38
ENDBRANCH  29  32
ENDBRANCH  27  28
ENDBRANCH  26  27
ENDBRANCH   1  26
TORSDOF 17
