REMARK SMILES C[C@]12CCC(=O)N1[C@H](C(=O)N1CCC[C@@H]1C(=O)NCCCNC(=O)c1ccc(-c3c4nc(c(-c5c(F)cc(S(=O)(=O)[O-])cc5F)c5ccc([nH]5)c(-c5c(F)cc(S(=O)(=O)[O-])cc5F)c5nc(c(-c6c(F)cc(S(=O)(=O)[O-])cc6F)c6ccc3[nH]6)C=C5)C=C4)cc1)CS2
REMARK SMILES IDX 20 1 19 2 18 3 16 4 17 5 15 7 11 8 12 9 13 10 14 11 9 12
REMARK SMILES IDX 10 13 8 14 1 15 2 16 3 17 7 18 92 19 4 20 5 21 91 22 6 23
REMARK SMILES IDX 21 24 22 25 23 26 24 28 25 29 26 30 90 31 27 32 89 33 28 34
REMARK SMILES IDX 29 35 30 36 83 37 31 38 88 39 82 40 84 41 32 42 87 43 81 44
REMARK SMILES IDX 80 45 33 47 67 48 46 49 66 50 47 51 50 52 65 53 85 54 48 55
REMARK SMILES IDX 49 56 64 58 86 59 51 60 34 61 35 62 44 63 36 64 37 65 43 66
REMARK SMILES IDX 45 67 38 68 39 69 40 70 41 71 42 72 68 73 69 74 78 75 70 76
REMARK SMILES IDX 71 77 77 78 79 79 72 80 73 81 74 82 75 83 76 84 52 85 53 86
REMARK SMILES IDX 62 87 54 88 55 89 61 90 63 91 56 92 57 93 58 94 59 95 60 96
REMARK H PARENT 18 6 22 27 84 46 50 57
REMARK Flexibility Score: inf
ROOT
ATOM      1  C   UNL     1       4.647  -0.627   1.819  1.00  0.00     0.042 C 
ENDROOT
BRANCH   1   2
ATOM      2  C   UNL     1       5.010   0.662   1.075  1.00  0.00     0.117 C 
BRANCH   2   3
ATOM      3  N   UNL     1       4.072   1.079   0.043  1.00  0.00    -0.354 N 
ATOM      4  C   UNL     1       3.270   2.184  -0.061  1.00  0.00     0.242 C 
ATOM      5  O   UNL     1       2.776   2.413  -1.167  1.00  0.00    -0.273 OA
ATOM      6  H   UNL     1       4.002   0.456  -0.716  1.00  0.00     0.163 HD
BRANCH   4   7
ATOM      7  C   UNL     1       3.054   3.122   1.151  1.00  0.00     0.174 C 
ATOM      8  N   UNL     1       1.775   3.878   1.119  1.00  0.00    -0.329 N 
ATOM      9  C   UNL     1       2.001   5.273   0.781  1.00  0.00     0.120 C 
ATOM     10  C   UNL     1       3.435   5.346   0.297  1.00  0.00     0.024 C 
ATOM     11  C   UNL     1       4.122   4.227   1.076  1.00  0.00     0.037 C 
BRANCH   8  12
ATOM     12  C   UNL     1       0.481   3.386   1.091  1.00  0.00     0.246 C 
ATOM     13  O   UNL     1      -0.290   3.747   0.193  1.00  0.00    -0.272 OA
BRANCH  12  14
ATOM     14  C   UNL     1      -0.094   2.576   2.285  1.00  0.00     0.186 C 
ATOM     15  C   UNL     1       0.656   0.051   0.390  1.00  0.00     0.047 C 
ATOM     16  C   UNL     1       0.104   0.187   1.805  1.00  0.00     0.087 C 
ATOM     17  C   UNL     1      -0.725  -1.037   2.174  1.00  0.00     0.049 C 
ATOM     18  N   UNL     1      -0.771   1.314   1.959  1.00  0.00    -0.315 N 
ATOM     19  S   UNL     1       1.426   0.537   3.034  1.00  0.00    -0.131 SA
ATOM     20  C   UNL     1      -1.844  -0.494   3.041  1.00  0.00     0.103 C 
ATOM     21  C   UNL     1      -1.925   0.966   2.665  1.00  0.00     0.224 C 
ATOM     22  C   UNL     1       0.844   2.226   3.427  1.00  0.00     0.107 C 
ATOM     23  O   UNL     1      -2.769   1.744   3.082  1.00  0.00    -0.275 OA
ENDBRANCH  12  14
ENDBRANCH   8  12
ENDBRANCH   4   7
ENDBRANCH   2   3
ENDBRANCH   1   2
BRANCH   1  24
ATOM     24  C   UNL     1       4.210  -1.822   0.970  1.00  0.00     0.118 C 
BRANCH  24  25
ATOM     25  N   UNL     1       5.327  -2.675   0.603  1.00  0.00    -0.352 N 
ATOM     26  C   UNL     1       5.617  -3.969   0.973  1.00  0.00     0.251 C 
ATOM     27  H   UNL     1       5.981  -2.263  -0.007  1.00  0.00     0.163 HD
ATOM     28  O   UNL     1       6.734  -4.414   0.718  1.00  0.00    -0.269 OA
BRANCH  26  29
ATOM     29  C   UNL     1       4.631  -4.832   1.677  1.00  0.00     0.039 A 
ATOM     30  C   UNL     1       5.095  -5.679   2.691  1.00  0.00     0.014 A 
ATOM     31  C   UNL     1       3.288  -4.898   1.296  1.00  0.00     0.014 A 
ATOM     32  C   UNL     1       4.217  -6.555   3.342  1.00  0.00     0.010 A 
ATOM     33  C   UNL     1       2.400  -5.739   1.980  1.00  0.00     0.010 A 
ATOM     34  C   UNL     1       2.854  -6.584   3.005  1.00  0.00    -0.014 A 
BRANCH  34  35
ATOM     35  C   UNL     1       1.911  -7.503   3.706  1.00  0.00     0.031 A 
ATOM     36  C   UNL     1       1.260  -8.645   2.968  1.00  0.00     0.074 A 
ATOM     37  C   UNL     1       1.609  -7.298   5.004  1.00  0.00     0.049 A 
ATOM     38  N   UNL     1       0.380  -9.514   3.399  1.00  0.00    -0.248 NA
ATOM     39  C   UNL     1       1.633  -8.822   1.556  1.00  0.00     0.031 C 
ATOM     40  C   UNL     1       2.142  -6.216   5.835  1.00  0.00     0.029 A 
ATOM     41  N   UNL     1       0.774  -7.985   5.851  1.00  0.00    -0.354 N 
ATOM     42  C   UNL     1       0.082 -10.329   2.313  1.00  0.00     0.074 A 
ATOM     43  C   UNL     1       0.849  -9.827   1.192  1.00  0.00     0.031 C 
ATOM     44  C   UNL     1       1.632  -6.321   7.073  1.00  0.00     0.029 A 
ATOM     45  C   UNL     1       0.714  -7.456   7.119  1.00  0.00     0.049 A 
ATOM     46  H   UNL     1       0.265  -8.782   5.576  1.00  0.00     0.167 HD
ATOM     47  C   UNL     1      -0.740 -11.406   2.255  1.00  0.00     0.037 A 
ATOM     48  C   UNL     1      -0.002  -7.834   8.198  1.00  0.00     0.037 A 
ATOM     49  C   UNL     1      -1.480 -11.930   3.374  1.00  0.00     0.049 A 
ATOM     50  C   UNL     1      -0.903  -9.036   8.112  1.00  0.00     0.074 A 
ATOM     51  C   UNL     1      -2.292 -13.051   3.419  1.00  0.00     0.029 A 
ATOM     52  N   UNL     1      -1.500 -11.374   4.644  1.00  0.00    -0.354 N 
ATOM     53  N   UNL     1      -1.133  -9.821   7.087  1.00  0.00    -0.248 NA
ATOM     54  C   UNL     1      -1.639  -9.406   9.330  1.00  0.00     0.031 C 
ATOM     55  C   UNL     1      -2.828 -13.155   4.708  1.00  0.00     0.029 A 
ATOM     56  C   UNL     1      -2.321 -12.119   5.475  1.00  0.00     0.049 A 
ATOM     57  H   UNL     1      -1.003 -10.569   4.915  1.00  0.00     0.167 HD
ATOM     58  C   UNL     1      -2.021 -10.789   7.543  1.00  0.00     0.074 A 
ATOM     59  C   UNL     1      -2.280 -10.498   8.937  1.00  0.00     0.031 C 
ATOM     60  C   UNL     1      -2.570 -11.826   6.864  1.00  0.00     0.037 A 
BRANCH  47  61
ATOM     61  C   UNL     1      -0.883 -12.100   0.928  1.00  0.00     0.058 A 
ATOM     62  C   UNL     1       0.145 -12.897   0.402  1.00  0.00     0.135 A 
ATOM     63  C   UNL     1      -2.075 -11.998   0.193  1.00  0.00     0.135 A 
ATOM     64  F   UNL     1       1.310 -13.019   1.059  1.00  0.00    -0.206 F 
ATOM     65  C   UNL     1       0.010 -13.543  -0.823  1.00  0.00     0.059 A 
ATOM     66  C   UNL     1      -2.242 -12.655  -1.023  1.00  0.00     0.059 A 
ATOM     67  F   UNL     1      -3.091 -11.251   0.653  1.00  0.00    -0.206 F 
ATOM     68  C   UNL     1      -1.186 -13.412  -1.530  1.00  0.00     0.060 A 
BRANCH  68  69
ATOM     69  S   UNL     1      -1.347 -14.251  -3.121  1.00  0.00     0.124 S 
ATOM     70  O   UNL     1      -0.553 -13.384  -3.986  1.00  0.00    -0.237 OA
ATOM     71  O   UNL     1      -0.775 -15.565  -2.844  1.00  0.00    -0.237 OA
ATOM     72  O   UNL     1      -2.786 -14.237  -3.368  1.00  0.00    -0.744 OA
ENDBRANCH  68  69
ENDBRANCH  47  61
BRANCH  48  73
ATOM     73  C   UNL     1       0.118  -7.069   9.467  1.00  0.00     0.058 A 
ATOM     74  C   UNL     1       0.807  -7.602  10.566  1.00  0.00     0.135 A 
ATOM     75  C   UNL     1      -0.439  -5.788   9.599  1.00  0.00     0.135 A 
ATOM     76  F   UNL     1       1.347  -8.828  10.488  1.00  0.00    -0.206 F 
ATOM     77  C   UNL     1       0.934  -6.896  11.757  1.00  0.00     0.059 A 
ATOM     78  C   UNL     1      -0.307  -5.054  10.773  1.00  0.00     0.059 A 
ATOM     79  F   UNL     1      -1.096  -5.231   8.570  1.00  0.00    -0.206 F 
ATOM     80  C   UNL     1       0.376  -5.619  11.850  1.00  0.00     0.060 A 
BRANCH  80  81
ATOM     81  S   UNL     1       0.602  -4.680  13.376  1.00  0.00     0.124 S 
ATOM     82  O   UNL     1      -0.373  -5.313  14.257  1.00  0.00    -0.237 OA
ATOM     83  O   UNL     1       2.005  -4.933  13.690  1.00  0.00    -0.237 OA
ATOM     84  O   UNL     1       0.296  -3.311  12.973  1.00  0.00    -0.744 OA
ENDBRANCH  80  81
ENDBRANCH  48  73
BRANCH  60  85
ATOM     85  C   UNL     1      -3.488 -12.743   7.622  1.00  0.00     0.058 A 
ATOM     86  C   UNL     1      -4.798 -12.364   7.952  1.00  0.00     0.135 A 
ATOM     87  C   UNL     1      -3.069 -14.036   7.978  1.00  0.00     0.135 A 
ATOM     88  F   UNL     1      -5.244 -11.137   7.641  1.00  0.00    -0.206 F 
ATOM     89  C   UNL     1      -5.657 -13.229   8.624  1.00  0.00     0.059 A 
ATOM     90  C   UNL     1      -3.918 -14.924   8.632  1.00  0.00     0.059 A 
ATOM     91  F   UNL     1      -1.828 -14.450   7.679  1.00  0.00    -0.206 F 
ATOM     92  C   UNL     1      -5.208 -14.507   8.960  1.00  0.00     0.060 A 
BRANCH  92  93
ATOM     93  S   UNL     1      -6.342 -15.635   9.799  1.00  0.00     0.124 S 
ATOM     94  O   UNL     1      -6.311 -15.121  11.164  1.00  0.00    -0.237 OA
ATOM     95  O   UNL     1      -7.590 -15.427   9.071  1.00  0.00    -0.237 OA
ATOM     96  O   UNL     1      -5.723 -16.943   9.605  1.00  0.00    -0.744 OA
ENDBRANCH  92  93
ENDBRANCH  60  85
ENDBRANCH  34  35
ENDBRANCH  26  29
ENDBRANCH  24  25
ENDBRANCH   1  24
TORSDOF 15
