REMARK SMILES O=C(NCCCNC(=O)c1ccc(-c2c3nc(c(-c4c(F)cc(S(=O)(=O)[O-])cc4F)c4ccc([nH]4)c(-c4c(F)cc(S(=O)(=O)[O-])cc4F)c4nc(c(-c5c(F)cc(S(=O)(=O)[O-])cc5F)c5ccc2[nH]5)C=C4)C=C3)cc1)c1ccc(NC(=O)c2cc(F)cc(Br)c2)cc1
REMARK SMILES IDX 5 1 4 2 3 3 1 4 2 5 76 7 77 8 92 9 78 10 91 11 79 12 80 13
REMARK SMILES IDX 81 14 82 16 83 17 84 18 90 19 85 20 88 21 86 22 87 23 89 24
REMARK SMILES IDX 6 25 7 26 8 27 9 29 10 30 11 31 75 32 12 33 74 34 13 35
REMARK SMILES IDX 14 36 15 37 68 38 16 39 73 40 67 41 69 42 17 43 72 44 66 45
REMARK SMILES IDX 65 46 18 48 52 49 31 50 51 51 32 52 35 53 50 54 70 55 33 56
REMARK SMILES IDX 34 57 49 59 71 60 36 61 19 62 20 63 29 64 21 65 22 66 28 67
REMARK SMILES IDX 30 68 23 69 24 70 25 71 26 72 27 73 53 74 54 75 63 76 55 77
REMARK SMILES IDX 56 78 62 79 64 80 57 81 58 82 59 83 60 84 61 85 37 86 38 87
REMARK SMILES IDX 47 88 39 89 40 90 46 91 48 92 41 93 42 94 43 95 44 96 45 97
REMARK H PARENT 3 6 80 15 7 28 69 47 35 58
REMARK Flexibility Score: inf
ROOT
ATOM      1  C   UNL     1       4.724  -1.823  -2.040  1.00  0.00     0.042 C 
ENDROOT
BRANCH   1   2
ATOM      2  C   UNL     1       4.292  -0.496  -1.450  1.00  0.00     0.118 C 
BRANCH   2   3
ATOM      3  N   UNL     1       2.860  -0.422  -1.165  1.00  0.00    -0.352 N 
ATOM      4  O   UNL     1       0.977  -0.307   0.082  1.00  0.00    -0.269 OA
ATOM      5  C   UNL     1       2.200  -0.210   0.025  1.00  0.00     0.251 C 
ATOM      6  H   UNL     1       2.275  -0.543  -1.948  1.00  0.00     0.163 HD
BRANCH   5   7
ATOM      7  C   UNL     1       2.965   0.127   1.245  1.00  0.00     0.039 A 
ATOM      8  C   UNL     1       4.041   0.998   1.166  1.00  0.00     0.016 A 
ATOM      9  C   UNL     1       2.640  -0.449   2.474  1.00  0.00     0.016 A 
ATOM     10  C   UNL     1       4.901   1.133   2.247  1.00  0.00     0.027 A 
ATOM     11  C   UNL     1       3.442  -0.194   3.598  1.00  0.00     0.027 A 
ATOM     12  C   UNL     1       4.593   0.602   3.494  1.00  0.00     0.041 A 
BRANCH  12  13
ATOM     13  N   UNL     1       5.363   0.812   4.657  1.00  0.00    -0.322 N 
ATOM     14  C   UNL     1       6.466   1.599   4.929  1.00  0.00     0.255 C 
ATOM     15  H   UNL     1       5.050   0.294   5.433  1.00  0.00     0.170 HD
ATOM     16  O   UNL     1       7.005   1.552   6.032  1.00  0.00    -0.269 OA
BRANCH  14  17
ATOM     17  C   UNL     1       7.039   2.510   3.924  1.00  0.00     0.044 A 
ATOM     18  C   UNL     1       8.289   2.197   3.384  1.00  0.00     0.053 A 
ATOM     19  C   UNL     1       6.298   3.598   3.441  1.00  0.00     0.029 A 
ATOM     20  C   UNL     1       8.748   2.928   2.295  1.00  0.00     0.125 A 
ATOM     21  C   UNL     1       6.769   4.292   2.325  1.00  0.00     0.021 A 
ATOM     22  F   UNL     1       9.918   2.603   1.731  1.00  0.00    -0.207 F 
ATOM     23  C   UNL     1       7.989   3.955   1.741  1.00  0.00     0.055 A 
ATOM     24  Br  UNL     1       5.681   5.612   1.519  1.00  0.00    -0.051 Br
ENDBRANCH  14  17
ENDBRANCH  12  13
ENDBRANCH   5   7
ENDBRANCH   2   3
ENDBRANCH   1   2
BRANCH   1  25
ATOM     25  C   UNL     1       4.177  -2.085  -3.430  1.00  0.00     0.118 C 
BRANCH  25  26
ATOM     26  N   UNL     1       4.684  -1.147  -4.425  1.00  0.00    -0.352 N 
ATOM     27  C   UNL     1       5.542  -1.339  -5.483  1.00  0.00     0.251 C 
ATOM     28  H   UNL     1       4.358  -0.224  -4.322  1.00  0.00     0.163 HD
ATOM     29  O   UNL     1       5.973  -0.362  -6.090  1.00  0.00    -0.269 OA
BRANCH  27  30
ATOM     30  C   UNL     1       5.970  -2.702  -5.870  1.00  0.00     0.039 A 
ATOM     31  C   UNL     1       7.298  -2.913  -6.254  1.00  0.00     0.014 A 
ATOM     32  C   UNL     1       5.073  -3.771  -5.860  1.00  0.00     0.014 A 
ATOM     33  C   UNL     1       7.742  -4.209  -6.534  1.00  0.00     0.010 A 
ATOM     34  C   UNL     1       5.539  -5.070  -6.033  1.00  0.00     0.010 A 
ATOM     35  C   UNL     1       6.878  -5.304  -6.374  1.00  0.00    -0.014 A 
BRANCH  35  36
ATOM     36  C   UNL     1       7.345  -6.703  -6.553  1.00  0.00     0.031 A 
ATOM     37  C   UNL     1       6.713  -7.580  -7.601  1.00  0.00     0.074 A 
ATOM     38  C   UNL     1       8.267  -7.212  -5.711  1.00  0.00     0.049 A 
ATOM     39  N   UNL     1       6.893  -8.856  -7.827  1.00  0.00    -0.248 NA
ATOM     40  C   UNL     1       5.722  -6.948  -8.488  1.00  0.00     0.031 C 
ATOM     41  C   UNL     1       8.909  -6.482  -4.614  1.00  0.00     0.029 A 
ATOM     42  N   UNL     1       8.814  -8.468  -5.635  1.00  0.00    -0.354 N 
ATOM     43  C   UNL     1       6.021  -9.184  -8.859  1.00  0.00     0.074 A 
ATOM     44  C   UNL     1       5.279  -7.985  -9.182  1.00  0.00     0.031 C 
ATOM     45  C   UNL     1       9.777  -7.296  -3.991  1.00  0.00     0.029 A 
ATOM     46  C   UNL     1       9.726  -8.614  -4.616  1.00  0.00     0.049 A 
ATOM     47  H   UNL     1       8.575  -9.197  -6.253  1.00  0.00     0.167 HD
ATOM     48  C   UNL     1       5.868 -10.370  -9.495  1.00  0.00     0.037 A 
ATOM     49  C   UNL     1      10.434  -9.690  -4.223  1.00  0.00     0.037 A 
ATOM     50  C   UNL     1       6.642 -11.546  -9.202  1.00  0.00     0.049 A 
ATOM     51  C   UNL     1      10.274 -10.985  -4.968  1.00  0.00     0.074 A 
ATOM     52  C   UNL     1       6.614 -12.775  -9.838  1.00  0.00     0.029 A 
ATOM     53  N   UNL     1       7.589 -11.639  -8.194  1.00  0.00    -0.354 N 
ATOM     54  N   UNL     1       9.483 -11.261  -5.978  1.00  0.00    -0.248 NA
ATOM     55  C   UNL     1      11.104 -12.114  -4.525  1.00  0.00     0.031 C 
ATOM     56  C   UNL     1       7.526 -13.620  -9.196  1.00  0.00     0.029 A 
ATOM     57  C   UNL     1       8.145 -12.907  -8.182  1.00  0.00     0.049 A 
ATOM     58  H   UNL     1       7.830 -10.911  -7.577  1.00  0.00     0.167 HD
ATOM     59  C   UNL     1       9.735 -12.589  -6.303  1.00  0.00     0.074 A 
ATOM     60  C   UNL     1      10.759 -13.057  -5.391  1.00  0.00     0.031 C 
ATOM     61  C   UNL     1       9.168 -13.352  -7.270  1.00  0.00     0.037 A 
BRANCH  48  62
ATOM     62  C   UNL     1       4.833 -10.446 -10.582  1.00  0.00     0.058 A 
ATOM     63  C   UNL     1       5.021  -9.812 -11.821  1.00  0.00     0.135 A 
ATOM     64  C   UNL     1       3.651 -11.180 -10.394  1.00  0.00     0.135 A 
ATOM     65  F   UNL     1       6.125  -9.083 -12.046  1.00  0.00    -0.206 F 
ATOM     66  C   UNL     1       4.061  -9.879 -12.825  1.00  0.00     0.059 A 
ATOM     67  C   UNL     1       2.688 -11.281 -11.394  1.00  0.00     0.059 A 
ATOM     68  F   UNL     1       3.420 -11.803  -9.228  1.00  0.00    -0.206 F 
ATOM     69  C   UNL     1       2.895 -10.613 -12.601  1.00  0.00     0.060 A 
BRANCH  69  70
ATOM     70  S   UNL     1       1.658 -10.692 -13.913  1.00  0.00     0.124 S 
ATOM     71  O   UNL     1       1.042  -9.373 -13.809  1.00  0.00    -0.237 OA
ATOM     72  O   UNL     1       2.474 -10.917 -15.102  1.00  0.00    -0.237 OA
ATOM     73  O   UNL     1       0.813 -11.814 -13.515  1.00  0.00    -0.744 OA
ENDBRANCH  69  70
ENDBRANCH  48  62
BRANCH  49  74
ATOM     74  C   UNL     1      11.380  -9.577  -3.083  1.00  0.00     0.058 A 
ATOM     75  C   UNL     1      12.766  -9.561  -3.300  1.00  0.00     0.135 A 
ATOM     76  C   UNL     1      10.922  -9.460  -1.762  1.00  0.00     0.135 A 
ATOM     77  F   UNL     1      13.250  -9.675  -4.546  1.00  0.00    -0.206 F 
ATOM     78  C   UNL     1      13.667  -9.447  -2.247  1.00  0.00     0.059 A 
ATOM     79  C   UNL     1      11.803  -9.324  -0.694  1.00  0.00     0.059 A 
ATOM     80  F   UNL     1       9.605  -9.451  -1.506  1.00  0.00    -0.206 F 
ATOM     81  C   UNL     1      13.175  -9.327  -0.946  1.00  0.00     0.060 A 
BRANCH  81  82
ATOM     82  S   UNL     1      14.349  -9.122   0.411  1.00  0.00     0.124 S 
ATOM     83  O   UNL     1      14.846 -10.483   0.576  1.00  0.00    -0.237 OA
ATOM     84  O   UNL     1      15.296  -8.158  -0.142  1.00  0.00    -0.237 OA
ATOM     85  O   UNL     1      13.516  -8.615   1.498  1.00  0.00    -0.744 OA
ENDBRANCH  81  82
ENDBRANCH  49  74
BRANCH  61  86
ATOM     86  C   UNL     1       9.662 -14.763  -7.409  1.00  0.00     0.058 A 
ATOM     87  C   UNL     1       9.287 -15.764  -6.501  1.00  0.00     0.135 A 
ATOM     88  C   UNL     1      10.479 -15.126  -8.491  1.00  0.00     0.135 A 
ATOM     89  F   UNL     1       8.512 -15.463  -5.446  1.00  0.00    -0.206 F 
ATOM     90  C   UNL     1       9.722 -17.076  -6.649  1.00  0.00     0.059 A 
ATOM     91  C   UNL     1      10.908 -16.437  -8.671  1.00  0.00     0.059 A 
ATOM     92  F   UNL     1      10.857 -14.206  -9.392  1.00  0.00    -0.206 F 
ATOM     93  C   UNL     1      10.533 -17.403  -7.738  1.00  0.00     0.060 A 
BRANCH  93  94
ATOM     94  S   UNL     1      11.064 -19.116  -7.941  1.00  0.00     0.124 S 
ATOM     95  O   UNL     1      12.131 -19.212  -6.950  1.00  0.00    -0.237 OA
ATOM     96  O   UNL     1       9.847 -19.863  -7.636  1.00  0.00    -0.237 OA
ATOM     97  O   UNL     1      11.494 -19.174  -9.335  1.00  0.00    -0.744 OA
ENDBRANCH  93  94
ENDBRANCH  61  86
ENDBRANCH  35  36
ENDBRANCH  27  30
ENDBRANCH  25  26
ENDBRANCH   1  25
TORSDOF 15
