REMARK SMILES C[C@@H]1C(C(=O)NCCCNC(=O)c2ccc(-c3c4nc(c(-c5c(F)cc(S(=O)(=O)[O-])cc5F)c5ccc([nH]5)c(-c5c(F)cc(S(=O)(=O)[O-])cc5F)c5nc(c(-c6c(F)cc(S(=O)(=O)[O-])cc6F)c6ccc3[nH]6)C=C5)C=C4)cc2)=NC2=C1C(=O)C[C@H](c1ccccc1)C2
REMARK SMILES IDX 9 1 8 2 7 3 6 4 4 5 5 6 3 8 1 9 2 10 81 11 79 12 80 13 82 14
REMARK SMILES IDX 92 15 83 16 84 17 85 18 86 19 87 20 91 21 88 22 90 23 89 24
REMARK SMILES IDX 10 25 11 26 12 28 13 29 14 30 78 31 15 32 77 33 16 34 17 35
REMARK SMILES IDX 18 36 71 37 19 38 76 39 70 40 72 41 20 42 75 43 69 44 68 45
REMARK SMILES IDX 21 47 55 48 34 49 54 50 35 51 38 52 53 53 73 54 36 55 37 56
REMARK SMILES IDX 52 58 74 59 39 60 22 61 23 62 32 63 24 64 25 65 31 66 33 67
REMARK SMILES IDX 26 68 27 69 28 70 29 71 30 72 56 73 57 74 66 75 58 76 59 77
REMARK SMILES IDX 65 78 67 79 60 80 61 81 62 82 63 83 64 84 40 85 41 86 50 87
REMARK SMILES IDX 42 88 43 89 49 90 51 91 44 92 45 93 46 94 47 95 48 96
REMARK H PARENT 6 7 10 27 72 46 38 57
REMARK Flexibility Score: inf
ROOT
ATOM      1  C   UNL     1       4.421  -0.705   1.271  1.00  0.00     0.118 C 
ENDROOT
BRANCH   1   2
ATOM      2  C   UNL     1       3.120  -1.291   0.750  1.00  0.00     0.042 C 
BRANCH   2   3
ATOM      3  C   UNL     1       2.061  -0.213   0.518  1.00  0.00     0.118 C 
BRANCH   3   4
ATOM      4  N   UNL     1       2.163   0.494  -0.751  1.00  0.00    -0.351 N 
ATOM      5  C   UNL     1       1.133   0.971  -1.546  1.00  0.00     0.266 C 
ATOM      6  O   UNL     1       1.193   2.108  -2.001  1.00  0.00    -0.268 OA
ATOM      7  H   UNL     1       3.076   0.651  -1.085  1.00  0.00     0.163 HD
BRANCH   5   8
ATOM      8  C   UNL     1       0.056   0.024  -2.063  1.00  0.00     0.113 C 
ATOM      9  C   UNL     1      -1.940  -0.502  -0.698  1.00  0.00     0.020 C 
ATOM     10  C   UNL     1      -0.605  -1.028  -1.220  1.00  0.00     0.076 C 
ATOM     11  C   UNL     1      -0.755  -1.946  -2.382  1.00  0.00     0.026 C 
ATOM     12  N   UNL     1      -0.326   0.026  -3.319  1.00  0.00    -0.251 NA
ATOM     13  C   UNL     1      -0.801  -1.253  -3.522  1.00  0.00     0.049 C 
ATOM     14  C   UNL     1       0.019  -3.209  -2.437  1.00  0.00     0.161 C 
ATOM     15  C   UNL     1      -0.596  -1.952  -4.833  1.00  0.00     0.065 C 
ATOM     16  O   UNL     1      -0.028  -3.974  -1.473  1.00  0.00    -0.294 OA
ATOM     17  C   UNL     1       0.980  -3.454  -3.614  1.00  0.00     0.089 C 
ATOM     18  C   UNL     1       0.846  -2.499  -4.846  1.00  0.00     0.033 C 
BRANCH  18  19
ATOM     19  C   UNL     1       1.913  -1.394  -4.988  1.00  0.00    -0.044 A 
ATOM     20  C   UNL     1       1.593  -0.144  -5.562  1.00  0.00     0.004 A 
ATOM     21  C   UNL     1       3.245  -1.578  -4.594  1.00  0.00     0.004 A 
ATOM     22  C   UNL     1       2.501   0.915  -5.598  1.00  0.00     0.000 A 
ATOM     23  C   UNL     1       4.170  -0.523  -4.655  1.00  0.00     0.000 A 
ATOM     24  C   UNL     1       3.790   0.730  -5.128  1.00  0.00     0.000 A 
ENDBRANCH  18  19
ENDBRANCH   5   8
ENDBRANCH   3   4
ENDBRANCH   2   3
ENDBRANCH   1   2
BRANCH   1  25
ATOM     25  N   UNL     1       4.297  -0.056   2.587  1.00  0.00    -0.352 N 
ATOM     26  C   UNL     1       5.309   0.406   3.412  1.00  0.00     0.251 C 
ATOM     27  H   UNL     1       3.379   0.064   2.922  1.00  0.00     0.163 HD
ATOM     28  O   UNL     1       5.078   0.729   4.575  1.00  0.00    -0.269 OA
BRANCH  26  29
ATOM     29  C   UNL     1       6.670   0.485   2.858  1.00  0.00     0.039 A 
ATOM     30  C   UNL     1       7.788   0.017   3.551  1.00  0.00     0.014 A 
ATOM     31  C   UNL     1       6.777   0.924   1.546  1.00  0.00     0.014 A 
ATOM     32  C   UNL     1       8.992  -0.107   2.859  1.00  0.00     0.010 A 
ATOM     33  C   UNL     1       7.876   0.573   0.817  1.00  0.00     0.010 A 
ATOM     34  C   UNL     1       9.016   0.140   1.476  1.00  0.00    -0.014 A 
BRANCH  34  35
ATOM     35  C   UNL     1      10.199  -0.118   0.665  1.00  0.00     0.031 A 
ATOM     36  C   UNL     1      10.768  -1.485   0.807  1.00  0.00     0.074 A 
ATOM     37  C   UNL     1      10.615   0.729  -0.303  1.00  0.00     0.049 A 
ATOM     38  N   UNL     1      11.859  -1.816   1.414  1.00  0.00    -0.248 NA
ATOM     39  C   UNL     1       9.965  -2.638   0.369  1.00  0.00     0.031 C 
ATOM     40  C   UNL     1       9.975   1.958  -0.795  1.00  0.00     0.029 A 
ATOM     41  N   UNL     1      11.673   0.602  -1.144  1.00  0.00    -0.354 N 
ATOM     42  C   UNL     1      12.007  -3.187   1.224  1.00  0.00     0.074 A 
ATOM     43  C   UNL     1      10.728  -3.662   0.763  1.00  0.00     0.031 C 
ATOM     44  C   UNL     1      10.508   2.305  -1.987  1.00  0.00     0.029 A 
ATOM     45  C   UNL     1      11.649   1.450  -2.246  1.00  0.00     0.049 A 
ATOM     46  H   UNL     1      12.402  -0.041  -0.985  1.00  0.00     0.167 HD
ATOM     47  C   UNL     1      13.238  -3.771   1.236  1.00  0.00     0.037 A 
ATOM     48  C   UNL     1      12.501   1.431  -3.301  1.00  0.00     0.037 A 
ATOM     49  C   UNL     1      14.237  -2.855   1.731  1.00  0.00     0.049 A 
ATOM     50  C   UNL     1      13.722   0.712  -2.847  1.00  0.00     0.074 A 
ATOM     51  C   UNL     1      14.418  -2.164   2.914  1.00  0.00     0.029 A 
ATOM     52  N   UNL     1      15.024  -2.218   0.800  1.00  0.00    -0.354 N 
ATOM     53  N   UNL     1      14.530   1.168  -1.928  1.00  0.00    -0.248 NA
ATOM     54  C   UNL     1      13.776  -0.727  -3.062  1.00  0.00     0.031 C 
ATOM     55  C   UNL     1      14.894  -0.879   2.518  1.00  0.00     0.029 A 
ATOM     56  C   UNL     1      15.059  -0.887   1.132  1.00  0.00     0.049 A 
ATOM     57  H   UNL     1      15.479  -2.639   0.035  1.00  0.00     0.167 HD
ATOM     58  C   UNL     1      14.858   0.060  -1.160  1.00  0.00     0.074 A 
ATOM     59  C   UNL     1      14.433  -1.091  -1.956  1.00  0.00     0.031 C 
ATOM     60  C   UNL     1      15.172   0.183   0.165  1.00  0.00     0.037 A 
BRANCH  47  61
ATOM     61  C   UNL     1      13.623  -5.021   0.480  1.00  0.00     0.058 A 
ATOM     62  C   UNL     1      14.871  -5.625   0.741  1.00  0.00     0.135 A 
ATOM     63  C   UNL     1      12.949  -5.488  -0.669  1.00  0.00     0.135 A 
ATOM     64  F   UNL     1      15.603  -5.253   1.804  1.00  0.00    -0.206 F 
ATOM     65  C   UNL     1      15.439  -6.569  -0.115  1.00  0.00     0.059 A 
ATOM     66  C   UNL     1      13.472  -6.468  -1.505  1.00  0.00     0.059 A 
ATOM     67  F   UNL     1      11.799  -4.948  -1.090  1.00  0.00    -0.206 F 
ATOM     68  C   UNL     1      14.735  -6.974  -1.243  1.00  0.00     0.060 A 
BRANCH  68  69
ATOM     69  S   UNL     1      15.504  -8.126  -2.395  1.00  0.00     0.124 S 
ATOM     70  O   UNL     1      16.565  -7.304  -2.965  1.00  0.00    -0.237 OA
ATOM     71  O   UNL     1      15.933  -9.200  -1.505  1.00  0.00    -0.237 OA
ATOM     72  O   UNL     1      14.413  -8.470  -3.302  1.00  0.00    -0.744 OA
ENDBRANCH  68  69
ENDBRANCH  47  61
BRANCH  48  73
ATOM     73  C   UNL     1      12.192   1.659  -4.739  1.00  0.00     0.058 A 
ATOM     74  C   UNL     1      13.227   1.770  -5.685  1.00  0.00     0.135 A 
ATOM     75  C   UNL     1      10.896   1.462  -5.257  1.00  0.00     0.135 A 
ATOM     76  F   UNL     1      14.493   1.954  -5.280  1.00  0.00    -0.206 F 
ATOM     77  C   UNL     1      13.005   1.611  -7.057  1.00  0.00     0.059 A 
ATOM     78  C   UNL     1      10.649   1.312  -6.622  1.00  0.00     0.059 A 
ATOM     79  F   UNL     1       9.839   1.309  -4.445  1.00  0.00    -0.206 F 
ATOM     80  C   UNL     1      11.714   1.351  -7.513  1.00  0.00     0.060 A 
BRANCH  80  81
ATOM     81  S   UNL     1      11.457   0.915  -9.251  1.00  0.00     0.124 S 
ATOM     82  O   UNL     1      11.671   2.194  -9.918  1.00  0.00    -0.237 OA
ATOM     83  O   UNL     1      12.484  -0.099  -9.469  1.00  0.00    -0.237 OA
ATOM     84  O   UNL     1      10.083   0.419  -9.274  1.00  0.00    -0.744 OA
ENDBRANCH  80  81
ENDBRANCH  48  73
BRANCH  60  85
ATOM     85  C   UNL     1      15.467   1.560   0.708  1.00  0.00     0.058 A 
ATOM     86  C   UNL     1      14.558   2.632   0.738  1.00  0.00     0.135 A 
ATOM     87  C   UNL     1      16.699   1.752   1.351  1.00  0.00     0.135 A 
ATOM     88  F   UNL     1      13.318   2.502   0.247  1.00  0.00    -0.206 F 
ATOM     89  C   UNL     1      14.882   3.856   1.330  1.00  0.00     0.059 A 
ATOM     90  C   UNL     1      17.030   2.950   1.978  1.00  0.00     0.059 A 
ATOM     91  F   UNL     1      17.589   0.748   1.416  1.00  0.00    -0.206 F 
ATOM     92  C   UNL     1      16.125   4.006   1.945  1.00  0.00     0.060 A 
BRANCH  92  93
ATOM     93  S   UNL     1      16.536   5.574   2.740  1.00  0.00     0.124 S 
ATOM     94  O   UNL     1      16.698   6.464   1.596  1.00  0.00    -0.237 OA
ATOM     95  O   UNL     1      15.365   5.823   3.576  1.00  0.00    -0.237 OA
ATOM     96  O   UNL     1      17.762   5.273   3.475  1.00  0.00    -0.744 OA
ENDBRANCH  92  93
ENDBRANCH  60  85
ENDBRANCH  34  35
ENDBRANCH  26  29
ENDBRANCH   1  25
TORSDOF 14
