REMARK SMILES CNS(=O)(=O)c1ccc([C@H]2CC(=O)Nc3cc(O)c(C(=O)NCCCNC(=O)c4ccc(-c5c6nc(c(-c7c(F)cc(S(=O)(=O)[O-])cc7F)c7ccc([nH]7)c(-c7c(F)cc(S(=O)(=O)[O-])cc7F)c7nc(c(-c8c(F)cc(S(=O)(=O)[O-])cc8F)c8ccc5[nH]8)C=C7)C=C6)cc4)cc32)cc1
REMARK SMILES IDX 24 1 23 2 22 3 20 4 21 5 19 7 10 8 11 9 96 10 12 11 15 12
REMARK SMILES IDX 95 13 13 14 14 15 16 16 17 18 9 19 6 20 7 21 98 22 8 23
REMARK SMILES IDX 97 24 3 25 4 26 5 27 2 28 1 29 18 31 25 33 26 34 27 35 28 37
REMARK SMILES IDX 29 38 30 39 94 40 31 41 93 42 32 43 33 44 34 45 87 46 35 47
REMARK SMILES IDX 92 48 86 49 88 50 36 51 91 52 85 53 84 54 37 56 71 57 50 58
REMARK SMILES IDX 70 59 51 60 54 61 69 62 89 63 52 64 53 65 68 67 90 68 55 69
REMARK SMILES IDX 38 70 39 71 48 72 40 73 41 74 47 75 49 76 42 77 43 78 44 79
REMARK SMILES IDX 45 80 46 81 72 82 73 83 82 84 74 85 75 86 81 87 83 88 76 89
REMARK SMILES IDX 77 90 78 91 79 92 80 93 56 94 57 95 66 96 58 97 59 98 65 99
REMARK SMILES IDX 67 100 60 101 61 102 62 103 63 104 64 105
REMARK H PARENT 22 6 14 17 2 30 18 32 26 36 88 55 54 66
REMARK Flexibility Score: inf
ROOT
ATOM      1  C   UNL     1      -2.265  -3.733   7.064  1.00  0.00     0.042 C 
ENDROOT
BRANCH   1   2
ATOM      2  C   UNL     1      -2.933  -5.009   6.561  1.00  0.00     0.118 C 
BRANCH   2   3
ATOM      3  N   UNL     1      -4.370  -4.981   6.752  1.00  0.00    -0.352 N 
ATOM      4  C   UNL     1      -5.474  -4.695   6.005  1.00  0.00     0.255 C 
ATOM      5  O   UNL     1      -6.532  -4.675   6.650  1.00  0.00    -0.269 OA
ATOM      6  H   UNL     1      -4.614  -5.237   7.670  1.00  0.00     0.163 HD
BRANCH   4   7
ATOM      7  C   UNL     1      -5.558  -4.437   4.533  1.00  0.00     0.082 A 
ATOM      8  C   UNL     1      -3.578  -4.621   1.213  1.00  0.00     0.061 C 
ATOM      9  C   UNL     1      -3.913  -4.040  -0.182  1.00  0.00     0.113 C 
ATOM     10  C   UNL     1      -4.717  -4.432   2.209  1.00  0.00    -0.015 A 
ATOM     11  C   UNL     1      -5.358  -4.115  -0.592  1.00  0.00     0.225 C 
ATOM     12  C   UNL     1      -6.000  -4.118   1.756  1.00  0.00     0.048 A 
ATOM     13  C   UNL     1      -4.511  -4.581   3.605  1.00  0.00     0.024 A 
ATOM     14  O   UNL     1      -5.707  -4.123  -1.771  1.00  0.00    -0.275 OA
ATOM     15  N   UNL     1      -6.283  -4.030   0.398  1.00  0.00    -0.326 N 
ATOM     16  C   UNL     1      -7.045  -3.931   2.650  1.00  0.00     0.073 A 
ATOM     17  H   UNL     1      -7.222  -3.896   0.135  1.00  0.00     0.169 HD
ATOM     18  C   UNL     1      -6.826  -4.091   4.015  1.00  0.00     0.130 A 
BRANCH   8  19
ATOM     19  C   UNL     1      -2.990  -6.031   1.058  1.00  0.00    -0.040 A 
ATOM     20  C   UNL     1      -2.043  -8.577   0.330  1.00  0.00     0.082 A 
ATOM     21  C   UNL     1      -1.418  -7.440  -0.176  1.00  0.00     0.022 A 
ATOM     22  C   UNL     1      -3.070  -8.457   1.270  1.00  0.00     0.022 A 
ATOM     23  C   UNL     1      -1.861  -6.182   0.224  1.00  0.00     0.006 A 
ATOM     24  C   UNL     1      -3.546  -7.187   1.625  1.00  0.00     0.006 A 
BRANCH  20  25
ATOM     25  S   UNL     1      -1.679 -10.146  -0.414  1.00  0.00     0.240 S 
ATOM     26  O   UNL     1      -1.403  -9.933  -1.818  1.00  0.00    -0.207 OA
ATOM     27  O   UNL     1      -2.688 -11.093   0.014  1.00  0.00    -0.207 OA
BRANCH  25  28
ATOM     28  N   UNL     1      -0.257 -10.628   0.336  1.00  0.00    -0.214 NA
ATOM     29  C   UNL     1       1.002 -10.036  -0.102  1.00  0.00     0.120 C 
ATOM     30  H   UNL     1      -0.356 -10.420   1.330  1.00  0.00     0.141 HD
ENDBRANCH  25  28
ENDBRANCH  20  25
ENDBRANCH   8  19
BRANCH  18  31
ATOM     31  O   UNL     1      -7.952  -3.906   4.782  1.00  0.00    -0.507 OA
ATOM     32  H   UNL     1      -8.764  -3.677   4.374  1.00  0.00     0.293 HD
ENDBRANCH  18  31
ENDBRANCH   4   7
ENDBRANCH   2   3
ENDBRANCH   1   2
BRANCH   1  33
ATOM     33  C   UNL     1      -2.420  -3.494   8.567  1.00  0.00     0.118 C 
BRANCH  33  34
ATOM     34  N   UNL     1      -1.825  -4.556   9.367  1.00  0.00    -0.352 N 
ATOM     35  C   UNL     1      -0.791  -4.522  10.269  1.00  0.00     0.251 C 
ATOM     36  H   UNL     1      -2.232  -5.444   9.240  1.00  0.00     0.163 HD
ATOM     37  O   UNL     1      -0.312  -5.583  10.663  1.00  0.00    -0.269 OA
BRANCH  35  38
ATOM     38  C   UNL     1      -0.249  -3.238  10.765  1.00  0.00     0.039 A 
ATOM     39  C   UNL     1       1.132  -3.121  10.958  1.00  0.00     0.014 A 
ATOM     40  C   UNL     1      -1.091  -2.177  11.110  1.00  0.00     0.014 A 
ATOM     41  C   UNL     1       1.669  -1.930  11.455  1.00  0.00     0.010 A 
ATOM     42  C   UNL     1      -0.548  -0.968  11.542  1.00  0.00     0.010 A 
ATOM     43  C   UNL     1       0.835  -0.836  11.734  1.00  0.00    -0.014 A 
BRANCH  43  44
ATOM     44  C   UNL     1       1.387   0.439  12.261  1.00  0.00     0.031 A 
ATOM     45  C   UNL     1       1.020   0.904  13.646  1.00  0.00     0.074 A 
ATOM     46  C   UNL     1       2.172   1.204  11.479  1.00  0.00     0.049 A 
ATOM     47  N   UNL     1       1.337   2.016  14.257  1.00  0.00    -0.248 NA
ATOM     48  C   UNL     1       0.156   0.011  14.436  1.00  0.00     0.031 C 
ATOM     49  C   UNL     1       2.564   0.886  10.104  1.00  0.00     0.029 A 
ATOM     50  N   UNL     1       2.773   2.413  11.723  1.00  0.00    -0.354 N 
ATOM     51  C   UNL     1       0.697   1.968  15.490  1.00  0.00     0.074 A 
ATOM     52  C   UNL     1      -0.066   0.739  15.521  1.00  0.00     0.031 C 
ATOM     53  C   UNL     1       3.352   1.866   9.633  1.00  0.00     0.029 A 
ATOM     54  C   UNL     1       3.499   2.894  10.660  1.00  0.00     0.049 A 
ATOM     55  H   UNL     1       2.692   2.891  12.580  1.00  0.00     0.167 HD
ATOM     56  C   UNL     1       0.754   2.857  16.512  1.00  0.00     0.037 A 
ATOM     57  C   UNL     1       4.203   4.036  10.526  1.00  0.00     0.037 A 
ATOM     58  C   UNL     1       1.541   4.062  16.490  1.00  0.00     0.049 A 
ATOM     59  C   UNL     1       4.285   4.988  11.687  1.00  0.00     0.074 A 
ATOM     60  C   UNL     1       1.705   5.005  17.490  1.00  0.00     0.029 A 
ATOM     61  N   UNL     1       2.305   4.487  15.412  1.00  0.00    -0.354 N 
ATOM     62  N   UNL     1       3.709   4.905  12.863  1.00  0.00    -0.248 NA
ATOM     63  C   UNL     1       5.125   6.180  11.511  1.00  0.00     0.031 C 
ATOM     64  C   UNL     1       2.547   6.014  17.008  1.00  0.00     0.029 A 
ATOM     65  C   UNL     1       2.939   5.679  15.722  1.00  0.00     0.049 A 
ATOM     66  H   UNL     1       2.384   4.012  14.554  1.00  0.00     0.167 HD
ATOM     67  C   UNL     1       4.143   6.016  13.578  1.00  0.00     0.074 A 
ATOM     68  C   UNL     1       5.033   6.752  12.704  1.00  0.00     0.031 C 
ATOM     69  C   UNL     1       3.835   6.391  14.844  1.00  0.00     0.037 A 
BRANCH  56  70
ATOM     70  C   UNL     1      -0.058   2.551  17.742  1.00  0.00     0.058 A 
ATOM     71  C   UNL     1       0.288   1.504  18.611  1.00  0.00     0.135 A 
ATOM     72  C   UNL     1      -1.189   3.320  18.062  1.00  0.00     0.135 A 
ATOM     73  F   UNL     1       1.351   0.727  18.345  1.00  0.00    -0.206 F 
ATOM     74  C   UNL     1      -0.479   1.204  19.732  1.00  0.00     0.059 A 
ATOM     75  C   UNL     1      -1.955   3.055  19.194  1.00  0.00     0.059 A 
ATOM     76  F   UNL     1      -1.564   4.334  17.267  1.00  0.00    -0.206 F 
ATOM     77  C   UNL     1      -1.603   1.983  20.012  1.00  0.00     0.060 A 
BRANCH  77  78
ATOM     78  S   UNL     1      -2.599   1.574  21.462  1.00  0.00     0.124 S 
ATOM     79  O   UNL     1      -3.320   0.394  20.994  1.00  0.00    -0.237 OA
ATOM     80  O   UNL     1      -1.584   1.333  22.483  1.00  0.00    -0.237 OA
ATOM     81  O   UNL     1      -3.413   2.769  21.662  1.00  0.00    -0.744 OA
ENDBRANCH  77  78
ENDBRANCH  56  70
BRANCH  57  82
ATOM     82  C   UNL     1       4.920   4.316   9.255  1.00  0.00     0.058 A 
ATOM     83  C   UNL     1       6.318   4.224   9.183  1.00  0.00     0.135 A 
ATOM     84  C   UNL     1       4.226   4.657   8.085  1.00  0.00     0.135 A 
ATOM     85  F   UNL     1       7.026   3.906  10.278  1.00  0.00    -0.206 F 
ATOM     86  C   UNL     1       7.005   4.471   8.000  1.00  0.00     0.059 A 
ATOM     87  C   UNL     1       4.888   4.886   6.883  1.00  0.00     0.059 A 
ATOM     88  F   UNL     1       2.886   4.739   8.097  1.00  0.00    -0.206 F 
ATOM     89  C   UNL     1       6.280   4.799   6.853  1.00  0.00     0.060 A 
BRANCH  89  90
ATOM     90  S   UNL     1       7.175   5.056   5.305  1.00  0.00     0.124 S 
ATOM     91  O   UNL     1       7.758   6.375   5.519  1.00  0.00    -0.237 OA
ATOM     92  O   UNL     1       8.111   3.936   5.301  1.00  0.00    -0.237 OA
ATOM     93  O   UNL     1       6.123   4.985   4.295  1.00  0.00    -0.744 OA
ENDBRANCH  89  90
ENDBRANCH  57  82
BRANCH  69  94
ATOM     94  C   UNL     1       4.505   7.625  15.379  1.00  0.00     0.058 A 
ATOM     95  C   UNL     1       4.136   8.911  14.957  1.00  0.00     0.135 A 
ATOM     96  C   UNL     1       5.511   7.516  16.353  1.00  0.00     0.135 A 
ATOM     97  F   UNL     1       3.183   9.068  14.024  1.00  0.00    -0.206 F 
ATOM     98  C   UNL     1       4.763  10.047  15.459  1.00  0.00     0.059 A 
ATOM     99  C   UNL     1       6.134   8.639  16.887  1.00  0.00     0.059 A 
ATOM    100  F   UNL     1       5.893   6.309  16.799  1.00  0.00    -0.206 F 
ATOM    101  C   UNL     1       5.763   9.900  16.422  1.00  0.00     0.060 A 
BRANCH 101 102
ATOM    102  S   UNL     1       6.561  11.380  17.080  1.00  0.00     0.124 S 
ATOM    103  O   UNL     1       7.467  11.732  15.992  1.00  0.00    -0.237 OA
ATOM    104  O   UNL     1       5.432  12.284  17.281  1.00  0.00    -0.237 OA
ATOM    105  O   UNL     1       7.200  10.905  18.303  1.00  0.00    -0.744 OA
ENDBRANCH 101 102
ENDBRANCH  69  94
ENDBRANCH  43  44
ENDBRANCH  35  38
ENDBRANCH  33  34
ENDBRANCH   1  33
TORSDOF 17
