REMARK SMILES CC[C@](C)([NH3+])C(=O)NC[C@](C)(O)C(=O)NCCCNC(=O)c1ccc(-c2c3nc(c(-c4c(F)cc(S(=O)(=O)[O-])cc4F)c4ccc([nH]4)c(-c4c(F)cc(S(=O)(=O)[O-])cc4F)c4nc(c(-c5c(F)cc(S(=O)(=O)[O-])cc5F)c5ccc2[nH]5)C=C4)C=C3)cc1
REMARK SMILES IDX 16 1 15 2 13 3 14 4 10 6 11 7 9 8 8 9 6 10 7 11 3 13 4 14
REMARK SMILES IDX 2 15 1 16 5 17 12 21 17 23 18 24 19 25 20 26 21 28 22 29
REMARK SMILES IDX 23 30 87 31 24 32 86 33 25 34 26 35 27 36 80 37 28 38 85 39
REMARK SMILES IDX 79 40 81 41 29 42 84 43 78 44 77 45 30 47 64 48 43 49 63 50
REMARK SMILES IDX 44 51 47 52 62 53 82 54 45 55 46 56 61 58 83 59 48 60 31 61
REMARK SMILES IDX 32 62 41 63 33 64 34 65 40 66 42 67 35 68 36 69 37 70 38 71
REMARK SMILES IDX 39 72 65 73 66 74 75 75 67 76 68 77 74 78 76 79 69 80 70 81
REMARK SMILES IDX 71 82 72 83 73 84 49 85 50 86 59 87 51 88 52 89 58 90 60 91
REMARK SMILES IDX 53 92 54 93 55 94 56 95 57 96
REMARK H PARENT 15 5 8 12 5 18 5 19 5 20 12 22 19 27 81 46 47 57
REMARK Flexibility Score: inf
ROOT
ATOM      1  C   UNL     1       3.242  -1.232  -8.294  1.00  0.00     0.117 C 
ENDROOT
BRANCH   1   2
ATOM      2  N   UNL     1       2.567  -0.493  -7.238  1.00  0.00    -0.353 N 
ATOM      3  C   UNL     1       2.256  -0.877  -5.963  1.00  0.00     0.253 C 
ATOM      4  O   UNL     1       1.673  -0.054  -5.252  1.00  0.00    -0.272 OA
ATOM      5  H   UNL     1       2.293   0.422  -7.477  1.00  0.00     0.163 HD
BRANCH   3   6
ATOM      6  C   UNL     1       2.692  -2.270  -5.431  1.00  0.00     0.157 C 
ATOM      7  C   UNL     1       2.104  -2.497  -4.032  1.00  0.00     0.055 C 
BRANCH   6   8
ATOM      8  C   UNL     1       4.236  -2.340  -5.464  1.00  0.00     0.161 C 
BRANCH   8   9
ATOM      9  N   UNL     1       4.937  -2.210  -4.207  1.00  0.00    -0.347 N 
ATOM     10  C   UNL     1       5.896  -3.010  -3.660  1.00  0.00     0.281 C 
ATOM     11  O   UNL     1       6.526  -2.523  -2.715  1.00  0.00    -0.268 OA
ATOM     12  H   UNL     1       4.684  -1.428  -3.665  1.00  0.00     0.163 HD
BRANCH  10  13
ATOM     13  C   UNL     1       6.193  -4.451  -4.202  1.00  0.00     0.170 C 
ATOM     14  C   UNL     1       7.053  -5.159  -3.127  1.00  0.00     0.090 C 
BRANCH  13  15
ATOM     15  C   UNL     1       6.956  -4.551  -5.557  1.00  0.00     0.075 C 
ATOM     16  C   UNL     1       7.209  -3.287  -6.369  1.00  0.00     0.011 C 
ENDBRANCH  13  15
BRANCH  13  17
ATOM     17  N   UNL     1       4.931  -5.240  -4.242  1.00  0.00    -0.345 N 
ATOM     18  H   UNL     1       4.451  -5.159  -3.346  1.00  0.00     0.345 HD
ATOM     19  H   UNL     1       5.149  -6.220  -4.424  1.00  0.00     0.345 HD
ATOM     20  H   UNL     1       4.330  -4.882  -4.984  1.00  0.00     0.345 HD
ENDBRANCH  13  17
ENDBRANCH  10  13
ENDBRANCH   8   9
ENDBRANCH   6   8
BRANCH   6  21
ATOM     21  O   UNL     1       2.210  -3.338  -6.268  1.00  0.00    -0.378 OA
ATOM     22  H   UNL     1       1.240  -3.330  -6.276  1.00  0.00     0.212 HD
ENDBRANCH   6  21
ENDBRANCH   3   6
ENDBRANCH   1   2
BRANCH   1  23
ATOM     23  C   UNL     1       2.369  -1.404  -9.524  1.00  0.00     0.042 C 
BRANCH  23  24
ATOM     24  C   UNL     1       2.012  -0.094 -10.211  1.00  0.00     0.118 C 
BRANCH  24  25
ATOM     25  N   UNL     1       3.175   0.613 -10.733  1.00  0.00    -0.352 N 
ATOM     26  C   UNL     1       3.443   1.033 -12.014  1.00  0.00     0.251 C 
ATOM     27  H   UNL     1       3.871   0.821 -10.069  1.00  0.00     0.163 HD
ATOM     28  O   UNL     1       4.557   1.473 -12.288  1.00  0.00    -0.269 OA
BRANCH  26  29
ATOM     29  C   UNL     1       2.405   0.926 -13.060  1.00  0.00     0.039 A 
ATOM     30  C   UNL     1       2.761   0.448 -14.324  1.00  0.00     0.014 A 
ATOM     31  C   UNL     1       1.079   1.277 -12.792  1.00  0.00     0.014 A 
ATOM     32  C   UNL     1       1.773   0.246 -15.290  1.00  0.00     0.010 A 
ATOM     33  C   UNL     1       0.086   0.987 -13.720  1.00  0.00     0.010 A 
ATOM     34  C   UNL     1       0.421   0.470 -14.980  1.00  0.00    -0.014 A 
BRANCH  34  35
ATOM     35  C   UNL     1      -0.659   0.168 -15.954  1.00  0.00     0.031 A 
ATOM     36  C   UNL     1      -1.561   1.268 -16.445  1.00  0.00     0.074 A 
ATOM     37  C   UNL     1      -0.879  -1.107 -16.332  1.00  0.00     0.049 A 
ATOM     38  N   UNL     1      -2.612   1.190 -17.219  1.00  0.00    -0.248 NA
ATOM     39  C   UNL     1      -1.261   2.632 -15.979  1.00  0.00     0.031 C 
ATOM     40  C   UNL     1      -0.110  -2.270 -15.881  1.00  0.00     0.029 A 
ATOM     41  N   UNL     1      -1.825  -1.644 -17.170  1.00  0.00    -0.354 N 
ATOM     42  C   UNL     1      -3.109   2.485 -17.316  1.00  0.00     0.074 A 
ATOM     43  C   UNL     1      -2.276   3.321 -16.480  1.00  0.00     0.031 C 
ATOM     44  C   UNL     1      -0.600  -3.376 -16.462  1.00  0.00     0.029 A 
ATOM     45  C   UNL     1      -1.744  -3.012 -17.291  1.00  0.00     0.049 A 
ATOM     46  H   UNL     1      -2.498  -1.101 -17.640  1.00  0.00     0.167 HD
ATOM     47  C   UNL     1      -4.150   2.939 -18.053  1.00  0.00     0.037 A 
ATOM     48  C   UNL     1      -2.513  -3.878 -17.981  1.00  0.00     0.037 A 
ATOM     49  C   UNL     1      -4.954   2.106 -18.908  1.00  0.00     0.049 A 
ATOM     50  C   UNL     1      -3.658  -3.348 -18.800  1.00  0.00     0.074 A 
ATOM     51  C   UNL     1      -5.986   2.482 -19.750  1.00  0.00     0.029 A 
ATOM     52  N   UNL     1      -4.821   0.730 -19.028  1.00  0.00    -0.354 N 
ATOM     53  N   UNL     1      -4.069  -2.110 -18.936  1.00  0.00    -0.248 NA
ATOM     54  C   UNL     1      -4.440  -4.329 -19.565  1.00  0.00     0.031 C 
ATOM     55  C   UNL     1      -6.509   1.328 -20.342  1.00  0.00     0.029 A 
ATOM     56  C   UNL     1      -5.767   0.239 -19.912  1.00  0.00     0.049 A 
ATOM     57  H   UNL     1      -4.153   0.184 -18.555  1.00  0.00     0.167 HD
ATOM     58  C   UNL     1      -5.140  -2.160 -19.822  1.00  0.00     0.074 A 
ATOM     59  C   UNL     1      -5.305  -3.549 -20.198  1.00  0.00     0.031 C 
ATOM     60  C   UNL     1      -5.915  -1.147 -20.283  1.00  0.00     0.037 A 
BRANCH  47  61
ATOM     61  C   UNL     1      -4.478   4.406 -17.973  1.00  0.00     0.058 A 
ATOM     62  C   UNL     1      -3.634   5.383 -18.524  1.00  0.00     0.135 A 
ATOM     63  C   UNL     1      -5.673   4.837 -17.374  1.00  0.00     0.135 A 
ATOM     64  F   UNL     1      -2.471   5.029 -19.094  1.00  0.00    -0.206 F 
ATOM     65  C   UNL     1      -3.948   6.737 -18.461  1.00  0.00     0.059 A 
ATOM     66  C   UNL     1      -6.022   6.184 -17.326  1.00  0.00     0.059 A 
ATOM     67  F   UNL     1      -6.516   3.946 -16.830  1.00  0.00    -0.206 F 
ATOM     68  C   UNL     1      -5.146   7.127 -17.861  1.00  0.00     0.060 A 
BRANCH  68  69
ATOM     69  S   UNL     1      -5.545   8.886 -17.799  1.00  0.00     0.124 S 
ATOM     70  O   UNL     1      -4.601   9.362 -16.791  1.00  0.00    -0.237 OA
ATOM     71  O   UNL     1      -5.278   9.315 -19.168  1.00  0.00    -0.237 OA
ATOM     72  O   UNL     1      -6.949   8.904 -17.401  1.00  0.00    -0.744 OA
ENDBRANCH  68  69
ENDBRANCH  47  61
BRANCH  48  73
ATOM     73  C   UNL     1      -2.210  -5.334 -17.939  1.00  0.00     0.058 A 
ATOM     74  C   UNL     1      -1.692  -5.998 -19.061  1.00  0.00     0.135 A 
ATOM     75  C   UNL     1      -2.411  -6.086 -16.771  1.00  0.00     0.135 A 
ATOM     76  F   UNL     1      -1.488  -5.324 -20.203  1.00  0.00    -0.206 F 
ATOM     77  C   UNL     1      -1.398  -7.357 -19.033  1.00  0.00     0.059 A 
ATOM     78  C   UNL     1      -2.099  -7.441 -16.710  1.00  0.00     0.059 A 
ATOM     79  F   UNL     1      -2.887  -5.495 -15.664  1.00  0.00    -0.206 F 
ATOM     80  C   UNL     1      -1.601  -8.070 -17.850  1.00  0.00     0.060 A 
BRANCH  80  81
ATOM     81  S   UNL     1      -1.162  -9.821 -17.808  1.00  0.00     0.124 S 
ATOM     82  O   UNL     1      -2.227 -10.411 -18.611  1.00  0.00    -0.237 OA
ATOM     83  O   UNL     1       0.167  -9.818 -18.411  1.00  0.00    -0.237 OA
ATOM     84  O   UNL     1      -1.194 -10.140 -16.383  1.00  0.00    -0.744 OA
ENDBRANCH  80  81
ENDBRANCH  48  73
BRANCH  60  85
ATOM     85  C   UNL     1      -6.992  -1.491 -21.275  1.00  0.00     0.058 A 
ATOM     86  C   UNL     1      -8.159  -2.170 -20.893  1.00  0.00     0.135 A 
ATOM     87  C   UNL     1      -6.880  -1.080 -22.613  1.00  0.00     0.135 A 
ATOM     88  F   UNL     1      -8.313  -2.591 -19.627  1.00  0.00    -0.206 F 
ATOM     89  C   UNL     1      -9.170  -2.447 -21.808  1.00  0.00     0.059 A 
ATOM     90  C   UNL     1      -7.891  -1.320 -23.538  1.00  0.00     0.059 A 
ATOM     91  F   UNL     1      -5.789  -0.417 -23.029  1.00  0.00    -0.206 F 
ATOM     92  C   UNL     1      -9.028  -2.015 -23.128  1.00  0.00     0.060 A 
BRANCH  92  93
ATOM     93  S   UNL     1     -10.365  -2.346 -24.295  1.00  0.00     0.124 S 
ATOM     94  O   UNL     1     -10.211  -3.780 -24.518  1.00  0.00    -0.237 OA
ATOM     95  O   UNL     1     -11.547  -1.945 -23.538  1.00  0.00    -0.237 OA
ATOM     96  O   UNL     1     -10.040  -1.494 -25.435  1.00  0.00    -0.744 OA
ENDBRANCH  92  93
ENDBRANCH  60  85
ENDBRANCH  34  35
ENDBRANCH  26  29
ENDBRANCH  24  25
ENDBRANCH  23  24
ENDBRANCH   1  23
TORSDOF 19
