REMARK SMILES Nc1ccc([C@H]([NH3+])C(=O)NCCCNC(=O)c2ccc(-c3c4nc(c(-c5c(F)cc(S(=O)(=O)[O-])cc5F)c5ccc([nH]5)c(-c5c(F)cc(S(=O)(=O)[O-])cc5F)c5nc(c(-c6c(F)cc(S(=O)(=O)[O-])cc6F)c6ccc3[nH]6)C=C5)C=C4)cc2)cc1C(F)(F)F
REMARK SMILES IDX 12 1 11 2 10 3 8 4 9 5 6 7 5 8 2 9 3 10 84 11 4 12 83 13
REMARK SMILES IDX 1 14 85 17 86 18 87 19 88 20 7 21 13 25 14 26 15 27 16 29
REMARK SMILES IDX 17 30 18 31 82 32 19 33 81 34 20 35 21 36 22 37 75 38 23 39
REMARK SMILES IDX 80 40 74 41 76 42 24 43 79 44 73 45 72 46 25 48 59 49 38 50
REMARK SMILES IDX 58 51 39 52 42 53 57 54 77 55 40 56 41 57 56 59 78 60 43 61
REMARK SMILES IDX 26 62 27 63 36 64 28 65 29 66 35 67 37 68 30 69 31 70 32 71
REMARK SMILES IDX 33 72 34 73 60 74 61 75 70 76 62 77 63 78 69 79 71 80 64 81
REMARK SMILES IDX 65 82 66 83 67 84 68 85 44 86 45 87 54 88 46 89 47 90 53 91
REMARK SMILES IDX 55 92 48 93 49 94 50 95 51 96 52 97
REMARK H PARENT 10 6 1 15 1 16 7 22 7 23 7 24 14 28 76 47 42 58
REMARK Flexibility Score: inf
ROOT
ATOM      1  C   UNL     1      -1.093  -3.232   1.541  1.00  0.00     0.042 C 
ENDROOT
BRANCH   1   2
ATOM      2  C   UNL     1      -2.228  -2.689   0.696  1.00  0.00     0.118 C 
BRANCH   2   3
ATOM      3  N   UNL     1      -3.191  -1.894   1.448  1.00  0.00    -0.351 N 
ATOM      4  C   UNL     1      -3.898  -0.784   1.068  1.00  0.00     0.283 C 
ATOM      5  O   UNL     1      -4.778  -0.385   1.840  1.00  0.00    -0.268 OA
ATOM      6  H   UNL     1      -3.359  -2.201   2.368  1.00  0.00     0.163 HD
BRANCH   4   7
ATOM      7  C   UNL     1      -3.624  -0.037  -0.263  1.00  0.00     0.302 C 
BRANCH   7   8
ATOM      8  C   UNL     1      -4.154  -0.691  -1.533  1.00  0.00     0.020 A 
ATOM      9  C   UNL     1      -4.687  -1.895  -4.058  1.00  0.00     0.044 A 
ATOM     10  C   UNL     1      -4.625  -0.503  -3.913  1.00  0.00     0.026 A 
ATOM     11  C   UNL     1      -4.506  -2.689  -2.923  1.00  0.00     0.079 A 
ATOM     12  C   UNL     1      -4.345   0.092  -2.678  1.00  0.00     0.012 A 
ATOM     13  C   UNL     1      -4.329  -2.068  -1.670  1.00  0.00     0.025 A 
BRANCH   9  14
ATOM     14  N   UNL     1      -4.816  -2.428  -5.329  1.00  0.00    -0.398 N 
ATOM     15  H   UNL     1      -4.942  -1.832  -6.103  1.00  0.00     0.156 HD
ATOM     16  H   UNL     1      -4.781  -3.403  -5.460  1.00  0.00     0.156 HD
ENDBRANCH   9  14
BRANCH  11  17
ATOM     17  C   UNL     1      -4.371  -4.191  -2.962  1.00  0.00     0.418 C 
ATOM     18  F   UNL     1      -3.082  -4.590  -2.759  1.00  0.00    -0.166 F 
ATOM     19  F   UNL     1      -5.099  -4.808  -1.986  1.00  0.00    -0.166 F 
ATOM     20  F   UNL     1      -4.760  -4.773  -4.133  1.00  0.00    -0.166 F 
ENDBRANCH  11  17
ENDBRANCH   7   8
BRANCH   7  21
ATOM     21  N   UNL     1      -2.181   0.262  -0.394  1.00  0.00    -0.343 N 
ATOM     22  H   UNL     1      -1.659  -0.611  -0.469  1.00  0.00     0.345 HD
ATOM     23  H   UNL     1      -1.865   0.777   0.427  1.00  0.00     0.345 HD
ATOM     24  H   UNL     1      -2.025   0.825  -1.230  1.00  0.00     0.345 HD
ENDBRANCH   7  21
ENDBRANCH   4   7
ENDBRANCH   2   3
ENDBRANCH   1   2
BRANCH   1  25
ATOM     25  C   UNL     1      -1.544  -4.189   2.636  1.00  0.00     0.118 C 
BRANCH  25  26
ATOM     26  N   UNL     1      -2.261  -5.363   2.143  1.00  0.00    -0.352 N 
ATOM     27  C   UNL     1      -1.942  -6.702   2.207  1.00  0.00     0.251 C 
ATOM     28  H   UNL     1      -3.112  -5.164   1.690  1.00  0.00     0.163 HD
ATOM     29  O   UNL     1      -2.628  -7.522   1.615  1.00  0.00    -0.269 OA
BRANCH  27  30
ATOM     30  C   UNL     1      -0.750  -7.138   2.966  1.00  0.00     0.039 A 
ATOM     31  C   UNL     1       0.105  -8.091   2.407  1.00  0.00     0.014 A 
ATOM     32  C   UNL     1      -0.461  -6.584   4.213  1.00  0.00     0.014 A 
ATOM     33  C   UNL     1       1.301  -8.408   3.055  1.00  0.00     0.010 A 
ATOM     34  C   UNL     1       0.779  -6.809   4.794  1.00  0.00     0.010 A 
ATOM     35  C   UNL     1       1.674  -7.727   4.225  1.00  0.00    -0.014 A 
BRANCH  35  36
ATOM     36  C   UNL     1       2.990  -7.948   4.878  1.00  0.00     0.031 A 
ATOM     37  C   UNL     1       3.048  -8.416   6.308  1.00  0.00     0.074 A 
ATOM     38  C   UNL     1       4.124  -7.629   4.222  1.00  0.00     0.049 A 
ATOM     39  N   UNL     1       4.086  -8.550   7.093  1.00  0.00    -0.248 NA
ATOM     40  C   UNL     1       1.764  -8.731   6.955  1.00  0.00     0.031 C 
ATOM     41  C   UNL     1       4.196  -7.096   2.860  1.00  0.00     0.029 A 
ATOM     42  N   UNL     1       5.436  -7.691   4.621  1.00  0.00    -0.354 N 
ATOM     43  C   UNL     1       3.577  -8.931   8.329  1.00  0.00     0.074 A 
ATOM     44  C   UNL     1       2.136  -8.947   8.207  1.00  0.00     0.031 C 
ATOM     45  C   UNL     1       5.483  -6.906   2.527  1.00  0.00     0.029 A 
ATOM     46  C   UNL     1       6.326  -7.263   3.663  1.00  0.00     0.049 A 
ATOM     47  H   UNL     1       5.714  -8.011   5.509  1.00  0.00     0.167 HD
ATOM     48  C   UNL     1       4.249  -9.264   9.457  1.00  0.00     0.037 A 
ATOM     49  C   UNL     1       7.669  -7.164   3.698  1.00  0.00     0.037 A 
ATOM     50  C   UNL     1       5.684  -9.291   9.554  1.00  0.00     0.049 A 
ATOM     51  C   UNL     1       8.399  -7.581   4.944  1.00  0.00     0.074 A 
ATOM     52  C   UNL     1       6.468  -9.695  10.620  1.00  0.00     0.029 A 
ATOM     53  N   UNL     1       6.553  -8.902   8.543  1.00  0.00    -0.354 N 
ATOM     54  N   UNL     1       7.906  -8.009   6.082  1.00  0.00    -0.248 NA
ATOM     55  C   UNL     1       9.866  -7.511   4.911  1.00  0.00     0.031 C 
ATOM     56  C   UNL     1       7.810  -9.515  10.268  1.00  0.00     0.029 A 
ATOM     57  C   UNL     1       7.864  -9.040   8.967  1.00  0.00     0.049 A 
ATOM     58  H   UNL     1       6.277  -8.576   7.657  1.00  0.00     0.167 HD
ATOM     59  C   UNL     1       9.002  -8.280   6.894  1.00  0.00     0.074 A 
ATOM     60  C   UNL     1      10.184  -7.979   6.111  1.00  0.00     0.031 C 
ATOM     61  C   UNL     1       9.027  -8.737   8.170  1.00  0.00     0.037 A 
BRANCH  48  62
ATOM     62  C   UNL     1       3.433  -9.631  10.666  1.00  0.00     0.058 A 
ATOM     63  C   UNL     1       2.675 -10.812  10.716  1.00  0.00     0.135 A 
ATOM     64  C   UNL     1       3.408  -8.791  11.792  1.00  0.00     0.135 A 
ATOM     65  F   UNL     1       2.650 -11.645   9.662  1.00  0.00    -0.206 F 
ATOM     66  C   UNL     1       1.886 -11.126  11.817  1.00  0.00     0.059 A 
ATOM     67  C   UNL     1       2.650  -9.101  12.918  1.00  0.00     0.059 A 
ATOM     68  F   UNL     1       4.114  -7.650  11.801  1.00  0.00    -0.206 F 
ATOM     69  C   UNL     1       1.875 -10.261  12.912  1.00  0.00     0.060 A 
BRANCH  69  70
ATOM     70  S   UNL     1       0.833 -10.672  14.327  1.00  0.00     0.124 S 
ATOM     71  O   UNL     1      -0.494 -10.343  13.814  1.00  0.00    -0.237 OA
ATOM     72  O   UNL     1       1.104 -12.093  14.514  1.00  0.00    -0.237 OA
ATOM     73  O   UNL     1       1.332  -9.796  15.382  1.00  0.00    -0.744 OA
ENDBRANCH  69  70
ENDBRANCH  48  62
BRANCH  49  74
ATOM     74  C   UNL     1       8.404  -6.684   2.498  1.00  0.00     0.058 A 
ATOM     75  C   UNL     1       9.145  -7.574   1.706  1.00  0.00     0.135 A 
ATOM     76  C   UNL     1       8.345  -5.341   2.093  1.00  0.00     0.135 A 
ATOM     77  F   UNL     1       9.235  -8.866   2.055  1.00  0.00    -0.206 F 
ATOM     78  C   UNL     1       9.807  -7.150   0.558  1.00  0.00     0.059 A 
ATOM     79  C   UNL     1       8.981  -4.898   0.937  1.00  0.00     0.059 A 
ATOM     80  F   UNL     1       7.635  -4.454   2.807  1.00  0.00    -0.206 F 
ATOM     81  C   UNL     1       9.714  -5.810   0.178  1.00  0.00     0.060 A 
BRANCH  81  82
ATOM     82  S   UNL     1      10.517  -5.287  -1.353  1.00  0.00     0.124 S 
ATOM     83  O   UNL     1      11.922  -5.289  -0.964  1.00  0.00    -0.237 OA
ATOM     84  O   UNL     1      10.111  -6.334  -2.286  1.00  0.00    -0.237 OA
ATOM     85  O   UNL     1       9.933  -3.973  -1.606  1.00  0.00    -0.744 OA
ENDBRANCH  81  82
ENDBRANCH  49  74
BRANCH  61  86
ATOM     86  C   UNL     1      10.375  -8.966   8.794  1.00  0.00     0.058 A 
ATOM     87  C   UNL     1      11.187  -7.899   9.207  1.00  0.00     0.135 A 
ATOM     88  C   UNL     1      10.835 -10.272   9.031  1.00  0.00     0.135 A 
ATOM     89  F   UNL     1      10.795  -6.632   8.998  1.00  0.00    -0.206 F 
ATOM     90  C   UNL     1      12.418  -8.117   9.816  1.00  0.00     0.059 A 
ATOM     91  C   UNL     1      12.051 -10.514   9.661  1.00  0.00     0.059 A 
ATOM     92  F   UNL     1      10.091 -11.328   8.664  1.00  0.00    -0.206 F 
ATOM     93  C   UNL     1      12.841  -9.429  10.040  1.00  0.00     0.060 A 
BRANCH  93  94
ATOM     94  S   UNL     1      14.424  -9.700  10.863  1.00  0.00     0.124 S 
ATOM     95  O   UNL     1      15.367  -9.389   9.794  1.00  0.00    -0.237 OA
ATOM     96  O   UNL     1      14.374  -8.743  11.964  1.00  0.00    -0.237 OA
ATOM     97  O   UNL     1      14.365 -11.104  11.260  1.00  0.00    -0.744 OA
ENDBRANCH  93  94
ENDBRANCH  61  86
ENDBRANCH  35  36
ENDBRANCH  27  30
ENDBRANCH  25  26
ENDBRANCH   1  25
TORSDOF 17
