REMARK SMILES C[NH2+][C@@]1(C(=O)NCCCNC(=O)c2ccc(-c3c4nc(c(-c5c(F)cc(S(=O)(=O)[O-])cc5F)c5ccc([nH]5)c(-c5c(F)cc(S(=O)(=O)[O-])cc5F)c5nc(c(-c6c(F)cc(S(=O)(=O)[O-])cc6F)c6ccc3[nH]6)C=C5)C=C4)cc2)CCC[C@H]([N@H+](C)C2CC[NH+](C)CC2)C1
REMARK SMILES IDX 8 1 7 2 6 3 4 4 5 5 3 7 79 8 92 9 80 10 82 11 81 12 2 13
REMARK SMILES IDX 1 14 83 17 84 18 85 20 86 21 91 22 87 23 90 24 88 25 89 26
REMARK SMILES IDX 9 28 10 29 11 30 12 32 13 33 14 34 78 35 15 36 77 37 16 38
REMARK SMILES IDX 17 39 18 40 71 41 19 42 76 43 70 44 72 45 20 46 75 47 69 48
REMARK SMILES IDX 68 49 21 51 55 52 34 53 54 54 35 55 38 56 53 57 73 58 36 59
REMARK SMILES IDX 37 60 52 62 74 63 39 64 22 65 23 66 32 67 24 68 25 69 31 70
REMARK SMILES IDX 33 71 26 72 27 73 28 74 29 75 30 76 56 77 57 78 66 79 58 80
REMARK SMILES IDX 59 81 65 82 67 83 60 84 61 85 62 86 63 87 64 88 40 89 41 90
REMARK SMILES IDX 50 91 42 92 43 93 49 94 51 95 44 96 45 97 46 98 47 99 48 100
REMARK H PARENT 6 6 2 15 2 16 83 19 88 27 10 31 72 50 38 61
REMARK Flexibility Score: inf
ROOT
ATOM      1  C   UNL     1      -4.052   2.080  -4.260  1.00  0.00     0.042 C 
ENDROOT
BRANCH   1   2
ATOM      2  C   UNL     1      -3.118   0.879  -4.135  1.00  0.00     0.118 C 
BRANCH   2   3
ATOM      3  N   UNL     1      -1.994   1.057  -3.210  1.00  0.00    -0.351 N 
ATOM      4  C   UNL     1      -1.444  -0.077  -2.610  1.00  0.00     0.281 C 
ATOM      5  O   UNL     1      -1.490  -1.159  -3.204  1.00  0.00    -0.268 OA
ATOM      6  H   UNL     1      -1.636   1.953  -3.018  1.00  0.00     0.163 HD
BRANCH   4   7
ATOM      7  C   UNL     1      -0.742   0.080  -1.178  1.00  0.00     0.181 C 
ATOM      8  C   UNL     1      -0.635  -1.337  -0.519  1.00  0.00     0.079 C 
ATOM      9  C   UNL     1      -1.533   1.078  -0.297  1.00  0.00     0.144 C 
ATOM     10  C   UNL     1      -1.740  -1.774   0.436  1.00  0.00     0.013 C 
ATOM     11  C   UNL     1      -2.872   0.517   0.283  1.00  0.00     0.190 C 
ATOM     12  C   UNL     1      -2.472  -0.667   1.160  1.00  0.00     0.065 C 
BRANCH   7  13
ATOM     13  N   UNL     1       0.654   0.574  -1.446  1.00  0.00    -0.336 N 
ATOM     14  C   UNL     1       1.528   0.746  -0.284  1.00  0.00     0.331 C 
ATOM     15  H   UNL     1       1.103  -0.094  -2.073  1.00  0.00     0.346 HD
ATOM     16  H   UNL     1       0.536   1.510  -1.833  1.00  0.00     0.346 HD
ENDBRANCH   7  13
BRANCH  11  17
ATOM     17  N   UNL     1      -3.949   0.449  -0.761  1.00  0.00    -0.332 N 
ATOM     18  C   UNL     1      -4.491   1.847  -0.808  1.00  0.00     0.333 C 
ATOM     19  H   UNL     1      -3.480   0.059  -1.579  1.00  0.00     0.348 HD
BRANCH  17  20
ATOM     20  C   UNL     1      -5.120  -0.498  -0.656  1.00  0.00     0.195 C 
ATOM     21  C   UNL     1      -4.944  -1.997  -0.361  1.00  0.00     0.126 C 
ATOM     22  C   UNL     1      -6.021  -0.533  -1.940  1.00  0.00     0.126 C 
ATOM     23  C   UNL     1      -4.279  -2.756  -1.507  1.00  0.00     0.268 C 
ATOM     24  C   UNL     1      -5.688  -1.573  -3.039  1.00  0.00     0.268 C 
ATOM     25  N   UNL     1      -5.150  -2.877  -2.664  1.00  0.00    -0.337 N 
ATOM     26  C   UNL     1      -4.371  -3.426  -3.793  1.00  0.00     0.332 C 
ATOM     27  H   UNL     1      -5.927  -3.496  -2.434  1.00  0.00     0.347 HD
ENDBRANCH  17  20
ENDBRANCH  11  17
ENDBRANCH   4   7
ENDBRANCH   2   3
ENDBRANCH   1   2
BRANCH   1  28
ATOM     28  C   UNL     1      -5.335   1.971  -5.115  1.00  0.00     0.118 C 
BRANCH  28  29
ATOM     29  N   UNL     1      -6.205   0.796  -5.014  1.00  0.00    -0.352 N 
ATOM     30  C   UNL     1      -7.568   0.665  -4.775  1.00  0.00     0.251 C 
ATOM     31  H   UNL     1      -5.737  -0.061  -5.139  1.00  0.00     0.163 HD
ATOM     32  O   UNL     1      -8.098  -0.447  -4.774  1.00  0.00    -0.269 OA
BRANCH  30  33
ATOM     33  C   UNL     1      -8.429   1.834  -4.535  1.00  0.00     0.039 A 
ATOM     34  C   UNL     1      -9.476   1.802  -3.596  1.00  0.00     0.014 A 
ATOM     35  C   UNL     1      -8.240   2.960  -5.321  1.00  0.00     0.014 A 
ATOM     36  C   UNL     1     -10.278   2.936  -3.409  1.00  0.00     0.010 A 
ATOM     37  C   UNL     1      -8.931   4.117  -5.036  1.00  0.00     0.010 A 
ATOM     38  C   UNL     1      -9.986   4.112  -4.111  1.00  0.00    -0.014 A 
BRANCH  38  39
ATOM     39  C   UNL     1     -10.775   5.365  -4.033  1.00  0.00     0.031 A 
ATOM     40  C   UNL     1     -11.308   5.933  -5.327  1.00  0.00     0.074 A 
ATOM     41  C   UNL     1     -10.814   6.075  -2.891  1.00  0.00     0.049 A 
ATOM     42  N   UNL     1     -11.641   7.160  -5.622  1.00  0.00    -0.248 NA
ATOM     43  C   UNL     1     -11.358   5.005  -6.474  1.00  0.00     0.031 C 
ATOM     44  C   UNL     1     -10.277   5.645  -1.598  1.00  0.00     0.029 A 
ATOM     45  N   UNL     1     -11.289   7.338  -2.648  1.00  0.00    -0.354 N 
ATOM     46  C   UNL     1     -11.856   7.165  -6.998  1.00  0.00     0.074 A 
ATOM     47  C   UNL     1     -11.549   5.840  -7.484  1.00  0.00     0.031 C 
ATOM     48  C   UNL     1     -10.461   6.624  -0.697  1.00  0.00     0.029 A 
ATOM     49  C   UNL     1     -11.081   7.766  -1.358  1.00  0.00     0.049 A 
ATOM     50  H   UNL     1     -11.736   7.886  -3.333  1.00  0.00     0.167 HD
ATOM     51  C   UNL     1     -12.298   8.181  -7.776  1.00  0.00     0.037 A 
ATOM     52  C   UNL     1     -11.351   8.956  -0.788  1.00  0.00     0.037 A 
ATOM     53  C   UNL     1     -12.701   9.452  -7.236  1.00  0.00     0.049 A 
ATOM     54  C   UNL     1     -11.962  10.032  -1.646  1.00  0.00     0.074 A 
ATOM     55  C   UNL     1     -13.275  10.526  -7.888  1.00  0.00     0.029 A 
ATOM     56  N   UNL     1     -12.605   9.797  -5.894  1.00  0.00    -0.354 N 
ATOM     57  N   UNL     1     -12.196  10.021  -2.939  1.00  0.00    -0.248 NA
ATOM     58  C   UNL     1     -12.356  11.276  -0.974  1.00  0.00     0.031 C 
ATOM     59  C   UNL     1     -13.513  11.529  -6.941  1.00  0.00     0.029 A 
ATOM     60  C   UNL     1     -13.120  11.064  -5.694  1.00  0.00     0.049 A 
ATOM     61  H   UNL     1     -12.227   9.224  -5.189  1.00  0.00     0.167 HD
ATOM     62  C   UNL     1     -12.794  11.241  -3.229  1.00  0.00     0.074 A 
ATOM     63  C   UNL     1     -12.894  11.961  -1.974  1.00  0.00     0.031 C 
ATOM     64  C   UNL     1     -13.220  11.730  -4.420  1.00  0.00     0.037 A 
BRANCH  51  65
ATOM     65  C   UNL     1     -12.408   7.945  -9.260  1.00  0.00     0.058 A 
ATOM     66  C   UNL     1     -13.324   7.025  -9.798  1.00  0.00     0.135 A 
ATOM     67  C   UNL     1     -11.602   8.659 -10.163  1.00  0.00     0.135 A 
ATOM     68  F   UNL     1     -14.113   6.303  -8.986  1.00  0.00    -0.206 F 
ATOM     69  C   UNL     1     -13.408   6.790 -11.166  1.00  0.00     0.059 A 
ATOM     70  C   UNL     1     -11.695   8.466 -11.540  1.00  0.00     0.059 A 
ATOM     71  F   UNL     1     -10.707   9.552  -9.712  1.00  0.00    -0.206 F 
ATOM     72  C   UNL     1     -12.590   7.517 -12.031  1.00  0.00     0.060 A 
BRANCH  72  73
ATOM     73  S   UNL     1     -12.726   7.209 -13.805  1.00  0.00     0.124 S 
ATOM     74  O   UNL     1     -12.066   5.913 -13.927  1.00  0.00    -0.237 OA
ATOM     75  O   UNL     1     -14.170   7.206 -14.011  1.00  0.00    -0.237 OA
ATOM     76  O   UNL     1     -12.013   8.335 -14.400  1.00  0.00    -0.744 OA
ENDBRANCH  72  73
ENDBRANCH  51  65
BRANCH  52  77
ATOM     77  C   UNL     1     -11.104   9.165   0.664  1.00  0.00     0.058 A 
ATOM     78  C   UNL     1     -12.180   9.244   1.562  1.00  0.00     0.135 A 
ATOM     79  C   UNL     1      -9.808   9.254   1.194  1.00  0.00     0.135 A 
ATOM     80  F   UNL     1     -13.439   9.162   1.105  1.00  0.00    -0.206 F 
ATOM     81  C   UNL     1     -11.983   9.426   2.926  1.00  0.00     0.059 A 
ATOM     82  C   UNL     1      -9.584   9.412   2.560  1.00  0.00     0.059 A 
ATOM     83  F   UNL     1      -8.741   9.157   0.384  1.00  0.00    -0.206 F 
ATOM     84  C   UNL     1     -10.680   9.508   3.417  1.00  0.00     0.060 A 
BRANCH  84  85
ATOM     85  S   UNL     1     -10.438   9.698   5.197  1.00  0.00     0.124 S 
ATOM     86  O   UNL     1     -10.833  11.086   5.401  1.00  0.00    -0.237 OA
ATOM     87  O   UNL     1     -11.343   8.689   5.740  1.00  0.00    -0.237 OA
ATOM     88  O   UNL     1      -9.017   9.412   5.374  1.00  0.00    -0.744 OA
ENDBRANCH  84  85
ENDBRANCH  52  77
BRANCH  64  89
ATOM     89  C   UNL     1     -13.873  13.081  -4.410  1.00  0.00     0.058 A 
ATOM     90  C   UNL     1     -13.124  14.257  -4.261  1.00  0.00     0.135 A 
ATOM     91  C   UNL     1     -15.256  13.198  -4.621  1.00  0.00     0.135 A 
ATOM     92  F   UNL     1     -11.799  14.193  -4.053  1.00  0.00    -0.206 F 
ATOM     93  C   UNL     1     -13.729  15.507  -4.301  1.00  0.00     0.059 A 
ATOM     94  C   UNL     1     -15.877  14.438  -4.692  1.00  0.00     0.059 A 
ATOM     95  F   UNL     1     -16.012  12.099  -4.782  1.00  0.00    -0.206 F 
ATOM     96  C   UNL     1     -15.106  15.587  -4.520  1.00  0.00     0.060 A 
BRANCH  96  97
ATOM     97  S   UNL     1     -15.871  17.218  -4.612  1.00  0.00     0.124 S 
ATOM     98  O   UNL     1     -15.880  17.616  -3.208  1.00  0.00    -0.237 OA
ATOM     99  O   UNL     1     -14.947  17.949  -5.473  1.00  0.00    -0.237 OA
ATOM    100  O   UNL     1     -17.181  16.946  -5.196  1.00  0.00    -0.744 OA
ENDBRANCH  96  97
ENDBRANCH  64  89
ENDBRANCH  38  39
ENDBRANCH  30  33
ENDBRANCH  28  29
ENDBRANCH   1  28
TORSDOF 16
