REMARK SMILES O=C(NCCCNC(=O)[C@@H](Cc1ccc(O)cc1)Nc1c2ccccc2nc2ccccc12)c1ccc(-c2c3nc(c(-c4c(F)cc(S(=O)(=O)[O-])cc4F)c4ccc([nH]4)c(-c4c(F)cc(S(=O)(=O)[O-])cc4F)c4nc(c(-c5c(F)cc(S(=O)(=O)[O-])cc5F)c5ccc2[nH]5)C=C4)C=C3)cc1
REMARK SMILES IDX 5 1 4 2 3 3 1 4 2 5 34 7 35 8 99 9 36 10 98 11 37 12 38 13
REMARK SMILES IDX 39 14 92 15 40 16 97 17 91 18 93 19 41 20 96 21 90 22 89 23
REMARK SMILES IDX 42 25 76 26 55 27 75 28 56 29 59 30 74 31 94 32 57 33 58 34
REMARK SMILES IDX 73 36 95 37 60 38 43 39 44 40 53 41 45 42 46 43 52 44 54 45
REMARK SMILES IDX 47 46 48 47 49 48 50 49 51 50 77 51 78 52 87 53 79 54 80 55
REMARK SMILES IDX 86 56 88 57 81 58 82 59 83 60 84 61 85 62 61 63 62 64 71 65
REMARK SMILES IDX 63 66 64 67 70 68 72 69 65 70 66 71 67 72 68 73 69 74 6 75
REMARK SMILES IDX 7 76 8 77 9 79 10 80 11 81 12 82 13 83 18 84 14 85 17 86
REMARK SMILES IDX 15 87 16 88 19 90 20 92 21 93 33 94 22 95 26 96 28 97 32 98
REMARK SMILES IDX 23 99 25 100 27 101 29 102 31 103 24 104 30 105
REMARK H PARENT 3 6 93 24 59 35 7 78 16 89 19 91
REMARK Flexibility Score: inf
ROOT
ATOM      1  C   UNL     1       4.255   2.037   1.257  1.00  0.00     0.042 C 
ENDROOT
BRANCH   1   2
ATOM      2  C   UNL     1       3.806   0.693   1.804  1.00  0.00     0.118 C 
BRANCH   2   3
ATOM      3  N   UNL     1       2.490   0.330   1.308  1.00  0.00    -0.352 N 
ATOM      4  O   UNL     1       0.918  -0.227  -0.169  1.00  0.00    -0.269 OA
ATOM      5  C   UNL     1       2.096  -0.339   0.172  1.00  0.00     0.251 C 
ATOM      6  H   UNL     1       1.746   0.613   1.888  1.00  0.00     0.163 HD
BRANCH   5   7
ATOM      7  C   UNL     1       3.014  -1.185  -0.643  1.00  0.00     0.039 A 
ATOM      8  C   UNL     1       4.093  -1.878  -0.093  1.00  0.00     0.014 A 
ATOM      9  C   UNL     1       2.687  -1.420  -1.988  1.00  0.00     0.014 A 
ATOM     10  C   UNL     1       4.882  -2.717  -0.882  1.00  0.00     0.010 A 
ATOM     11  C   UNL     1       3.411  -2.348  -2.754  1.00  0.00     0.010 A 
ATOM     12  C   UNL     1       4.511  -3.015  -2.201  1.00  0.00    -0.014 A 
BRANCH  12  13
ATOM     13  C   UNL     1       5.168  -4.155  -2.901  1.00  0.00     0.031 A 
ATOM     14  C   UNL     1       5.947  -3.965  -4.173  1.00  0.00     0.074 A 
ATOM     15  C   UNL     1       5.034  -5.390  -2.370  1.00  0.00     0.049 A 
ATOM     16  N   UNL     1       6.556  -4.867  -4.901  1.00  0.00    -0.248 NA
ATOM     17  C   UNL     1       6.051  -2.597  -4.705  1.00  0.00     0.031 C 
ATOM     18  C   UNL     1       4.264  -5.708  -1.162  1.00  0.00     0.029 A 
ATOM     19  N   UNL     1       5.534  -6.607  -2.764  1.00  0.00    -0.354 N 
ATOM     20  C   UNL     1       7.096  -4.186  -5.986  1.00  0.00     0.074 A 
ATOM     21  C   UNL     1       6.734  -2.793  -5.827  1.00  0.00     0.031 C 
ATOM     22  C   UNL     1       4.372  -7.017  -0.896  1.00  0.00     0.029 A 
ATOM     23  C   UNL     1       5.155  -7.649  -1.948  1.00  0.00     0.049 A 
ATOM     24  H   UNL     1       6.109  -6.723  -3.554  1.00  0.00     0.167 HD
ATOM     25  C   UNL     1       7.827  -4.684  -7.013  1.00  0.00     0.037 A 
ATOM     26  C   UNL     1       5.377  -8.974  -2.047  1.00  0.00     0.037 A 
ATOM     27  C   UNL     1       8.207  -6.069  -7.144  1.00  0.00     0.049 A 
ATOM     28  C   UNL     1       6.179  -9.492  -3.207  1.00  0.00     0.074 A 
ATOM     29  C   UNL     1       9.023  -6.646  -8.103  1.00  0.00     0.029 A 
ATOM     30  N   UNL     1       7.790  -7.094  -6.308  1.00  0.00    -0.354 N 
ATOM     31  N   UNL     1       6.748  -8.817  -4.176  1.00  0.00    -0.248 NA
ATOM     32  C   UNL     1       6.359 -10.947  -3.295  1.00  0.00     0.031 C 
ATOM     33  C   UNL     1       9.054  -8.027  -7.881  1.00  0.00     0.029 A 
ATOM     34  C   UNL     1       8.297  -8.305  -6.755  1.00  0.00     0.049 A 
ATOM     35  H   UNL     1       7.219  -6.979  -5.515  1.00  0.00     0.167 HD
ATOM     36  C   UNL     1       7.355  -9.766  -4.989  1.00  0.00     0.074 A 
ATOM     37  C   UNL     1       7.112 -11.058  -4.380  1.00  0.00     0.031 C 
ATOM     38  C   UNL     1       8.042  -9.584  -6.143  1.00  0.00     0.037 A 
BRANCH  25  39
ATOM     39  C   UNL     1       8.273  -3.743  -8.099  1.00  0.00     0.058 A 
ATOM     40  C   UNL     1       9.332  -2.843  -7.908  1.00  0.00     0.135 A 
ATOM     41  C   UNL     1       7.712  -3.832  -9.384  1.00  0.00     0.135 A 
ATOM     42  F   UNL     1       9.898  -2.711  -6.698  1.00  0.00    -0.206 F 
ATOM     43  C   UNL     1       9.822  -2.066  -8.954  1.00  0.00     0.059 A 
ATOM     44  C   UNL     1       8.199  -3.079 -10.449  1.00  0.00     0.059 A 
ATOM     45  F   UNL     1       6.696  -4.677  -9.620  1.00  0.00    -0.206 F 
ATOM     46  C   UNL     1       9.254  -2.198 -10.224  1.00  0.00     0.060 A 
BRANCH  46  47
ATOM     47  S   UNL     1       9.944  -1.226 -11.581  1.00  0.00     0.124 S 
ATOM     48  O   UNL     1       9.481   0.117 -11.245  1.00  0.00    -0.237 OA
ATOM     49  O   UNL     1      11.375  -1.458 -11.436  1.00  0.00    -0.237 OA
ATOM     50  O   UNL     1       9.333  -1.819 -12.770  1.00  0.00    -0.744 OA
ENDBRANCH  46  47
ENDBRANCH  25  39
BRANCH  26  51
ATOM     51  C   UNL     1       4.786  -9.909  -1.051  1.00  0.00     0.058 A 
ATOM     52  C   UNL     1       5.593 -10.634  -0.164  1.00  0.00     0.135 A 
ATOM     53  C   UNL     1       3.397 -10.103  -0.980  1.00  0.00     0.135 A 
ATOM     54  F   UNL     1       6.926 -10.488  -0.196  1.00  0.00    -0.206 F 
ATOM     55  C   UNL     1       5.048 -11.541   0.740  1.00  0.00     0.059 A 
ATOM     56  C   UNL     1       2.826 -10.979  -0.064  1.00  0.00     0.059 A 
ATOM     57  F   UNL     1       2.579  -9.419  -1.795  1.00  0.00    -0.206 F 
ATOM     58  C   UNL     1       3.662 -11.709   0.779  1.00  0.00     0.060 A 
BRANCH  58  59
ATOM     59  S   UNL     1       2.958 -12.876   1.963  1.00  0.00     0.124 S 
ATOM     60  O   UNL     1       3.251 -14.153   1.323  1.00  0.00    -0.237 OA
ATOM     61  O   UNL     1       3.715 -12.581   3.176  1.00  0.00    -0.237 OA
ATOM     62  O   UNL     1       1.548 -12.498   2.006  1.00  0.00    -0.744 OA
ENDBRANCH  58  59
ENDBRANCH  26  51
BRANCH  38  63
ATOM     63  C   UNL     1       8.580 -10.812  -6.821  1.00  0.00     0.058 A 
ATOM     64  C   UNL     1       7.732 -11.700  -7.501  1.00  0.00     0.135 A 
ATOM     65  C   UNL     1       9.957 -11.081  -6.829  1.00  0.00     0.135 A 
ATOM     66  F   UNL     1       6.406 -11.494  -7.511  1.00  0.00    -0.206 F 
ATOM     67  C   UNL     1       8.230 -12.824  -8.151  1.00  0.00     0.059 A 
ATOM     68  C   UNL     1      10.480 -12.185  -7.495  1.00  0.00     0.059 A 
ATOM     69  F   UNL     1      10.811 -10.259  -6.198  1.00  0.00    -0.206 F 
ATOM     70  C   UNL     1       9.607 -13.056  -8.145  1.00  0.00     0.060 A 
BRANCH  70  71
ATOM     71  S   UNL     1      10.244 -14.497  -9.026  1.00  0.00     0.124 S 
ATOM     72  O   UNL     1       9.853 -15.584  -8.134  1.00  0.00    -0.237 OA
ATOM     73  O   UNL     1       9.526 -14.430 -10.296  1.00  0.00    -0.237 OA
ATOM     74  O   UNL     1      11.677 -14.238  -9.109  1.00  0.00    -0.744 OA
ENDBRANCH  70  71
ENDBRANCH  38  63
ENDBRANCH  12  13
ENDBRANCH   5   7
ENDBRANCH   2   3
ENDBRANCH   1   2
BRANCH   1  75
ATOM     75  C   UNL     1       3.789   3.241   2.065  1.00  0.00     0.117 C 
BRANCH  75  76
ATOM     76  N   UNL     1       4.658   3.473   3.205  1.00  0.00    -0.354 N 
ATOM     77  C   UNL     1       5.741   4.276   3.393  1.00  0.00     0.242 C 
ATOM     78  H   UNL     1       4.416   2.945   3.999  1.00  0.00     0.163 HD
ATOM     79  O   UNL     1       6.396   4.044   4.420  1.00  0.00    -0.273 OA
BRANCH  77  80
ATOM     80  C   UNL     1       6.196   5.412   2.440  1.00  0.00     0.173 C 
BRANCH  80  81
ATOM     81  C   UNL     1       7.037   4.928   1.230  1.00  0.00     0.070 C 
BRANCH  81  82
ATOM     82  C   UNL     1       6.425   4.250   0.025  1.00  0.00    -0.045 A 
ATOM     83  C   UNL     1       5.366   4.810  -0.703  1.00  0.00     0.007 A 
ATOM     84  C   UNL     1       6.997   3.054  -0.447  1.00  0.00     0.007 A 
ATOM     85  C   UNL     1       4.804   4.125  -1.788  1.00  0.00     0.046 A 
ATOM     86  C   UNL     1       6.444   2.374  -1.534  1.00  0.00     0.046 A 
ATOM     87  C   UNL     1       5.331   2.898  -2.174  1.00  0.00     0.115 A 
BRANCH  87  88
ATOM     88  O   UNL     1       4.771   2.159  -3.171  1.00  0.00    -0.508 OA
ATOM     89  H   UNL     1       4.017   2.480  -3.627  1.00  0.00     0.293 HD
ENDBRANCH  87  88
ENDBRANCH  81  82
ENDBRANCH  80  81
BRANCH  80  90
ATOM     90  N   UNL     1       5.122   6.367   2.103  1.00  0.00    -0.372 N 
ATOM     91  H   UNL     1       4.479   6.115   1.401  1.00  0.00     0.161 HD
BRANCH  90  92
ATOM     92  C   UNL     1       4.968   7.622   2.729  1.00  0.00     0.054 A 
ATOM     93  C   UNL     1       6.001   8.614   2.737  1.00  0.00     0.024 A 
ATOM     94  C   UNL     1       3.728   7.923   3.381  1.00  0.00     0.024 A 
ATOM     95  C   UNL     1       7.280   8.487   2.139  1.00  0.00     0.012 A 
ATOM     96  C   UNL     1       5.713   9.850   3.353  1.00  0.00     0.073 A 
ATOM     97  C   UNL     1       3.575   9.214   3.928  1.00  0.00     0.073 A 
ATOM     98  C   UNL     1       2.642   7.018   3.528  1.00  0.00     0.012 A 
ATOM     99  C   UNL     1       8.245   9.494   2.196  1.00  0.00     0.001 A 
ATOM    100  C   UNL     1       6.676  10.852   3.385  1.00  0.00     0.029 A 
ATOM    101  N   UNL     1       4.535  10.139   3.910  1.00  0.00    -0.248 NA
ATOM    102  C   UNL     1       2.376   9.573   4.528  1.00  0.00     0.029 A 
ATOM    103  C   UNL     1       1.450   7.394   4.152  1.00  0.00     0.001 A 
ATOM    104  C   UNL     1       7.941  10.686   2.825  1.00  0.00     0.002 A 
ATOM    105  C   UNL     1       1.311   8.682   4.643  1.00  0.00     0.002 A 
ENDBRANCH  90  92
ENDBRANCH  80  90
ENDBRANCH  77  80
ENDBRANCH  75  76
ENDBRANCH   1  75
TORSDOF 18
