REMARK SMILES COc1cc(/C=C/C(=O)NCCCNC(=O)c2ccc(-c3c4nc(c(-c5c(F)cc(S(=O)(=O)[O-])cc5F)c5ccc([nH]5)c(-c5c(F)cc(S(=O)(=O)[O-])cc5F)c5nc(c(-c6c(F)cc(S(=O)(=O)[O-])cc6F)c6ccc3[nH]6)C=C5)C=C4)cc2)cc(OC)c1O
REMARK SMILES IDX 12 1 11 2 10 3 8 4 9 5 7 7 6 8 5 9 3 10 4 11 87 12 84 13
REMARK SMILES IDX 83 14 2 15 1 16 88 17 85 19 86 20 13 21 14 22 15 23 16 25
REMARK SMILES IDX 17 26 18 27 82 28 19 29 81 30 20 31 21 32 22 33 75 34 23 35
REMARK SMILES IDX 80 36 74 37 76 38 24 39 79 40 73 41 72 42 25 44 59 45 38 46
REMARK SMILES IDX 58 47 39 48 42 49 57 50 77 51 40 52 41 53 56 55 78 56 43 57
REMARK SMILES IDX 26 58 27 59 36 60 28 61 29 62 35 63 37 64 30 65 31 66 32 67
REMARK SMILES IDX 33 68 34 69 60 70 61 71 70 72 62 73 63 74 69 75 71 76 64 77
REMARK SMILES IDX 65 78 66 79 67 80 68 81 44 82 45 83 54 84 46 85 47 86 53 87
REMARK SMILES IDX 55 88 48 89 49 90 50 91 51 92 52 93
REMARK H PARENT 10 6 88 18 14 24 76 43 42 54
REMARK Flexibility Score: inf
ROOT
ATOM      1  C   UNL     1      -0.444  -5.459   7.594  1.00  0.00     0.042 C 
ENDROOT
BRANCH   1   2
ATOM      2  C   UNL     1      -1.632  -4.636   7.102  1.00  0.00     0.118 C 
BRANCH   2   3
ATOM      3  N   UNL     1      -1.602  -3.283   7.631  1.00  0.00    -0.352 N 
ATOM      4  C   UNL     1      -1.381  -2.093   7.014  1.00  0.00     0.244 C 
ATOM      5  O   UNL     1      -1.529  -1.047   7.643  1.00  0.00    -0.270 OA
ATOM      6  H   UNL     1      -1.769  -3.218   8.599  1.00  0.00     0.163 HD
BRANCH   4   7
ATOM      7  C   UNL     1      -1.058  -2.024   5.572  1.00  0.00     0.072 C 
ATOM      8  C   UNL     1      -0.135  -2.781   4.960  1.00  0.00     0.014 C 
BRANCH   8   9
ATOM      9  C   UNL     1       0.198  -2.663   3.535  1.00  0.00    -0.018 A 
ATOM     10  C   UNL     1       0.727  -1.333   1.559  1.00  0.00     0.165 A 
ATOM     11  C   UNL     1       0.329  -1.425   2.900  1.00  0.00     0.058 A 
ATOM     12  C   UNL     1       1.022  -2.508   0.848  1.00  0.00     0.200 A 
ATOM     13  C   UNL     1       0.877  -3.762   1.460  1.00  0.00     0.165 A 
ATOM     14  C   UNL     1       0.471  -3.821   2.802  1.00  0.00     0.058 A 
BRANCH  10  15
ATOM     15  O   UNL     1       0.827  -0.037   1.127  1.00  0.00    -0.493 OA
ATOM     16  C   UNL     1       0.838   0.220  -0.270  1.00  0.00     0.278 C 
ENDBRANCH  10  15
BRANCH  12  17
ATOM     17  O   UNL     1       1.530  -2.426  -0.418  1.00  0.00    -0.502 OA
ATOM     18  H   UNL     1       1.629  -1.591  -0.831  1.00  0.00     0.293 HD
ENDBRANCH  12  17
BRANCH  13  19
ATOM     19  O   UNL     1       1.117  -5.004   0.936  1.00  0.00    -0.493 OA
ATOM     20  C   UNL     1       1.597  -5.111  -0.395  1.00  0.00     0.278 C 
ENDBRANCH  13  19
ENDBRANCH   8   9
ENDBRANCH   4   7
ENDBRANCH   2   3
ENDBRANCH   1   2
BRANCH   1  21
ATOM     21  C   UNL     1      -0.534  -5.846   9.069  1.00  0.00     0.118 C 
BRANCH  21  22
ATOM     22  N   UNL     1      -1.623  -6.777   9.327  1.00  0.00    -0.352 N 
ATOM     23  C   UNL     1      -1.602  -8.040   9.864  1.00  0.00     0.251 C 
ATOM     24  H   UNL     1      -2.517  -6.448   9.076  1.00  0.00     0.163 HD
ATOM     25  O   UNL     1      -2.608  -8.740   9.782  1.00  0.00    -0.269 OA
BRANCH  23  26
ATOM     26  C   UNL     1      -0.389  -8.566  10.529  1.00  0.00     0.039 A 
ATOM     27  C   UNL     1      -0.046  -9.908  10.337  1.00  0.00     0.014 A 
ATOM     28  C   UNL     1       0.377  -7.767  11.384  1.00  0.00     0.014 A 
ATOM     29  C   UNL     1       1.089 -10.433  10.960  1.00  0.00     0.010 A 
ATOM     30  C   UNL     1       1.545  -8.274  11.951  1.00  0.00     0.010 A 
ATOM     31  C   UNL     1       1.910  -9.614  11.751  1.00  0.00    -0.014 A 
BRANCH  31  32
ATOM     32  C   UNL     1       3.152 -10.143  12.372  1.00  0.00     0.031 A 
ATOM     33  C   UNL     1       3.281 -10.219  13.869  1.00  0.00     0.074 A 
ATOM     34  C   UNL     1       4.185 -10.499  11.584  1.00  0.00     0.049 A 
ATOM     35  N   UNL     1       4.305 -10.596  14.591  1.00  0.00    -0.248 NA
ATOM     36  C   UNL     1       2.116  -9.792  14.660  1.00  0.00     0.031 C 
ATOM     37  C   UNL     1       4.198 -10.424  10.122  1.00  0.00     0.029 A 
ATOM     38  N   UNL     1       5.428 -10.987  11.901  1.00  0.00    -0.354 N 
ATOM     39  C   UNL     1       3.916 -10.438  15.916  1.00  0.00     0.074 A 
ATOM     40  C   UNL     1       2.578  -9.886  15.898  1.00  0.00     0.031 C 
ATOM     41  C   UNL     1       5.380 -10.870   9.668  1.00  0.00     0.029 A 
ATOM     42  C   UNL     1       6.222 -11.229  10.805  1.00  0.00     0.049 A 
ATOM     43  H   UNL     1       5.723 -11.148  12.827  1.00  0.00     0.167 HD
ATOM     44  C   UNL     1       4.601 -10.745  17.045  1.00  0.00     0.037 A 
ATOM     45  C   UNL     1       7.487 -11.684  10.724  1.00  0.00     0.037 A 
ATOM     46  C   UNL     1       5.923 -11.318  17.054  1.00  0.00     0.049 A 
ATOM     47  C   UNL     1       8.224 -12.028  11.989  1.00  0.00     0.074 A 
ATOM     48  C   UNL     1       6.679 -11.721  18.141  1.00  0.00     0.029 A 
ATOM     49  N   UNL     1       6.686 -11.570  15.923  1.00  0.00    -0.354 N 
ATOM     50  N   UNL     1       7.817 -11.929  13.232  1.00  0.00    -0.248 NA
ATOM     51  C   UNL     1       9.588 -12.553  11.841  1.00  0.00     0.031 C 
ATOM     52  C   UNL     1       7.914 -12.180  17.669  1.00  0.00     0.029 A 
ATOM     53  C   UNL     1       7.911 -12.106  16.286  1.00  0.00     0.049 A 
ATOM     54  H   UNL     1       6.398 -11.394  14.998  1.00  0.00     0.167 HD
ATOM     55  C   UNL     1       8.866 -12.400  14.014  1.00  0.00     0.074 A 
ATOM     56  C   UNL     1       9.920 -12.796  13.102  1.00  0.00     0.031 C 
ATOM     57  C   UNL     1       8.950 -12.495  15.364  1.00  0.00     0.037 A 
BRANCH  44  58
ATOM     58  C   UNL     1       3.931 -10.469  18.363  1.00  0.00     0.058 A 
ATOM     59  C   UNL     1       2.834 -11.226  18.805  1.00  0.00     0.135 A 
ATOM     60  C   UNL     1       4.404  -9.452  19.208  1.00  0.00     0.135 A 
ATOM     61  F   UNL     1       2.331 -12.202  18.033  1.00  0.00    -0.206 F 
ATOM     62  C   UNL     1       2.209 -10.963  20.020  1.00  0.00     0.059 A 
ATOM     63  C   UNL     1       3.812  -9.189  20.441  1.00  0.00     0.059 A 
ATOM     64  F   UNL     1       5.451  -8.697  18.838  1.00  0.00    -0.206 F 
ATOM     65  C   UNL     1       2.703  -9.940  20.830  1.00  0.00     0.060 A 
BRANCH  65  66
ATOM     66  S   UNL     1       1.877  -9.606  22.400  1.00  0.00     0.124 S 
ATOM     67  O   UNL     1       0.658  -8.940  21.952  1.00  0.00    -0.237 OA
ATOM     68  O   UNL     1       1.700 -10.946  22.952  1.00  0.00    -0.237 OA
ATOM     69  O   UNL     1       2.830  -8.760  23.112  1.00  0.00    -0.744 OA
ENDBRANCH  65  66
ENDBRANCH  44  58
BRANCH  45  70
ATOM     70  C   UNL     1       8.123 -11.866   9.393  1.00  0.00     0.058 A 
ATOM     71  C   UNL     1       8.350 -13.148   8.873  1.00  0.00     0.135 A 
ATOM     72  C   UNL     1       8.490 -10.765   8.603  1.00  0.00     0.135 A 
ATOM     73  F   UNL     1       8.021 -14.231   9.593  1.00  0.00    -0.206 F 
ATOM     74  C   UNL     1       8.928 -13.336   7.622  1.00  0.00     0.059 A 
ATOM     75  C   UNL     1       9.048 -10.927   7.339  1.00  0.00     0.059 A 
ATOM     76  F   UNL     1       8.278  -9.517   9.048  1.00  0.00    -0.206 F 
ATOM     77  C   UNL     1       9.270 -12.217   6.860  1.00  0.00     0.060 A 
BRANCH  77  78
ATOM     78  S   UNL     1       9.963 -12.471   5.211  1.00  0.00     0.124 S 
ATOM     79  O   UNL     1      11.318 -12.909   5.526  1.00  0.00    -0.237 OA
ATOM     80  O   UNL     1       9.075 -13.488   4.657  1.00  0.00    -0.237 OA
ATOM     81  O   UNL     1       9.851 -11.152   4.595  1.00  0.00    -0.744 OA
ENDBRANCH  77  78
ENDBRANCH  45  70
BRANCH  57  82
ATOM     82  C   UNL     1      10.214 -13.073  15.936  1.00  0.00     0.058 A 
ATOM     83  C   UNL     1      11.416 -12.350  15.947  1.00  0.00     0.135 A 
ATOM     84  C   UNL     1      10.212 -14.352  16.516  1.00  0.00     0.135 A 
ATOM     85  F   UNL     1      11.473 -11.126  15.399  1.00  0.00    -0.206 F 
ATOM     86  C   UNL     1      12.580 -12.884  16.489  1.00  0.00     0.059 A 
ATOM     87  C   UNL     1      11.358 -14.896  17.087  1.00  0.00     0.059 A 
ATOM     88  F   UNL     1       9.085 -15.082  16.541  1.00  0.00    -0.206 F 
ATOM     89  C   UNL     1      12.541 -14.159  17.057  1.00  0.00     0.060 A 
BRANCH  89  90
ATOM     90  S   UNL     1      14.052 -14.833  17.780  1.00  0.00     0.124 S 
ATOM     91  O   UNL     1      14.810 -15.198  16.588  1.00  0.00    -0.237 OA
ATOM     92  O   UNL     1      14.571 -13.698  18.537  1.00  0.00    -0.237 OA
ATOM     93  O   UNL     1      13.573 -15.950  18.588  1.00  0.00    -0.744 OA
ENDBRANCH  89  90
ENDBRANCH  57  82
ENDBRANCH  31  32
ENDBRANCH  23  26
ENDBRANCH  21  22
ENDBRANCH   1  21
TORSDOF 17
