REMARK SMILES O=C(NCCCNC(=O)c1nn(Cc2ccc(O)cc2)c2ccccc12)c1ccc(-c2c3nc(c(-c4c(F)cc(S(=O)(=O)[O-])cc4F)c4ccc([nH]4)c(-c4c(F)cc(S(=O)(=O)[O-])cc4F)c4nc(c(-c5c(F)cc(S(=O)(=O)[O-])cc5F)c5ccc2[nH]5)C=C4)C=C3)cc1
REMARK SMILES IDX 5 1 4 2 3 3 1 4 2 5 27 7 28 8 92 9 29 10 91 11 30 12 31 13
REMARK SMILES IDX 32 14 85 15 33 16 90 17 84 18 86 19 34 20 89 21 83 22 82 23
REMARK SMILES IDX 35 25 69 26 48 27 68 28 49 29 52 30 67 31 87 32 50 33 51 34
REMARK SMILES IDX 66 36 88 37 53 38 36 39 37 40 46 41 38 42 39 43 45 44 47 45
REMARK SMILES IDX 40 46 41 47 42 48 43 49 44 50 70 51 71 52 80 53 72 54 73 55
REMARK SMILES IDX 79 56 81 57 74 58 75 59 76 60 77 61 78 62 54 63 55 64 64 65
REMARK SMILES IDX 56 66 57 67 63 68 65 69 58 70 59 71 60 72 61 73 62 74 6 75
REMARK SMILES IDX 7 76 8 77 9 79 10 80 11 81 26 82 12 83 21 84 25 85 22 86
REMARK SMILES IDX 24 87 23 88 13 89 14 90 15 91 20 92 16 93 19 94 17 95 18 96
REMARK H PARENT 3 6 86 24 52 35 7 78 18 97
REMARK Flexibility Score: inf
ROOT
ATOM      1  C   UNL     1       5.029  -0.439   2.886  1.00  0.00     0.042 C 
ENDROOT
BRANCH   1   2
ATOM      2  C   UNL     1       4.515  -0.455   1.470  1.00  0.00     0.118 C 
BRANCH   2   3
ATOM      3  N   UNL     1       3.059  -0.276   1.345  1.00  0.00    -0.352 N 
ATOM      4  O   UNL     1       1.182   0.306   0.196  1.00  0.00    -0.269 OA
ATOM      5  C   UNL     1       2.311  -0.143   0.175  1.00  0.00     0.251 C 
ATOM      6  H   UNL     1       2.553  -0.246   2.189  1.00  0.00     0.163 HD
BRANCH   5   7
ATOM      7  C   UNL     1       2.949  -0.570  -1.089  1.00  0.00     0.039 A 
ATOM      8  C   UNL     1       2.793   0.080  -2.310  1.00  0.00     0.014 A 
ATOM      9  C   UNL     1       3.827  -1.632  -0.980  1.00  0.00     0.014 A 
ATOM     10  C   UNL     1       3.574  -0.366  -3.375  1.00  0.00     0.010 A 
ATOM     11  C   UNL     1       4.872  -1.694  -1.838  1.00  0.00     0.010 A 
ATOM     12  C   UNL     1       4.622  -1.270  -3.116  1.00  0.00    -0.014 A 
BRANCH  12  13
ATOM     13  C   UNL     1       5.508  -1.806  -4.134  1.00  0.00     0.031 A 
ATOM     14  C   UNL     1       6.067  -0.764  -5.008  1.00  0.00     0.074 A 
ATOM     15  C   UNL     1       5.897  -3.103  -4.203  1.00  0.00     0.049 A 
ATOM     16  N   UNL     1       5.625  -0.428  -6.170  1.00  0.00    -0.248 NA
ATOM     17  C   UNL     1       7.054   0.166  -4.443  1.00  0.00     0.031 C 
ATOM     18  C   UNL     1       5.679  -4.209  -3.256  1.00  0.00     0.029 A 
ATOM     19  N   UNL     1       6.642  -3.702  -5.170  1.00  0.00    -0.354 N 
ATOM     20  C   UNL     1       6.462   0.586  -6.602  1.00  0.00     0.074 A 
ATOM     21  C   UNL     1       7.150   1.061  -5.429  1.00  0.00     0.031 C 
ATOM     22  C   UNL     1       6.447  -5.271  -3.595  1.00  0.00     0.029 A 
ATOM     23  C   UNL     1       7.064  -4.997  -4.877  1.00  0.00     0.049 A 
ATOM     24  H   UNL     1       6.867  -3.253  -6.016  1.00  0.00     0.167 HD
ATOM     25  C   UNL     1       6.705   0.750  -7.930  1.00  0.00     0.037 A 
ATOM     26  C   UNL     1       7.845  -5.792  -5.654  1.00  0.00     0.037 A 
ATOM     27  C   UNL     1       5.747   0.010  -8.723  1.00  0.00     0.049 A 
ATOM     28  C   UNL     1       7.706  -5.274  -7.043  1.00  0.00     0.074 A 
ATOM     29  C   UNL     1       4.372   0.042  -8.855  1.00  0.00     0.029 A 
ATOM     30  N   UNL     1       6.141  -1.218  -9.203  1.00  0.00    -0.354 N 
ATOM     31  N   UNL     1       6.591  -5.315  -7.722  1.00  0.00    -0.248 NA
ATOM     32  C   UNL     1       8.668  -4.277  -7.484  1.00  0.00     0.031 C 
ATOM     33  C   UNL     1       3.975  -1.325  -8.965  1.00  0.00     0.029 A 
ATOM     34  C   UNL     1       5.126  -2.115  -8.974  1.00  0.00     0.049 A 
ATOM     35  H   UNL     1       7.002  -1.419  -9.637  1.00  0.00     0.167 HD
ATOM     36  C   UNL     1       6.527  -4.094  -8.380  1.00  0.00     0.074 A 
ATOM     37  C   UNL     1       7.871  -3.529  -8.253  1.00  0.00     0.031 C 
ATOM     38  C   UNL     1       5.329  -3.529  -8.716  1.00  0.00     0.037 A 
BRANCH  25  39
ATOM     39  C   UNL     1       8.015   1.239  -8.489  1.00  0.00     0.058 A 
ATOM     40  C   UNL     1       8.105   1.522  -9.865  1.00  0.00     0.135 A 
ATOM     41  C   UNL     1       9.245   1.188  -7.794  1.00  0.00     0.135 A 
ATOM     42  F   UNL     1       6.999   1.588 -10.624  1.00  0.00    -0.206 F 
ATOM     43  C   UNL     1       9.329   1.671 -10.516  1.00  0.00     0.059 A 
ATOM     44  C   UNL     1      10.472   1.388  -8.412  1.00  0.00     0.059 A 
ATOM     45  F   UNL     1       9.332   0.845  -6.504  1.00  0.00    -0.206 F 
ATOM     46  C   UNL     1      10.507   1.589  -9.780  1.00  0.00     0.060 A 
BRANCH  46  47
ATOM     47  S   UNL     1      12.088   1.687 -10.633  1.00  0.00     0.124 S 
ATOM     48  O   UNL     1      12.068   0.462 -11.424  1.00  0.00    -0.237 OA
ATOM     49  O   UNL     1      11.949   2.934 -11.377  1.00  0.00    -0.237 OA
ATOM     50  O   UNL     1      13.057   1.719  -9.541  1.00  0.00    -0.744 OA
ENDBRANCH  46  47
ENDBRANCH  25  39
BRANCH  26  51
ATOM     51  C   UNL     1       8.992  -6.646  -5.230  1.00  0.00     0.058 A 
ATOM     52  C   UNL     1       9.635  -7.501  -6.146  1.00  0.00     0.135 A 
ATOM     53  C   UNL     1       9.675  -6.415  -4.019  1.00  0.00     0.135 A 
ATOM     54  F   UNL     1       9.063  -7.772  -7.330  1.00  0.00    -0.206 F 
ATOM     55  C   UNL     1      10.909  -8.033  -5.910  1.00  0.00     0.059 A 
ATOM     56  C   UNL     1      10.943  -6.939  -3.758  1.00  0.00     0.059 A 
ATOM     57  F   UNL     1       9.170  -5.591  -3.089  1.00  0.00    -0.206 F 
ATOM     58  C   UNL     1      11.569  -7.722  -4.722  1.00  0.00     0.060 A 
BRANCH  58  59
ATOM     59  S   UNL     1      13.287  -8.246  -4.496  1.00  0.00     0.124 S 
ATOM     60  O   UNL     1      13.154  -9.696  -4.413  1.00  0.00    -0.237 OA
ATOM     61  O   UNL     1      13.925  -7.734  -5.704  1.00  0.00    -0.237 OA
ATOM     62  O   UNL     1      13.685  -7.584  -3.257  1.00  0.00    -0.744 OA
ENDBRANCH  58  59
ENDBRANCH  26  51
BRANCH  38  63
ATOM     63  C   UNL     1       4.087  -4.388  -8.635  1.00  0.00     0.058 A 
ATOM     64  C   UNL     1       3.547  -4.918  -7.447  1.00  0.00     0.135 A 
ATOM     65  C   UNL     1       3.327  -4.553  -9.803  1.00  0.00     0.135 A 
ATOM     66  F   UNL     1       4.158  -4.733  -6.269  1.00  0.00    -0.206 F 
ATOM     67  C   UNL     1       2.327  -5.603  -7.431  1.00  0.00     0.059 A 
ATOM     68  C   UNL     1       2.096  -5.205  -9.806  1.00  0.00     0.059 A 
ATOM     69  F   UNL     1       3.757  -4.026 -10.962  1.00  0.00    -0.206 F 
ATOM     70  C   UNL     1       1.605  -5.737  -8.617  1.00  0.00     0.060 A 
BRANCH  70  71
ATOM     71  S   UNL     1      -0.004  -6.561  -8.588  1.00  0.00     0.124 S 
ATOM     72  O   UNL     1       0.360  -7.941  -8.287  1.00  0.00    -0.237 OA
ATOM     73  O   UNL     1      -0.707  -5.845  -7.528  1.00  0.00    -0.237 OA
ATOM     74  O   UNL     1      -0.528  -6.335  -9.933  1.00  0.00    -0.744 OA
ENDBRANCH  70  71
ENDBRANCH  38  63
ENDBRANCH  12  13
ENDBRANCH   5   7
ENDBRANCH   2   3
ENDBRANCH   1   2
BRANCH   1  75
ATOM     75  C   UNL     1       4.526  -1.635   3.681  1.00  0.00     0.118 C 
BRANCH  75  76
ATOM     76  N   UNL     1       5.106  -2.918   3.292  1.00  0.00    -0.351 N 
ATOM     77  C   UNL     1       5.920  -3.756   4.033  1.00  0.00     0.272 C 
ATOM     78  H   UNL     1       4.889  -3.227   2.383  1.00  0.00     0.163 HD
ATOM     79  O   UNL     1       6.357  -4.779   3.513  1.00  0.00    -0.267 OA
BRANCH  77  80
ATOM     80  C   UNL     1       6.199  -3.377   5.420  1.00  0.00     0.158 A 
ATOM     81  N   UNL     1       7.452  -3.186   5.870  1.00  0.00    -0.166 NA
ATOM     82  C   UNL     1       5.236  -3.065   6.424  1.00  0.00     0.033 A 
ATOM     83  N   UNL     1       7.289  -2.664   7.105  1.00  0.00    -0.260 N 
ATOM     84  C   UNL     1       5.973  -2.614   7.513  1.00  0.00     0.069 A 
ATOM     85  C   UNL     1       3.824  -3.036   6.480  1.00  0.00     0.013 A 
ATOM     86  C   UNL     1       5.344  -2.176   8.687  1.00  0.00     0.028 A 
ATOM     87  C   UNL     1       3.200  -2.445   7.577  1.00  0.00     0.001 A 
ATOM     88  C   UNL     1       3.953  -2.027   8.668  1.00  0.00     0.002 A 
BRANCH  83  89
ATOM     89  C   UNL     1       8.475  -2.221   7.838  1.00  0.00     0.180 C 
BRANCH  89  90
ATOM     90  C   UNL     1       8.694  -0.718   7.804  1.00  0.00    -0.026 A 
ATOM     91  C   UNL     1       7.829   0.166   8.467  1.00  0.00     0.009 A 
ATOM     92  C   UNL     1       9.807  -0.169   7.146  1.00  0.00     0.009 A 
ATOM     93  C   UNL     1       8.040   1.544   8.455  1.00  0.00     0.046 A 
ATOM     94  C   UNL     1      10.033   1.215   7.146  1.00  0.00     0.046 A 
ATOM     95  C   UNL     1       9.139   2.060   7.793  1.00  0.00     0.115 A 
BRANCH  95  96
ATOM     96  O   UNL     1       9.305   3.413   7.810  1.00  0.00    -0.508 OA
ATOM     97  H   UNL     1       8.685   3.955   8.256  1.00  0.00     0.293 HD
ENDBRANCH  95  96
ENDBRANCH  89  90
ENDBRANCH  83  89
ENDBRANCH  77  80
ENDBRANCH  75  76
ENDBRANCH   1  75
TORSDOF 16
