REMARK SMILES C[C@@H]([NH3+])CCC(=O)N[C@H]1C=C[C@@H](C(=O)NCCCNC(=O)c2ccc(-c3c4nc(c(-c5c(F)cc(S(=O)(=O)[O-])cc5F)c5ccc([nH]5)c(-c5c(F)cc(S(=O)(=O)[O-])cc5F)c5nc(c(-c6c(F)cc(S(=O)(=O)[O-])cc6F)c6ccc3[nH]6)C=C5)C=C4)cc2)C1
REMARK SMILES IDX 16 1 15 2 13 3 14 4 12 6 9 7 10 8 88 9 11 10 8 11 6 12 7 13
REMARK SMILES IDX 5 15 4 16 2 17 1 18 3 19 17 23 18 24 19 25 20 26 21 28 22 29
REMARK SMILES IDX 23 30 87 31 24 32 86 33 25 34 26 35 27 36 80 37 28 38 85 39
REMARK SMILES IDX 79 40 81 41 29 42 84 43 78 44 77 45 30 47 64 48 43 49 63 50
REMARK SMILES IDX 44 51 47 52 62 53 82 54 45 55 46 56 61 58 83 59 48 60 31 61
REMARK SMILES IDX 32 62 41 63 33 64 34 65 40 66 42 67 35 68 36 69 37 70 38 71
REMARK SMILES IDX 39 72 65 73 66 74 75 75 67 76 68 77 74 78 76 79 69 80 70 81
REMARK SMILES IDX 71 82 72 83 73 84 49 85 50 86 59 87 51 88 52 89 58 90 60 91
REMARK SMILES IDX 53 92 54 93 55 94 56 95 57 96
REMARK H PARENT 15 5 8 14 3 20 3 21 3 22 19 27 81 46 47 57
REMARK Flexibility Score: inf
ROOT
ATOM      1  C   UNL     1       3.417  -0.205   5.134  1.00  0.00     0.117 C 
ENDROOT
BRANCH   1   2
ATOM      2  N   UNL     1       4.114  -1.332   4.535  1.00  0.00    -0.356 N 
ATOM      3  C   UNL     1       4.235  -1.720   3.236  1.00  0.00     0.227 C 
ATOM      4  O   UNL     1       4.965  -2.684   2.988  1.00  0.00    -0.274 OA
ATOM      5  H   UNL     1       4.578  -1.914   5.179  1.00  0.00     0.163 HD
BRANCH   3   6
ATOM      6  C   UNL     1       3.498  -1.008   2.108  1.00  0.00     0.103 C 
ATOM      7  C   UNL     1       1.512   0.359   1.915  1.00  0.00     0.106 C 
ATOM      8  C   UNL     1       2.737   1.204   1.948  1.00  0.00    -0.006 C 
ATOM      9  C   UNL     1       1.974  -1.048   2.259  1.00  0.00     0.047 C 
ATOM     10  C   UNL     1       3.839   0.451   2.012  1.00  0.00    -0.016 C 
BRANCH   7  11
ATOM     11  N   UNL     1       0.494   0.938   2.738  1.00  0.00    -0.350 N 
ATOM     12  C   UNL     1      -0.783   1.248   2.360  1.00  0.00     0.220 C 
ATOM     13  O   UNL     1      -1.457   1.965   3.098  1.00  0.00    -0.275 OA
ATOM     14  H   UNL     1       0.738   1.132   3.671  1.00  0.00     0.164 HD
BRANCH  12  15
ATOM     15  C   UNL     1      -1.348   0.688   1.062  1.00  0.00     0.106 C 
BRANCH  15  16
ATOM     16  C   UNL     1      -1.218   1.609  -0.163  1.00  0.00     0.074 C 
BRANCH  16  17
ATOM     17  C   UNL     1       0.160   1.661  -0.850  1.00  0.00     0.178 C 
ATOM     18  C   UNL     1       0.607   0.319  -1.450  1.00  0.00     0.075 C 
BRANCH  17  19
ATOM     19  N   UNL     1       0.169   2.648  -1.932  1.00  0.00    -0.355 N 
ATOM     20  H   UNL     1      -0.491   2.364  -2.657  1.00  0.00     0.344 HD
ATOM     21  H   UNL     1       1.106   2.708  -2.331  1.00  0.00     0.344 HD
ATOM     22  H   UNL     1      -0.103   3.559  -1.563  1.00  0.00     0.344 HD
ENDBRANCH  17  19
ENDBRANCH  16  17
ENDBRANCH  15  16
ENDBRANCH  12  15
ENDBRANCH   7  11
ENDBRANCH   3   6
ENDBRANCH   1   2
BRANCH   1  23
ATOM     23  C   UNL     1       2.149  -0.609   5.869  1.00  0.00     0.042 C 
BRANCH  23  24
ATOM     24  C   UNL     1       2.419  -1.514   7.055  1.00  0.00     0.118 C 
BRANCH  24  25
ATOM     25  N   UNL     1       3.199  -0.834   8.077  1.00  0.00    -0.352 N 
ATOM     26  C   UNL     1       2.831  -0.466   9.346  1.00  0.00     0.251 C 
ATOM     27  H   UNL     1       4.122  -0.604   7.821  1.00  0.00     0.163 HD
ATOM     28  O   UNL     1       3.506   0.353   9.960  1.00  0.00    -0.269 OA
BRANCH  26  29
ATOM     29  C   UNL     1       1.624  -1.061   9.957  1.00  0.00     0.039 A 
ATOM     30  C   UNL     1       0.800  -0.265  10.755  1.00  0.00     0.014 A 
ATOM     31  C   UNL     1       1.320  -2.410   9.757  1.00  0.00     0.014 A 
ATOM     32  C   UNL     1      -0.352  -0.818  11.317  1.00  0.00     0.010 A 
ATOM     33  C   UNL     1       0.120  -2.926  10.223  1.00  0.00     0.010 A 
ATOM     34  C   UNL     1      -0.713  -2.145  11.034  1.00  0.00    -0.014 A 
BRANCH  34  35
ATOM     35  C   UNL     1      -1.931  -2.759  11.615  1.00  0.00     0.031 A 
ATOM     36  C   UNL     1      -1.802  -3.945  12.534  1.00  0.00     0.074 A 
ATOM     37  C   UNL     1      -3.145  -2.288  11.273  1.00  0.00     0.049 A 
ATOM     38  N   UNL     1      -2.740  -4.663  13.095  1.00  0.00    -0.248 NA
ATOM     39  C   UNL     1      -0.435  -4.406  12.835  1.00  0.00     0.031 C 
ATOM     40  C   UNL     1      -3.394  -1.172  10.357  1.00  0.00     0.029 A 
ATOM     41  N   UNL     1      -4.399  -2.689  11.655  1.00  0.00    -0.354 N 
ATOM     42  C   UNL     1      -2.079  -5.662  13.801  1.00  0.00     0.074 A 
ATOM     43  C   UNL     1      -0.666  -5.505  13.535  1.00  0.00     0.031 C 
ATOM     44  C   UNL     1      -4.716  -0.952  10.281  1.00  0.00     0.029 A 
ATOM     45  C   UNL     1      -5.409  -1.936  11.107  1.00  0.00     0.049 A 
ATOM     46  H   UNL     1      -4.560  -3.445  12.265  1.00  0.00     0.167 HD
ATOM     47  C   UNL     1      -2.597  -6.604  14.624  1.00  0.00     0.037 A 
ATOM     48  C   UNL     1      -6.744  -2.029  11.258  1.00  0.00     0.037 A 
ATOM     49  C   UNL     1      -4.004  -6.739  14.895  1.00  0.00     0.049 A 
ATOM     50  C   UNL     1      -7.301  -3.095  12.162  1.00  0.00     0.074 A 
ATOM     51  C   UNL     1      -4.638  -7.633  15.739  1.00  0.00     0.029 A 
ATOM     52  N   UNL     1      -4.997  -5.955  14.324  1.00  0.00    -0.354 N 
ATOM     53  N   UNL     1      -6.661  -4.001  12.862  1.00  0.00    -0.248 NA
ATOM     54  C   UNL     1      -8.762  -3.147  12.301  1.00  0.00     0.031 C 
ATOM     55  C   UNL     1      -6.017  -7.418  15.644  1.00  0.00     0.029 A 
ATOM     56  C   UNL     1      -6.240  -6.354  14.784  1.00  0.00     0.049 A 
ATOM     57  H   UNL     1      -4.840  -5.222  13.685  1.00  0.00     0.167 HD
ATOM     58  C   UNL     1      -7.639  -4.708  13.553  1.00  0.00     0.074 A 
ATOM     59  C   UNL     1      -8.912  -4.119  13.190  1.00  0.00     0.031 C 
ATOM     60  C   UNL     1      -7.496  -5.747  14.415  1.00  0.00     0.037 A 
BRANCH  47  61
ATOM     61  C   UNL     1      -1.631  -7.553  15.283  1.00  0.00     0.058 A 
ATOM     62  C   UNL     1      -0.709  -7.114  16.249  1.00  0.00     0.135 A 
ATOM     63  C   UNL     1      -1.615  -8.914  14.941  1.00  0.00     0.135 A 
ATOM     64  F   UNL     1      -0.667  -5.819  16.605  1.00  0.00    -0.206 F 
ATOM     65  C   UNL     1       0.225  -7.977  16.812  1.00  0.00     0.059 A 
ATOM     66  C   UNL     1      -0.712  -9.803  15.517  1.00  0.00     0.059 A 
ATOM     67  F   UNL     1      -2.473  -9.392  14.026  1.00  0.00    -0.206 F 
ATOM     68  C   UNL     1       0.220  -9.320  16.434  1.00  0.00     0.060 A 
BRANCH  68  69
ATOM     69  S   UNL     1       1.458 -10.421  17.151  1.00  0.00     0.124 S 
ATOM     70  O   UNL     1       2.666  -9.993  16.452  1.00  0.00    -0.237 OA
ATOM     71  O   UNL     1       1.394 -10.083  18.569  1.00  0.00    -0.237 OA
ATOM     72  O   UNL     1       0.971 -11.752  16.804  1.00  0.00    -0.744 OA
ENDBRANCH  68  69
ENDBRANCH  47  61
BRANCH  48  73
ATOM     73  C   UNL     1      -7.636  -1.052  10.579  1.00  0.00     0.058 A 
ATOM     74  C   UNL     1      -8.319  -0.074  11.318  1.00  0.00     0.135 A 
ATOM     75  C   UNL     1      -7.804  -1.054   9.186  1.00  0.00     0.135 A 
ATOM     76  F   UNL     1      -8.194  -0.033  12.653  1.00  0.00    -0.206 F 
ATOM     77  C   UNL     1      -9.148   0.858  10.703  1.00  0.00     0.059 A 
ATOM     78  C   UNL     1      -8.607  -0.115   8.545  1.00  0.00     0.059 A 
ATOM     79  F   UNL     1      -7.159  -1.958   8.432  1.00  0.00    -0.206 F 
ATOM     80  C   UNL     1      -9.282   0.832   9.314  1.00  0.00     0.060 A 
BRANCH  80  81
ATOM     81  S   UNL     1     -10.322   2.080   8.525  1.00  0.00     0.124 S 
ATOM     82  O   UNL     1     -11.656   1.643   8.920  1.00  0.00    -0.237 OA
ATOM     83  O   UNL     1      -9.843   3.312   9.144  1.00  0.00    -0.237 OA
ATOM     84  O   UNL     1     -10.005   1.934   7.107  1.00  0.00    -0.744 OA
ENDBRANCH  80  81
ENDBRANCH  48  73
BRANCH  60  85
ATOM     85  C   UNL     1      -8.744  -6.284  15.061  1.00  0.00     0.058 A 
ATOM     86  C   UNL     1      -9.688  -7.032  14.342  1.00  0.00     0.135 A 
ATOM     87  C   UNL     1      -8.971  -6.084  16.433  1.00  0.00     0.135 A 
ATOM     88  F   UNL     1      -9.523  -7.247  13.027  1.00  0.00    -0.206 F 
ATOM     89  C   UNL     1     -10.829  -7.541  14.954  1.00  0.00     0.059 A 
ATOM     90  C   UNL     1     -10.088  -6.611  17.072  1.00  0.00     0.059 A 
ATOM     91  F   UNL     1      -8.093  -5.386  17.169  1.00  0.00    -0.206 F 
ATOM     92  C   UNL     1     -11.019  -7.327  16.321  1.00  0.00     0.060 A 
BRANCH  92  93
ATOM     93  S   UNL     1     -12.487  -8.020  17.110  1.00  0.00     0.124 S 
ATOM     94  O   UNL     1     -13.535  -7.138  16.608  1.00  0.00    -0.237 OA
ATOM     95  O   UNL     1     -12.505  -9.384  16.591  1.00  0.00    -0.237 OA
ATOM     96  O   UNL     1     -12.195  -7.902  18.535  1.00  0.00    -0.744 OA
ENDBRANCH  92  93
ENDBRANCH  60  85
ENDBRANCH  34  35
ENDBRANCH  26  29
ENDBRANCH  24  25
ENDBRANCH  23  24
ENDBRANCH   1  23
TORSDOF 18
