REMARK SMILES O=C(NCCCNC(=O)c1ccc(-c2c3nc(c(-c4c(F)cc(S(=O)(=O)[O-])cc4F)c4ccc([nH]4)c(-c4c(F)cc(S(=O)(=O)[O-])cc4F)c4nc(c(-c5c(F)cc(S(=O)(=O)[O-])cc5F)c5ccc2[nH]5)C=C4)C=C3)cc1)C1=Cc2c(ccc(Cl)c2Cl)O[C@H]1C(F)(F)F
REMARK SMILES IDX 6 1 5 2 4 3 3 4 1 5 2 6 76 8 77 9 87 10 78 11 86 12 79 13
REMARK SMILES IDX 84 14 80 15 82 16 85 17 81 18 83 19 88 20 89 21 90 22 91 23
REMARK SMILES IDX 7 24 8 25 9 27 10 28 11 29 75 30 12 31 74 32 13 33 14 34
REMARK SMILES IDX 15 35 68 36 16 37 73 38 67 39 69 40 17 41 72 42 66 43 65 44
REMARK SMILES IDX 18 46 52 47 31 48 51 49 32 50 35 51 50 52 70 53 33 54 34 55
REMARK SMILES IDX 49 57 71 58 36 59 19 60 20 61 29 62 21 63 22 64 28 65 30 66
REMARK SMILES IDX 23 67 24 68 25 69 26 70 27 71 53 72 54 73 63 74 55 75 56 76
REMARK SMILES IDX 62 77 64 78 57 79 58 80 59 81 60 82 61 83 37 84 38 85 47 86
REMARK SMILES IDX 39 87 40 88 46 89 48 90 41 91 42 92 43 93 44 94 45 95
REMARK H PARENT 3 7 7 26 69 45 35 56
REMARK Flexibility Score: inf
ROOT
ATOM      1  C   UNL     1       3.610   3.809   1.447  1.00  0.00     0.118 C 
ENDROOT
BRANCH   1   2
ATOM      2  C   UNL     1       3.987   2.997   0.219  1.00  0.00     0.042 C 
BRANCH   2   3
ATOM      3  C   UNL     1       3.765   1.506   0.377  1.00  0.00     0.118 C 
BRANCH   3   4
ATOM      4  N   UNL     1       2.412   1.029   0.156  1.00  0.00    -0.352 N 
ATOM      5  O   UNL     1       0.821  -0.509  -0.304  1.00  0.00    -0.270 OA
ATOM      6  C   UNL     1       2.006  -0.253  -0.115  1.00  0.00     0.251 C 
ATOM      7  H   UNL     1       1.700   1.706   0.208  1.00  0.00     0.163 HD
BRANCH   6   8
ATOM      8  C   UNL     1       3.013  -1.344  -0.221  1.00  0.00     0.067 C 
ATOM      9  C   UNL     1       3.542  -1.794   0.931  1.00  0.00     0.027 C 
ATOM     10  C   UNL     1       3.789  -1.383  -1.513  1.00  0.00     0.314 C 
ATOM     11  C   UNL     1       4.955  -1.371   1.095  1.00  0.00     0.037 A 
ATOM     12  O   UNL     1       5.236  -1.326  -1.329  1.00  0.00    -0.475 OA
ATOM     13  C   UNL     1       5.703  -1.092  -0.061  1.00  0.00     0.129 A 
ATOM     14  C   UNL     1       5.478  -1.050   2.363  1.00  0.00     0.070 A 
ATOM     15  C   UNL     1       6.935  -0.449   0.036  1.00  0.00     0.049 A 
ATOM     16  C   UNL     1       6.704  -0.377   2.450  1.00  0.00     0.060 A 
ATOM     17  Cl  UNL     1       4.552  -1.406   3.789  1.00  0.00    -0.082 Cl
ATOM     18  C   UNL     1       7.418  -0.063   1.287  1.00  0.00     0.026 A 
ATOM     19  Cl  UNL     1       7.366   0.149   3.957  1.00  0.00    -0.083 Cl
BRANCH  10  20
ATOM     20  C   UNL     1       3.405  -2.606  -2.371  1.00  0.00     0.429 C 
ATOM     21  F   UNL     1       2.483  -3.401  -1.778  1.00  0.00    -0.167 F 
ATOM     22  F   UNL     1       2.890  -2.222  -3.564  1.00  0.00    -0.167 F 
ATOM     23  F   UNL     1       4.474  -3.395  -2.638  1.00  0.00    -0.167 F 
ENDBRANCH  10  20
ENDBRANCH   6   8
ENDBRANCH   3   4
ENDBRANCH   2   3
ENDBRANCH   1   2
BRANCH   1  24
ATOM     24  N   UNL     1       4.459   3.555   2.613  1.00  0.00    -0.352 N 
ATOM     25  C   UNL     1       5.468   4.287   3.203  1.00  0.00     0.251 C 
ATOM     26  H   UNL     1       4.275   2.698   3.061  1.00  0.00     0.163 HD
ATOM     27  O   UNL     1       6.100   3.792   4.134  1.00  0.00    -0.269 OA
BRANCH  25  28
ATOM     28  C   UNL     1       5.834   5.632   2.706  1.00  0.00     0.039 A 
ATOM     29  C   UNL     1       7.183   6.008   2.657  1.00  0.00     0.014 A 
ATOM     30  C   UNL     1       4.861   6.528   2.277  1.00  0.00     0.014 A 
ATOM     31  C   UNL     1       7.551   7.216   2.053  1.00  0.00     0.010 A 
ATOM     32  C   UNL     1       5.232   7.656   1.559  1.00  0.00     0.010 A 
ATOM     33  C   UNL     1       6.582   8.015   1.431  1.00  0.00    -0.014 A 
BRANCH  33  34
ATOM     34  C   UNL     1       6.910   9.235   0.642  1.00  0.00     0.031 A 
ATOM     35  C   UNL     1       6.232  10.536   0.985  1.00  0.00     0.074 A 
ATOM     36  C   UNL     1       7.682   9.148  -0.460  1.00  0.00     0.049 A 
ATOM     37  N   UNL     1       6.127  11.630   0.277  1.00  0.00    -0.248 NA
ATOM     38  C   UNL     1       5.524  10.585   2.275  1.00  0.00     0.031 C 
ATOM     39  C   UNL     1       8.373   7.944  -0.927  1.00  0.00     0.029 A 
ATOM     40  N   UNL     1       7.994  10.092  -1.407  1.00  0.00    -0.354 N 
ATOM     41  C   UNL     1       5.293  12.471   1.006  1.00  0.00     0.074 A 
ATOM     42  C   UNL     1       4.882  11.739   2.185  1.00  0.00     0.031 C 
ATOM     43  C   UNL     1       9.045   8.228  -2.054  1.00  0.00     0.029 A 
ATOM     44  C   UNL     1       8.786   9.614  -2.425  1.00  0.00     0.049 A 
ATOM     45  H   UNL     1       7.679  11.024  -1.362  1.00  0.00     0.167 HD
ATOM     46  C   UNL     1       4.918  13.743   0.731  1.00  0.00     0.037 A 
ATOM     47  C   UNL     1       9.236  10.219  -3.542  1.00  0.00     0.037 A 
ATOM     48  C   UNL     1       5.389  14.485  -0.408  1.00  0.00     0.049 A 
ATOM     49  C   UNL     1       8.844  11.646  -3.811  1.00  0.00     0.074 A 
ATOM     50  C   UNL     1       5.122  15.798  -0.753  1.00  0.00     0.029 A 
ATOM     51  N   UNL     1       6.245  13.981  -1.378  1.00  0.00    -0.354 N 
ATOM     52  N   UNL     1       8.060  12.429  -3.110  1.00  0.00    -0.248 NA
ATOM     53  C   UNL     1       9.394  12.270  -5.022  1.00  0.00     0.031 C 
ATOM     54  C   UNL     1       5.802  16.082  -1.943  1.00  0.00     0.029 A 
ATOM     55  C   UNL     1       6.521  14.958  -2.319  1.00  0.00     0.049 A 
ATOM     56  H   UNL     1       6.603  13.064  -1.394  1.00  0.00     0.167 HD
ATOM     57  C   UNL     1       8.050  13.650  -3.775  1.00  0.00     0.074 A 
ATOM     58  C   UNL     1       8.904  13.500  -4.936  1.00  0.00     0.031 C 
ATOM     59  C   UNL     1       7.396  14.793  -3.452  1.00  0.00     0.037 A 
BRANCH  46  60
ATOM     60  C   UNL     1       3.960  14.402   1.686  1.00  0.00     0.058 A 
ATOM     61  C   UNL     1       4.339  14.741   2.995  1.00  0.00     0.135 A 
ATOM     62  C   UNL     1       2.640  14.681   1.296  1.00  0.00     0.135 A 
ATOM     63  F   UNL     1       5.584  14.484   3.426  1.00  0.00    -0.206 F 
ATOM     64  C   UNL     1       3.429  15.275   3.902  1.00  0.00     0.059 A 
ATOM     65  C   UNL     1       1.721  15.246   2.176  1.00  0.00     0.059 A 
ATOM     66  F   UNL     1       2.224  14.384   0.054  1.00  0.00    -0.206 F 
ATOM     67  C   UNL     1       2.119  15.514   3.485  1.00  0.00     0.060 A 
BRANCH  67  68
ATOM     68  S   UNL     1       0.937  16.167   4.682  1.00  0.00     0.124 S 
ATOM     69  O   UNL     1       0.626  14.973   5.462  1.00  0.00    -0.237 OA
ATOM     70  O   UNL     1       1.718  17.188   5.373  1.00  0.00    -0.237 OA
ATOM     71  O   UNL     1      -0.148  16.672   3.846  1.00  0.00    -0.744 OA
ENDBRANCH  67  68
ENDBRANCH  46  60
BRANCH  47  72
ATOM     72  C   UNL     1      10.143   9.487  -4.466  1.00  0.00     0.058 A 
ATOM     73  C   UNL     1      11.508   9.804  -4.519  1.00  0.00     0.135 A 
ATOM     74  C   UNL     1       9.683   8.441  -5.280  1.00  0.00     0.135 A 
ATOM     75  F   UNL     1      11.993  10.801  -3.763  1.00  0.00    -0.206 F 
ATOM     76  C   UNL     1      12.386   9.116  -5.349  1.00  0.00     0.059 A 
ATOM     77  C   UNL     1      10.546   7.723  -6.104  1.00  0.00     0.059 A 
ATOM     78  F   UNL     1       8.389   8.086  -5.253  1.00  0.00    -0.206 F 
ATOM     79  C   UNL     1      11.896   8.072  -6.134  1.00  0.00     0.060 A 
BRANCH  79  80
ATOM     80  S   UNL     1      13.059   7.139  -7.154  1.00  0.00     0.124 S 
ATOM     81  O   UNL     1      13.334   8.086  -8.228  1.00  0.00    -0.237 OA
ATOM     82  O   UNL     1      14.155   6.893  -6.222  1.00  0.00    -0.237 OA
ATOM     83  O   UNL     1      12.294   5.955  -7.535  1.00  0.00    -0.744 OA
ENDBRANCH  79  80
ENDBRANCH  47  72
BRANCH  59  84
ATOM     84  C   UNL     1       7.622  15.992  -4.327  1.00  0.00     0.058 A 
ATOM     85  C   UNL     1       7.013  16.115  -5.584  1.00  0.00     0.135 A 
ATOM     86  C   UNL     1       8.397  17.067  -3.861  1.00  0.00     0.135 A 
ATOM     87  F   UNL     1       6.270  15.112  -6.076  1.00  0.00    -0.206 F 
ATOM     88  C   UNL     1       7.171  17.262  -6.355  1.00  0.00     0.059 A 
ATOM     89  C   UNL     1       8.550  18.231  -4.605  1.00  0.00     0.059 A 
ATOM     90  F   UNL     1       8.994  16.999  -2.660  1.00  0.00    -0.206 F 
ATOM     91  C   UNL     1       7.937  18.317  -5.854  1.00  0.00     0.060 A 
BRANCH  91  92
ATOM     92  S   UNL     1       8.084  19.825  -6.837  1.00  0.00     0.124 S 
ATOM     93  O   UNL     1       9.027  19.411  -7.870  1.00  0.00    -0.237 OA
ATOM     94  O   UNL     1       6.711  20.044  -7.282  1.00  0.00    -0.237 OA
ATOM     95  O   UNL     1       8.589  20.805  -5.880  1.00  0.00    -0.744 OA
ENDBRANCH  91  92
ENDBRANCH  59  84
ENDBRANCH  33  34
ENDBRANCH  25  28
ENDBRANCH   1  24
TORSDOF 14
