REMARK SMILES COc1ccc2c(c1)c(CC(=O)NCCCNC(=O)c1ccc(-c3c4nc(c(-c5c(F)cc(S(=O)(=O)[O-])cc5F)c5ccc([nH]5)c(-c5c(F)cc(S(=O)(=O)[O-])cc5F)c5nc(c(-c6c(F)cc(S(=O)(=O)[O-])cc6F)c6ccc3[nH]6)C=C5)C=C4)cc1)c(C(F)(F)F)n2C(=O)c1ccc(Cl)cc1
REMARK SMILES IDX 15 1 14 2 13 3 11 4 12 5 10 7 9 8 3 9 4 10 8 11 5 12 7 13
REMARK SMILES IDX 6 14 91 15 86 16 2 17 1 18 92 19 93 20 94 21 95 22 100 23
REMARK SMILES IDX 96 24 99 25 97 26 98 27 87 28 88 29 89 30 90 31 16 32 17 33
REMARK SMILES IDX 18 34 19 36 20 37 21 38 85 39 22 40 84 41 23 42 24 43 25 44
REMARK SMILES IDX 78 45 26 46 83 47 77 48 79 49 27 50 82 51 76 52 75 53 28 55
REMARK SMILES IDX 62 56 41 57 61 58 42 59 45 60 60 61 80 62 43 63 44 64 59 66
REMARK SMILES IDX 81 67 46 68 29 69 30 70 39 71 31 72 32 73 38 74 40 75 33 76
REMARK SMILES IDX 34 77 35 78 36 79 37 80 63 81 64 82 73 83 65 84 66 85 72 86
REMARK SMILES IDX 74 87 67 88 68 89 69 90 70 91 71 92 47 93 48 94 57 95 49 96
REMARK SMILES IDX 50 97 56 98 58 99 51 100 52 101 53 102 54 103 55 104
REMARK H PARENT 13 6 17 35 79 54 45 65
REMARK Flexibility Score: inf
ROOT
ATOM      1  C   UNL     1       0.463  -3.259   6.979  1.00  0.00     0.042 C 
ENDROOT
BRANCH   1   2
ATOM      2  C   UNL     1      -0.938  -3.857   6.849  1.00  0.00     0.117 C 
BRANCH   2   3
ATOM      3  N   UNL     1      -1.833  -3.000   6.088  1.00  0.00    -0.356 N 
ATOM      4  C   UNL     1      -2.346  -3.171   4.837  1.00  0.00     0.224 C 
ATOM      5  O   UNL     1      -3.086  -2.293   4.386  1.00  0.00    -0.275 OA
ATOM      6  H   UNL     1      -2.110  -2.173   6.545  1.00  0.00     0.163 HD
BRANCH   4   7
ATOM      7  C   UNL     1      -2.047  -4.436   4.052  1.00  0.00     0.138 C 
BRANCH   7   8
ATOM      8  C   UNL     1      -0.616  -4.548   3.611  1.00  0.00     0.000 A 
ATOM      9  C   UNL     1       0.729  -1.613   1.567  1.00  0.00     0.119 A 
ATOM     10  C   UNL     1       1.966  -2.179   1.293  1.00  0.00     0.048 A 
ATOM     11  C   UNL     1      -0.194  -2.313   2.347  1.00  0.00     0.057 A 
ATOM     12  C   UNL     1       2.307  -3.439   1.797  1.00  0.00     0.031 A 
ATOM     13  C   UNL     1       0.124  -3.588   2.865  1.00  0.00     0.008 A 
ATOM     14  C   UNL     1       1.393  -4.124   2.621  1.00  0.00     0.057 A 
ATOM     15  N   UNL     1       1.502  -5.293   3.390  1.00  0.00    -0.271 N 
ATOM     16  C   UNL     1       0.213  -5.653   3.772  1.00  0.00     0.135 A 
BRANCH   9  17
ATOM     17  O   UNL     1       0.318  -0.377   1.149  1.00  0.00    -0.497 OA
ATOM     18  C   UNL     1       0.905   0.087  -0.060  1.00  0.00     0.278 C 
ENDBRANCH   9  17
BRANCH  15  19
ATOM     19  C   UNL     1       2.694  -5.944   3.796  1.00  0.00     0.262 C 
ATOM     20  O   UNL     1       2.600  -6.745   4.726  1.00  0.00    -0.268 OA
BRANCH  19  21
ATOM     21  C   UNL     1       4.036  -5.660   3.269  1.00  0.00     0.040 A 
ATOM     22  C   UNL     1       4.729  -4.526   3.707  1.00  0.00     0.015 A 
ATOM     23  C   UNL     1       4.573  -6.495   2.284  1.00  0.00     0.015 A 
ATOM     24  C   UNL     1       5.932  -4.178   3.089  1.00  0.00     0.021 A 
ATOM     25  C   UNL     1       5.782  -6.145   1.676  1.00  0.00     0.021 A 
ATOM     26  C   UNL     1       6.443  -4.978   2.065  1.00  0.00     0.041 A 
ATOM     27  Cl  UNL     1       7.884  -4.501   1.253  1.00  0.00    -0.084 Cl
ENDBRANCH  19  21
ENDBRANCH  15  19
BRANCH  16  28
ATOM     28  C   UNL     1      -0.114  -7.013   4.296  1.00  0.00     0.432 C 
ATOM     29  F   UNL     1      -0.038  -7.072   5.645  1.00  0.00    -0.165 F 
ATOM     30  F   UNL     1      -1.407  -7.322   3.982  1.00  0.00    -0.165 F 
ATOM     31  F   UNL     1       0.628  -8.000   3.750  1.00  0.00    -0.165 F 
ENDBRANCH  16  28
ENDBRANCH   7   8
ENDBRANCH   4   7
ENDBRANCH   2   3
ENDBRANCH   1   2
BRANCH   1  32
ATOM     32  C   UNL     1       0.489  -1.909   7.700  1.00  0.00     0.118 C 
BRANCH  32  33
ATOM     33  N   UNL     1      -0.093  -1.927   9.028  1.00  0.00    -0.352 N 
ATOM     34  C   UNL     1       0.360  -2.241  10.280  1.00  0.00     0.251 C 
ATOM     35  H   UNL     1      -1.037  -1.647   9.029  1.00  0.00     0.163 HD
ATOM     36  O   UNL     1      -0.424  -2.012  11.206  1.00  0.00    -0.269 OA
BRANCH  34  37
ATOM     37  C   UNL     1       1.666  -2.885  10.585  1.00  0.00     0.039 A 
ATOM     38  C   UNL     1       2.682  -3.134   9.663  1.00  0.00     0.014 A 
ATOM     39  C   UNL     1       1.835  -3.334  11.909  1.00  0.00     0.014 A 
ATOM     40  C   UNL     1       3.770  -3.926  10.014  1.00  0.00     0.010 A 
ATOM     41  C   UNL     1       2.936  -4.100  12.273  1.00  0.00     0.010 A 
ATOM     42  C   UNL     1       3.868  -4.450  11.303  1.00  0.00    -0.014 A 
BRANCH  42  43
ATOM     43  C   UNL     1       4.986  -5.347  11.588  1.00  0.00     0.031 A 
ATOM     44  C   UNL     1       6.343  -4.737  11.475  1.00  0.00     0.074 A 
ATOM     45  C   UNL     1       4.801  -6.617  12.002  1.00  0.00     0.049 A 
ATOM     46  N   UNL     1       7.318  -5.059  10.686  1.00  0.00    -0.248 NA
ATOM     47  C   UNL     1       6.607  -3.536  12.283  1.00  0.00     0.031 C 
ATOM     48  C   UNL     1       3.547  -7.255  12.420  1.00  0.00     0.029 A 
ATOM     49  N   UNL     1       5.727  -7.591  12.224  1.00  0.00    -0.354 N 
ATOM     50  C   UNL     1       8.383  -4.221  11.022  1.00  0.00     0.074 A 
ATOM     51  C   UNL     1       7.848  -3.224  11.912  1.00  0.00     0.031 C 
ATOM     52  C   UNL     1       3.824  -8.420  13.047  1.00  0.00     0.029 A 
ATOM     53  C   UNL     1       5.248  -8.681  12.939  1.00  0.00     0.049 A 
ATOM     54  H   UNL     1       6.656  -7.528  11.905  1.00  0.00     0.167 HD
ATOM     55  C   UNL     1       9.673  -4.505  10.688  1.00  0.00     0.037 A 
ATOM     56  C   UNL     1       5.982  -9.698  13.450  1.00  0.00     0.037 A 
ATOM     57  C   UNL     1       9.744  -5.508   9.661  1.00  0.00     0.049 A 
ATOM     58  C   UNL     1       7.267  -9.731  12.711  1.00  0.00     0.074 A 
ATOM     59  C   UNL     1       9.475  -5.560   8.310  1.00  0.00     0.029 A 
ATOM     60  N   UNL     1       9.851  -6.805  10.091  1.00  0.00    -0.354 N 
ATOM     61  N   UNL     1       7.376 -10.031  11.447  1.00  0.00    -0.248 NA
ATOM     62  C   UNL     1       8.431  -9.084  13.298  1.00  0.00     0.031 C 
ATOM     63  C   UNL     1       9.067  -6.903   8.052  1.00  0.00     0.029 A 
ATOM     64  C   UNL     1       9.131  -7.615   9.251  1.00  0.00     0.049 A 
ATOM     65  H   UNL     1      10.362  -7.106  10.877  1.00  0.00     0.167 HD
ATOM     66  C   UNL     1       8.428  -9.258  10.988  1.00  0.00     0.074 A 
ATOM     67  C   UNL     1       9.129  -8.824  12.190  1.00  0.00     0.031 C 
ATOM     68  C   UNL     1       8.463  -8.821   9.695  1.00  0.00     0.037 A 
BRANCH  55  69
ATOM     69  C   UNL     1      10.881  -4.130  11.523  1.00  0.00     0.058 A 
ATOM     70  C   UNL     1      12.183  -4.305  11.003  1.00  0.00     0.135 A 
ATOM     71  C   UNL     1      10.816  -3.868  12.910  1.00  0.00     0.135 A 
ATOM     72  F   UNL     1      12.369  -4.574   9.701  1.00  0.00    -0.206 F 
ATOM     73  C   UNL     1      13.324  -4.276  11.810  1.00  0.00     0.059 A 
ATOM     74  C   UNL     1      11.944  -3.783  13.722  1.00  0.00     0.059 A 
ATOM     75  F   UNL     1       9.650  -3.778  13.561  1.00  0.00    -0.206 F 
ATOM     76  C   UNL     1      13.191  -4.028  13.173  1.00  0.00     0.060 A 
BRANCH  76  77
ATOM     77  S   UNL     1      14.646  -4.097  14.236  1.00  0.00     0.124 S 
ATOM     78  O   UNL     1      14.985  -5.515  14.179  1.00  0.00    -0.237 OA
ATOM     79  O   UNL     1      15.565  -3.192  13.554  1.00  0.00    -0.237 OA
ATOM     80  O   UNL     1      14.147  -3.620  15.523  1.00  0.00    -0.744 OA
ENDBRANCH  76  77
ENDBRANCH  55  69
BRANCH  56  81
ATOM     81  C   UNL     1       5.795 -10.411  14.739  1.00  0.00     0.058 A 
ATOM     82  C   UNL     1       6.468 -11.616  15.004  1.00  0.00     0.135 A 
ATOM     83  C   UNL     1       5.206  -9.766  15.845  1.00  0.00     0.135 A 
ATOM     84  F   UNL     1       7.069 -12.287  14.009  1.00  0.00    -0.206 F 
ATOM     85  C   UNL     1       6.611 -12.118  16.301  1.00  0.00     0.059 A 
ATOM     86  C   UNL     1       5.329 -10.251  17.146  1.00  0.00     0.059 A 
ATOM     87  F   UNL     1       4.581  -8.588  15.706  1.00  0.00    -0.206 F 
ATOM     88  C   UNL     1       6.062 -11.410  17.370  1.00  0.00     0.060 A 
BRANCH  88  89
ATOM     89  S   UNL     1       6.425 -11.942  19.060  1.00  0.00     0.124 S 
ATOM     90  O   UNL     1       5.713 -13.213  19.137  1.00  0.00    -0.237 OA
ATOM     91  O   UNL     1       7.881 -12.025  19.048  1.00  0.00    -0.237 OA
ATOM     92  O   UNL     1       5.872 -10.866  19.880  1.00  0.00    -0.744 OA
ENDBRANCH  88  89
ENDBRANCH  56  81
BRANCH  68  93
ATOM     93  C   UNL     1       7.582  -9.541   8.706  1.00  0.00     0.058 A 
ATOM     94  C   UNL     1       6.175  -9.528   8.727  1.00  0.00     0.135 A 
ATOM     95  C   UNL     1       8.198 -10.220   7.645  1.00  0.00     0.135 A 
ATOM     96  F   UNL     1       5.509  -8.818   9.648  1.00  0.00    -0.206 F 
ATOM     97  C   UNL     1       5.418 -10.213   7.772  1.00  0.00     0.059 A 
ATOM     98  C   UNL     1       7.465 -10.883   6.665  1.00  0.00     0.059 A 
ATOM     99  F   UNL     1       9.537 -10.217   7.532  1.00  0.00    -0.206 F 
ATOM    100  C   UNL     1       6.074 -10.895   6.747  1.00  0.00     0.060 A 
BRANCH 100 101
ATOM    101  S   UNL     1       5.104 -11.770   5.500  1.00  0.00     0.124 S 
ATOM    102  O   UNL     1       4.544 -12.879   6.264  1.00  0.00    -0.237 OA
ATOM    103  O   UNL     1       4.153 -10.754   5.061  1.00  0.00    -0.237 OA
ATOM    104  O   UNL     1       6.098 -12.146   4.496  1.00  0.00    -0.744 OA
ENDBRANCH 100 101
ENDBRANCH  68  93
ENDBRANCH  42  43
ENDBRANCH  34  37
ENDBRANCH  32  33
ENDBRANCH   1  32
TORSDOF 18
