REMARK SMILES O=C(NCCCNC(=O)c1ccccc1/C=N\NC(=S)NCc1ccccc1)c1ccc(-c2c3nc(c(-c4c(F)cc(S(=O)(=O)[O-])cc4F)c4ccc([nH]4)c(-c4c(F)cc(S(=O)(=O)[O-])cc4F)c4nc(c(-c5c(F)cc(S(=O)(=O)[O-])cc5F)c5ccc2[nH]5)C=C4)C=C3)cc1
REMARK SMILES IDX 7 1 8 2 9 3 6 5 5 6 4 7 3 8 1 9 2 10 29 12 30 13 94 14 31 15
REMARK SMILES IDX 93 16 32 17 33 18 34 19 87 20 35 21 92 22 86 23 88 24 36 25
REMARK SMILES IDX 91 26 85 27 84 28 37 30 71 31 50 32 70 33 51 34 54 35 69 36
REMARK SMILES IDX 89 37 52 38 53 39 68 41 90 42 55 43 38 44 39 45 48 46 40 47
REMARK SMILES IDX 41 48 47 49 49 50 42 51 43 52 44 53 45 54 46 55 72 56 73 57
REMARK SMILES IDX 82 58 74 59 75 60 81 61 83 62 76 63 77 64 78 65 79 66 80 67
REMARK SMILES IDX 56 68 57 69 66 70 58 71 59 72 65 73 67 74 60 75 61 76 62 77
REMARK SMILES IDX 63 78 64 79 10 80 11 81 15 82 12 83 14 84 13 85 16 86 17 87
REMARK SMILES IDX 18 88 19 90 20 91 21 92 22 94 23 95 24 96 28 97 25 98 27 99
REMARK SMILES IDX 26 100
REMARK H PARENT 7 4 3 11 88 29 54 40 18 89 21 93
REMARK Flexibility Score: inf
ROOT
ATOM      1  N   UNL     1       3.974  -0.354   4.686  1.00  0.00    -0.352 N 
ATOM      2  C   UNL     1       4.370  -0.207   5.999  1.00  0.00     0.251 C 
ATOM      3  O   UNL     1       4.505  -1.195   6.713  1.00  0.00    -0.269 OA
ATOM      4  H   UNL     1       3.846  -1.290   4.408  1.00  0.00     0.163 HD
ENDROOT
BRANCH   1   5
ATOM      5  C   UNL     1       3.709   0.621   3.635  1.00  0.00     0.118 C 
BRANCH   5   6
ATOM      6  C   UNL     1       4.643   0.562   2.435  1.00  0.00     0.042 C 
BRANCH   6   7
ATOM      7  C   UNL     1       4.354  -0.587   1.483  1.00  0.00     0.118 C 
BRANCH   7   8
ATOM      8  N   UNL     1       2.954  -0.624   1.075  1.00  0.00    -0.352 N 
ATOM      9  O   UNL     1       1.108  -0.050  -0.052  1.00  0.00    -0.269 OA
ATOM     10  C   UNL     1       2.326  -0.209  -0.072  1.00  0.00     0.251 C 
ATOM     11  H   UNL     1       2.350  -1.020   1.744  1.00  0.00     0.163 HD
BRANCH  10  12
ATOM     12  C   UNL     1       3.085   0.032  -1.319  1.00  0.00     0.039 A 
ATOM     13  C   UNL     1       4.206  -0.736  -1.630  1.00  0.00     0.014 A 
ATOM     14  C   UNL     1       2.616   0.976  -2.241  1.00  0.00     0.014 A 
ATOM     15  C   UNL     1       4.943  -0.463  -2.772  1.00  0.00     0.010 A 
ATOM     16  C   UNL     1       3.291   1.166  -3.452  1.00  0.00     0.010 A 
ATOM     17  C   UNL     1       4.472   0.459  -3.717  1.00  0.00    -0.014 A 
BRANCH  17  18
ATOM     18  C   UNL     1       5.188   0.576  -5.012  1.00  0.00     0.031 A 
ATOM     19  C   UNL     1       5.842   1.861  -5.427  1.00  0.00     0.074 A 
ATOM     20  C   UNL     1       5.269  -0.519  -5.795  1.00  0.00     0.049 A 
ATOM     21  N   UNL     1       6.529   2.118  -6.510  1.00  0.00    -0.248 NA
ATOM     22  C   UNL     1       5.703   3.010  -4.518  1.00  0.00     0.031 C 
ATOM     23  C   UNL     1       4.651  -1.815  -5.494  1.00  0.00     0.029 A 
ATOM     24  N   UNL     1       5.914  -0.732  -6.985  1.00  0.00    -0.354 N 
ATOM     25  C   UNL     1       6.888   3.458  -6.426  1.00  0.00     0.074 A 
ATOM     26  C   UNL     1       6.321   3.968  -5.196  1.00  0.00     0.031 C 
ATOM     27  C   UNL     1       4.990  -2.699  -6.442  1.00  0.00     0.029 A 
ATOM     28  C   UNL     1       5.783  -2.017  -7.457  1.00  0.00     0.049 A 
ATOM     29  H   UNL     1       6.422  -0.033  -7.456  1.00  0.00     0.167 HD
ATOM     30  C   UNL     1       7.627   4.188  -7.296  1.00  0.00     0.037 A 
ATOM     31  C   UNL     1       6.228  -2.583  -8.594  1.00  0.00     0.037 A 
ATOM     32  C   UNL     1       8.191   3.659  -8.513  1.00  0.00     0.049 A 
ATOM     33  C   UNL     1       7.029  -1.746  -9.548  1.00  0.00     0.074 A 
ATOM     34  C   UNL     1       8.985   4.305  -9.445  1.00  0.00     0.029 A 
ATOM     35  N   UNL     1       8.016   2.360  -8.971  1.00  0.00    -0.354 N 
ATOM     36  N   UNL     1       7.389  -0.489  -9.434  1.00  0.00    -0.248 NA
ATOM     37  C   UNL     1       7.480  -2.396 -10.783  1.00  0.00     0.031 C 
ATOM     38  C   UNL     1       9.246   3.412 -10.490  1.00  0.00     0.029 A 
ATOM     39  C   UNL     1       8.664   2.192 -10.185  1.00  0.00     0.049 A 
ATOM     40  H   UNL     1       7.505   1.660  -8.503  1.00  0.00     0.167 HD
ATOM     41  C   UNL     1       8.121  -0.201 -10.578  1.00  0.00     0.074 A 
ATOM     42  C   UNL     1       8.170  -1.421 -11.359  1.00  0.00     0.031 C 
ATOM     43  C   UNL     1       8.698   0.969 -10.949  1.00  0.00     0.037 A 
BRANCH  30  44
ATOM     44  C   UNL     1       7.848   5.643  -6.979  1.00  0.00     0.058 A 
ATOM     45  C   UNL     1       8.684   6.055  -5.929  1.00  0.00     0.135 A 
ATOM     46  C   UNL     1       7.242   6.641  -7.760  1.00  0.00     0.135 A 
ATOM     47  F   UNL     1       9.277   5.146  -5.139  1.00  0.00    -0.206 F 
ATOM     48  C   UNL     1       8.887   7.403  -5.647  1.00  0.00     0.059 A 
ATOM     49  C   UNL     1       7.452   7.995  -7.513  1.00  0.00     0.059 A 
ATOM     50  F   UNL     1       6.433   6.304  -8.777  1.00  0.00    -0.206 F 
ATOM     51  C   UNL     1       8.265   8.366  -6.444  1.00  0.00     0.060 A 
BRANCH  51  52
ATOM     52  S   UNL     1       8.536  10.109  -6.060  1.00  0.00     0.124 S 
ATOM     53  O   UNL     1       7.753  10.261  -4.837  1.00  0.00    -0.237 OA
ATOM     54  O   UNL     1       9.984  10.171  -5.895  1.00  0.00    -0.237 OA
ATOM     55  O   UNL     1       8.009  10.802  -7.231  1.00  0.00    -0.744 OA
ENDBRANCH  51  52
ENDBRANCH  30  44
BRANCH  31  56
ATOM     56  C   UNL     1       5.903  -4.003  -8.886  1.00  0.00     0.058 A 
ATOM     57  C   UNL     1       6.894  -4.994  -8.873  1.00  0.00     0.135 A 
ATOM     58  C   UNL     1       4.581  -4.403  -9.143  1.00  0.00     0.135 A 
ATOM     59  F   UNL     1       8.172  -4.662  -8.635  1.00  0.00    -0.206 F 
ATOM     60  C   UNL     1       6.590  -6.330  -9.114  1.00  0.00     0.059 A 
ATOM     61  C   UNL     1       4.248  -5.736  -9.356  1.00  0.00     0.059 A 
ATOM     62  F   UNL     1       3.592  -3.495  -9.145  1.00  0.00    -0.206 F 
ATOM     63  C   UNL     1       5.262  -6.691  -9.350  1.00  0.00     0.060 A 
BRANCH  63  64
ATOM     64  S   UNL     1       4.868  -8.435  -9.604  1.00  0.00     0.124 S 
ATOM     65  O   UNL     1       5.383  -8.657 -10.950  1.00  0.00    -0.237 OA
ATOM     66  O   UNL     1       5.608  -9.077  -8.522  1.00  0.00    -0.237 OA
ATOM     67  O   UNL     1       3.415  -8.474  -9.468  1.00  0.00    -0.744 OA
ENDBRANCH  63  64
ENDBRANCH  31  56
BRANCH  43  68
ATOM     68  C   UNL     1       9.453   0.975 -12.248  1.00  0.00     0.058 A 
ATOM     69  C   UNL     1       8.792   0.931 -13.485  1.00  0.00     0.135 A 
ATOM     70  C   UNL     1      10.854   1.065 -12.254  1.00  0.00     0.135 A 
ATOM     71  F   UNL     1       7.454   0.834 -13.534  1.00  0.00    -0.206 F 
ATOM     72  C   UNL     1       9.496   0.952 -14.684  1.00  0.00     0.059 A 
ATOM     73  C   UNL     1      11.576   1.117 -13.441  1.00  0.00     0.059 A 
ATOM     74  F   UNL     1      11.533   1.118 -11.097  1.00  0.00    -0.206 F 
ATOM     75  C   UNL     1      10.889   1.047 -14.651  1.00  0.00     0.060 A 
BRANCH  75  76
ATOM     76  S   UNL     1      11.789   1.106 -16.215  1.00  0.00     0.124 S 
ATOM     77  O   UNL     1      11.691  -0.280 -16.662  1.00  0.00    -0.237 OA
ATOM     78  O   UNL     1      11.017   2.077 -16.983  1.00  0.00    -0.237 OA
ATOM     79  O   UNL     1      13.124   1.546 -15.821  1.00  0.00    -0.744 OA
ENDBRANCH  75  76
ENDBRANCH  43  68
ENDBRANCH  17  18
ENDBRANCH  10  12
ENDBRANCH   7   8
ENDBRANCH   6   7
ENDBRANCH   5   6
ENDBRANCH   1   5
BRANCH   2  80
ATOM     80  C   UNL     1       4.839   1.098   6.501  1.00  0.00     0.048 A 
ATOM     81  C   UNL     1       6.554   1.101   7.086  1.00  0.00     0.014 A 
ATOM     82  C   UNL     1       4.093   2.660   5.976  1.00  0.00     0.007 A 
ATOM     83  C   UNL     1       7.484   2.656   7.217  1.00  0.00     0.001 A 
ATOM     84  C   UNL     1       5.005   4.243   6.125  1.00  0.00     0.010 A 
ATOM     85  C   UNL     1       6.699   4.218   6.746  1.00  0.00     0.001 A 
BRANCH  82  86
ATOM     86  C   UNL     1       2.674   2.764   6.143  1.00  0.00     0.142 C 
ATOM     87  N   UNL     1       2.243   3.312   7.222  1.00  0.00    -0.181 NA
BRANCH  87  88
ATOM     88  N   UNL     1       3.171   3.613   8.193  1.00  0.00    -0.254 N 
ATOM     89  H   UNL     1       2.836   4.243   8.871  1.00  0.00     0.193 HD
BRANCH  88  90
ATOM     90  C   UNL     1       4.459   3.219   8.410  1.00  0.00     0.187 C 
ATOM     91  S   UNL     1       4.967   3.300  10.021  1.00  0.00    -0.039 S 
BRANCH  90  92
ATOM     92  N   UNL     1       5.433   2.788   7.472  1.00  0.00    -0.357 N 
ATOM     93  H   UNL     1       6.148   2.410   8.033  1.00  0.00     0.163 HD
BRANCH  92  94
ATOM     94  C   UNL     1       6.140   2.538   5.531  1.00  0.00     0.151 C 
BRANCH  94  95
ATOM     95  C   UNL     1       7.617   2.536   4.758  1.00  0.00    -0.029 A 
ATOM     96  C   UNL     1       8.247   1.300   4.470  1.00  0.00     0.005 A 
ATOM     97  C   UNL     1       7.999   3.671   4.019  1.00  0.00     0.005 A 
ATOM     98  C   UNL     1       9.200   1.206   3.455  1.00  0.00     0.000 A 
ATOM     99  C   UNL     1       8.956   3.566   3.009  1.00  0.00     0.000 A 
ATOM    100  C   UNL     1       9.540   2.334   2.716  1.00  0.00     0.000 A 
ENDBRANCH  94  95
ENDBRANCH  92  94
ENDBRANCH  90  92
ENDBRANCH  88  90
ENDBRANCH  87  88
ENDBRANCH  82  86
ENDBRANCH   2  80
TORSDOF 19
