REMARK SMILES O=C(NCCCNC(=O)[C@@H]1CCCN1C(=O)OCc1ccc(/N=N/c2ccccc2)cc1)c1ccc(-c2c3nc(c(-c4c(F)cc(S(=O)(=O)[O-])cc4F)c4ccc([nH]4)c(-c4c(F)cc(S(=O)(=O)[O-])cc4F)c4nc(c(-c5c(F)cc(S(=O)(=O)[O-])cc5F)c5ccc2[nH]5)C=C4)C=C3)cc1
REMARK SMILES IDX 7 1 8 2 9 3 6 5 5 6 4 7 3 8 1 9 2 10 33 12 34 13 98 14 35 15
REMARK SMILES IDX 97 16 36 17 37 18 38 19 91 20 39 21 96 22 90 23 92 24 40 25
REMARK SMILES IDX 95 26 89 27 88 28 41 30 75 31 54 32 74 33 55 34 58 35 73 36
REMARK SMILES IDX 93 37 56 38 57 39 72 41 94 42 59 43 42 44 43 45 52 46 44 47
REMARK SMILES IDX 45 48 51 49 53 50 46 51 47 52 48 53 49 54 50 55 76 56 77 57
REMARK SMILES IDX 86 58 78 59 79 60 85 61 87 62 80 63 81 64 82 65 83 66 84 67
REMARK SMILES IDX 60 68 61 69 70 70 62 71 63 72 69 73 71 74 64 75 65 76 66 77
REMARK SMILES IDX 67 78 68 79 10 80 11 81 14 82 12 83 13 84 15 85 16 86 17 87
REMARK SMILES IDX 18 88 19 89 20 90 32 91 21 92 31 93 22 94 23 95 24 96 25 97
REMARK SMILES IDX 26 98 30 99 27 100 29 101 28 102
REMARK H PARENT 7 4 3 11 92 29 58 40
REMARK Flexibility Score: inf
ROOT
ATOM      1  N   UNL     1       5.017   4.026  -1.583  1.00  0.00    -0.354 N 
ATOM      2  C   UNL     1       6.114   4.785  -1.896  1.00  0.00     0.242 C 
ATOM      3  O   UNL     1       6.822   5.182  -0.973  1.00  0.00    -0.273 OA
ATOM      4  H   UNL     1       4.667   4.135  -0.669  1.00  0.00     0.163 HD
ENDROOT
BRANCH   1   5
ATOM      5  C   UNL     1       4.304   3.080  -2.425  1.00  0.00     0.117 C 
BRANCH   5   6
ATOM      6  C   UNL     1       4.794   1.660  -2.162  1.00  0.00     0.042 C 
BRANCH   6   7
ATOM      7  C   UNL     1       4.515   1.183  -0.743  1.00  0.00     0.118 C 
BRANCH   7   8
ATOM      8  N   UNL     1       3.091   1.034  -0.471  1.00  0.00    -0.352 N 
ATOM      9  O   UNL     1       1.174  -0.069  -0.042  1.00  0.00    -0.269 OA
ATOM     10  C   UNL     1       2.401  -0.077  -0.047  1.00  0.00     0.251 C 
ATOM     11  H   UNL     1       2.547   1.842  -0.612  1.00  0.00     0.163 HD
BRANCH  10  12
ATOM     12  C   UNL     1       3.147  -1.281   0.378  1.00  0.00     0.039 A 
ATOM     13  C   UNL     1       4.284  -1.156   1.178  1.00  0.00     0.014 A 
ATOM     14  C   UNL     1       2.711  -2.544  -0.029  1.00  0.00     0.014 A 
ATOM     15  C   UNL     1       5.072  -2.268   1.433  1.00  0.00     0.010 A 
ATOM     16  C   UNL     1       3.446  -3.679   0.327  1.00  0.00     0.010 A 
ATOM     17  C   UNL     1       4.647  -3.549   1.040  1.00  0.00    -0.014 A 
BRANCH  17  18
ATOM     18  C   UNL     1       5.435  -4.727   1.485  1.00  0.00     0.031 A 
ATOM     19  C   UNL     1       6.103  -5.647   0.502  1.00  0.00     0.074 A 
ATOM     20  C   UNL     1       5.575  -4.927   2.812  1.00  0.00     0.049 A 
ATOM     21  N   UNL     1       6.854  -6.693   0.740  1.00  0.00    -0.248 NA
ATOM     22  C   UNL     1       5.904  -5.368  -0.929  1.00  0.00     0.031 C 
ATOM     23  C   UNL     1       4.953  -4.106   3.856  1.00  0.00     0.029 A 
ATOM     24  N   UNL     1       6.295  -5.858   3.513  1.00  0.00    -0.354 N 
ATOM     25  C   UNL     1       7.212  -7.201  -0.503  1.00  0.00     0.074 A 
ATOM     26  C   UNL     1       6.568  -6.368  -1.496  1.00  0.00     0.031 C 
ATOM     27  C   UNL     1       5.362  -4.533   5.058  1.00  0.00     0.029 A 
ATOM     28  C   UNL     1       6.208  -5.705   4.877  1.00  0.00     0.049 A 
ATOM     29  H   UNL     1       6.825  -6.568   3.083  1.00  0.00     0.167 HD
ATOM     30  C   UNL     1       8.012  -8.259  -0.784  1.00  0.00     0.037 A 
ATOM     31  C   UNL     1       6.728  -6.439   5.877  1.00  0.00     0.037 A 
ATOM     32  C   UNL     1       8.649  -9.078   0.219  1.00  0.00     0.049 A 
ATOM     33  C   UNL     1       7.579  -7.628   5.532  1.00  0.00     0.074 A 
ATOM     34  C   UNL     1       9.496 -10.159   0.035  1.00  0.00     0.029 A 
ATOM     35  N   UNL     1       8.510  -8.914   1.590  1.00  0.00    -0.354 N 
ATOM     36  N   UNL     1       7.933  -8.070   4.349  1.00  0.00    -0.248 NA
ATOM     37  C   UNL     1       8.099  -8.417   6.654  1.00  0.00     0.031 C 
ATOM     38  C   UNL     1       9.824 -10.680   1.290  1.00  0.00     0.029 A 
ATOM     39  C   UNL     1       9.233  -9.888   2.261  1.00  0.00     0.049 A 
ATOM     40  H   UNL     1       7.975  -8.210   2.022  1.00  0.00     0.167 HD
ATOM     41  C   UNL     1       8.733  -9.181   4.586  1.00  0.00     0.074 A 
ATOM     42  C   UNL     1       8.835  -9.321   6.025  1.00  0.00     0.031 C 
ATOM     43  C   UNL     1       9.324 -10.015   3.695  1.00  0.00     0.037 A 
BRANCH  30  44
ATOM     44  C   UNL     1       8.248  -8.607  -2.230  1.00  0.00     0.058 A 
ATOM     45  C   UNL     1       9.048  -7.806  -3.061  1.00  0.00     0.135 A 
ATOM     46  C   UNL     1       7.741  -9.802  -2.769  1.00  0.00     0.135 A 
ATOM     47  F   UNL     1       9.547  -6.646  -2.605  1.00  0.00    -0.206 F 
ATOM     48  C   UNL     1       9.328  -8.171  -4.375  1.00  0.00     0.059 A 
ATOM     49  C   UNL     1       8.030 -10.200  -4.072  1.00  0.00     0.059 A 
ATOM     50  F   UNL     1       6.970 -10.606  -2.022  1.00  0.00    -0.206 F 
ATOM     51  C   UNL     1       8.820  -9.374  -4.869  1.00  0.00     0.060 A 
BRANCH  51  52
ATOM     52  S   UNL     1       9.224  -9.845  -6.565  1.00  0.00     0.124 S 
ATOM     53  O   UNL     1       8.459  -8.865  -7.330  1.00  0.00    -0.237 OA
ATOM     54  O   UNL     1      10.674  -9.680  -6.596  1.00  0.00    -0.237 OA
ATOM     55  O   UNL     1       8.750 -11.222  -6.660  1.00  0.00    -0.744 OA
ENDBRANCH  51  52
ENDBRANCH  30  44
BRANCH  31  56
ATOM     56  C   UNL     1       6.430  -6.091   7.292  1.00  0.00     0.058 A 
ATOM     57  C   UNL     1       7.440  -5.660   8.165  1.00  0.00     0.135 A 
ATOM     58  C   UNL     1       5.125  -6.191   7.801  1.00  0.00     0.135 A 
ATOM     59  F   UNL     1       8.703  -5.548   7.727  1.00  0.00    -0.206 F 
ATOM     60  C   UNL     1       7.174  -5.376   9.500  1.00  0.00     0.059 A 
ATOM     61  C   UNL     1       4.828  -5.877   9.122  1.00  0.00     0.059 A 
ATOM     62  F   UNL     1       4.117  -6.577   7.003  1.00  0.00    -0.206 F 
ATOM     63  C   UNL     1       5.864  -5.490   9.970  1.00  0.00     0.060 A 
BRANCH  63  64
ATOM     64  S   UNL     1       5.527  -5.112  11.702  1.00  0.00     0.124 S 
ATOM     65  O   UNL     1       6.111  -6.269  12.371  1.00  0.00    -0.237 OA
ATOM     66  O   UNL     1       6.230  -3.846  11.882  1.00  0.00    -0.237 OA
ATOM     67  O   UNL     1       4.070  -5.024  11.748  1.00  0.00    -0.744 OA
ENDBRANCH  63  64
ENDBRANCH  31  56
BRANCH  43  68
ATOM     68  C   UNL     1      10.156 -11.135   4.258  1.00  0.00     0.058 A 
ATOM     69  C   UNL     1       9.575 -12.221   4.932  1.00  0.00     0.135 A 
ATOM     70  C   UNL     1      11.553 -11.127   4.110  1.00  0.00     0.135 A 
ATOM     71  F   UNL     1       8.246 -12.274   5.109  1.00  0.00    -0.206 F 
ATOM     72  C   UNL     1      10.352 -13.239   5.475  1.00  0.00     0.059 A 
ATOM     73  C   UNL     1      12.346 -12.152   4.614  1.00  0.00     0.059 A 
ATOM     74  F   UNL     1      12.160 -10.118   3.465  1.00  0.00    -0.206 F 
ATOM     75  C   UNL     1      11.738 -13.194   5.312  1.00  0.00     0.060 A 
BRANCH  75  76
ATOM     76  S   UNL     1      12.733 -14.527   6.012  1.00  0.00     0.124 S 
ATOM     77  O   UNL     1      12.657 -14.232   7.439  1.00  0.00    -0.237 OA
ATOM     78  O   UNL     1      12.012 -15.718   5.572  1.00  0.00    -0.237 OA
ATOM     79  O   UNL     1      14.043 -14.332   5.399  1.00  0.00    -0.744 OA
ENDBRANCH  75  76
ENDBRANCH  43  68
ENDBRANCH  17  18
ENDBRANCH  10  12
ENDBRANCH   7   8
ENDBRANCH   6   7
ENDBRANCH   5   6
ENDBRANCH   1   5
BRANCH   2  80
ATOM     80  C   UNL     1       6.402   5.053  -3.382  1.00  0.00     0.177 C 
ATOM     81  C   UNL     1       7.278   3.923  -3.933  1.00  0.00     0.037 C 
ATOM     82  N   UNL     1       7.161   6.246  -3.757  1.00  0.00    -0.296 N 
ATOM     83  C   UNL     1       7.849   4.513  -5.212  1.00  0.00     0.024 C 
ATOM     84  C   UNL     1       8.034   5.987  -4.884  1.00  0.00     0.124 C 
BRANCH  82  85
ATOM     85  C   UNL     1       6.941   7.531  -3.328  1.00  0.00     0.410 C 
ATOM     86  O   UNL     1       7.426   8.518  -3.873  1.00  0.00    -0.224 OA
BRANCH  85  87
ATOM     87  O   UNL     1       6.182   7.579  -2.207  1.00  0.00    -0.445 OA
BRANCH  87  88
ATOM     88  C   UNL     1       6.178   8.831  -1.504  1.00  0.00     0.270 C 
BRANCH  88  89
ATOM     89  C   UNL     1       7.491   9.184  -0.831  1.00  0.00    -0.010 A 
ATOM     90  C   UNL     1       8.377   8.210  -0.352  1.00  0.00     0.009 A 
ATOM     91  C   UNL     1       7.829  10.530  -0.645  1.00  0.00     0.009 A 
ATOM     92  C   UNL     1       9.594   8.575   0.241  1.00  0.00     0.031 A 
ATOM     93  C   UNL     1       9.042  10.889  -0.044  1.00  0.00     0.031 A 
ATOM     94  C   UNL     1       9.955   9.918   0.393  1.00  0.00     0.086 A 
BRANCH  94  95
ATOM     95  N   UNL     1      11.224  10.202   0.956  1.00  0.00    -0.151 NA
ATOM     96  N   UNL     1      11.498  11.421   0.951  1.00  0.00    -0.151 NA
BRANCH  96  97
ATOM     97  C   UNL     1      12.814  11.682   1.378  1.00  0.00     0.086 A 
ATOM     98  C   UNL     1      13.035  12.759   2.244  1.00  0.00     0.030 A 
ATOM     99  C   UNL     1      13.924  10.977   0.890  1.00  0.00     0.030 A 
ATOM    100  C   UNL     1      14.331  13.124   2.621  1.00  0.00     0.002 A 
ATOM    101  C   UNL     1      15.222  11.338   1.266  1.00  0.00     0.002 A 
ATOM    102  C   UNL     1      15.424  12.414   2.128  1.00  0.00     0.000 A 
ENDBRANCH  96  97
ENDBRANCH  94  95
ENDBRANCH  88  89
ENDBRANCH  87  88
ENDBRANCH  85  87
ENDBRANCH  82  85
ENDBRANCH   2  80
TORSDOF 19
