REMARK SMILES CC(C)[C@H](NC(=O)[C@H](Cc1ccccc1)n1c(=O)[nH]c2ccccc2c1=O)C(=O)NCCCNC(=O)c1ccc(-c2c3nc(c(-c4c(F)cc(S(=O)(=O)[O-])cc4F)c4ccc([nH]4)c(-c4c(F)cc(S(=O)(=O)[O-])cc4F)c4nc(c(-c5c(F)cc(S(=O)(=O)[O-])cc5F)c5ccc2[nH]5)C=C4)C=C3)cc1
REMARK SMILES IDX 31 1 30 2 28 3 29 4 4 6 2 7 1 8 3 9 5 10 6 11 7 13 8 14
REMARK SMILES IDX 16 15 17 16 26 17 18 18 19 19 25 20 27 21 20 22 24 24 21 25
REMARK SMILES IDX 23 26 22 27 9 28 10 29 11 30 15 31 12 32 14 33 13 34 32 35
REMARK SMILES IDX 33 36 34 37 35 38 36 40 37 41 38 42 102 43 39 44 101 45
REMARK SMILES IDX 40 46 41 47 42 48 95 49 43 50 100 51 94 52 96 53 44 54 99 55
REMARK SMILES IDX 93 56 92 57 45 59 79 60 58 61 78 62 59 63 62 64 77 65 97 66
REMARK SMILES IDX 60 67 61 68 76 70 98 71 63 72 46 73 47 74 56 75 48 76 49 77
REMARK SMILES IDX 55 78 57 79 50 80 51 81 52 82 53 83 54 84 80 85 81 86 90 87
REMARK SMILES IDX 82 88 83 89 89 90 91 91 84 92 85 93 86 94 87 95 88 96 64 97
REMARK SMILES IDX 65 98 74 99 66 100 67 101 73 102 75 103 68 104 69 105 70 106
REMARK SMILES IDX 71 107 72 108
REMARK H PARENT 30 5 5 12 19 23 34 39 96 58 62 69
REMARK Flexibility Score: inf
ROOT
ATOM      1  C   UNL     1       1.333   1.840  -5.277  1.00  0.00     0.117 C 
ENDROOT
BRANCH   1   2
ATOM      2  N   UNL     1       0.166   2.450  -5.894  1.00  0.00    -0.354 N 
ATOM      3  C   UNL     1      -1.012   2.838  -5.324  1.00  0.00     0.242 C 
ATOM      4  O   UNL     1      -1.788   3.517  -5.999  1.00  0.00    -0.273 OA
ATOM      5  H   UNL     1       0.236   2.605  -6.864  1.00  0.00     0.163 HD
BRANCH   3   6
ATOM      6  C   UNL     1      -1.282   2.571  -3.826  1.00  0.00     0.173 C 
BRANCH   6   7
ATOM      7  C   UNL     1      -0.607   3.639  -2.935  1.00  0.00     0.015 C 
ATOM      8  C   UNL     1       0.333   4.656  -3.599  1.00  0.00     0.010 C 
ATOM      9  C   UNL     1      -1.694   4.437  -2.203  1.00  0.00     0.010 C 
ENDBRANCH   6   7
BRANCH   6  10
ATOM     10  N   UNL     1      -1.067   1.126  -3.571  1.00  0.00    -0.342 N 
ATOM     11  C   UNL     1      -0.452   0.277  -2.711  1.00  0.00     0.244 C 
ATOM     12  H   UNL     1      -1.531   0.603  -4.265  1.00  0.00     0.164 HD
ATOM     13  O   UNL     1      -0.282  -0.855  -3.186  1.00  0.00    -0.273 OA
BRANCH  11  14
ATOM     14  C   UNL     1       0.214   0.681  -1.380  1.00  0.00     0.189 C 
BRANCH  14  15
ATOM     15  N   UNL     1      -0.609   1.468  -0.448  1.00  0.00    -0.247 N 
ATOM     16  C   UNL     1      -1.856   0.988  -0.087  1.00  0.00     0.329 A 
ATOM     17  C   UNL     1      -0.016   2.575   0.160  1.00  0.00     0.264 A 
ATOM     18  O   UNL     1      -2.441   0.068  -0.651  1.00  0.00    -0.248 OA
ATOM     19  N   UNL     1      -2.476   1.608   0.963  1.00  0.00    -0.307 N 
ATOM     20  C   UNL     1      -0.869   3.382   1.046  1.00  0.00     0.064 A 
ATOM     21  O   UNL     1       1.151   2.920  -0.008  1.00  0.00    -0.268 OA
ATOM     22  C   UNL     1      -2.046   2.814   1.506  1.00  0.00     0.055 A 
ATOM     23  H   UNL     1      -3.268   1.177   1.357  1.00  0.00     0.171 HD
ATOM     24  C   UNL     1      -0.526   4.691   1.395  1.00  0.00     0.016 A 
ATOM     25  C   UNL     1      -2.837   3.495   2.428  1.00  0.00     0.027 A 
ATOM     26  C   UNL     1      -1.358   5.408   2.254  1.00  0.00     0.001 A 
ATOM     27  C   UNL     1      -2.491   4.798   2.797  1.00  0.00     0.002 A 
ENDBRANCH  14  15
BRANCH  14  28
ATOM     28  C   UNL     1       1.009  -0.463  -0.682  1.00  0.00     0.071 C 
BRANCH  28  29
ATOM     29  C   UNL     1       0.259  -1.681  -0.192  1.00  0.00    -0.045 A 
ATOM     30  C   UNL     1       0.308  -2.877  -0.923  1.00  0.00     0.004 A 
ATOM     31  C   UNL     1      -0.494  -1.653   0.989  1.00  0.00     0.004 A 
ATOM     32  C   UNL     1      -0.429  -3.992  -0.523  1.00  0.00     0.000 A 
ATOM     33  C   UNL     1      -1.260  -2.757   1.371  1.00  0.00     0.000 A 
ATOM     34  C   UNL     1      -1.233  -3.924   0.611  1.00  0.00     0.000 A 
ENDBRANCH  28  29
ENDBRANCH  14  28
ENDBRANCH  11  14
ENDBRANCH   6  10
ENDBRANCH   3   6
ENDBRANCH   1   2
BRANCH   1  35
ATOM     35  C   UNL     1       1.728   0.546  -5.961  1.00  0.00     0.042 C 
BRANCH  35  36
ATOM     36  C   UNL     1       2.269   0.778  -7.364  1.00  0.00     0.118 C 
BRANCH  36  37
ATOM     37  N   UNL     1       3.468   1.612  -7.374  1.00  0.00    -0.352 N 
ATOM     38  C   UNL     1       4.673   1.384  -7.995  1.00  0.00     0.251 C 
ATOM     39  H   UNL     1       3.405   2.452  -6.865  1.00  0.00     0.163 HD
ATOM     40  O   UNL     1       5.636   2.095  -7.761  1.00  0.00    -0.269 OA
BRANCH  38  41
ATOM     41  C   UNL     1       4.772   0.251  -8.933  1.00  0.00     0.039 A 
ATOM     42  C   UNL     1       5.837  -0.643  -8.812  1.00  0.00     0.014 A 
ATOM     43  C   UNL     1       3.771   0.050  -9.886  1.00  0.00     0.014 A 
ATOM     44  C   UNL     1       5.858  -1.785  -9.611  1.00  0.00     0.010 A 
ATOM     45  C   UNL     1       3.744  -1.132 -10.608  1.00  0.00     0.010 A 
ATOM     46  C   UNL     1       4.792  -2.056 -10.486  1.00  0.00    -0.014 A 
BRANCH  46  47
ATOM     47  C   UNL     1       4.754  -3.294 -11.300  1.00  0.00     0.031 A 
ATOM     48  C   UNL     1       4.754  -3.194 -12.800  1.00  0.00     0.074 A 
ATOM     49  C   UNL     1       4.639  -4.489 -10.690  1.00  0.00     0.049 A 
ATOM     50  N   UNL     1       4.635  -4.144 -13.690  1.00  0.00    -0.248 NA
ATOM     51  C   UNL     1       4.866  -1.843 -13.377  1.00  0.00     0.031 C 
ATOM     52  C   UNL     1       4.565  -4.699  -9.241  1.00  0.00     0.029 A 
ATOM     53  N   UNL     1       4.553  -5.754 -11.211  1.00  0.00    -0.354 N 
ATOM     54  C   UNL     1       4.635  -3.505 -14.924  1.00  0.00     0.074 A 
ATOM     55  C   UNL     1       4.703  -2.084 -14.668  1.00  0.00     0.031 C 
ATOM     56  C   UNL     1       4.473  -6.015  -8.991  1.00  0.00     0.029 A 
ATOM     57  C   UNL     1       4.443  -6.739 -10.258  1.00  0.00     0.049 A 
ATOM     58  H   UNL     1       4.569  -5.940 -12.178  1.00  0.00     0.167 HD
ATOM     59  C   UNL     1       4.611  -4.056 -16.160  1.00  0.00     0.037 A 
ATOM     60  C   UNL     1       4.327  -8.074 -10.393  1.00  0.00     0.037 A 
ATOM     61  C   UNL     1       4.582  -5.474 -16.401  1.00  0.00     0.049 A 
ATOM     62  C   UNL     1       4.324  -8.665 -11.777  1.00  0.00     0.074 A 
ATOM     63  C   UNL     1       4.622  -6.142 -17.611  1.00  0.00     0.029 A 
ATOM     64  N   UNL     1       4.510  -6.442 -15.409  1.00  0.00    -0.354 N 
ATOM     65  N   UNL     1       4.394  -8.051 -12.935  1.00  0.00    -0.248 NA
ATOM     66  C   UNL     1       4.236 -10.127 -11.875  1.00  0.00     0.031 C 
ATOM     67  C   UNL     1       4.536  -7.514 -17.353  1.00  0.00     0.029 A 
ATOM     68  C   UNL     1       4.489  -7.703 -15.980  1.00  0.00     0.049 A 
ATOM     69  H   UNL     1       4.478  -6.259 -14.443  1.00  0.00     0.167 HD
ATOM     70  C   UNL     1       4.384  -9.054 -13.898  1.00  0.00     0.074 A 
ATOM     71  C   UNL     1       4.315 -10.314 -13.185  1.00  0.00     0.031 C 
ATOM     72  C   UNL     1       4.430  -8.944 -15.249  1.00  0.00     0.037 A 
BRANCH  59  73
ATOM     73  C   UNL     1       4.628  -3.123 -17.339  1.00  0.00     0.058 A 
ATOM     74  C   UNL     1       5.767  -2.366 -17.663  1.00  0.00     0.135 A 
ATOM     75  C   UNL     1       3.502  -2.996 -18.168  1.00  0.00     0.135 A 
ATOM     76  F   UNL     1       6.865  -2.434 -16.893  1.00  0.00    -0.206 F 
ATOM     77  C   UNL     1       5.779  -1.495 -18.746  1.00  0.00     0.059 A 
ATOM     78  C   UNL     1       3.502  -2.152 -19.275  1.00  0.00     0.059 A 
ATOM     79  F   UNL     1       2.386  -3.692 -17.903  1.00  0.00    -0.206 F 
ATOM     80  C   UNL     1       4.640  -1.395 -19.547  1.00  0.00     0.060 A 
BRANCH  80  81
ATOM     81  S   UNL     1       4.674  -0.264 -20.953  1.00  0.00     0.124 S 
ATOM     82  O   UNL     1       4.586   1.032 -20.287  1.00  0.00    -0.237 OA
ATOM     83  O   UNL     1       5.960  -0.571 -21.571  1.00  0.00    -0.237 OA
ATOM     84  O   UNL     1       3.500  -0.651 -21.730  1.00  0.00    -0.744 OA
ENDBRANCH  80  81
ENDBRANCH  59  73
BRANCH  60  85
ATOM     85  C   UNL     1       4.239  -8.940  -9.188  1.00  0.00     0.058 A 
ATOM     86  C   UNL     1       5.308  -9.770  -8.820  1.00  0.00     0.135 A 
ATOM     87  C   UNL     1       3.098  -8.943  -8.371  1.00  0.00     0.135 A 
ATOM     88  F   UNL     1       6.420  -9.805  -9.570  1.00  0.00    -0.206 F 
ATOM     89  C   UNL     1       5.244 -10.588  -7.696  1.00  0.00     0.059 A 
ATOM     90  C   UNL     1       3.019  -9.733  -7.228  1.00  0.00     0.059 A 
ATOM     91  F   UNL     1       2.056  -8.152  -8.669  1.00  0.00    -0.206 F 
ATOM     92  C   UNL     1       4.094 -10.561  -6.905  1.00  0.00     0.060 A 
BRANCH  92  93
ATOM     93  S   UNL     1       4.038 -11.595  -5.425  1.00  0.00     0.124 S 
ATOM     94  O   UNL     1       3.868 -12.924  -6.001  1.00  0.00    -0.237 OA
ATOM     95  O   UNL     1       5.337 -11.326  -4.814  1.00  0.00    -0.237 OA
ATOM     96  O   UNL     1       2.889 -11.071  -4.693  1.00  0.00    -0.744 OA
ENDBRANCH  92  93
ENDBRANCH  60  85
BRANCH  72  97
ATOM     97  C   UNL     1       4.443 -10.218 -16.045  1.00  0.00     0.058 A 
ATOM     98  C   UNL     1       3.294 -11.009 -16.189  1.00  0.00     0.135 A 
ATOM     99  C   UNL     1       5.608 -10.619 -16.720  1.00  0.00     0.135 A 
ATOM    100  F   UNL     1       2.157 -10.672 -15.559  1.00  0.00    -0.206 F 
ATOM    101  C   UNL     1       3.304 -12.168 -16.958  1.00  0.00     0.059 A 
ATOM    102  C   UNL     1       5.633 -11.759 -17.516  1.00  0.00     0.059 A 
ATOM    103  F   UNL     1       6.731  -9.890 -16.623  1.00  0.00    -0.206 F 
ATOM    104  C   UNL     1       4.478 -12.533 -17.620  1.00  0.00     0.060 A 
BRANCH 104 105
ATOM    105  S   UNL     1       4.467 -14.018 -18.646  1.00  0.00     0.124 S 
ATOM    106  O   UNL     1       4.483 -15.072 -17.637  1.00  0.00    -0.237 OA
ATOM    107  O   UNL     1       3.221 -13.873 -19.393  1.00  0.00    -0.237 OA
ATOM    108  O   UNL     1       5.685 -13.890 -19.441  1.00  0.00    -0.744 OA
ENDBRANCH 104 105
ENDBRANCH  72  97
ENDBRANCH  46  47
ENDBRANCH  38  41
ENDBRANCH  36  37
ENDBRANCH  35  36
ENDBRANCH   1  35
TORSDOF 19
