REMARK SMILES O=C(NCCCNC(=O)[C@H]1Cc2[nH]cnc2CN1S(=O)(=O)c1cccs1)c1ccc(-c2c3nc(c(-c4c(F)cc(S(=O)(=O)[O-])cc4F)c4ccc([nH]4)c(-c4c(F)cc(S(=O)(=O)[O-])cc4F)c4nc(c(-c5c(F)cc(S(=O)(=O)[O-])cc5F)c5ccc2[nH]5)C=C4)C=C3)cc1
REMARK SMILES IDX 4 1 3 2 1 3 2 4 27 6 28 7 92 8 29 9 91 10 30 11 31 12 32 13
REMARK SMILES IDX 85 14 33 15 90 16 84 17 86 18 34 19 89 20 83 21 82 22 35 24
REMARK SMILES IDX 69 25 48 26 68 27 49 28 52 29 67 30 87 31 50 32 51 33 66 35
REMARK SMILES IDX 88 36 53 37 36 38 37 39 46 40 38 41 39 42 45 43 47 44 40 45
REMARK SMILES IDX 41 46 42 47 43 48 44 49 70 50 71 51 80 52 72 53 73 54 79 55
REMARK SMILES IDX 81 56 74 57 75 58 76 59 77 60 78 61 54 62 55 63 64 64 56 65
REMARK SMILES IDX 57 66 63 67 65 68 58 69 59 70 60 71 61 72 62 73 5 74 6 75
REMARK SMILES IDX 7 76 8 77 9 79 10 80 11 81 18 82 12 83 17 84 13 85 16 86
REMARK SMILES IDX 14 87 15 89 19 90 20 91 21 92 22 93 23 94 26 95 24 96 25 97
REMARK H PARENT 3 5 86 23 52 34 7 78 13 88
REMARK Flexibility Score: inf
ROOT
ATOM      1  C   UNL     1       3.646  -1.151   1.162  1.00  0.00     0.118 C 
ENDROOT
BRANCH   1   2
ATOM      2  N   UNL     1       2.382  -1.296   0.474  1.00  0.00    -0.352 N 
ATOM      3  O   UNL     1       0.660  -0.833  -0.856  1.00  0.00    -0.269 OA
ATOM      4  C   UNL     1       1.591  -0.389  -0.181  1.00  0.00     0.251 C 
ATOM      5  H   UNL     1       2.025  -2.213   0.477  1.00  0.00     0.163 HD
BRANCH   4   6
ATOM      6  C   UNL     1       1.749   1.083  -0.051  1.00  0.00     0.039 A 
ATOM      7  C   UNL     1       2.970   1.761   0.019  1.00  0.00     0.014 A 
ATOM      8  C   UNL     1       0.558   1.823  -0.046  1.00  0.00     0.014 A 
ATOM      9  C   UNL     1       2.997   3.151   0.167  1.00  0.00     0.010 A 
ATOM     10  C   UNL     1       0.584   3.209   0.072  1.00  0.00     0.010 A 
ATOM     11  C   UNL     1       1.804   3.878   0.203  1.00  0.00    -0.014 A 
BRANCH  11  12
ATOM     12  C   UNL     1       1.857   5.345   0.267  1.00  0.00     0.031 A 
ATOM     13  C   UNL     1       2.341   6.075  -0.949  1.00  0.00     0.074 A 
ATOM     14  C   UNL     1       1.251   6.056   1.241  1.00  0.00     0.049 A 
ATOM     15  N   UNL     1       3.217   7.028  -1.035  1.00  0.00    -0.248 NA
ATOM     16  C   UNL     1       1.758   5.690  -2.244  1.00  0.00     0.031 C 
ATOM     17  C   UNL     1       0.398   5.538   2.313  1.00  0.00     0.029 A 
ATOM     18  N   UNL     1       1.143   7.412   1.380  1.00  0.00    -0.354 N 
ATOM     19  C   UNL     1       3.182   7.477  -2.357  1.00  0.00     0.074 A 
ATOM     20  C   UNL     1       2.325   6.566  -3.074  1.00  0.00     0.031 C 
ATOM     21  C   UNL     1      -0.319   6.557   2.833  1.00  0.00     0.029 A 
ATOM     22  C   UNL     1       0.109   7.803   2.218  1.00  0.00     0.049 A 
ATOM     23  H   UNL     1       1.743   8.050   0.930  1.00  0.00     0.167 HD
ATOM     24  C   UNL     1       3.735   8.652  -2.769  1.00  0.00     0.037 A 
ATOM     25  C   UNL     1      -0.426   9.042   2.336  1.00  0.00     0.037 A 
ATOM     26  C   UNL     1       4.649   9.205  -1.811  1.00  0.00     0.049 A 
ATOM     27  C   UNL     1       0.543  10.027   1.796  1.00  0.00     0.074 A 
ATOM     28  C   UNL     1       5.829   8.792  -1.227  1.00  0.00     0.029 A 
ATOM     29  N   UNL     1       4.258  10.316  -1.106  1.00  0.00    -0.354 N 
ATOM     30  N   UNL     1       1.685  10.331   2.345  1.00  0.00    -0.248 NA
ATOM     31  C   UNL     1       0.369  10.489   0.426  1.00  0.00     0.031 C 
ATOM     32  C   UNL     1       5.841   9.389   0.067  1.00  0.00     0.029 A 
ATOM     33  C   UNL     1       4.661  10.122   0.190  1.00  0.00     0.049 A 
ATOM     34  H   UNL     1       3.780  11.100  -1.462  1.00  0.00     0.167 HD
ATOM     35  C   UNL     1       2.512  10.666   1.285  1.00  0.00     0.074 A 
ATOM     36  C   UNL     1       1.616  10.882   0.158  1.00  0.00     0.031 C 
ATOM     37  C   UNL     1       3.861  10.462   1.346  1.00  0.00     0.037 A 
BRANCH  24  38
ATOM     38  C   UNL     1       3.252   9.458  -3.949  1.00  0.00     0.058 A 
ATOM     39  C   UNL     1       4.088  10.431  -4.533  1.00  0.00     0.135 A 
ATOM     40  C   UNL     1       1.897   9.493  -4.343  1.00  0.00     0.135 A 
ATOM     41  F   UNL     1       5.389  10.496  -4.210  1.00  0.00    -0.206 F 
ATOM     42  C   UNL     1       3.602  11.405  -5.408  1.00  0.00     0.059 A 
ATOM     43  C   UNL     1       1.401  10.425  -5.251  1.00  0.00     0.059 A 
ATOM     44  F   UNL     1       0.987   8.680  -3.789  1.00  0.00    -0.206 F 
ATOM     45  C   UNL     1       2.252  11.405  -5.745  1.00  0.00     0.060 A 
BRANCH  45  46
ATOM     46  S   UNL     1       1.596  12.729  -6.780  1.00  0.00     0.124 S 
ATOM     47  O   UNL     1       1.521  13.829  -5.826  1.00  0.00    -0.237 OA
ATOM     48  O   UNL     1       2.617  12.850  -7.815  1.00  0.00    -0.237 OA
ATOM     49  O   UNL     1       0.316  12.193  -7.233  1.00  0.00    -0.744 OA
ENDBRANCH  45  46
ENDBRANCH  24  38
BRANCH  25  50
ATOM     50  C   UNL     1      -1.831   9.405   2.653  1.00  0.00     0.058 A 
ATOM     51  C   UNL     1      -2.173  10.703   3.067  1.00  0.00     0.135 A 
ATOM     52  C   UNL     1      -2.905   8.556   2.317  1.00  0.00     0.135 A 
ATOM     53  F   UNL     1      -1.214  11.591   3.371  1.00  0.00    -0.206 F 
ATOM     54  C   UNL     1      -3.499  11.143   3.118  1.00  0.00     0.059 A 
ATOM     55  C   UNL     1      -4.235   8.964   2.381  1.00  0.00     0.059 A 
ATOM     56  F   UNL     1      -2.691   7.325   1.828  1.00  0.00    -0.206 F 
ATOM     57  C   UNL     1      -4.524  10.268   2.760  1.00  0.00     0.060 A 
BRANCH  57  58
ATOM     58  S   UNL     1      -6.223  10.877   2.674  1.00  0.00     0.124 S 
ATOM     59  O   UNL     1      -6.542  11.082   4.082  1.00  0.00    -0.237 OA
ATOM     60  O   UNL     1      -6.077  12.086   1.870  1.00  0.00    -0.237 OA
ATOM     61  O   UNL     1      -6.942   9.785   2.024  1.00  0.00    -0.744 OA
ENDBRANCH  57  58
ENDBRANCH  25  50
BRANCH  37  62
ATOM     62  C   UNL     1       4.493  10.251   2.693  1.00  0.00     0.058 A 
ATOM     63  C   UNL     1       4.221   9.150   3.522  1.00  0.00     0.135 A 
ATOM     64  C   UNL     1       5.530  11.113   3.087  1.00  0.00     0.135 A 
ATOM     65  F   UNL     1       3.323   8.222   3.161  1.00  0.00    -0.206 F 
ATOM     66  C   UNL     1       4.918   8.938   4.711  1.00  0.00     0.059 A 
ATOM     67  C   UNL     1       6.260  10.903   4.254  1.00  0.00     0.059 A 
ATOM     68  F   UNL     1       5.881  12.146   2.303  1.00  0.00    -0.206 F 
ATOM     69  C   UNL     1       5.938   9.819   5.069  1.00  0.00     0.060 A 
BRANCH  69  70
ATOM     70  S   UNL     1       6.906   9.484   6.556  1.00  0.00     0.124 S 
ATOM     71  O   UNL     1       6.005   9.930   7.614  1.00  0.00    -0.237 OA
ATOM     72  O   UNL     1       7.128   8.043   6.478  1.00  0.00    -0.237 OA
ATOM     73  O   UNL     1       8.105  10.299   6.372  1.00  0.00    -0.744 OA
ENDBRANCH  69  70
ENDBRANCH  37  62
ENDBRANCH  11  12
ENDBRANCH   4   6
ENDBRANCH   1   2
BRANCH   1  74
ATOM     74  C   UNL     1       3.595  -0.525   2.558  1.00  0.00     0.042 C 
BRANCH  74  75
ATOM     75  C   UNL     1       3.333  -1.505   3.704  1.00  0.00     0.117 C 
BRANCH  75  76
ATOM     76  N   UNL     1       4.126  -2.724   3.629  1.00  0.00    -0.355 N 
ATOM     77  C   UNL     1       5.189  -3.163   4.356  1.00  0.00     0.238 C 
ATOM     78  H   UNL     1       3.841  -3.345   2.920  1.00  0.00     0.163 HD
ATOM     79  O   UNL     1       5.572  -4.316   4.129  1.00  0.00    -0.273 OA
BRANCH  77  80
ATOM     80  C   UNL     1       5.810  -2.321   5.457  1.00  0.00     0.168 C 
ATOM     81  C   UNL     1       6.962  -3.111   6.155  1.00  0.00     0.086 C 
ATOM     82  N   UNL     1       6.212  -0.899   5.126  1.00  0.00    -0.178 NA
ATOM     83  C   UNL     1       7.490  -2.268   7.250  1.00  0.00     0.041 A 
ATOM     84  C   UNL     1       6.434  -0.105   6.428  1.00  0.00     0.161 C 
ATOM     85  N   UNL     1       8.322  -2.615   8.270  1.00  0.00    -0.348 N 
ATOM     86  C   UNL     1       7.257  -0.918   7.386  1.00  0.00     0.077 A 
ATOM     87  C   UNL     1       8.513  -1.483   9.018  1.00  0.00     0.197 A 
ATOM     88  H   UNL     1       8.710  -3.504   8.437  1.00  0.00     0.167 HD
ATOM     89  N   UNL     1       7.868  -0.449   8.518  1.00  0.00    -0.240 NA
BRANCH  82  90
ATOM     90  S   UNL     1       7.493  -0.579   4.034  1.00  0.00     0.253 S 
ATOM     91  O   UNL     1       7.448   0.839   3.769  1.00  0.00    -0.206 OA
ATOM     92  O   UNL     1       8.701  -1.206   4.537  1.00  0.00    -0.206 OA
BRANCH  90  93
ATOM     93  C   UNL     1       7.273  -1.379   2.449  1.00  0.00     0.135 A 
ATOM     94  C   UNL     1       7.300  -2.709   2.066  1.00  0.00     0.033 A 
ATOM     95  S   UNL     1       7.196  -0.362   1.066  1.00  0.00    -0.131 S 
ATOM     96  C   UNL     1       7.106  -2.893   0.667  1.00  0.00     0.013 A 
ATOM     97  C   UNL     1       7.035  -1.691   0.002  1.00  0.00     0.066 A 
ENDBRANCH  90  93
ENDBRANCH  82  90
ENDBRANCH  77  80
ENDBRANCH  75  76
ENDBRANCH  74  75
ENDBRANCH   1  74
TORSDOF 15
