REMARK SMILES CC(=O)Nc1ccc(/N=C2\C(=O)N(c3ccc(NC(C)=O)cc3)[C@H](c3ccccc3)[C@H]2CC(=O)NCCCNC(=O)c2ccc(-c3c4nc(c(-c5c(F)cc(S(=O)(=O)[O-])cc5F)c5ccc([nH]5)c(-c5c(F)cc(S(=O)(=O)[O-])cc5F)c5nc(c(-c6c(F)cc(S(=O)(=O)[O-])cc6F)c6ccc3[nH]6)C=C5)C=C4)cc2)cc1
REMARK SMILES IDX 37 1 36 2 35 3 33 4 34 5 32 7 31 8 9 9 10 10 11 11 12 12
REMARK SMILES IDX 13 13 24 14 8 15 5 16 6 17 109 18 7 19 108 20 4 21 1 22 2 23
REMARK SMILES IDX 3 24 14 26 15 27 23 28 16 29 22 30 17 31 18 32 19 33 20 35
REMARK SMILES IDX 21 36 25 37 26 38 30 39 27 40 29 41 28 42 38 43 39 44 40 45
REMARK SMILES IDX 41 47 42 48 43 49 107 50 44 51 106 52 45 53 46 54 47 55
REMARK SMILES IDX 100 56 48 57 105 58 99 59 101 60 49 61 104 62 98 63 97 64
REMARK SMILES IDX 50 66 84 67 63 68 83 69 64 70 67 71 82 72 102 73 65 74 66 75
REMARK SMILES IDX 81 77 103 78 68 79 51 80 52 81 61 82 53 83 54 84 60 85 62 86
REMARK SMILES IDX 55 87 56 88 57 89 58 90 59 91 85 92 86 93 95 94 87 95 88 96
REMARK SMILES IDX 94 97 96 98 89 99 90 100 91 101 92 102 93 103 69 104 70 105
REMARK SMILES IDX 79 106 71 107 72 108 78 109 80 110 73 111 74 112 75 113
REMARK SMILES IDX 76 114 77 115
REMARK H PARENT 35 6 4 25 18 34 39 46 101 65 67 76
REMARK Flexibility Score: inf
ROOT
ATOM      1  C   UNL     1       4.500   1.989  -5.572  1.00  0.00     0.042 C 
ENDROOT
BRANCH   1   2
ATOM      2  C   UNL     1       5.907   2.296  -6.075  1.00  0.00     0.117 C 
BRANCH   2   3
ATOM      3  N   UNL     1       6.139   3.728  -6.217  1.00  0.00    -0.356 N 
ATOM      4  C   UNL     1       6.503   4.657  -5.290  1.00  0.00     0.220 C 
ATOM      5  O   UNL     1       6.636   5.829  -5.649  1.00  0.00    -0.275 OA
ATOM      6  H   UNL     1       6.014   4.079  -7.128  1.00  0.00     0.163 HD
BRANCH   4   7
ATOM      7  C   UNL     1       6.779   4.257  -3.852  1.00  0.00     0.112 C 
BRANCH   7   8
ATOM      8  C   UNL     1       5.891   5.061  -2.879  1.00  0.00     0.081 C 
ATOM      9  N   UNL     1       3.670   4.032  -2.674  1.00  0.00    -0.247 NA
ATOM     10  C   UNL     1       4.902   4.107  -2.278  1.00  0.00     0.112 C 
ATOM     11  C   UNL     1       5.568   3.436  -1.105  1.00  0.00     0.273 C 
ATOM     12  O   UNL     1       5.380   2.294  -0.747  1.00  0.00    -0.267 OA
ATOM     13  N   UNL     1       6.376   4.428  -0.582  1.00  0.00    -0.299 N 
ATOM     14  C   UNL     1       6.620   5.492  -1.564  1.00  0.00     0.131 C 
BRANCH   9  15
ATOM     15  C   UNL     1       2.764   3.113  -2.118  1.00  0.00     0.064 A 
ATOM     16  C   UNL     1       1.096   0.998  -1.228  1.00  0.00     0.041 A 
ATOM     17  C   UNL     1       1.204   1.315  -2.584  1.00  0.00     0.028 A 
ATOM     18  C   UNL     1       1.750   1.820  -0.315  1.00  0.00     0.028 A 
ATOM     19  C   UNL     1       2.003   2.371  -3.013  1.00  0.00     0.030 A 
ATOM     20  C   UNL     1       2.560   2.883  -0.758  1.00  0.00     0.030 A 
BRANCH  16  21
ATOM     21  N   UNL     1       0.340  -0.152  -0.940  1.00  0.00    -0.326 N 
ATOM     22  C   UNL     1       0.516  -0.408   1.539  1.00  0.00     0.114 C 
ATOM     23  C   UNL     1       0.060  -0.857   0.188  1.00  0.00     0.221 C 
ATOM     24  O   UNL     1      -0.569  -1.913   0.056  1.00  0.00    -0.275 OA
ATOM     25  H   UNL     1      -0.085  -0.535  -1.741  1.00  0.00     0.169 HD
ENDBRANCH  16  21
ENDBRANCH   9  15
BRANCH  13  26
ATOM     26  C   UNL     1       6.512   4.505   0.821  1.00  0.00     0.045 A 
ATOM     27  C   UNL     1       7.191   3.499   1.511  1.00  0.00     0.028 A 
ATOM     28  C   UNL     1       5.737   5.409   1.551  1.00  0.00     0.028 A 
ATOM     29  C   UNL     1       7.105   3.405   2.909  1.00  0.00     0.028 A 
ATOM     30  C   UNL     1       5.632   5.303   2.939  1.00  0.00     0.028 A 
ATOM     31  C   UNL     1       6.300   4.289   3.628  1.00  0.00     0.041 A 
BRANCH  31  32
ATOM     32  N   UNL     1       6.038   4.186   5.009  1.00  0.00    -0.326 N 
ATOM     33  C   UNL     1       6.593   3.300   5.911  1.00  0.00     0.221 C 
ATOM     34  H   UNL     1       5.381   4.822   5.374  1.00  0.00     0.169 HD
ATOM     35  C   UNL     1       5.918   3.357   7.260  1.00  0.00     0.114 C 
ATOM     36  O   UNL     1       7.512   2.515   5.700  1.00  0.00    -0.275 OA
ENDBRANCH  31  32
ENDBRANCH  13  26
BRANCH  14  37
ATOM     37  C   UNL     1       6.338   6.919  -1.126  1.00  0.00    -0.024 A 
ATOM     38  C   UNL     1       7.368   7.658  -0.511  1.00  0.00     0.006 A 
ATOM     39  C   UNL     1       5.086   7.534  -1.286  1.00  0.00     0.006 A 
ATOM     40  C   UNL     1       7.155   8.968  -0.078  1.00  0.00     0.000 A 
ATOM     41  C   UNL     1       4.877   8.847  -0.856  1.00  0.00     0.000 A 
ATOM     42  C   UNL     1       5.909   9.563  -0.253  1.00  0.00     0.000 A 
ENDBRANCH  14  37
ENDBRANCH   7   8
ENDBRANCH   4   7
ENDBRANCH   2   3
ENDBRANCH   1   2
BRANCH   1  43
ATOM     43  C   UNL     1       3.407   2.169  -6.630  1.00  0.00     0.118 C 
BRANCH  43  44
ATOM     44  N   UNL     1       3.104   0.915  -7.301  1.00  0.00    -0.352 N 
ATOM     45  C   UNL     1       2.009   0.090  -7.226  1.00  0.00     0.251 C 
ATOM     46  H   UNL     1       3.807   0.604  -7.917  1.00  0.00     0.163 HD
ATOM     47  O   UNL     1       2.112  -1.048  -7.688  1.00  0.00    -0.269 OA
BRANCH  45  48
ATOM     48  C   UNL     1       0.713   0.506  -6.622  1.00  0.00     0.039 A 
ATOM     49  C   UNL     1      -0.044  -0.464  -5.947  1.00  0.00     0.014 A 
ATOM     50  C   UNL     1       0.159   1.773  -6.826  1.00  0.00     0.014 A 
ATOM     51  C   UNL     1      -1.326  -0.166  -5.463  1.00  0.00     0.010 A 
ATOM     52  C   UNL     1      -1.113   2.081  -6.321  1.00  0.00     0.010 A 
ATOM     53  C   UNL     1      -1.874   1.111  -5.648  1.00  0.00    -0.014 A 
BRANCH  53  54
ATOM     54  C   UNL     1      -3.267   1.419  -5.224  1.00  0.00     0.031 A 
ATOM     55  C   UNL     1      -4.360   1.515  -6.251  1.00  0.00     0.074 A 
ATOM     56  C   UNL     1      -3.568   1.638  -3.931  1.00  0.00     0.049 A 
ATOM     57  N   UNL     1      -5.592   1.932  -6.108  1.00  0.00    -0.248 NA
ATOM     58  C   UNL     1      -4.015   1.102  -7.619  1.00  0.00     0.031 C 
ATOM     59  C   UNL     1      -2.619   1.583  -2.824  1.00  0.00     0.029 A 
ATOM     60  N   UNL     1      -4.760   1.962  -3.332  1.00  0.00    -0.354 N 
ATOM     61  C   UNL     1      -6.154   1.892  -7.376  1.00  0.00     0.074 A 
ATOM     62  C   UNL     1      -5.139   1.368  -8.270  1.00  0.00     0.031 C 
ATOM     63  C   UNL     1      -3.261   1.858  -1.677  1.00  0.00     0.029 A 
ATOM     64  C   UNL     1      -4.666   2.131  -1.972  1.00  0.00     0.049 A 
ATOM     65  H   UNL     1      -5.603   2.064  -3.830  1.00  0.00     0.167 HD
ATOM     66  C   UNL     1      -7.392   2.278  -7.769  1.00  0.00     0.037 A 
ATOM     67  C   UNL     1      -5.597   2.481  -1.065  1.00  0.00     0.037 A 
ATOM     68  C   UNL     1      -8.422   2.758  -6.889  1.00  0.00     0.049 A 
ATOM     69  C   UNL     1      -7.003   2.765  -1.501  1.00  0.00     0.074 A 
ATOM     70  C   UNL     1      -9.683   3.236  -7.207  1.00  0.00     0.029 A 
ATOM     71  N   UNL     1      -8.323   2.788  -5.507  1.00  0.00    -0.354 N 
ATOM     72  N   UNL     1      -7.491   2.807  -2.716  1.00  0.00    -0.248 NA
ATOM     73  C   UNL     1      -7.984   3.053  -0.444  1.00  0.00     0.031 C 
ATOM     74  C   UNL     1     -10.354   3.534  -6.011  1.00  0.00     0.029 A 
ATOM     75  C   UNL     1      -9.508   3.243  -4.954  1.00  0.00     0.049 A 
ATOM     76  H   UNL     1      -7.525   2.525  -4.993  1.00  0.00     0.167 HD
ATOM     77  C   UNL     1      -8.831   3.144  -2.574  1.00  0.00     0.074 A 
ATOM     78  C   UNL     1      -9.085   3.272  -1.153  1.00  0.00     0.031 C 
ATOM     79  C   UNL     1      -9.759   3.349  -3.540  1.00  0.00     0.037 A 
BRANCH  66  80
ATOM     80  C   UNL     1      -7.664   2.228  -9.240  1.00  0.00     0.058 A 
ATOM     81  C   UNL     1      -8.150   1.066  -9.855  1.00  0.00     0.135 A 
ATOM     82  C   UNL     1      -7.382   3.340 -10.048  1.00  0.00     0.135 A 
ATOM     83  F   UNL     1      -8.413  -0.027  -9.121  1.00  0.00    -0.206 F 
ATOM     84  C   UNL     1      -8.321   0.996 -11.234  1.00  0.00     0.059 A 
ATOM     85  C   UNL     1      -7.549   3.293 -11.427  1.00  0.00     0.059 A 
ATOM     86  F   UNL     1      -6.903   4.468  -9.502  1.00  0.00    -0.206 F 
ATOM     87  C   UNL     1      -7.999   2.109 -12.013  1.00  0.00     0.060 A 
BRANCH  87  88
ATOM     88  S   UNL     1      -8.147   2.029 -13.810  1.00  0.00     0.124 S 
ATOM     89  O   UNL     1      -6.767   1.756 -14.201  1.00  0.00    -0.237 OA
ATOM     90  O   UNL     1      -9.089   0.934 -14.020  1.00  0.00    -0.237 OA
ATOM     91  O   UNL     1      -8.650   3.356 -14.150  1.00  0.00    -0.744 OA
ENDBRANCH  87  88
ENDBRANCH  66  80
BRANCH  67  92
ATOM     92  C   UNL     1      -5.208   2.597   0.360  1.00  0.00     0.058 A 
ATOM     93  C   UNL     1      -5.311   1.501   1.227  1.00  0.00     0.135 A 
ATOM     94  C   UNL     1      -4.668   3.790   0.859  1.00  0.00     0.135 A 
ATOM     95  F   UNL     1      -5.830   0.345   0.786  1.00  0.00    -0.206 F 
ATOM     96  C   UNL     1      -4.875   1.576   2.546  1.00  0.00     0.059 A 
ATOM     97  C   UNL     1      -4.223   3.888   2.172  1.00  0.00     0.059 A 
ATOM     98  F   UNL     1      -4.548   4.861   0.060  1.00  0.00    -0.206 F 
ATOM     99  C   UNL     1      -4.326   2.773   3.007  1.00  0.00     0.060 A 
BRANCH  99 100
ATOM    100  S   UNL     1      -3.656   2.877   4.682  1.00  0.00     0.124 S 
ATOM    101  O   UNL     1      -4.737   3.553   5.391  1.00  0.00    -0.237 OA
ATOM    102  O   UNL     1      -3.438   1.479   5.040  1.00  0.00    -0.237 OA
ATOM    103  O   UNL     1      -2.438   3.658   4.485  1.00  0.00    -0.744 OA
ENDBRANCH  99 100
ENDBRANCH  67  92
BRANCH  79 104
ATOM    104  C   UNL     1     -11.134   3.735  -3.090  1.00  0.00     0.058 A 
ATOM    105  C   UNL     1     -11.484   5.083  -2.921  1.00  0.00     0.135 A 
ATOM    106  C   UNL     1     -12.112   2.761  -2.840  1.00  0.00     0.135 A 
ATOM    107  F   UNL     1     -10.579   6.049  -3.146  1.00  0.00    -0.206 F 
ATOM    108  C   UNL     1     -12.760   5.455  -2.511  1.00  0.00     0.059 A 
ATOM    109  C   UNL     1     -13.394   3.111  -2.428  1.00  0.00     0.059 A 
ATOM    110  F   UNL     1     -11.819   1.459  -2.982  1.00  0.00    -0.206 F 
ATOM    111  C   UNL     1     -13.707   4.461  -2.257  1.00  0.00     0.060 A 
BRANCH 111 112
ATOM    112  S   UNL     1     -15.372   4.930  -1.739  1.00  0.00     0.124 S 
ATOM    113  O   UNL     1     -15.236   4.934  -0.286  1.00  0.00    -0.237 OA
ATOM    114  O   UNL     1     -15.553   6.239  -2.360  1.00  0.00    -0.237 OA
ATOM    115  O   UNL     1     -16.201   3.864  -2.294  1.00  0.00    -0.744 OA
ENDBRANCH 111 112
ENDBRANCH  79 104
ENDBRANCH  53  54
ENDBRANCH  45  48
ENDBRANCH  43  44
ENDBRANCH   1  43
TORSDOF 19
