REMARK SMILES CCOc1c(Br)cc(CNc2cccc(C(=O)NCCCNC(=O)c3ccc(-c4c5nc(c(-c6c(F)cc(S(=O)(=O)[O-])cc6F)c6ccc([nH]6)c(-c6c(F)cc(S(=O)(=O)[O-])cc6F)c6nc(c(-c7c(F)cc(S(=O)(=O)[O-])cc7F)c7ccc4[nH]7)C=C6)C=C5)cc3)c2C)cc1OC
REMARK SMILES IDX 19 1 18 2 16 3 17 4 15 6 11 7 12 8 91 9 13 10 92 11 14 12
REMARK SMILES IDX 10 13 9 15 8 16 4 17 5 18 94 19 6 20 7 21 93 22 3 23 2 24
REMARK SMILES IDX 1 25 95 26 96 27 20 28 21 29 22 30 23 31 24 33 25 34 26 35
REMARK SMILES IDX 90 36 27 37 89 38 28 39 29 40 30 41 83 42 31 43 88 44 82 45
REMARK SMILES IDX 84 46 32 47 87 48 81 49 80 50 33 52 67 53 46 54 66 55 47 56
REMARK SMILES IDX 50 57 65 58 85 59 48 60 49 61 64 63 86 64 51 65 34 66 35 67
REMARK SMILES IDX 44 68 36 69 37 70 43 71 45 72 38 73 39 74 40 75 41 76 42 77
REMARK SMILES IDX 68 78 69 79 78 80 70 81 71 82 77 83 79 84 72 85 73 86 74 87
REMARK SMILES IDX 75 88 76 89 52 90 53 91 62 92 54 93 55 94 61 95 63 96 56 97
REMARK SMILES IDX 57 98 58 99 59 100 60 101
REMARK H PARENT 18 5 10 14 22 32 84 51 50 62
REMARK Flexibility Score: inf
ROOT
ATOM      1  C   UNL     1      10.820   3.353  -0.467  1.00  0.00     0.118 C 
ENDROOT
BRANCH   1   2
ATOM      2  N   UNL     1       9.791   2.740  -1.303  1.00  0.00    -0.352 N 
ATOM      3  C   UNL     1       8.945   1.662  -1.206  1.00  0.00     0.251 C 
ATOM      4  O   UNL     1       8.054   1.654  -2.058  1.00  0.00    -0.269 OA
ATOM      5  H   UNL     1       9.674   3.222  -2.154  1.00  0.00     0.163 HD
BRANCH   3   6
ATOM      6  C   UNL     1       9.017   0.557  -0.168  1.00  0.00     0.044 A 
ATOM      7  C   UNL     1       8.122  -1.514   0.865  1.00  0.00     0.038 A 
ATOM      8  C   UNL     1       9.056  -1.375   1.897  1.00  0.00     0.026 A 
ATOM      9  C   UNL     1       8.140  -0.578  -0.214  1.00  0.00    -0.015 A 
ATOM     10  C   UNL     1       9.963  -0.331   1.905  1.00  0.00     0.003 A 
ATOM     11  C   UNL     1       7.168  -0.798  -1.356  1.00  0.00     0.047 C 
ATOM     12  C   UNL     1       9.924   0.627   0.897  1.00  0.00     0.014 A 
BRANCH   7  13
ATOM     13  N   UNL     1       7.158  -2.517   0.946  1.00  0.00    -0.381 N 
ATOM     14  H   UNL     1       6.935  -3.029   0.136  1.00  0.00     0.160 HD
BRANCH  13  15
ATOM     15  C   UNL     1       6.473  -2.830   2.187  1.00  0.00     0.149 C 
BRANCH  15  16
ATOM     16  C   UNL     1       5.008  -2.487   2.046  1.00  0.00    -0.024 A 
ATOM     17  C   UNL     1       2.278  -1.832   1.716  1.00  0.00     0.175 A 
ATOM     18  C   UNL     1       3.244  -0.827   1.901  1.00  0.00     0.064 A 
ATOM     19  C   UNL     1       2.674  -3.178   1.774  1.00  0.00     0.162 A 
ATOM     20  Br  UNL     1       2.783   1.014   2.026  1.00  0.00    -0.047 Br
ATOM     21  C   UNL     1       4.597  -1.150   2.038  1.00  0.00     0.025 A 
ATOM     22  C   UNL     1       4.037  -3.487   1.917  1.00  0.00     0.056 A 
BRANCH  17  23
ATOM     23  O   UNL     1       0.968  -1.459   1.544  1.00  0.00    -0.489 OA
BRANCH  23  24
ATOM     24  C   UNL     1       0.559  -1.524   0.169  1.00  0.00     0.226 C 
ATOM     25  C   UNL     1       0.503  -0.141  -0.455  1.00  0.00     0.049 C 
ENDBRANCH  23  24
ENDBRANCH  17  23
BRANCH  19  26
ATOM     26  O   UNL     1       1.894  -4.301   1.687  1.00  0.00    -0.493 OA
ATOM     27  C   UNL     1       0.520  -4.200   2.027  1.00  0.00     0.278 C 
ENDBRANCH  19  26
ENDBRANCH  15  16
ENDBRANCH  13  15
ENDBRANCH   7  13
ENDBRANCH   3   6
ENDBRANCH   1   2
BRANCH   1  28
ATOM     28  C   UNL     1      12.177   2.660  -0.589  1.00  0.00     0.042 C 
BRANCH  28  29
ATOM     29  C   UNL     1      13.135   3.407  -1.507  1.00  0.00     0.118 C 
BRANCH  29  30
ATOM     30  N   UNL     1      14.162   4.165  -0.799  1.00  0.00    -0.352 N 
ATOM     31  C   UNL     1      15.191   4.909  -1.357  1.00  0.00     0.251 C 
ATOM     32  H   UNL     1      14.120   4.145   0.184  1.00  0.00     0.163 HD
ATOM     33  O   UNL     1      16.102   5.379  -0.709  1.00  0.00    -0.269 OA
BRANCH  31  34
ATOM     34  C   UNL     1      15.066   5.191  -2.801  1.00  0.00     0.039 A 
ATOM     35  C   UNL     1      14.649   6.477  -3.163  1.00  0.00     0.014 A 
ATOM     36  C   UNL     1      15.024   4.126  -3.698  1.00  0.00     0.014 A 
ATOM     37  C   UNL     1      14.021   6.662  -4.390  1.00  0.00     0.010 A 
ATOM     38  C   UNL     1      14.323   4.295  -4.876  1.00  0.00     0.010 A 
ATOM     39  C   UNL     1      13.784   5.549  -5.199  1.00  0.00    -0.014 A 
BRANCH  39  40
ATOM     40  C   UNL     1      12.909   5.590  -6.365  1.00  0.00     0.031 A 
ATOM     41  C   UNL     1      13.493   5.581  -7.722  1.00  0.00     0.074 A 
ATOM     42  C   UNL     1      11.568   5.581  -6.201  1.00  0.00     0.049 A 
ATOM     43  N   UNL     1      12.905   6.045  -8.772  1.00  0.00    -0.248 NA
ATOM     44  C   UNL     1      14.832   5.071  -7.994  1.00  0.00     0.031 C 
ATOM     45  C   UNL     1      10.554   5.369  -7.230  1.00  0.00     0.029 A 
ATOM     46  N   UNL     1      10.841   5.971  -5.070  1.00  0.00    -0.354 N 
ATOM     47  C   UNL     1      13.646   5.673  -9.872  1.00  0.00     0.074 A 
ATOM     48  C   UNL     1      14.862   5.111  -9.329  1.00  0.00     0.031 C 
ATOM     49  C   UNL     1       9.389   5.878  -6.801  1.00  0.00     0.029 A 
ATOM     50  C   UNL     1       9.648   6.555  -5.542  1.00  0.00     0.049 A 
ATOM     51  H   UNL     1      11.110   5.861  -4.130  1.00  0.00     0.167 HD
ATOM     52  C   UNL     1      13.094   5.763 -11.117  1.00  0.00     0.037 A 
ATOM     53  C   UNL     1       9.353   7.863  -5.288  1.00  0.00     0.037 A 
ATOM     54  C   UNL     1      11.755   6.347 -11.051  1.00  0.00     0.049 A 
ATOM     55  C   UNL     1       9.233   8.711  -6.536  1.00  0.00     0.074 A 
ATOM     56  C   UNL     1      10.493   5.777 -11.003  1.00  0.00     0.029 A 
ATOM     57  N   UNL     1      11.599   7.681 -10.689  1.00  0.00    -0.354 N 
ATOM     58  N   UNL     1       9.695   8.361  -7.706  1.00  0.00    -0.248 NA
ATOM     59  C   UNL     1       8.585  10.019  -6.568  1.00  0.00     0.031 C 
ATOM     60  C   UNL     1       9.583   6.760 -10.544  1.00  0.00     0.029 A 
ATOM     61  C   UNL     1      10.286   7.934 -10.337  1.00  0.00     0.049 A 
ATOM     62  H   UNL     1      12.321   8.350 -10.684  1.00  0.00     0.167 HD
ATOM     63  C   UNL     1       9.450   9.356  -8.620  1.00  0.00     0.074 A 
ATOM     64  C   UNL     1       8.729  10.361  -7.861  1.00  0.00     0.031 C 
ATOM     65  C   UNL     1       9.864   9.265  -9.920  1.00  0.00     0.037 A 
BRANCH  52  66
ATOM     66  C   UNL     1      13.645   5.039 -12.330  1.00  0.00     0.058 A 
ATOM     67  C   UNL     1      12.780   4.529 -13.324  1.00  0.00     0.135 A 
ATOM     68  C   UNL     1      15.009   4.760 -12.543  1.00  0.00     0.135 A 
ATOM     69  F   UNL     1      11.468   4.800 -13.321  1.00  0.00    -0.206 F 
ATOM     70  C   UNL     1      13.216   3.702 -14.362  1.00  0.00     0.059 A 
ATOM     71  C   UNL     1      15.464   3.888 -13.539  1.00  0.00     0.059 A 
ATOM     72  F   UNL     1      15.961   5.360 -11.815  1.00  0.00    -0.206 F 
ATOM     73  C   UNL     1      14.555   3.351 -14.439  1.00  0.00     0.060 A 
BRANCH  73  74
ATOM     74  S   UNL     1      15.080   2.199 -15.723  1.00  0.00     0.124 S 
ATOM     75  O   UNL     1      14.171   1.074 -15.520  1.00  0.00    -0.237 OA
ATOM     76  O   UNL     1      14.865   2.978 -16.937  1.00  0.00    -0.237 OA
ATOM     77  O   UNL     1      16.476   1.930 -15.389  1.00  0.00    -0.744 OA
ENDBRANCH  73  74
ENDBRANCH  52  66
BRANCH  53  78
ATOM     78  C   UNL     1       9.826   8.322  -3.952  1.00  0.00     0.058 A 
ATOM     79  C   UNL     1       9.230   7.748  -2.810  1.00  0.00     0.135 A 
ATOM     80  C   UNL     1      11.063   8.956  -3.780  1.00  0.00     0.135 A 
ATOM     81  F   UNL     1       8.039   7.136  -2.913  1.00  0.00    -0.206 F 
ATOM     82  C   UNL     1       9.892   7.678  -1.588  1.00  0.00     0.059 A 
ATOM     83  C   UNL     1      11.743   8.905  -2.559  1.00  0.00     0.059 A 
ATOM     84  F   UNL     1      11.683   9.522  -4.826  1.00  0.00    -0.206 F 
ATOM     85  C   UNL     1      11.174   8.212  -1.488  1.00  0.00     0.060 A 
BRANCH  85  86
ATOM     86  S   UNL     1      12.127   7.863   0.011  1.00  0.00     0.124 S 
ATOM     87  O   UNL     1      11.328   8.521   1.038  1.00  0.00    -0.237 OA
ATOM     88  O   UNL     1      12.114   6.401   0.052  1.00  0.00    -0.237 OA
ATOM     89  O   UNL     1      13.424   8.467  -0.268  1.00  0.00    -0.744 OA
ENDBRANCH  85  86
ENDBRANCH  53  78
BRANCH  65  90
ATOM     90  C   UNL     1       9.832  10.367 -10.960  1.00  0.00     0.058 A 
ATOM     91  C   UNL     1       9.903  11.739 -10.665  1.00  0.00     0.135 A 
ATOM     92  C   UNL     1       9.875  10.045 -12.342  1.00  0.00     0.135 A 
ATOM     93  F   UNL     1       9.980  12.179  -9.402  1.00  0.00    -0.206 F 
ATOM     94  C   UNL     1       9.954  12.720 -11.660  1.00  0.00     0.059 A 
ATOM     95  C   UNL     1       9.985  11.003 -13.347  1.00  0.00     0.059 A 
ATOM     96  F   UNL     1       9.829   8.774 -12.768  1.00  0.00    -0.206 F 
ATOM     97  C   UNL     1       9.998  12.343 -12.999  1.00  0.00     0.060 A 
BRANCH  97  98
ATOM     98  S   UNL     1      10.146  13.596 -14.286  1.00  0.00     0.124 S 
ATOM     99  O   UNL     1       8.745  13.852 -14.606  1.00  0.00    -0.237 OA
ATOM    100  O   UNL     1      10.844  14.683 -13.605  1.00  0.00    -0.237 OA
ATOM    101  O   UNL     1      10.919  12.919 -15.322  1.00  0.00    -0.744 OA
ENDBRANCH  97  98
ENDBRANCH  65  90
ENDBRANCH  39  40
ENDBRANCH  31  34
ENDBRANCH  29  30
ENDBRANCH  28  29
ENDBRANCH   1  28
TORSDOF 19
