REMARK SMILES O=C(COc1ccccc1-c1ccccc1)NCCCNC(=O)c1ccc(-c2c3nc(c(-c4c(F)cc(S(=O)(=O)[O-])cc4F)c4ccc([nH]4)c(-c4c(F)cc(S(=O)(=O)[O-])cc4F)c4nc(c(-c5c(F)cc(S(=O)(=O)[O-])cc5F)c5ccc2[nH]5)C=C4)C=C3)cc1
REMARK SMILES IDX 19 1 18 2 17 3 1 4 2 5 3 7 4 8 5 9 6 10 10 11 7 12 9 13 8 14
REMARK SMILES IDX 11 15 12 16 16 17 13 18 15 19 14 20 20 21 21 22 22 23 23 25
REMARK SMILES IDX 24 26 25 27 89 28 26 29 88 30 27 31 28 32 29 33 82 34 30 35
REMARK SMILES IDX 87 36 81 37 83 38 31 39 86 40 80 41 79 42 32 44 66 45 45 46
REMARK SMILES IDX 65 47 46 48 49 49 64 50 84 51 47 52 48 53 63 55 85 56 50 57
REMARK SMILES IDX 33 58 34 59 43 60 35 61 36 62 42 63 44 64 37 65 38 66 39 67
REMARK SMILES IDX 40 68 41 69 67 70 68 71 77 72 69 73 70 74 76 75 78 76 71 77
REMARK SMILES IDX 72 78 73 79 74 80 75 81 51 82 52 83 61 84 53 85 54 86 60 87
REMARK SMILES IDX 62 88 55 89 56 90 57 91 58 92 59 93
REMARK H PARENT 17 6 21 24 83 43 49 54
REMARK Flexibility Score: inf
ROOT
ATOM      1  C   UNL     1       3.613   1.345  -3.214  1.00  0.00     0.042 C 
ENDROOT
BRANCH   1   2
ATOM      2  C   UNL     1       3.429   0.041  -2.473  1.00  0.00     0.117 C 
BRANCH   2   3
ATOM      3  N   UNL     1       3.722   0.043  -1.062  1.00  0.00    -0.353 N 
ATOM      4  O   UNL     1       2.047   1.476  -0.397  1.00  0.00    -0.271 OA
ATOM      5  C   UNL     1       2.821   0.558  -0.146  1.00  0.00     0.257 C 
ATOM      6  H   UNL     1       4.577  -0.328  -0.745  1.00  0.00     0.163 HD
BRANCH   5   7
ATOM      7  C   UNL     1       2.861  -0.146   1.212  1.00  0.00     0.329 C 
BRANCH   7   8
ATOM      8  O   UNL     1       3.572  -1.377   1.153  1.00  0.00    -0.483 OA
BRANCH   8   9
ATOM      9  C   UNL     1       2.935  -2.587   1.207  1.00  0.00     0.127 A 
ATOM     10  C   UNL     1       3.795  -3.569   1.735  1.00  0.00     0.047 A 
ATOM     11  C   UNL     1       1.651  -2.966   0.760  1.00  0.00     0.024 A 
ATOM     12  C   UNL     1       3.413  -4.905   1.835  1.00  0.00     0.004 A 
ATOM     13  C   UNL     1       1.294  -4.332   0.862  1.00  0.00     0.012 A 
ATOM     14  C   UNL     1       2.159  -5.290   1.391  1.00  0.00     0.001 A 
BRANCH  11  15
ATOM     15  C   UNL     1       0.651  -2.093   0.127  1.00  0.00    -0.015 A 
ATOM     16  C   UNL     1      -0.515  -1.706   0.806  1.00  0.00     0.009 A 
ATOM     17  C   UNL     1       0.788  -1.702  -1.207  1.00  0.00     0.009 A 
ATOM     18  C   UNL     1      -1.460  -0.875   0.197  1.00  0.00     0.001 A 
ATOM     19  C   UNL     1      -0.135  -0.839  -1.807  1.00  0.00     0.001 A 
ATOM     20  C   UNL     1      -1.252  -0.414  -1.099  1.00  0.00     0.000 A 
ENDBRANCH  11  15
ENDBRANCH   8   9
ENDBRANCH   7   8
ENDBRANCH   5   7
ENDBRANCH   2   3
ENDBRANCH   1   2
BRANCH   1  21
ATOM     21  C   UNL     1       4.982   1.479  -3.845  1.00  0.00     0.118 C 
BRANCH  21  22
ATOM     22  N   UNL     1       5.309   0.401  -4.784  1.00  0.00    -0.352 N 
ATOM     23  C   UNL     1       5.784   0.475  -6.074  1.00  0.00     0.251 C 
ATOM     24  H   UNL     1       5.168  -0.511  -4.441  1.00  0.00     0.163 HD
ATOM     25  O   UNL     1       5.906  -0.534  -6.752  1.00  0.00    -0.269 OA
BRANCH  23  26
ATOM     26  C   UNL     1       6.110   1.802  -6.626  1.00  0.00     0.039 A 
ATOM     27  C   UNL     1       5.640   2.159  -7.891  1.00  0.00     0.014 A 
ATOM     28  C   UNL     1       6.797   2.719  -5.833  1.00  0.00     0.014 A 
ATOM     29  C   UNL     1       5.786   3.478  -8.322  1.00  0.00     0.010 A 
ATOM     30  C   UNL     1       6.812   4.050  -6.200  1.00  0.00     0.010 A 
ATOM     31  C   UNL     1       6.330   4.441  -7.459  1.00  0.00    -0.014 A 
BRANCH  31  32
ATOM     32  C   UNL     1       6.492   5.862  -7.843  1.00  0.00     0.031 A 
ATOM     33  C   UNL     1       7.874   6.457  -7.801  1.00  0.00     0.074 A 
ATOM     34  C   UNL     1       5.412   6.626  -8.096  1.00  0.00     0.049 A 
ATOM     35  N   UNL     1       8.239   7.709  -7.853  1.00  0.00    -0.248 NA
ATOM     36  C   UNL     1       8.991   5.516  -7.596  1.00  0.00     0.031 C 
ATOM     37  C   UNL     1       4.021   6.166  -8.098  1.00  0.00     0.029 A 
ATOM     38  N   UNL     1       5.317   7.963  -8.381  1.00  0.00    -0.354 N 
ATOM     39  C   UNL     1       9.611   7.706  -7.625  1.00  0.00     0.074 A 
ATOM     40  C   UNL     1      10.000   6.340  -7.368  1.00  0.00     0.031 C 
ATOM     41  C   UNL     1       3.215   7.198  -8.400  1.00  0.00     0.029 A 
ATOM     42  C   UNL     1       4.027   8.399  -8.568  1.00  0.00     0.049 A 
ATOM     43  H   UNL     1       6.100   8.556  -8.446  1.00  0.00     0.167 HD
ATOM     44  C   UNL     1      10.473   8.748  -7.663  1.00  0.00     0.037 A 
ATOM     45  C   UNL     1       3.560   9.632  -8.840  1.00  0.00     0.037 A 
ATOM     46  C   UNL     1      10.077  10.082  -8.015  1.00  0.00     0.049 A 
ATOM     47  C   UNL     1       4.548  10.760  -8.972  1.00  0.00     0.074 A 
ATOM     48  C   UNL     1      10.867  11.205  -8.173  1.00  0.00     0.029 A 
ATOM     49  N   UNL     1       8.771  10.463  -8.296  1.00  0.00    -0.354 N 
ATOM     50  N   UNL     1       5.849  10.739  -8.791  1.00  0.00    -0.248 NA
ATOM     51  C   UNL     1       4.014  12.074  -9.352  1.00  0.00     0.031 C 
ATOM     52  C   UNL     1      10.036  12.270  -8.537  1.00  0.00     0.029 A 
ATOM     53  C   UNL     1       8.734  11.802  -8.637  1.00  0.00     0.049 A 
ATOM     54  H   UNL     1       7.988   9.868  -8.258  1.00  0.00     0.167 HD
ATOM     55  C   UNL     1       6.292  12.027  -9.066  1.00  0.00     0.074 A 
ATOM     56  C   UNL     1       5.121  12.800  -9.430  1.00  0.00     0.031 C 
ATOM     57  C   UNL     1       7.551  12.529  -9.023  1.00  0.00     0.037 A 
BRANCH  44  58
ATOM     58  C   UNL     1      11.916   8.468  -7.346  1.00  0.00     0.058 A 
ATOM     59  C   UNL     1      12.724   7.697  -8.198  1.00  0.00     0.135 A 
ATOM     60  C   UNL     1      12.500   8.970  -6.171  1.00  0.00     0.135 A 
ATOM     61  F   UNL     1      12.213   7.175  -9.325  1.00  0.00    -0.206 F 
ATOM     62  C   UNL     1      14.043   7.396  -7.878  1.00  0.00     0.059 A 
ATOM     63  C   UNL     1      13.829   8.708  -5.847  1.00  0.00     0.059 A 
ATOM     64  F   UNL     1      11.776   9.710  -5.318  1.00  0.00    -0.206 F 
ATOM     65  C   UNL     1      14.586   7.903  -6.697  1.00  0.00     0.060 A 
BRANCH  65  66
ATOM     66  S   UNL     1      16.298   7.500  -6.293  1.00  0.00     0.124 S 
ATOM     67  O   UNL     1      16.172   6.119  -5.837  1.00  0.00    -0.237 OA
ATOM     68  O   UNL     1      16.975   7.684  -7.572  1.00  0.00    -0.237 OA
ATOM     69  O   UNL     1      16.641   8.474  -5.261  1.00  0.00    -0.744 OA
ENDBRANCH  65  66
ENDBRANCH  44  58
BRANCH  45  70
ATOM     70  C   UNL     1       2.105   9.851  -9.055  1.00  0.00     0.058 A 
ATOM     71  C   UNL     1       1.602  10.096 -10.341  1.00  0.00     0.135 A 
ATOM     72  C   UNL     1       1.186   9.794  -7.996  1.00  0.00     0.135 A 
ATOM     73  F   UNL     1       2.440  10.161 -11.387  1.00  0.00    -0.206 F 
ATOM     74  C   UNL     1       0.244  10.296 -10.570  1.00  0.00     0.059 A 
ATOM     75  C   UNL     1      -0.180   9.968  -8.202  1.00  0.00     0.059 A 
ATOM     76  F   UNL     1       1.613   9.541  -6.749  1.00  0.00    -0.206 F 
ATOM     77  C   UNL     1      -0.640  10.229  -9.493  1.00  0.00     0.060 A 
BRANCH  77  78
ATOM     78  S   UNL     1      -2.406  10.443  -9.809  1.00  0.00     0.124 S 
ATOM     79  O   UNL     1      -2.491  11.881 -10.037  1.00  0.00    -0.237 OA
ATOM     80  O   UNL     1      -2.615   9.598 -10.980  1.00  0.00    -0.237 OA
ATOM     81  O   UNL     1      -3.028   9.960  -8.579  1.00  0.00    -0.744 OA
ENDBRANCH  77  78
ENDBRANCH  45  70
BRANCH  57  82
ATOM     82  C   UNL     1       7.736  13.960  -9.429  1.00  0.00     0.058 A 
ATOM     83  C   UNL     1       7.385  15.017  -8.578  1.00  0.00     0.135 A 
ATOM     84  C   UNL     1       8.350  14.271 -10.653  1.00  0.00     0.135 A 
ATOM     85  F   UNL     1       6.791  14.768  -7.400  1.00  0.00    -0.206 F 
ATOM     86  C   UNL     1       7.627  16.339  -8.932  1.00  0.00     0.059 A 
ATOM     87  C   UNL     1       8.623  15.584 -11.017  1.00  0.00     0.059 A 
ATOM     88  F   UNL     1       8.714  13.290 -11.495  1.00  0.00    -0.206 F 
ATOM     89  C   UNL     1       8.250  16.612 -10.152  1.00  0.00     0.060 A 
BRANCH  89  90
ATOM     90  S   UNL     1       8.611  18.329 -10.575  1.00  0.00     0.124 S 
ATOM     91  O   UNL     1       7.291  18.819 -10.959  1.00  0.00    -0.237 OA
ATOM     92  O   UNL     1       9.143  18.856  -9.322  1.00  0.00    -0.237 OA
ATOM     93  O   UNL     1       9.580  18.214 -11.660  1.00  0.00    -0.744 OA
ENDBRANCH  89  90
ENDBRANCH  57  82
ENDBRANCH  31  32
ENDBRANCH  23  26
ENDBRANCH  21  22
ENDBRANCH   1  21
TORSDOF 16
