REMARK SMILES O=C(Cn1c2ccccc2c(=O)c2ccccc21)N[C@@H](Cc1ccccc1)C(=O)NCCCNC(=O)c1ccc(-c2c3nc(c(-c4c(F)cc(S(=O)(=O)[O-])cc4F)c4ccc([nH]4)c(-c4c(F)cc(S(=O)(=O)[O-])cc4F)c4nc(c(-c5c(F)cc(S(=O)(=O)[O-])cc5F)c5ccc2[nH]5)C=C4)C=C3)cc1
REMARK SMILES IDX 32 1 31 2 30 3 28 4 29 5 20 7 19 8 1 9 2 10 3 12 4 13 5 14
REMARK SMILES IDX 18 15 6 16 10 17 13 18 17 19 7 20 9 21 11 22 14 23 16 24
REMARK SMILES IDX 8 25 12 26 15 27 21 28 22 29 23 30 27 31 24 32 26 33 25 34
REMARK SMILES IDX 33 35 34 36 35 37 36 39 37 40 38 41 102 42 39 43 101 44
REMARK SMILES IDX 40 45 41 46 42 47 95 48 43 49 100 50 94 51 96 52 44 53 99 54
REMARK SMILES IDX 93 55 92 56 45 58 79 59 58 60 78 61 59 62 62 63 77 64 97 65
REMARK SMILES IDX 60 66 61 67 76 69 98 70 63 71 46 72 47 73 56 74 48 75 49 76
REMARK SMILES IDX 55 77 57 78 50 79 51 80 52 81 53 82 54 83 80 84 81 85 90 86
REMARK SMILES IDX 82 87 83 88 89 89 91 90 84 91 85 92 86 93 87 94 88 95 64 96
REMARK SMILES IDX 65 97 74 98 66 99 67 100 73 101 75 102 68 103 69 104 70 105
REMARK SMILES IDX 71 106 72 107
REMARK H PARENT 30 6 19 11 34 38 96 57 62 68
REMARK Flexibility Score: inf
ROOT
ATOM      1  C   UNL     1       6.246  -2.853   0.734  1.00  0.00     0.042 C 
ENDROOT
BRANCH   1   2
ATOM      2  C   UNL     1       5.260  -3.300  -0.318  1.00  0.00     0.117 C 
BRANCH   2   3
ATOM      3  N   UNL     1       3.966  -3.719   0.175  1.00  0.00    -0.354 N 
ATOM      4  C   UNL     1       2.724  -3.433  -0.316  1.00  0.00     0.242 C 
ATOM      5  O   UNL     1       1.820  -4.229  -0.037  1.00  0.00    -0.273 OA
ATOM      6  H   UNL     1       3.984  -4.291   0.977  1.00  0.00     0.163 HD
BRANCH   4   7
ATOM      7  C   UNL     1       2.451  -2.227  -1.248  1.00  0.00     0.175 C 
BRANCH   7   8
ATOM      8  N   UNL     1       3.039  -0.975  -0.739  1.00  0.00    -0.342 N 
ATOM      9  O   UNL     1       1.025  -0.088  -0.109  1.00  0.00    -0.273 OA
ATOM     10  C   UNL     1       2.256  -0.030  -0.102  1.00  0.00     0.240 C 
ATOM     11  H   UNL     1       4.003  -0.809  -0.855  1.00  0.00     0.164 HD
BRANCH  10  12
ATOM     12  C   UNL     1       2.982   1.130   0.574  1.00  0.00     0.222 C 
BRANCH  12  13
ATOM     13  N   UNL     1       3.667   0.924   1.885  1.00  0.00    -0.331 N 
ATOM     14  C   UNL     1       4.411   2.067   2.333  1.00  0.00     0.053 A 
ATOM     15  C   UNL     1       3.703  -0.286   2.603  1.00  0.00     0.053 A 
ATOM     16  C   UNL     1       4.201   3.374   1.853  1.00  0.00     0.027 A 
ATOM     17  C   UNL     1       5.383   1.921   3.341  1.00  0.00     0.046 A 
ATOM     18  C   UNL     1       4.732  -0.513   3.543  1.00  0.00     0.046 A 
ATOM     19  C   UNL     1       2.748  -1.305   2.511  1.00  0.00     0.027 A 
ATOM     20  C   UNL     1       4.910   4.471   2.367  1.00  0.00     0.002 A 
ATOM     21  C   UNL     1       6.096   3.014   3.859  1.00  0.00     0.014 A 
ATOM     22  C   UNL     1       5.671   0.577   3.865  1.00  0.00     0.197 A 
ATOM     23  C   UNL     1       4.886  -1.733   4.224  1.00  0.00     0.014 A 
ATOM     24  C   UNL     1       2.888  -2.529   3.188  1.00  0.00     0.002 A 
ATOM     25  C   UNL     1       5.851   4.293   3.374  1.00  0.00     0.001 A 
ATOM     26  O   UNL     1       6.645   0.366   4.579  1.00  0.00    -0.288 OA
ATOM     27  C   UNL     1       3.972  -2.756   4.024  1.00  0.00     0.001 A 
ENDBRANCH  12  13
ENDBRANCH  10  12
ENDBRANCH   7   8
BRANCH   7  28
ATOM     28  C   UNL     1       2.659  -2.509  -2.755  1.00  0.00     0.070 C 
BRANCH  28  29
ATOM     29  C   UNL     1       4.060  -2.814  -3.226  1.00  0.00    -0.045 A 
ATOM     30  C   UNL     1       4.984  -1.779  -3.435  1.00  0.00     0.004 A 
ATOM     31  C   UNL     1       4.485  -4.145  -3.374  1.00  0.00     0.004 A 
ATOM     32  C   UNL     1       6.326  -2.072  -3.688  1.00  0.00     0.000 A 
ATOM     33  C   UNL     1       5.826  -4.434  -3.641  1.00  0.00     0.000 A 
ATOM     34  C   UNL     1       6.750  -3.398  -3.773  1.00  0.00     0.000 A 
ENDBRANCH  28  29
ENDBRANCH   7  28
ENDBRANCH   4   7
ENDBRANCH   2   3
ENDBRANCH   1   2
BRANCH   1  35
ATOM     35  C   UNL     1       6.748  -3.988   1.604  1.00  0.00     0.118 C 
BRANCH  35  36
ATOM     36  N   UNL     1       7.568  -4.953   0.871  1.00  0.00    -0.352 N 
ATOM     37  C   UNL     1       8.923  -5.211   0.908  1.00  0.00     0.251 C 
ATOM     38  H   UNL     1       7.065  -5.517   0.240  1.00  0.00     0.163 HD
ATOM     39  O   UNL     1       9.417  -5.961   0.077  1.00  0.00    -0.269 OA
BRANCH  37  40
ATOM     40  C   UNL     1       9.779  -4.548   1.918  1.00  0.00     0.039 A 
ATOM     41  C   UNL     1       9.314  -4.343   3.212  1.00  0.00     0.014 A 
ATOM     42  C   UNL     1      11.047  -4.082   1.556  1.00  0.00     0.014 A 
ATOM     43  C   UNL     1       9.966  -3.438   4.035  1.00  0.00     0.010 A 
ATOM     44  C   UNL     1      11.780  -3.294   2.452  1.00  0.00     0.010 A 
ATOM     45  C   UNL     1      11.207  -2.894   3.669  1.00  0.00    -0.014 A 
BRANCH  45  46
ATOM     46  C   UNL     1      11.839  -1.887   4.566  1.00  0.00     0.031 A 
ATOM     47  C   UNL     1      12.123  -0.486   4.082  1.00  0.00     0.074 A 
ATOM     48  C   UNL     1      12.052  -2.205   5.860  1.00  0.00     0.049 A 
ATOM     49  N   UNL     1      12.604   0.534   4.748  1.00  0.00    -0.248 NA
ATOM     50  C   UNL     1      11.849  -0.191   2.666  1.00  0.00     0.031 C 
ATOM     51  C   UNL     1      11.808  -3.523   6.452  1.00  0.00     0.029 A 
ATOM     52  N   UNL     1      12.461  -1.439   6.922  1.00  0.00    -0.354 N 
ATOM     53  C   UNL     1      12.709   1.576   3.833  1.00  0.00     0.074 A 
ATOM     54  C   UNL     1      12.284   1.056   2.553  1.00  0.00     0.031 C 
ATOM     55  C   UNL     1      11.968  -3.446   7.780  1.00  0.00     0.029 A 
ATOM     56  C   UNL     1      12.410  -2.100   8.127  1.00  0.00     0.049 A 
ATOM     57  H   UNL     1      12.761  -0.506   6.831  1.00  0.00     0.167 HD
ATOM     58  C   UNL     1      13.102   2.855   4.043  1.00  0.00     0.037 A 
ATOM     59  C   UNL     1      12.691  -1.679   9.375  1.00  0.00     0.037 A 
ATOM     60  C   UNL     1      13.475   3.382   5.330  1.00  0.00     0.049 A 
ATOM     61  C   UNL     1      13.161  -0.269   9.578  1.00  0.00     0.074 A 
ATOM     62  C   UNL     1      13.860   4.672   5.652  1.00  0.00     0.029 A 
ATOM     63  N   UNL     1      13.501   2.651   6.508  1.00  0.00    -0.354 N 
ATOM     64  N   UNL     1      13.264   0.697   8.697  1.00  0.00    -0.248 NA
ATOM     65  C   UNL     1      13.585   0.102  10.935  1.00  0.00     0.031 C 
ATOM     66  C   UNL     1      14.158   4.710   7.017  1.00  0.00     0.029 A 
ATOM     67  C   UNL     1      13.925   3.453   7.554  1.00  0.00     0.049 A 
ATOM     68  H   UNL     1      13.254   1.701   6.589  1.00  0.00     0.167 HD
ATOM     69  C   UNL     1      13.775   1.787   9.389  1.00  0.00     0.074 A 
ATOM     70  C   UNL     1      13.934   1.371  10.768  1.00  0.00     0.031 C 
ATOM     71  C   UNL     1      14.094   3.017   8.918  1.00  0.00     0.037 A 
BRANCH  58  72
ATOM     72  C   UNL     1      13.158   3.774   2.853  1.00  0.00     0.058 A 
ATOM     73  C   UNL     1      11.993   4.264   2.242  1.00  0.00     0.135 A 
ATOM     74  C   UNL     1      14.394   4.192   2.332  1.00  0.00     0.135 A 
ATOM     75  F   UNL     1      10.784   3.888   2.690  1.00  0.00    -0.206 F 
ATOM     76  C   UNL     1      12.050   5.106   1.136  1.00  0.00     0.059 A 
ATOM     77  C   UNL     1      14.476   5.055   1.242  1.00  0.00     0.059 A 
ATOM     78  F   UNL     1      15.540   3.758   2.880  1.00  0.00    -0.206 F 
ATOM     79  C   UNL     1      13.297   5.492   0.640  1.00  0.00     0.060 A 
BRANCH  79  80
ATOM     80  S   UNL     1      13.350   6.570  -0.807  1.00  0.00     0.124 S 
ATOM     81  O   UNL     1      12.933   5.656  -1.866  1.00  0.00    -0.237 OA
ATOM     82  O   UNL     1      12.389   7.611  -0.457  1.00  0.00    -0.237 OA
ATOM     83  O   UNL     1      14.744   7.000  -0.863  1.00  0.00    -0.744 OA
ENDBRANCH  79  80
ENDBRANCH  58  72
BRANCH  59  84
ATOM     84  C   UNL     1      12.536  -2.620  10.515  1.00  0.00     0.058 A 
ATOM     85  C   UNL     1      11.495  -2.463  11.442  1.00  0.00     0.135 A 
ATOM     86  C   UNL     1      13.378  -3.734  10.658  1.00  0.00     0.135 A 
ATOM     87  F   UNL     1      10.671  -1.409  11.354  1.00  0.00    -0.206 F 
ATOM     88  C   UNL     1      11.285  -3.388  12.461  1.00  0.00     0.059 A 
ATOM     89  C   UNL     1      13.173  -4.684  11.652  1.00  0.00     0.059 A 
ATOM     90  F   UNL     1      14.381  -3.934   9.788  1.00  0.00    -0.206 F 
ATOM     91  C   UNL     1      12.122  -4.502  12.550  1.00  0.00     0.060 A 
BRANCH  91  92
ATOM     92  S   UNL     1      11.781  -5.743  13.817  1.00  0.00     0.124 S 
ATOM     93  O   UNL     1      12.189  -5.045  15.030  1.00  0.00    -0.237 OA
ATOM     94  O   UNL     1      10.346  -5.959  13.655  1.00  0.00    -0.237 OA
ATOM     95  O   UNL     1      12.624  -6.868  13.421  1.00  0.00    -0.744 OA
ENDBRANCH  91  92
ENDBRANCH  59  84
BRANCH  71  96
ATOM     96  C   UNL     1      14.681   4.001   9.887  1.00  0.00     0.058 A 
ATOM     97  C   UNL     1      16.024   3.907  10.283  1.00  0.00     0.135 A 
ATOM     98  C   UNL     1      13.935   5.101  10.337  1.00  0.00     0.135 A 
ATOM     99  F   UNL     1      16.775   2.867   9.888  1.00  0.00    -0.206 F 
ATOM    100  C   UNL     1      16.612   4.878  11.085  1.00  0.00     0.059 A 
ATOM    101  C   UNL     1      14.508   6.095  11.124  1.00  0.00     0.059 A 
ATOM    102  F   UNL     1      12.648   5.237   9.980  1.00  0.00    -0.206 F 
ATOM    103  C   UNL     1      15.849   5.976  11.490  1.00  0.00     0.060 A 
BRANCH 103 104
ATOM    104  S   UNL     1      16.653   7.271  12.458  1.00  0.00     0.124 S 
ATOM    105  O   UNL     1      16.847   6.604  13.741  1.00  0.00    -0.237 OA
ATOM    106  O   UNL     1      17.865   7.527  11.687  1.00  0.00    -0.237 OA
ATOM    107  O   UNL     1      15.674   8.354  12.456  1.00  0.00    -0.744 OA
ENDBRANCH 103 104
ENDBRANCH  71  96
ENDBRANCH  45  46
ENDBRANCH  37  40
ENDBRANCH  35  36
ENDBRANCH   1  35
TORSDOF 18
