REMARK SMILES CCN(CC)c1ncc(NC(=O)c2ccc(C)cc2)cc1C(=O)NCCCNC(=O)c1ccc(-c2c3nc(c(-c4c(F)cc(S(=O)(=O)[O-])cc4F)c4ccc([nH]4)c(-c4c(F)cc(S(=O)(=O)[O-])cc4F)c4nc(c(-c5c(F)cc(S(=O)(=O)[O-])cc5F)c5ccc2[nH]5)C=C4)C=C3)cc1
REMARK SMILES IDX 26 1 25 2 24 3 22 4 23 5 21 7 6 8 7 9 8 10 20 11 9 12 3 13
REMARK SMILES IDX 2 14 1 15 4 16 5 17 10 18 11 19 12 21 13 22 14 23 19 24
REMARK SMILES IDX 15 25 18 26 16 27 17 28 27 29 28 30 29 31 30 33 31 34 32 35
REMARK SMILES IDX 96 36 33 37 95 38 34 39 35 40 36 41 89 42 37 43 94 44 88 45
REMARK SMILES IDX 90 46 38 47 93 48 87 49 86 50 39 52 73 53 52 54 72 55 53 56
REMARK SMILES IDX 56 57 71 58 91 59 54 60 55 61 70 63 92 64 57 65 40 66 41 67
REMARK SMILES IDX 50 68 42 69 43 70 49 71 51 72 44 73 45 74 46 75 47 76 48 77
REMARK SMILES IDX 74 78 75 79 84 80 76 81 77 82 83 83 85 84 78 85 79 86 80 87
REMARK SMILES IDX 81 88 82 89 58 90 59 91 68 92 60 93 61 94 67 95 69 96 62 97
REMARK SMILES IDX 63 98 64 99 65 100 66 101
REMARK H PARENT 24 6 10 20 28 32 90 51 56 62
REMARK Flexibility Score: inf
ROOT
ATOM      1  C   UNL     1       5.873  -1.128   0.743  1.00  0.00     0.042 C 
ENDROOT
BRANCH   1   2
ATOM      2  C   UNL     1       5.093  -2.372   0.331  1.00  0.00     0.118 C 
BRANCH   2   3
ATOM      3  N   UNL     1       3.660  -2.142   0.170  1.00  0.00    -0.352 N 
ATOM      4  C   UNL     1       2.841  -1.667  -0.833  1.00  0.00     0.255 C 
ATOM      5  O   UNL     1       1.661  -2.006  -0.729  1.00  0.00    -0.269 OA
ATOM      6  H   UNL     1       3.152  -2.386   0.978  1.00  0.00     0.163 HD
BRANCH   4   7
ATOM      7  C   UNL     1       3.279  -0.821  -1.997  1.00  0.00     0.084 A 
ATOM      8  C   UNL     1       2.339  -0.117  -2.786  1.00  0.00     0.141 A 
ATOM      9  N   UNL     1       2.711   0.507  -3.937  1.00  0.00    -0.236 NA
ATOM     10  C   UNL     1       4.008   0.507  -4.304  1.00  0.00     0.139 A 
ATOM     11  C   UNL     1       4.622  -0.749  -2.405  1.00  0.00     0.045 A 
ATOM     12  C   UNL     1       5.016  -0.042  -3.543  1.00  0.00     0.060 A 
BRANCH   8  13
ATOM     13  N   UNL     1       1.002   0.046  -2.462  1.00  0.00    -0.357 N 
BRANCH  13  14
ATOM     14  C   UNL     1       0.647   1.164  -1.589  1.00  0.00     0.114 C 
ATOM     15  C   UNL     1       0.535   0.749  -0.132  1.00  0.00     0.027 C 
ENDBRANCH  13  14
BRANCH  13  16
ATOM     16  C   UNL     1       0.011  -0.422  -3.430  1.00  0.00     0.114 C 
ATOM     17  C   UNL     1      -0.234   0.552  -4.580  1.00  0.00     0.027 C 
ENDBRANCH  13  16
ENDBRANCH   8  13
BRANCH  12  18
ATOM     18  N   UNL     1       6.390   0.001  -3.844  1.00  0.00    -0.321 N 
ATOM     19  C   UNL     1       7.126   0.736  -4.745  1.00  0.00     0.255 C 
ATOM     20  H   UNL     1       6.932  -0.616  -3.301  1.00  0.00     0.170 HD
ATOM     21  O   UNL     1       8.277   0.383  -5.005  1.00  0.00    -0.269 OA
BRANCH  19  22
ATOM     22  C   UNL     1       6.619   1.972  -5.381  1.00  0.00     0.040 A 
ATOM     23  C   UNL     1       6.928   2.196  -6.728  1.00  0.00     0.014 A 
ATOM     24  C   UNL     1       5.922   2.947  -4.660  1.00  0.00     0.014 A 
ATOM     25  C   UNL     1       6.481   3.353  -7.368  1.00  0.00     0.004 A 
ATOM     26  C   UNL     1       5.457   4.095  -5.309  1.00  0.00     0.004 A 
ATOM     27  C   UNL     1       5.717   4.298  -6.670  1.00  0.00    -0.051 A 
ATOM     28  C   UNL     1       5.240   5.539  -7.364  1.00  0.00     0.044 C 
ENDBRANCH  19  22
ENDBRANCH  12  18
ENDBRANCH   4   7
ENDBRANCH   2   3
ENDBRANCH   1   2
BRANCH   1  29
ATOM     29  C   UNL     1       6.114  -1.065   2.246  1.00  0.00     0.118 C 
BRANCH  29  30
ATOM     30  N   UNL     1       7.405  -1.606   2.659  1.00  0.00    -0.352 N 
ATOM     31  C   UNL     1       7.939  -1.636   3.938  1.00  0.00     0.251 C 
ATOM     32  H   UNL     1       7.961  -1.996   1.946  1.00  0.00     0.163 HD
ATOM     33  O   UNL     1       9.102  -1.915   4.153  1.00  0.00    -0.269 OA
BRANCH  31  34
ATOM     34  C   UNL     1       6.993  -1.413   5.052  1.00  0.00     0.039 A 
ATOM     35  C   UNL     1       6.653  -2.521   5.836  1.00  0.00     0.014 A 
ATOM     36  C   UNL     1       6.258  -0.233   5.113  1.00  0.00     0.014 A 
ATOM     37  C   UNL     1       5.459  -2.509   6.554  1.00  0.00     0.010 A 
ATOM     38  C   UNL     1       5.034  -0.255   5.756  1.00  0.00     0.010 A 
ATOM     39  C   UNL     1       4.608  -1.408   6.436  1.00  0.00    -0.014 A 
BRANCH  39  40
ATOM     40  C   UNL     1       3.222  -1.409   6.902  1.00  0.00     0.031 A 
ATOM     41  C   UNL     1       2.826  -0.586   8.080  1.00  0.00     0.074 A 
ATOM     42  C   UNL     1       2.267  -2.082   6.216  1.00  0.00     0.049 A 
ATOM     43  N   UNL     1       1.794  -0.817   8.826  1.00  0.00    -0.248 NA
ATOM     44  C   UNL     1       3.597   0.569   8.528  1.00  0.00     0.031 C 
ATOM     45  C   UNL     1       0.823  -1.925   6.383  1.00  0.00     0.029 A 
ATOM     46  N   UNL     1       2.372  -3.167   5.338  1.00  0.00    -0.354 N 
ATOM     47  C   UNL     1       1.594   0.288   9.628  1.00  0.00     0.074 A 
ATOM     48  C   UNL     1       2.782   1.091   9.450  1.00  0.00     0.031 C 
ATOM     49  C   UNL     1       0.212  -3.024   5.917  1.00  0.00     0.029 A 
ATOM     50  C   UNL     1       1.254  -3.981   5.590  1.00  0.00     0.049 A 
ATOM     51  H   UNL     1       3.084  -3.327   4.677  1.00  0.00     0.167 HD
ATOM     52  C   UNL     1       0.387   0.479  10.242  1.00  0.00     0.037 A 
ATOM     53  C   UNL     1       1.289  -5.270   6.043  1.00  0.00     0.037 A 
ATOM     54  C   UNL     1      -0.531  -0.624   9.965  1.00  0.00     0.049 A 
ATOM     55  C   UNL     1       0.490  -5.492   7.313  1.00  0.00     0.074 A 
ATOM     56  C   UNL     1      -1.555  -0.769   9.041  1.00  0.00     0.029 A 
ATOM     57  N   UNL     1      -0.290  -1.890  10.486  1.00  0.00    -0.354 N 
ATOM     58  N   UNL     1       0.070  -4.525   8.079  1.00  0.00    -0.248 NA
ATOM     59  C   UNL     1       0.147  -6.808   7.851  1.00  0.00     0.031 C 
ATOM     60  C   UNL     1      -1.899  -2.139   8.975  1.00  0.00     0.029 A 
ATOM     61  C   UNL     1      -1.090  -2.829   9.861  1.00  0.00     0.049 A 
ATOM     62  H   UNL     1       0.359  -2.091  11.199  1.00  0.00     0.167 HD
ATOM     63  C   UNL     1      -0.535  -5.043   9.194  1.00  0.00     0.074 A 
ATOM     64  C   UNL     1      -0.489  -6.478   8.991  1.00  0.00     0.031 C 
ATOM     65  C   UNL     1      -1.003  -4.242  10.196  1.00  0.00     0.037 A 
BRANCH  52  66
ATOM     66  C   UNL     1      -0.069   1.815  10.815  1.00  0.00     0.058 A 
ATOM     67  C   UNL     1      -1.431   2.193  10.785  1.00  0.00     0.135 A 
ATOM     68  C   UNL     1       0.791   2.794  11.349  1.00  0.00     0.135 A 
ATOM     69  F   UNL     1      -2.396   1.330  10.439  1.00  0.00    -0.206 F 
ATOM     70  C   UNL     1      -1.876   3.478  11.103  1.00  0.00     0.059 A 
ATOM     71  C   UNL     1       0.381   4.105  11.622  1.00  0.00     0.059 A 
ATOM     72  F   UNL     1       2.058   2.501  11.673  1.00  0.00    -0.206 F 
ATOM     73  C   UNL     1      -0.955   4.446  11.474  1.00  0.00     0.060 A 
BRANCH  73  74
ATOM     74  S   UNL     1      -1.531   6.130  11.756  1.00  0.00     0.124 S 
ATOM     75  O   UNL     1      -2.242   6.425  10.515  1.00  0.00    -0.237 OA
ATOM     76  O   UNL     1      -2.364   5.973  12.943  1.00  0.00    -0.237 OA
ATOM     77  O   UNL     1      -0.295   6.883  11.952  1.00  0.00    -0.744 OA
ENDBRANCH  73  74
ENDBRANCH  52  66
BRANCH  53  78
ATOM     78  C   UNL     1       2.512  -6.025   5.677  1.00  0.00     0.058 A 
ATOM     79  C   UNL     1       2.682  -6.384   4.329  1.00  0.00     0.135 A 
ATOM     80  C   UNL     1       3.648  -5.999   6.498  1.00  0.00     0.135 A 
ATOM     81  F   UNL     1       1.617  -6.466   3.516  1.00  0.00    -0.206 F 
ATOM     82  C   UNL     1       3.946  -6.518   3.770  1.00  0.00     0.059 A 
ATOM     83  C   UNL     1       4.926  -6.136   5.960  1.00  0.00     0.059 A 
ATOM     84  F   UNL     1       3.537  -5.680   7.795  1.00  0.00    -0.206 F 
ATOM     85  C   UNL     1       5.061  -6.313   4.581  1.00  0.00     0.060 A 
BRANCH  85  86
ATOM     86  S   UNL     1       6.657  -6.070   3.767  1.00  0.00     0.124 S 
ATOM     87  O   UNL     1       6.809  -7.309   3.014  1.00  0.00    -0.237 OA
ATOM     88  O   UNL     1       6.393  -4.872   2.971  1.00  0.00    -0.237 OA
ATOM     89  O   UNL     1       7.574  -5.889   4.885  1.00  0.00    -0.744 OA
ENDBRANCH  85  86
ENDBRANCH  53  78
BRANCH  65  90
ATOM     90  C   UNL     1      -1.515  -4.716  11.534  1.00  0.00     0.058 A 
ATOM     91  C   UNL     1      -1.022  -5.849  12.202  1.00  0.00     0.135 A 
ATOM     92  C   UNL     1      -2.459  -3.944  12.253  1.00  0.00     0.135 A 
ATOM     93  F   UNL     1      -0.042  -6.596  11.672  1.00  0.00    -0.206 F 
ATOM     94  C   UNL     1      -1.484  -6.236  13.462  1.00  0.00     0.059 A 
ATOM     95  C   UNL     1      -2.898  -4.284  13.531  1.00  0.00     0.059 A 
ATOM     96  F   UNL     1      -2.982  -2.823  11.735  1.00  0.00    -0.206 F 
ATOM     97  C   UNL     1      -2.427  -5.450  14.118  1.00  0.00     0.060 A 
BRANCH  97  98
ATOM     98  S   UNL     1      -3.002  -5.913  15.763  1.00  0.00     0.124 S 
ATOM     99  O   UNL     1      -4.202  -6.681  15.446  1.00  0.00    -0.237 OA
ATOM    100  O   UNL     1      -1.884  -6.686  16.296  1.00  0.00    -0.237 OA
ATOM    101  O   UNL     1      -3.226  -4.624  16.410  1.00  0.00    -0.744 OA
ENDBRANCH  97  98
ENDBRANCH  65  90
ENDBRANCH  39  40
ENDBRANCH  31  34
ENDBRANCH  29  30
ENDBRANCH   1  29
TORSDOF 18
