REMARK SMILES COc1cccc(C(=O)Nc2ccc(NC(=O)[C@@H]3[C@@H](C(=O)NCCCNC(=O)c4ccc(-c5c6nc(c(-c7c(F)cc(S(=O)(=O)[O-])cc7F)c7ccc([nH]7)c(-c7c(F)cc(S(=O)(=O)[O-])cc7F)c7nc(c(-c8c(F)cc(S(=O)(=O)[O-])cc8F)c8ccc5[nH]8)C=C7)C=C6)cc4)[C@@H]4C=C[C@H]3C4)cc2)c1
REMARK SMILES IDX 23 1 22 2 20 3 21 4 19 6 18 7 98 8 95 9 97 10 99 11 96 12
REMARK SMILES IDX 16 13 15 14 17 16 14 17 11 18 12 19 101 20 13 21 100 22
REMARK SMILES IDX 10 23 8 24 9 25 7 27 3 28 4 29 102 30 5 31 6 32 2 33 1 34
REMARK SMILES IDX 24 35 25 36 26 37 27 38 28 40 29 41 30 42 94 43 31 44 93 45
REMARK SMILES IDX 32 46 33 47 34 48 87 49 35 50 92 51 86 52 88 53 36 54 91 55
REMARK SMILES IDX 85 56 84 57 37 59 71 60 50 61 70 62 51 63 54 64 69 65 89 66
REMARK SMILES IDX 52 67 53 68 68 70 90 71 55 72 38 73 39 74 48 75 40 76 41 77
REMARK SMILES IDX 47 78 49 79 42 80 43 81 44 82 45 83 46 84 72 85 73 86 82 87
REMARK SMILES IDX 74 88 75 89 81 90 83 91 76 92 77 93 78 94 79 95 80 96 56 97
REMARK SMILES IDX 57 98 66 99 58 100 59 101 65 102 67 103 60 104 61 105 62 106
REMARK SMILES IDX 63 107 64 108
REMARK H PARENT 22 5 15 15 10 26 26 39 88 58 54 69
REMARK Flexibility Score: inf
ROOT
ATOM      1  C   UNL     1       7.728   4.717  -1.414  1.00  0.00     0.117 C 
ENDROOT
BRANCH   1   2
ATOM      2  N   UNL     1       6.549   4.235  -2.101  1.00  0.00    -0.356 N 
ATOM      3  C   UNL     1       5.866   3.073  -2.066  1.00  0.00     0.224 C 
ATOM      4  O   UNL     1       4.965   2.963  -2.910  1.00  0.00    -0.275 OA
ATOM      5  H   UNL     1       6.166   4.893  -2.725  1.00  0.00     0.163 HD
BRANCH   3   6
ATOM      6  C   UNL     1       6.090   1.923  -1.091  1.00  0.00     0.098 C 
ATOM      7  C   UNL     1       6.116   2.250   0.415  1.00  0.00     0.099 C 
ATOM      8  C   UNL     1       7.347   1.423   0.910  1.00  0.00     0.025 C 
ATOM      9  C   UNL     1       7.333   1.024  -1.297  1.00  0.00     0.025 C 
ATOM     10  C   UNL     1       7.103  -0.051   0.739  1.00  0.00    -0.027 C 
ATOM     11  C   UNL     1       8.325   1.553  -0.267  1.00  0.00     0.017 C 
ATOM     12  C   UNL     1       7.080  -0.297  -0.582  1.00  0.00    -0.027 C 
BRANCH   7  13
ATOM     13  C   UNL     1       4.870   2.134   1.318  1.00  0.00     0.228 C 
ATOM     14  N   UNL     1       4.111   1.024   1.542  1.00  0.00    -0.326 N 
ATOM     15  H   UNL     1       3.566   1.070   2.360  1.00  0.00     0.169 HD
ATOM     16  O   UNL     1       4.608   3.102   2.053  1.00  0.00    -0.274 OA
BRANCH  14  17
ATOM     17  C   UNL     1       3.962  -0.166   0.830  1.00  0.00     0.041 A 
ATOM     18  C   UNL     1       3.993  -2.558  -0.584  1.00  0.00     0.041 A 
ATOM     19  C   UNL     1       3.858  -1.351  -1.263  1.00  0.00     0.028 A 
ATOM     20  C   UNL     1       4.046  -2.585   0.808  1.00  0.00     0.028 A 
ATOM     21  C   UNL     1       3.737  -0.171  -0.540  1.00  0.00     0.028 A 
ATOM     22  C   UNL     1       4.016  -1.380   1.520  1.00  0.00     0.028 A 
BRANCH  18  23
ATOM     23  N   UNL     1       4.062  -3.734  -1.327  1.00  0.00    -0.322 N 
ATOM     24  C   UNL     1       3.021  -4.409  -1.930  1.00  0.00     0.255 C 
ATOM     25  O   UNL     1       3.271  -5.302  -2.739  1.00  0.00    -0.269 OA
ATOM     26  H   UNL     1       4.958  -4.129  -1.434  1.00  0.00     0.170 HD
BRANCH  24  27
ATOM     27  C   UNL     1       1.605  -4.174  -1.525  1.00  0.00     0.043 A 
ATOM     28  C   UNL     1      -0.234  -2.763  -0.788  1.00  0.00     0.119 A 
ATOM     29  C   UNL     1      -1.014  -3.901  -0.592  1.00  0.00     0.046 A 
ATOM     30  C   UNL     1       1.048  -2.908  -1.312  1.00  0.00     0.060 A 
ATOM     31  C   UNL     1      -0.510  -5.167  -0.894  1.00  0.00     0.005 A 
ATOM     32  C   UNL     1       0.801  -5.304  -1.349  1.00  0.00     0.014 A 
BRANCH  28  33
ATOM     33  O   UNL     1      -0.823  -1.575  -0.449  1.00  0.00    -0.497 OA
ATOM     34  C   UNL     1       0.040  -0.443  -0.344  1.00  0.00     0.278 C 
ENDBRANCH  28  33
ENDBRANCH  24  27
ENDBRANCH  18  23
ENDBRANCH  14  17
ENDBRANCH   7  13
ENDBRANCH   3   6
ENDBRANCH   1   2
BRANCH   1  35
ATOM     35  C   UNL     1       8.986   4.369  -2.198  1.00  0.00     0.042 C 
BRANCH  35  36
ATOM     36  C   UNL     1       9.199   5.311  -3.371  1.00  0.00     0.118 C 
BRANCH  36  37
ATOM     37  N   UNL     1       9.574   6.640  -2.911  1.00  0.00    -0.352 N 
ATOM     38  C   UNL     1      10.810   7.235  -2.859  1.00  0.00     0.251 C 
ATOM     39  H   UNL     1       8.829   7.197  -2.589  1.00  0.00     0.163 HD
ATOM     40  O   UNL     1      10.977   8.203  -2.124  1.00  0.00    -0.269 OA
BRANCH  38  41
ATOM     41  C   UNL     1      11.926   6.718  -3.682  1.00  0.00     0.039 A 
ATOM     42  C   UNL     1      13.231   6.804  -3.192  1.00  0.00     0.014 A 
ATOM     43  C   UNL     1      11.696   6.206  -4.961  1.00  0.00     0.014 A 
ATOM     44  C   UNL     1      14.294   6.351  -3.975  1.00  0.00     0.010 A 
ATOM     45  C   UNL     1      12.738   5.645  -5.687  1.00  0.00     0.010 A 
ATOM     46  C   UNL     1      14.054   5.750  -5.222  1.00  0.00    -0.014 A 
BRANCH  46  47
ATOM     47  C   UNL     1      15.171   5.285  -6.081  1.00  0.00     0.031 A 
ATOM     48  C   UNL     1      15.378   5.897  -7.444  1.00  0.00     0.074 A 
ATOM     49  C   UNL     1      15.970   4.288  -5.652  1.00  0.00     0.049 A 
ATOM     50  N   UNL     1      16.279   5.614  -8.348  1.00  0.00    -0.248 NA
ATOM     51  C   UNL     1      14.424   6.939  -7.862  1.00  0.00     0.031 C 
ATOM     52  C   UNL     1      15.820   3.571  -4.383  1.00  0.00     0.029 A 
ATOM     53  N   UNL     1      17.067   3.707  -6.233  1.00  0.00    -0.354 N 
ATOM     54  C   UNL     1      15.988   6.424  -9.441  1.00  0.00     0.074 A 
ATOM     55  C   UNL     1      14.787   7.158  -9.116  1.00  0.00     0.031 C 
ATOM     56  C   UNL     1      16.814   2.676  -4.263  1.00  0.00     0.029 A 
ATOM     57  C   UNL     1      17.651   2.734  -5.458  1.00  0.00     0.049 A 
ATOM     58  H   UNL     1      17.404   3.963  -7.122  1.00  0.00     0.167 HD
ATOM     59  C   UNL     1      16.679   6.571 -10.596  1.00  0.00     0.037 A 
ATOM     60  C   UNL     1      18.744   1.981  -5.683  1.00  0.00     0.037 A 
ATOM     61  C   UNL     1      17.900   5.869 -10.889  1.00  0.00     0.049 A 
ATOM     62  C   UNL     1      19.522   2.194  -6.952  1.00  0.00     0.074 A 
ATOM     63  C   UNL     1      18.720   5.989 -11.997  1.00  0.00     0.029 A 
ATOM     64  N   UNL     1      18.482   4.920 -10.061  1.00  0.00    -0.354 N 
ATOM     65  N   UNL     1      19.271   3.016  -7.944  1.00  0.00    -0.248 NA
ATOM     66  C   UNL     1      20.739   1.392  -7.126  1.00  0.00     0.031 C 
ATOM     67  C   UNL     1      19.778   5.085 -11.856  1.00  0.00     0.029 A 
ATOM     68  C   UNL     1      19.643   4.436 -10.639  1.00  0.00     0.049 A 
ATOM     69  H   UNL     1      18.122   4.632  -9.191  1.00  0.00     0.167 HD
ATOM     70  C   UNL     1      20.313   2.847  -8.850  1.00  0.00     0.074 A 
ATOM     71  C   UNL     1      21.204   1.858  -8.277  1.00  0.00     0.031 C 
ATOM     72  C   UNL     1      20.515   3.453 -10.046  1.00  0.00     0.037 A 
BRANCH  59  73
ATOM     73  C   UNL     1      16.139   7.539 -11.615  1.00  0.00     0.058 A 
ATOM     74  C   UNL     1      16.145   8.926 -11.391  1.00  0.00     0.135 A 
ATOM     75  C   UNL     1      15.628   7.079 -12.839  1.00  0.00     0.135 A 
ATOM     76  F   UNL     1      16.604   9.422 -10.231  1.00  0.00    -0.206 F 
ATOM     77  C   UNL     1      15.633   9.818 -12.328  1.00  0.00     0.059 A 
ATOM     78  C   UNL     1      15.139   7.955 -13.804  1.00  0.00     0.059 A 
ATOM     79  F   UNL     1      15.595   5.764 -13.107  1.00  0.00    -0.206 F 
ATOM     80  C   UNL     1      15.131   9.323 -13.532  1.00  0.00     0.060 A 
BRANCH  80  81
ATOM     81  S   UNL     1      14.476  10.495 -14.739  1.00  0.00     0.124 S 
ATOM     82  O   UNL     1      13.211  10.875 -14.117  1.00  0.00    -0.237 OA
ATOM     83  O   UNL     1      15.506  11.528 -14.763  1.00  0.00    -0.237 OA
ATOM     84  O   UNL     1      14.362   9.699 -15.958  1.00  0.00    -0.744 OA
ENDBRANCH  80  81
ENDBRANCH  59  73
BRANCH  60  85
ATOM     85  C   UNL     1      19.189   0.995  -4.662  1.00  0.00     0.058 A 
ATOM     86  C   UNL     1      20.348   1.217  -3.903  1.00  0.00     0.135 A 
ATOM     87  C   UNL     1      18.456  -0.173  -4.408  1.00  0.00     0.135 A 
ATOM     88  F   UNL     1      21.084   2.320  -4.109  1.00  0.00    -0.206 F 
ATOM     89  C   UNL     1      20.775   0.307  -2.941  1.00  0.00     0.059 A 
ATOM     90  C   UNL     1      18.848  -1.086  -3.434  1.00  0.00     0.059 A 
ATOM     91  F   UNL     1      17.327  -0.421  -5.091  1.00  0.00    -0.206 F 
ATOM     92  C   UNL     1      20.016  -0.842  -2.713  1.00  0.00     0.060 A 
BRANCH  92  93
ATOM     93  S   UNL     1      20.552  -1.993  -1.427  1.00  0.00     0.124 S 
ATOM     94  O   UNL     1      21.695  -2.634  -2.065  1.00  0.00    -0.237 OA
ATOM     95  O   UNL     1      20.858  -1.094  -0.319  1.00  0.00    -0.237 OA
ATOM     96  O   UNL     1      19.380  -2.841  -1.230  1.00  0.00    -0.744 OA
ENDBRANCH  92  93
ENDBRANCH  60  85
BRANCH  72  97
ATOM     97  C   UNL     1      21.763   3.084 -10.797  1.00  0.00     0.058 A 
ATOM     98  C   UNL     1      21.907   1.835 -11.421  1.00  0.00     0.135 A 
ATOM     99  C   UNL     1      22.816   4.005 -10.920  1.00  0.00     0.135 A 
ATOM    100  F   UNL     1      20.930   0.918 -11.330  1.00  0.00    -0.206 F 
ATOM    101  C   UNL     1      23.066   1.497 -12.109  1.00  0.00     0.059 A 
ATOM    102  C   UNL     1      23.972   3.700 -11.629  1.00  0.00     0.059 A 
ATOM    103  F   UNL     1      22.722   5.219 -10.355  1.00  0.00    -0.206 F 
ATOM    104  C   UNL     1      24.095   2.436 -12.205  1.00  0.00     0.060 A 
BRANCH 104 105
ATOM    105  S   UNL     1      25.593   1.991 -13.109  1.00  0.00     0.124 S 
ATOM    106  O   UNL     1      26.255   1.103 -12.159  1.00  0.00    -0.237 OA
ATOM    107  O   UNL     1      25.057   1.352 -14.307  1.00  0.00    -0.237 OA
ATOM    108  O   UNL     1      26.249   3.276 -13.332  1.00  0.00    -0.744 OA
ENDBRANCH 104 105
ENDBRANCH  72  97
ENDBRANCH  46  47
ENDBRANCH  38  41
ENDBRANCH  36  37
ENDBRANCH  35  36
ENDBRANCH   1  35
TORSDOF 18
