REMARK SMILES Cc1ccc(NC(=O)NC2(C(=O)NCCCNC(=O)c3ccc(-c4c5nc(c(-c6c(F)cc(S(=O)(=O)[O-])cc6F)c6ccc([nH]6)c(-c6c(F)cc(S(=O)(=O)[O-])cc6F)c6nc(c(-c7c(F)cc(S(=O)(=O)[O-])cc7F)c7ccc4[nH]7)C=C6)C=C5)cc3)CC2)c(C)n1
REMARK SMILES IDX 15 1 14 2 13 3 11 4 12 5 10 7 86 8 87 9 9 10 6 11 7 12 8 14
REMARK SMILES IDX 5 16 1 17 2 18 3 19 90 20 4 21 88 22 89 23 16 24 17 25 18 26
REMARK SMILES IDX 19 28 20 29 21 30 85 31 22 32 84 33 23 34 24 35 25 36 78 37
REMARK SMILES IDX 26 38 83 39 77 40 79 41 27 42 82 43 76 44 75 45 28 47 62 48
REMARK SMILES IDX 41 49 61 50 42 51 45 52 60 53 80 54 43 55 44 56 59 58 81 59
REMARK SMILES IDX 46 60 29 61 30 62 39 63 31 64 32 65 38 66 40 67 33 68 34 69
REMARK SMILES IDX 35 70 36 71 37 72 63 73 64 74 73 75 65 76 66 77 72 78 74 79
REMARK SMILES IDX 67 80 68 81 69 82 70 83 71 84 47 85 48 86 57 87 49 88 50 89
REMARK SMILES IDX 56 90 58 91 51 92 52 93 53 94 54 95 55 96
REMARK H PARENT 13 6 6 13 9 15 17 27 79 46 45 57
REMARK Flexibility Score: inf
ROOT
ATOM      1  C   UNL     1      -0.168   1.125   2.721  1.00  0.00     0.042 C 
ENDROOT
BRANCH   1   2
ATOM      2  C   UNL     1       1.265   1.704   2.769  1.00  0.00     0.117 C 
BRANCH   2   3
ATOM      3  N   UNL     1       2.195   0.978   1.879  1.00  0.00    -0.354 N 
ATOM      4  C   UNL     1       3.200   1.579   1.132  1.00  0.00     0.245 C 
ATOM      5  O   UNL     1       3.781   2.601   1.514  1.00  0.00    -0.272 OA
ATOM      6  H   UNL     1       2.095   0.001   1.811  1.00  0.00     0.163 HD
BRANCH   4   7
ATOM      7  C   UNL     1       3.595   0.925  -0.232  1.00  0.00     0.120 C 
ATOM      8  C   UNL     1       4.254   1.943  -1.186  1.00  0.00     0.041 C 
ATOM      9  C   UNL     1       3.155   1.132  -1.712  1.00  0.00     0.041 C 
BRANCH   7  10
ATOM     10  N   UNL     1       3.925  -0.432  -0.103  1.00  0.00    -0.323 N 
ATOM     11  N   UNL     1       1.705  -1.313  -0.171  1.00  0.00    -0.306 N 
ATOM     12  C   UNL     1       3.041  -1.425  -0.086  1.00  0.00     0.320 C 
ATOM     13  H   UNL     1       1.380  -2.236  -0.058  1.00  0.00     0.171 HD
ATOM     14  O   UNL     1       3.489  -2.572   0.039  1.00  0.00    -0.248 OA
ATOM     15  H   UNL     1       4.878  -0.665  -0.019  1.00  0.00     0.166 HD
BRANCH  11  16
ATOM     16  C   UNL     1       0.500  -0.535  -0.343  1.00  0.00     0.064 A 
ATOM     17  C   UNL     1      -3.590   0.809  -0.688  1.00  0.00     0.067 C 
ATOM     18  C   UNL     1      -2.220   0.236  -0.603  1.00  0.00     0.038 A 
ATOM     19  C   UNL     1      -1.940  -1.082  -0.404  1.00  0.00     0.025 A 
ATOM     20  N   UNL     1      -1.236   1.129  -0.673  1.00  0.00    -0.256 NA
ATOM     21  C   UNL     1      -0.599  -1.448  -0.298  1.00  0.00     0.030 A 
ATOM     22  C   UNL     1       0.086   0.813  -0.509  1.00  0.00     0.061 A 
ATOM     23  C   UNL     1       0.686   2.182  -0.510  1.00  0.00     0.069 C 
ENDBRANCH  11  16
ENDBRANCH   7  10
ENDBRANCH   4   7
ENDBRANCH   2   3
ENDBRANCH   1   2
BRANCH   1  24
ATOM     24  C   UNL     1      -0.966   1.073   4.026  1.00  0.00     0.118 C 
BRANCH  24  25
ATOM     25  N   UNL     1      -1.457   2.356   4.503  1.00  0.00    -0.352 N 
ATOM     26  C   UNL     1      -2.708   2.757   4.929  1.00  0.00     0.251 C 
ATOM     27  H   UNL     1      -0.776   3.066   4.526  1.00  0.00     0.163 HD
ATOM     28  O   UNL     1      -2.861   3.940   5.237  1.00  0.00    -0.269 OA
BRANCH  26  29
ATOM     29  C   UNL     1      -3.882   1.838   5.005  1.00  0.00     0.039 A 
ATOM     30  C   UNL     1      -5.163   2.363   4.773  1.00  0.00     0.014 A 
ATOM     31  C   UNL     1      -3.770   0.492   5.353  1.00  0.00     0.014 A 
ATOM     32  C   UNL     1      -6.299   1.539   4.823  1.00  0.00     0.010 A 
ATOM     33  C   UNL     1      -4.888  -0.349   5.308  1.00  0.00     0.010 A 
ATOM     34  C   UNL     1      -6.171   0.162   5.051  1.00  0.00    -0.014 A 
BRANCH  34  35
ATOM     35  C   UNL     1      -7.351  -0.754   5.048  1.00  0.00     0.031 A 
ATOM     36  C   UNL     1      -7.689  -1.569   6.275  1.00  0.00     0.074 A 
ATOM     37  C   UNL     1      -8.082  -0.916   3.925  1.00  0.00     0.049 A 
ATOM     38  N   UNL     1      -8.610  -2.486   6.437  1.00  0.00    -0.248 NA
ATOM     39  C   UNL     1      -6.854  -1.348   7.466  1.00  0.00     0.031 C 
ATOM     40  C   UNL     1      -7.843  -0.227   2.655  1.00  0.00     0.029 A 
ATOM     41  N   UNL     1      -9.168  -1.718   3.663  1.00  0.00    -0.354 N 
ATOM     42  C   UNL     1      -8.447  -2.966   7.733  1.00  0.00     0.074 A 
ATOM     43  C   UNL     1      -7.298  -2.285   8.289  1.00  0.00     0.031 C 
ATOM     44  C   UNL     1      -8.770  -0.610   1.762  1.00  0.00     0.029 A 
ATOM     45  C   UNL     1      -9.643  -1.606   2.376  1.00  0.00     0.049 A 
ATOM     46  H   UNL     1      -9.568  -2.317   4.334  1.00  0.00     0.167 HD
ATOM     47  C   UNL     1      -9.199  -3.868   8.411  1.00  0.00     0.037 A 
ATOM     48  C   UNL     1     -10.662  -2.235   1.755  1.00  0.00     0.037 A 
ATOM     49  C   UNL     1     -10.361  -4.520   7.863  1.00  0.00     0.049 A 
ATOM     50  C   UNL     1     -11.483  -3.237   2.522  1.00  0.00     0.074 A 
ATOM     51  C   UNL     1     -11.229  -5.400   8.486  1.00  0.00     0.029 A 
ATOM     52  N   UNL     1     -10.815  -4.367   6.561  1.00  0.00    -0.354 N 
ATOM     53  N   UNL     1     -11.350  -3.631   3.766  1.00  0.00    -0.248 NA
ATOM     54  C   UNL     1     -12.594  -3.877   1.803  1.00  0.00     0.031 C 
ATOM     55  C   UNL     1     -12.174  -5.822   7.545  1.00  0.00     0.029 A 
ATOM     56  C   UNL     1     -11.934  -5.157   6.352  1.00  0.00     0.049 A 
ATOM     57  H   UNL     1     -10.403  -3.782   5.885  1.00  0.00     0.167 HD
ATOM     58  C   UNL     1     -12.377  -4.543   3.989  1.00  0.00     0.074 A 
ATOM     59  C   UNL     1     -13.128  -4.633   2.753  1.00  0.00     0.031 C 
ATOM     60  C   UNL     1     -12.673  -5.238   5.115  1.00  0.00     0.037 A 
BRANCH  47  61
ATOM     61  C   UNL     1      -8.781  -4.205   9.821  1.00  0.00     0.058 A 
ATOM     62  C   UNL     1      -8.852  -3.263  10.862  1.00  0.00     0.135 A 
ATOM     63  C   UNL     1      -8.310  -5.490  10.140  1.00  0.00     0.135 A 
ATOM     64  F   UNL     1      -9.285  -2.016  10.617  1.00  0.00    -0.206 F 
ATOM     65  C   UNL     1      -8.422  -3.565  12.151  1.00  0.00     0.059 A 
ATOM     66  C   UNL     1      -7.909  -5.825  11.431  1.00  0.00     0.059 A 
ATOM     67  F   UNL     1      -8.226  -6.435   9.191  1.00  0.00    -0.206 F 
ATOM     68  C   UNL     1      -7.947  -4.848  12.424  1.00  0.00     0.060 A 
BRANCH  68  69
ATOM     69  S   UNL     1      -7.369  -5.216  14.094  1.00  0.00     0.124 S 
ATOM     70  O   UNL     1      -6.115  -4.468  14.139  1.00  0.00    -0.237 OA
ATOM     71  O   UNL     1      -8.450  -4.686  14.922  1.00  0.00    -0.237 OA
ATOM     72  O   UNL     1      -7.234  -6.667  14.098  1.00  0.00    -0.744 OA
ENDBRANCH  68  69
ENDBRANCH  47  61
BRANCH  48  73
ATOM     73  C   UNL     1     -10.982  -1.905   0.339  1.00  0.00     0.058 A 
ATOM     74  C   UNL     1     -12.145  -1.192   0.011  1.00  0.00     0.135 A 
ATOM     75  C   UNL     1     -10.119  -2.259  -0.710  1.00  0.00     0.135 A 
ATOM     76  F   UNL     1     -13.009  -0.839   0.975  1.00  0.00    -0.206 F 
ATOM     77  C   UNL     1     -12.443  -0.843  -1.303  1.00  0.00     0.059 A 
ATOM     78  C   UNL     1     -10.382  -1.899  -2.029  1.00  0.00     0.059 A 
ATOM     79  F   UNL     1      -8.985  -2.930  -0.451  1.00  0.00    -0.206 F 
ATOM     80  C   UNL     1     -11.550  -1.194  -2.316  1.00  0.00     0.060 A 
BRANCH  80  81
ATOM     81  S   UNL     1     -11.908  -0.668  -4.006  1.00  0.00     0.124 S 
ATOM     82  O   UNL     1     -13.039  -1.523  -4.348  1.00  0.00    -0.237 OA
ATOM     83  O   UNL     1     -12.210   0.749  -3.826  1.00  0.00    -0.237 OA
ATOM     84  O   UNL     1     -10.665  -0.950  -4.716  1.00  0.00    -0.744 OA
ENDBRANCH  80  81
ENDBRANCH  48  73
BRANCH  60  85
ATOM     85  C   UNL     1     -13.880  -6.138   5.080  1.00  0.00     0.058 A 
ATOM     86  C   UNL     1     -13.889  -7.336   4.350  1.00  0.00     0.135 A 
ATOM     87  C   UNL     1     -15.022  -5.822   5.835  1.00  0.00     0.135 A 
ATOM     88  F   UNL     1     -12.827  -7.684   3.606  1.00  0.00    -0.206 F 
ATOM     89  C   UNL     1     -14.997  -8.178   4.349  1.00  0.00     0.059 A 
ATOM     90  C   UNL     1     -16.129  -6.664   5.874  1.00  0.00     0.059 A 
ATOM     91  F   UNL     1     -15.062  -4.693   6.561  1.00  0.00    -0.206 F 
ATOM     92  C   UNL     1     -16.111  -7.835   5.118  1.00  0.00     0.060 A 
BRANCH  92  93
ATOM     93  S   UNL     1     -17.528  -8.954   5.135  1.00  0.00     0.124 S 
ATOM     94  O   UNL     1     -18.083  -8.745   3.801  1.00  0.00    -0.237 OA
ATOM     95  O   UNL     1     -16.897 -10.250   5.364  1.00  0.00    -0.237 OA
ATOM     96  O   UNL     1     -18.342  -8.455   6.239  1.00  0.00    -0.744 OA
ENDBRANCH  92  93
ENDBRANCH  60  85
ENDBRANCH  34  35
ENDBRANCH  26  29
ENDBRANCH  24  25
ENDBRANCH   1  24
TORSDOF 15
