REMARK SMILES Cc1cc(Cl)c(C)c2c1O[C@H](C(F)(F)F)C(C(=O)NCCCNC(=O)c1ccc(-c3c4nc(c(-c5c(F)cc(S(=O)(=O)[O-])cc5F)c5ccc([nH]5)c(-c5c(F)cc(S(=O)(=O)[O-])cc5F)c5nc(c(-c6c(F)cc(S(=O)(=O)[O-])cc6F)c6ccc3[nH]6)C=C5)C=C4)cc1)=C2
REMARK SMILES IDX 22 1 21 2 20 3 19 4 17 5 18 6 16 8 1 9 2 10 3 11 9 12 4 13
REMARK SMILES IDX 8 14 10 15 5 16 6 17 92 18 11 19 7 20 12 21 13 22 14 23
REMARK SMILES IDX 15 24 23 25 24 26 25 28 26 29 27 30 91 31 28 32 90 33 29 34
REMARK SMILES IDX 30 35 31 36 84 37 32 38 89 39 83 40 85 41 33 42 88 43 82 44
REMARK SMILES IDX 81 45 34 47 68 48 47 49 67 50 48 51 51 52 66 53 86 54 49 55
REMARK SMILES IDX 50 56 65 58 87 59 52 60 35 61 36 62 45 63 37 64 38 65 44 66
REMARK SMILES IDX 46 67 39 68 40 69 41 70 42 71 43 72 69 73 70 74 79 75 71 76
REMARK SMILES IDX 72 77 78 78 80 79 73 80 74 81 75 82 76 83 77 84 53 85 54 86
REMARK SMILES IDX 63 87 55 88 56 89 62 90 64 91 57 92 58 93 59 94 60 95 61 96
REMARK H PARENT 19 7 23 27 85 46 51 57
REMARK Flexibility Score: inf
ROOT
ATOM      1  C   UNL     1       3.941  -6.411   5.346  1.00  0.00     0.118 C 
ENDROOT
BRANCH   1   2
ATOM      2  C   UNL     1       3.482  -5.186   4.568  1.00  0.00     0.042 C 
BRANCH   2   3
ATOM      3  C   UNL     1       4.048  -5.159   3.156  1.00  0.00     0.118 C 
BRANCH   3   4
ATOM      4  N   UNL     1       3.332  -6.060   2.265  1.00  0.00    -0.352 N 
ATOM      5  C   UNL     1       2.465  -5.953   1.232  1.00  0.00     0.251 C 
ATOM      6  O   UNL     1       2.102  -7.024   0.734  1.00  0.00    -0.270 OA
ATOM      7  H   UNL     1       3.533  -7.002   2.469  1.00  0.00     0.163 HD
BRANCH   5   8
ATOM      8  C   UNL     1       1.952  -4.668   0.675  1.00  0.00     0.067 C 
ATOM      9  C   UNL     1       0.674   0.191  -0.167  1.00  0.00     0.048 C 
ATOM     10  C   UNL     1       0.321  -1.111  -0.829  1.00  0.00    -0.007 A 
ATOM     11  C   UNL     1      -0.477  -1.139  -1.971  1.00  0.00     0.028 A 
ATOM     12  C   UNL     1       0.793  -2.322  -0.315  1.00  0.00     0.131 A 
ATOM     13  C   UNL     1      -0.796  -2.355  -2.590  1.00  0.00     0.045 A 
ATOM     14  C   UNL     1       0.489  -3.553  -0.921  1.00  0.00     0.022 A 
ATOM     15  O   UNL     1       1.526  -2.235   0.837  1.00  0.00    -0.475 OA
ATOM     16  Cl  UNL     1      -1.799  -2.258  -3.998  1.00  0.00    -0.084 Cl
ATOM     17  C   UNL     1      -0.319  -3.580  -2.083  1.00  0.00    -0.021 A 
ATOM     18  C   UNL     1       1.015  -4.768  -0.287  1.00  0.00     0.026 C 
ATOM     19  C   UNL     1       2.440  -3.321   1.106  1.00  0.00     0.314 C 
ATOM     20  C   UNL     1      -0.648  -4.895  -2.745  1.00  0.00     0.047 C 
BRANCH  19  21
ATOM     21  C   UNL     1       3.829  -2.977   0.536  1.00  0.00     0.429 C 
ATOM     22  F   UNL     1       4.389  -1.955   1.231  1.00  0.00    -0.167 F 
ATOM     23  F   UNL     1       4.698  -4.013   0.612  1.00  0.00    -0.167 F 
ATOM     24  F   UNL     1       3.784  -2.604  -0.763  1.00  0.00    -0.167 F 
ENDBRANCH  19  21
ENDBRANCH   5   8
ENDBRANCH   3   4
ENDBRANCH   2   3
ENDBRANCH   1   2
BRANCH   1  25
ATOM     25  N   UNL     1       5.391  -6.418   5.534  1.00  0.00    -0.352 N 
ATOM     26  C   UNL     1       6.137  -6.149   6.653  1.00  0.00     0.251 C 
ATOM     27  H   UNL     1       5.912  -6.652   4.733  1.00  0.00     0.163 HD
ATOM     28  O   UNL     1       7.339  -5.912   6.539  1.00  0.00    -0.269 OA
BRANCH  26  29
ATOM     29  C   UNL     1       5.498  -6.145   7.981  1.00  0.00     0.039 A 
ATOM     30  C   UNL     1       5.873  -5.186   8.925  1.00  0.00     0.014 A 
ATOM     31  C   UNL     1       4.540  -7.110   8.301  1.00  0.00     0.014 A 
ATOM     32  C   UNL     1       5.240  -5.161  10.168  1.00  0.00     0.010 A 
ATOM     33  C   UNL     1       3.841  -7.021   9.495  1.00  0.00     0.010 A 
ATOM     34  C   UNL     1       4.196  -6.058  10.449  1.00  0.00    -0.014 A 
BRANCH  34  35
ATOM     35  C   UNL     1       3.482  -6.036  11.747  1.00  0.00     0.031 A 
ATOM     36  C   UNL     1       3.546  -7.238  12.651  1.00  0.00     0.074 A 
ATOM     37  C   UNL     1       2.733  -4.966  12.077  1.00  0.00     0.049 A 
ATOM     38  N   UNL     1       2.932  -7.448  13.786  1.00  0.00    -0.248 NA
ATOM     39  C   UNL     1       4.383  -8.365  12.206  1.00  0.00     0.031 C 
ATOM     40  C   UNL     1       2.561  -3.767  11.254  1.00  0.00     0.029 A 
ATOM     41  N   UNL     1       1.971  -4.715  13.190  1.00  0.00    -0.354 N 
ATOM     42  C   UNL     1       3.300  -8.729  14.181  1.00  0.00     0.074 A 
ATOM     43  C   UNL     1       4.135  -9.275  13.136  1.00  0.00     0.031 C 
ATOM     44  C   UNL     1       1.772  -2.896  11.903  1.00  0.00     0.029 A 
ATOM     45  C   UNL     1       1.350  -3.489  13.168  1.00  0.00     0.049 A 
ATOM     46  H   UNL     1       1.878  -5.353  13.934  1.00  0.00     0.167 HD
ATOM     47  C   UNL     1       2.995  -9.377  15.329  1.00  0.00     0.037 A 
ATOM     48  C   UNL     1       0.529  -2.911  14.067  1.00  0.00     0.037 A 
ATOM     49  C   UNL     1       2.194  -8.808  16.378  1.00  0.00     0.049 A 
ATOM     50  C   UNL     1       0.201  -3.654  15.334  1.00  0.00     0.074 A 
ATOM     51  C   UNL     1       1.874  -9.355  17.607  1.00  0.00     0.029 A 
ATOM     52  N   UNL     1       1.591  -7.559  16.325  1.00  0.00    -0.354 N 
ATOM     53  N   UNL     1       0.605  -4.843  15.718  1.00  0.00    -0.248 NA
ATOM     54  C   UNL     1      -0.689  -2.982  16.289  1.00  0.00     0.031 C 
ATOM     55  C   UNL     1       1.038  -8.458  18.278  1.00  0.00     0.029 A 
ATOM     56  C   UNL     1       0.880  -7.329  17.489  1.00  0.00     0.049 A 
ATOM     57  H   UNL     1       1.658  -6.931  15.570  1.00  0.00     0.167 HD
ATOM     58  C   UNL     1       0.034  -5.052  16.968  1.00  0.00     0.074 A 
ATOM     59  C   UNL     1      -0.729  -3.861  17.282  1.00  0.00     0.031 C 
ATOM     60  C   UNL     1       0.130  -6.133  17.782  1.00  0.00     0.037 A 
BRANCH  47  61
ATOM     61  C   UNL     1       3.547 -10.762  15.522  1.00  0.00     0.058 A 
ATOM     62  C   UNL     1       4.916 -10.983  15.745  1.00  0.00     0.135 A 
ATOM     63  C   UNL     1       2.693 -11.877  15.542  1.00  0.00     0.135 A 
ATOM     64  F   UNL     1       5.780  -9.957  15.715  1.00  0.00    -0.206 F 
ATOM     65  C   UNL     1       5.420 -12.260  15.965  1.00  0.00     0.059 A 
ATOM     66  C   UNL     1       3.171 -13.160  15.790  1.00  0.00     0.059 A 
ATOM     67  F   UNL     1       1.376 -11.723  15.328  1.00  0.00    -0.206 F 
ATOM     68  C   UNL     1       4.539 -13.342  15.992  1.00  0.00     0.060 A 
BRANCH  68  69
ATOM     69  S   UNL     1       5.210 -14.986  16.313  1.00  0.00     0.124 S 
ATOM     70  O   UNL     1       5.963 -15.238  15.088  1.00  0.00    -0.237 OA
ATOM     71  O   UNL     1       6.010 -14.765  17.513  1.00  0.00    -0.237 OA
ATOM     72  O   UNL     1       4.021 -15.811  16.497  1.00  0.00    -0.744 OA
ENDBRANCH  68  69
ENDBRANCH  47  61
BRANCH  48  73
ATOM     73  C   UNL     1      -0.011  -1.549  13.810  1.00  0.00     0.058 A 
ATOM     74  C   UNL     1       0.428  -0.448  14.560  1.00  0.00     0.135 A 
ATOM     75  C   UNL     1      -0.950  -1.313  12.794  1.00  0.00     0.135 A 
ATOM     76  F   UNL     1       1.321  -0.621  15.546  1.00  0.00    -0.206 F 
ATOM     77  C   UNL     1      -0.051   0.836  14.320  1.00  0.00     0.059 A 
ATOM     78  C   UNL     1      -1.424  -0.035  12.517  1.00  0.00     0.059 A 
ATOM     79  F   UNL     1      -1.389  -2.330  12.035  1.00  0.00    -0.206 F 
ATOM     80  C   UNL     1      -0.973   1.034  13.291  1.00  0.00     0.060 A 
BRANCH  80  81
ATOM     81  S   UNL     1      -1.543   2.713  12.953  1.00  0.00     0.124 S 
ATOM     82  O   UNL     1      -2.360   2.990  14.129  1.00  0.00    -0.237 OA
ATOM     83  O   UNL     1      -0.285   3.448  12.861  1.00  0.00    -0.237 OA
ATOM     84  O   UNL     1      -2.273   2.575  11.696  1.00  0.00    -0.744 OA
ENDBRANCH  80  81
ENDBRANCH  48  73
BRANCH  60  85
ATOM     85  C   UNL     1      -0.595  -6.080  19.098  1.00  0.00     0.058 A 
ATOM     86  C   UNL     1      -1.991  -6.196  19.170  1.00  0.00     0.135 A 
ATOM     87  C   UNL     1       0.123  -5.999  20.302  1.00  0.00     0.135 A 
ATOM     88  F   UNL     1      -2.722  -6.271  18.047  1.00  0.00    -0.206 F 
ATOM     89  C   UNL     1      -2.653  -6.221  20.392  1.00  0.00     0.059 A 
ATOM     90  C   UNL     1      -0.516  -6.051  21.536  1.00  0.00     0.059 A 
ATOM     91  F   UNL     1       1.462  -5.898  20.287  1.00  0.00    -0.206 F 
ATOM     92  C   UNL     1      -1.906  -6.156  21.570  1.00  0.00     0.060 A 
BRANCH  92  93
ATOM     93  S   UNL     1      -2.778  -6.241  23.148  1.00  0.00     0.124 S 
ATOM     94  O   UNL     1      -3.456  -4.949  23.179  1.00  0.00    -0.237 OA
ATOM     95  O   UNL     1      -3.639  -7.405  22.963  1.00  0.00    -0.237 OA
ATOM     96  O   UNL     1      -1.705  -6.410  24.123  1.00  0.00    -0.744 OA
ENDBRANCH  92  93
ENDBRANCH  60  85
ENDBRANCH  34  35
ENDBRANCH  26  29
ENDBRANCH   1  25
TORSDOF 14
