REMARK SMILES Cc1ccccc1NC(=S)NN1C(=O)CS[C@H]1c1ccccc1C(=O)NCCCNC(=O)c1ccc(-c2c3nc(c(-c4c(F)cc(S(=O)(=O)[O-])cc4F)c4ccc([nH]4)c(-c4c(F)cc(S(=O)(=O)[O-])cc4F)c4nc(c(-c5c(F)cc(S(=O)(=O)[O-])cc5F)c5ccc2[nH]5)C=C4)C=C3)cc1
REMARK SMILES IDX 27 1 26 2 24 3 25 4 23 6 18 7 19 8 20 9 22 10 21 11 17 12
REMARK SMILES IDX 12 13 13 14 14 15 15 16 16 17 11 18 9 20 10 21 8 22 7 24
REMARK SMILES IDX 1 25 2 26 3 27 4 28 6 29 5 30 28 31 29 32 30 33 31 34 32 36
REMARK SMILES IDX 33 37 34 38 98 39 35 40 97 41 36 42 37 43 38 44 91 45 39 46
REMARK SMILES IDX 96 47 90 48 92 49 40 50 95 51 89 52 88 53 41 55 75 56 54 57
REMARK SMILES IDX 74 58 55 59 58 60 73 61 93 62 56 63 57 64 72 66 94 67 59 68
REMARK SMILES IDX 42 69 43 70 52 71 44 72 45 73 51 74 53 75 46 76 47 77 48 78
REMARK SMILES IDX 49 79 50 80 76 81 77 82 86 83 78 84 79 85 85 86 87 87 80 88
REMARK SMILES IDX 81 89 82 90 83 91 84 92 60 93 61 94 70 95 62 96 63 97 69 98
REMARK SMILES IDX 71 99 64 100 65 101 66 102 67 103 68 104
REMARK H PARENT 26 5 11 19 8 23 30 35 92 54 58 65
REMARK Flexibility Score: inf
ROOT
ATOM      1  C   UNL     1      -1.312   2.834  -2.223  1.00  0.00     0.118 C 
ENDROOT
BRANCH   1   2
ATOM      2  N   UNL     1      -1.717   4.253  -2.305  1.00  0.00    -0.352 N 
ATOM      3  C   UNL     1      -1.963   5.170  -1.284  1.00  0.00     0.251 C 
ATOM      4  O   UNL     1      -1.114   6.060  -1.150  1.00  0.00    -0.269 OA
ATOM      5  H   UNL     1      -1.831   4.603  -3.218  1.00  0.00     0.163 HD
BRANCH   3   6
ATOM      6  C   UNL     1      -3.302   5.417  -0.607  1.00  0.00     0.046 A 
ATOM      7  C   UNL     1      -4.260   4.508  -0.132  1.00  0.00    -0.001 A 
ATOM      8  C   UNL     1      -5.572   5.035   0.136  1.00  0.00     0.007 A 
ATOM      9  C   UNL     1      -5.885   6.390   0.144  1.00  0.00     0.000 A 
ATOM     10  C   UNL     1      -3.619   6.806  -0.492  1.00  0.00     0.014 A 
ATOM     11  C   UNL     1      -4.878   7.289  -0.109  1.00  0.00     0.001 A 
BRANCH   7  12
ATOM     12  C   UNL     1      -4.095   3.014  -0.102  1.00  0.00     0.197 C 
ATOM     13  N   UNL     1      -2.957   2.249   0.380  1.00  0.00    -0.236 N 
ATOM     14  C   UNL     1      -3.254   0.951  -0.083  1.00  0.00     0.252 C 
ATOM     15  O   UNL     1      -2.913   0.510  -1.177  1.00  0.00    -0.272 OA
ATOM     16  C   UNL     1      -4.549   0.512   0.597  1.00  0.00     0.174 C 
ATOM     17  S   UNL     1      -5.445   2.080   0.813  1.00  0.00    -0.120 SA
BRANCH  13  18
ATOM     18  N   UNL     1      -1.676   2.829   0.748  1.00  0.00    -0.270 N 
ATOM     19  H   UNL     1      -1.799   3.682   1.225  1.00  0.00     0.191 HD
BRANCH  18  20
ATOM     20  C   UNL     1      -0.330   2.521   0.617  1.00  0.00     0.189 C 
ATOM     21  S   UNL     1       0.658   3.862   0.925  1.00  0.00    -0.039 S 
BRANCH  20  22
ATOM     22  N   UNL     1       0.284   1.333   0.234  1.00  0.00    -0.331 N 
ATOM     23  H   UNL     1       0.902   1.369  -0.532  1.00  0.00     0.169 HD
BRANCH  22  24
ATOM     24  C   UNL     1       0.087   0.052   0.870  1.00  0.00     0.043 A 
ATOM     25  C   UNL     1       2.383  -2.403   0.546  1.00  0.00     0.046 C 
ATOM     26  C   UNL     1       1.034  -1.709   0.899  1.00  0.00    -0.028 A 
ATOM     27  C   UNL     1       0.479  -3.055   2.181  1.00  0.00     0.005 A 
ATOM     28  C   UNL     1      -1.111  -2.858   3.209  1.00  0.00     0.000 A 
ATOM     29  C   UNL     1      -1.217   0.307   2.287  1.00  0.00     0.026 A 
ATOM     30  C   UNL     1      -1.932  -1.147   3.298  1.00  0.00     0.002 A 
ENDBRANCH  22  24
ENDBRANCH  20  22
ENDBRANCH  18  20
ENDBRANCH  13  18
ENDBRANCH   7  12
ENDBRANCH   3   6
ENDBRANCH   1   2
BRANCH   1  31
ATOM     31  C   UNL     1      -1.684   1.888  -3.363  1.00  0.00     0.042 C 
BRANCH  31  32
ATOM     32  C   UNL     1      -0.767   0.647  -3.436  1.00  0.00     0.118 C 
BRANCH  32  33
ATOM     33  N   UNL     1      -0.844  -0.579  -2.618  1.00  0.00    -0.352 N 
ATOM     34  C   UNL     1      -0.177  -1.808  -2.887  1.00  0.00     0.251 C 
ATOM     35  H   UNL     1      -1.409  -0.544  -1.812  1.00  0.00     0.163 HD
ATOM     36  O   UNL     1      -0.716  -2.906  -2.902  1.00  0.00    -0.269 OA
BRANCH  34  37
ATOM     37  C   UNL     1       1.282  -1.726  -3.197  1.00  0.00     0.039 A 
ATOM     38  C   UNL     1       2.288  -2.256  -2.394  1.00  0.00     0.014 A 
ATOM     39  C   UNL     1       1.604  -0.653  -3.963  1.00  0.00     0.014 A 
ATOM     40  C   UNL     1       3.392  -1.443  -2.102  1.00  0.00     0.010 A 
ATOM     41  C   UNL     1       2.340   0.305  -3.321  1.00  0.00     0.010 A 
ATOM     42  C   UNL     1       3.267  -0.086  -2.373  1.00  0.00    -0.014 A 
BRANCH  42  43
ATOM     43  C   UNL     1       4.329   0.902  -2.301  1.00  0.00     0.031 A 
ATOM     44  C   UNL     1       5.262   0.583  -3.453  1.00  0.00     0.074 A 
ATOM     45  C   UNL     1       4.183   1.961  -1.449  1.00  0.00     0.049 A 
ATOM     46  N   UNL     1       6.511   0.252  -3.364  1.00  0.00    -0.248 NA
ATOM     47  C   UNL     1       4.741   0.191  -4.811  1.00  0.00     0.031 C 
ATOM     48  C   UNL     1       4.861   3.255  -1.447  1.00  0.00     0.029 A 
ATOM     49  N   UNL     1       3.354   2.072  -0.285  1.00  0.00    -0.354 N 
ATOM     50  C   UNL     1       6.940   0.237  -4.690  1.00  0.00     0.074 A 
ATOM     51  C   UNL     1       5.831  -0.258  -5.424  1.00  0.00     0.031 C 
ATOM     52  C   UNL     1       4.760   3.819  -0.220  1.00  0.00     0.029 A 
ATOM     53  C   UNL     1       4.041   2.895   0.668  1.00  0.00     0.049 A 
ATOM     54  H   UNL     1       2.470   1.658  -0.162  1.00  0.00     0.167 HD
ATOM     55  C   UNL     1       7.826   1.192  -5.114  1.00  0.00     0.037 A 
ATOM     56  C   UNL     1       4.482   2.478   1.907  1.00  0.00     0.037 A 
ATOM     57  C   UNL     1       8.163   2.034  -3.958  1.00  0.00     0.049 A 
ATOM     58  C   UNL     1       6.024   2.204   1.700  1.00  0.00     0.074 A 
ATOM     59  C   UNL     1       7.761   3.302  -3.578  1.00  0.00     0.029 A 
ATOM     60  N   UNL     1       8.636   1.421  -2.804  1.00  0.00    -0.354 N 
ATOM     61  N   UNL     1       6.633   2.176   0.534  1.00  0.00    -0.248 NA
ATOM     62  C   UNL     1       6.960   1.942   2.792  1.00  0.00     0.031 C 
ATOM     63  C   UNL     1       7.962   3.417  -2.169  1.00  0.00     0.029 A 
ATOM     64  C   UNL     1       8.431   2.208  -1.684  1.00  0.00     0.049 A 
ATOM     65  H   UNL     1       9.064   0.535  -2.785  1.00  0.00     0.167 HD
ATOM     66  C   UNL     1       7.961   1.873   0.680  1.00  0.00     0.074 A 
ATOM     67  C   UNL     1       8.118   1.784   2.124  1.00  0.00     0.031 C 
ATOM     68  C   UNL     1       8.832   1.704  -0.371  1.00  0.00     0.037 A 
BRANCH  55  69
ATOM     69  C   UNL     1       8.094   1.594  -6.569  1.00  0.00     0.058 A 
ATOM     70  C   UNL     1       8.870   2.744  -6.827  1.00  0.00     0.135 A 
ATOM     71  C   UNL     1       7.674   0.917  -7.744  1.00  0.00     0.135 A 
ATOM     72  F   UNL     1       9.390   3.470  -5.828  1.00  0.00    -0.206 F 
ATOM     73  C   UNL     1       9.177   3.198  -8.113  1.00  0.00     0.059 A 
ATOM     74  C   UNL     1       7.950   1.366  -9.046  1.00  0.00     0.059 A 
ATOM     75  F   UNL     1       7.011  -0.243  -7.709  1.00  0.00    -0.206 F 
ATOM     76  C   UNL     1       8.715   2.505  -9.221  1.00  0.00     0.060 A 
BRANCH  76  77
ATOM     77  S   UNL     1       9.188   3.079 -10.863  1.00  0.00     0.124 S 
ATOM     78  O   UNL     1       8.611   4.420 -10.894  1.00  0.00    -0.237 OA
ATOM     79  O   UNL     1      10.644   3.016 -10.798  1.00  0.00    -0.237 OA
ATOM     80  O   UNL     1       8.562   2.112 -11.760  1.00  0.00    -0.744 OA
ENDBRANCH  76  77
ENDBRANCH  55  69
BRANCH  56  81
ATOM     81  C   UNL     1       3.573   1.480   2.671  1.00  0.00     0.058 A 
ATOM     82  C   UNL     1       2.322   1.670   3.384  1.00  0.00     0.135 A 
ATOM     83  C   UNL     1       3.701   0.231   2.188  1.00  0.00     0.135 A 
ATOM     84  F   UNL     1       2.156   2.817   4.068  1.00  0.00    -0.206 F 
ATOM     85  C   UNL     1       1.148   0.723   3.384  1.00  0.00     0.059 A 
ATOM     86  C   UNL     1       2.480  -0.302   1.827  1.00  0.00     0.059 A 
ATOM     87  F   UNL     1       4.760  -0.130   1.445  1.00  0.00    -0.206 F 
ATOM     88  C   UNL     1       1.100  -0.389   2.455  1.00  0.00     0.060 A 
BRANCH  88  89
ATOM     89  S   UNL     1      -0.883  -1.592   1.441  1.00  0.00     0.124 S 
ATOM     90  O   UNL     1      -0.082  -1.330   2.951  1.00  0.00    -0.237 OA
ATOM     91  O   UNL     1      -2.063  -0.885   0.885  1.00  0.00    -0.237 OA
ATOM     92  O   UNL     1      -0.755  -2.773   0.517  1.00  0.00    -0.744 OA
ENDBRANCH  88  89
ENDBRANCH  56  81
BRANCH  68  93
ATOM     93  C   UNL     1      10.229   1.123  -0.230  1.00  0.00     0.058 A 
ATOM     94  C   UNL     1      10.617   0.286   0.826  1.00  0.00     0.135 A 
ATOM     95  C   UNL     1      11.227   1.343  -1.216  1.00  0.00     0.135 A 
ATOM     96  F   UNL     1       9.726  -0.218   1.691  1.00  0.00    -0.206 F 
ATOM     97  C   UNL     1      11.941  -0.092   1.022  1.00  0.00     0.059 A 
ATOM     98  C   UNL     1      12.523   0.864  -1.107  1.00  0.00     0.059 A 
ATOM     99  F   UNL     1      10.992   2.044  -2.335  1.00  0.00    -0.206 F 
ATOM    100  C   UNL     1      12.892   0.224   0.060  1.00  0.00     0.060 A 
BRANCH 100 101
ATOM    101  S   UNL     1      14.610  -0.196   0.354  1.00  0.00     0.124 S 
ATOM    102  O   UNL     1      15.005   0.856   1.285  1.00  0.00    -0.237 OA
ATOM    103  O   UNL     1      14.512  -1.538   0.918  1.00  0.00    -0.237 OA
ATOM    104  O   UNL     1      15.212  -0.121  -0.974  1.00  0.00    -0.744 OA
ENDBRANCH 100 101
ENDBRANCH  68  93
ENDBRANCH  42  43
ENDBRANCH  34  37
ENDBRANCH  32  33
ENDBRANCH  31  32
ENDBRANCH   1  31
TORSDOF 18
