REMARK SMILES NC(=O)c1c(-c2ccc(Cl)cc2)csc1NC(=O)[C@H]1[C@@H](C(=O)NCCCNC(=O)c2ccc(-c3c4nc(c(-c5c(F)cc(S(=O)(=O)[O-])cc5F)c5ccc([nH]5)c(-c5c(F)cc(S(=O)(=O)[O-])cc5F)c5nc(c(-c6c(F)cc(S(=O)(=O)[O-])cc6F)c6ccc3[nH]6)C=C5)C=C4)cc2)[C@@H]2CC[C@H]1O2
REMARK SMILES IDX 25 1 24 2 23 3 21 4 22 5 20 7 19 8 99 9 96 10 98 11 100 12
REMARK SMILES IDX 97 13 17 14 16 15 18 17 15 18 4 19 5 20 13 21 14 22 2 23
REMARK SMILES IDX 1 24 3 27 6 28 7 29 12 30 8 31 11 32 9 33 10 34 26 35 27 36
REMARK SMILES IDX 28 37 29 39 30 40 31 41 95 42 32 43 94 44 33 45 34 46 35 47
REMARK SMILES IDX 88 48 36 49 93 50 87 51 89 52 37 53 92 54 86 55 85 56 38 58
REMARK SMILES IDX 72 59 51 60 71 61 52 62 55 63 70 64 90 65 53 66 54 67 69 69
REMARK SMILES IDX 91 70 56 71 39 72 40 73 49 74 41 75 42 76 48 77 50 78 43 79
REMARK SMILES IDX 44 80 45 81 46 82 47 83 73 84 74 85 83 86 75 87 76 88 82 89
REMARK SMILES IDX 84 90 77 91 78 92 79 93 80 94 81 95 57 96 58 97 67 98 59 99
REMARK SMILES IDX 60 100 66 101 68 102 61 103 62 104 63 105 64 106 65 107
REMARK H PARENT 23 6 16 16 1 25 1 26 27 38 89 57 55 68
REMARK Flexibility Score: inf
ROOT
ATOM      1  C   UNL     1      -2.152 -10.205   4.296  1.00  0.00     0.042 C 
ENDROOT
BRANCH   1   2
ATOM      2  C   UNL     1      -0.728  -9.814   4.685  1.00  0.00     0.117 C 
BRANCH   2   3
ATOM      3  N   UNL     1       0.299 -10.026   3.679  1.00  0.00    -0.356 N 
ATOM      4  C   UNL     1       0.949  -9.107   2.887  1.00  0.00     0.226 C 
ATOM      5  O   UNL     1       2.009  -9.446   2.368  1.00  0.00    -0.275 OA
ATOM      6  H   UNL     1       0.569 -10.963   3.544  1.00  0.00     0.163 HD
BRANCH   4   7
ATOM      7  C   UNL     1       0.316  -7.737   2.700  1.00  0.00     0.122 C 
ATOM      8  C   UNL     1       0.619  -6.909   1.423  1.00  0.00     0.123 C 
ATOM      9  C   UNL     1       1.210  -5.621   2.054  1.00  0.00     0.132 C 
ATOM     10  C   UNL     1       0.801  -6.805   3.820  1.00  0.00     0.132 C 
ATOM     11  C   UNL     1       0.120  -4.798   2.747  1.00  0.00     0.035 C 
ATOM     12  O   UNL     1       1.917  -6.136   3.206  1.00  0.00    -0.373 OA
ATOM     13  C   UNL     1      -0.170  -5.635   3.993  1.00  0.00     0.035 C 
BRANCH   8  14
ATOM     14  C   UNL     1       1.550  -7.400   0.309  1.00  0.00     0.231 C 
ATOM     15  N   UNL     1       1.392  -8.555  -0.393  1.00  0.00    -0.317 N 
ATOM     16  H   UNL     1       2.043  -8.668  -1.123  1.00  0.00     0.170 HD
ATOM     17  O   UNL     1       2.482  -6.679  -0.079  1.00  0.00    -0.274 OA
BRANCH  15  18
ATOM     18  C   UNL     1       0.499  -9.593  -0.281  1.00  0.00     0.108 A 
ATOM     19  C   UNL     1       0.742 -10.916  -0.619  1.00  0.00     0.082 A 
ATOM     20  C   UNL     1      -0.182 -11.748   0.111  1.00  0.00     0.007 A 
ATOM     21  C   UNL     1      -1.318 -11.039   0.447  1.00  0.00     0.076 A 
ATOM     22  S   UNL     1      -1.115  -9.362   0.181  1.00  0.00    -0.125 S 
BRANCH  19  23
ATOM     23  C   UNL     1       1.874 -11.347  -1.428  1.00  0.00     0.252 C 
ATOM     24  N   UNL     1       1.711 -12.545  -2.061  1.00  0.00    -0.365 N 
ATOM     25  H   UNL     1       2.433 -12.905  -2.626  1.00  0.00     0.159 HD
ATOM     26  H   UNL     1       0.873 -13.049  -1.952  1.00  0.00     0.159 HD
ATOM     27  O   UNL     1       2.867 -10.652  -1.640  1.00  0.00    -0.269 OA
ENDBRANCH  19  23
BRANCH  20  28
ATOM     28  C   UNL     1       0.037 -13.110   0.581  1.00  0.00    -0.017 A 
ATOM     29  C   UNL     1      -0.838 -14.151   0.268  1.00  0.00     0.010 A 
ATOM     30  C   UNL     1       1.140 -13.363   1.419  1.00  0.00     0.010 A 
ATOM     31  C   UNL     1      -0.627 -15.427   0.807  1.00  0.00     0.021 A 
ATOM     32  C   UNL     1       1.346 -14.635   1.958  1.00  0.00     0.021 A 
ATOM     33  C   UNL     1       0.456 -15.661   1.655  1.00  0.00     0.041 A 
ATOM     34  Cl  UNL     1       0.688 -17.221   2.338  1.00  0.00    -0.084 Cl
ENDBRANCH  20  28
ENDBRANCH  15  18
ENDBRANCH   8  14
ENDBRANCH   4   7
ENDBRANCH   2   3
ENDBRANCH   1   2
BRANCH   1  35
ATOM     35  C   UNL     1      -2.462 -11.676   3.999  1.00  0.00     0.118 C 
BRANCH  35  36
ATOM     36  N   UNL     1      -1.769 -12.673   4.790  1.00  0.00    -0.352 N 
ATOM     37  C   UNL     1      -2.063 -14.013   4.925  1.00  0.00     0.251 C 
ATOM     38  H   UNL     1      -0.988 -12.352   5.296  1.00  0.00     0.163 HD
ATOM     39  O   UNL     1      -1.371 -14.705   5.667  1.00  0.00    -0.269 OA
BRANCH  37  40
ATOM     40  C   UNL     1      -3.217 -14.624   4.217  1.00  0.00     0.039 A 
ATOM     41  C   UNL     1      -4.113 -15.418   4.943  1.00  0.00     0.014 A 
ATOM     42  C   UNL     1      -3.407 -14.459   2.843  1.00  0.00     0.014 A 
ATOM     43  C   UNL     1      -5.233 -15.976   4.311  1.00  0.00     0.010 A 
ATOM     44  C   UNL     1      -4.520 -15.015   2.210  1.00  0.00     0.010 A 
ATOM     45  C   UNL     1      -5.457 -15.756   2.944  1.00  0.00    -0.014 A 
BRANCH  45  46
ATOM     46  C   UNL     1      -6.726 -16.160   2.289  1.00  0.00     0.031 A 
ATOM     47  C   UNL     1      -6.812 -17.385   1.427  1.00  0.00     0.074 A 
ATOM     48  C   UNL     1      -7.779 -15.326   2.388  1.00  0.00     0.049 A 
ATOM     49  N   UNL     1      -7.828 -17.828   0.732  1.00  0.00    -0.248 NA
ATOM     50  C   UNL     1      -5.601 -18.209   1.319  1.00  0.00     0.031 C 
ATOM     51  C   UNL     1      -7.790 -14.078   3.156  1.00  0.00     0.029 A 
ATOM     52  N   UNL     1      -9.023 -15.376   1.814  1.00  0.00    -0.354 N 
ATOM     53  C   UNL     1      -7.390 -18.993   0.114  1.00  0.00     0.074 A 
ATOM     54  C   UNL     1      -5.999 -19.163   0.485  1.00  0.00     0.031 C 
ATOM     55  C   UNL     1      -8.971 -13.465   2.978  1.00  0.00     0.029 A 
ATOM     56  C   UNL     1      -9.794 -14.269   2.079  1.00  0.00     0.049 A 
ATOM     57  H   UNL     1      -9.335 -16.131   1.265  1.00  0.00     0.167 HD
ATOM     58  C   UNL     1      -8.090 -19.844  -0.677  1.00  0.00     0.037 A 
ATOM     59  C   UNL     1     -11.020 -13.930   1.638  1.00  0.00     0.037 A 
ATOM     60  C   UNL     1      -9.471 -19.655  -1.051  1.00  0.00     0.049 A 
ATOM     61  C   UNL     1     -11.766 -14.873   0.739  1.00  0.00     0.074 A 
ATOM     62  C   UNL     1     -10.290 -20.501  -1.779  1.00  0.00     0.029 A 
ATOM     63  N   UNL     1     -10.231 -18.535  -0.746  1.00  0.00    -0.354 N 
ATOM     64  N   UNL     1     -11.373 -16.026   0.252  1.00  0.00    -0.248 NA
ATOM     65  C   UNL     1     -13.124 -14.480   0.341  1.00  0.00     0.031 C 
ATOM     66  C   UNL     1     -11.529 -19.872  -1.955  1.00  0.00     0.029 A 
ATOM     67  C   UNL     1     -11.496 -18.651  -1.300  1.00  0.00     0.049 A 
ATOM     68  H   UNL     1      -9.917 -17.768  -0.213  1.00  0.00     0.167 HD
ATOM     69  C   UNL     1     -12.444 -16.507  -0.492  1.00  0.00     0.074 A 
ATOM     70  C   UNL     1     -13.503 -15.524  -0.385  1.00  0.00     0.031 C 
ATOM     71  C   UNL     1     -12.540 -17.661  -1.196  1.00  0.00     0.037 A 
BRANCH  58  72
ATOM     72  C   UNL     1      -7.382 -21.068  -1.191  1.00  0.00     0.058 A 
ATOM     73  C   UNL     1      -7.067 -22.141  -0.342  1.00  0.00     0.135 A 
ATOM     74  C   UNL     1      -7.073 -21.202  -2.555  1.00  0.00     0.135 A 
ATOM     75  F   UNL     1      -7.336 -22.065   0.971  1.00  0.00    -0.206 F 
ATOM     76  C   UNL     1      -6.449 -23.292  -0.821  1.00  0.00     0.059 A 
ATOM     77  C   UNL     1      -6.475 -22.354  -3.060  1.00  0.00     0.059 A 
ATOM     78  F   UNL     1      -7.357 -20.209  -3.412  1.00  0.00    -0.206 F 
ATOM     79  C   UNL     1      -6.155 -23.389  -2.183  1.00  0.00     0.060 A 
BRANCH  79  80
ATOM     80  S   UNL     1      -5.357 -24.890  -2.789  1.00  0.00     0.124 S 
ATOM     81  O   UNL     1      -3.994 -24.712  -2.299  1.00  0.00    -0.237 OA
ATOM     82  O   UNL     1      -6.131 -25.942  -2.139  1.00  0.00    -0.237 OA
ATOM     83  O   UNL     1      -5.520 -24.801  -4.237  1.00  0.00    -0.744 OA
ENDBRANCH  79  80
ENDBRANCH  58  72
BRANCH  59  84
ATOM     84  C   UNL     1     -11.620 -12.641   2.066  1.00  0.00     0.058 A 
ATOM     85  C   UNL     1     -12.645 -12.608   3.021  1.00  0.00     0.135 A 
ATOM     86  C   UNL     1     -11.148 -11.419   1.564  1.00  0.00     0.135 A 
ATOM     87  F   UNL     1     -13.128 -13.753   3.526  1.00  0.00    -0.206 F 
ATOM     88  C   UNL     1     -13.187 -11.406   3.463  1.00  0.00     0.059 A 
ATOM     89  C   UNL     1     -11.661 -10.203   2.004  1.00  0.00     0.059 A 
ATOM     90  F   UNL     1     -10.153 -11.400   0.663  1.00  0.00    -0.206 F 
ATOM     91  C   UNL     1     -12.684 -10.208   2.951  1.00  0.00     0.060 A 
BRANCH  91  92
ATOM     92  S   UNL     1     -13.342  -8.651   3.588  1.00  0.00     0.124 S 
ATOM     93  O   UNL     1     -14.640  -8.589   2.928  1.00  0.00    -0.237 OA
ATOM     94  O   UNL     1     -13.366  -8.894   5.027  1.00  0.00    -0.237 OA
ATOM     95  O   UNL     1     -12.358  -7.668   3.145  1.00  0.00    -0.744 OA
ENDBRANCH  91  92
ENDBRANCH  59  84
BRANCH  71  96
ATOM     96  C   UNL     1     -13.840 -17.931  -1.900  1.00  0.00     0.058 A 
ATOM     97  C   UNL     1     -14.191 -17.251  -3.076  1.00  0.00     0.135 A 
ATOM     98  C   UNL     1     -14.725 -18.908  -1.417  1.00  0.00     0.135 A 
ATOM     99  F   UNL     1     -13.384 -16.299  -3.572  1.00  0.00    -0.206 F 
ATOM    100  C   UNL     1     -15.383 -17.519  -3.742  1.00  0.00     0.059 A 
ATOM    101  C   UNL     1     -15.912 -19.208  -2.079  1.00  0.00     0.059 A 
ATOM    102  F   UNL     1     -14.434 -19.590  -0.298  1.00  0.00    -0.206 F 
ATOM    103  C   UNL     1     -16.236 -18.501  -3.236  1.00  0.00     0.060 A 
BRANCH 103 104
ATOM    104  S   UNL     1     -17.762 -18.866  -4.130  1.00  0.00     0.124 S 
ATOM    105  O   UNL     1     -18.594 -17.723  -3.771  1.00  0.00    -0.237 OA
ATOM    106  O   UNL     1     -17.310 -18.912  -5.517  1.00  0.00    -0.237 OA
ATOM    107  O   UNL     1     -18.182 -20.149  -3.572  1.00  0.00    -0.744 OA
ENDBRANCH 103 104
ENDBRANCH  71  96
ENDBRANCH  45  46
ENDBRANCH  37  40
ENDBRANCH  35  36
ENDBRANCH   1  35
TORSDOF 17
