REMARK SMILES CN(/N=C/c1ccccc1C(=O)NCCCNC(=O)c1ccc(-c2c3nc(c(-c4c(F)cc(S(=O)(=O)[O-])cc4F)c4ccc([nH]4)c(-c4c(F)cc(S(=O)(=O)[O-])cc4F)c4nc(c(-c5c(F)cc(S(=O)(=O)[O-])cc5F)c5ccc2[nH]5)C=C4)C=C3)cc1)C1=[NH+]CCCCN1
REMARK SMILES IDX 14 1 13 2 11 3 12 4 10 6 5 7 6 8 7 9 9 10 8 11 4 12 3 13
REMARK SMILES IDX 2 14 1 15 86 16 87 17 92 18 88 21 89 22 91 24 90 25 15 27
REMARK SMILES IDX 16 28 17 29 18 30 19 32 20 33 21 34 85 35 22 36 84 37 23 38
REMARK SMILES IDX 24 39 25 40 78 41 26 42 83 43 77 44 79 45 27 46 82 47 76 48
REMARK SMILES IDX 75 49 28 51 62 52 41 53 61 54 42 55 45 56 60 57 80 58 43 59
REMARK SMILES IDX 44 60 59 62 81 63 46 64 29 65 30 66 39 67 31 68 32 69 38 70
REMARK SMILES IDX 40 71 33 72 34 73 35 74 36 75 37 76 63 77 64 78 73 79 65 80
REMARK SMILES IDX 66 81 72 82 74 83 67 84 68 85 69 86 70 87 71 88 47 89 48 90
REMARK SMILES IDX 57 91 49 92 50 93 56 94 58 95 51 96 52 97 53 98 54 99 55 100
REMARK H PARENT 13 5 87 19 92 20 17 31 79 50 45 61
REMARK Flexibility Score: 90.00
ROOT
ATOM      1  C   UNL     1       1.127   1.415   2.507  1.00  0.00     0.118 C 
ENDROOT
BRANCH   1   2
ATOM      2  N   UNL     1       0.899   1.080   3.893  1.00  0.00    -0.352 N 
ATOM      3  C   UNL     1      -0.296   1.116   4.581  1.00  0.00     0.251 C 
ATOM      4  O   UNL     1      -0.345   0.646   5.718  1.00  0.00    -0.269 OA
ATOM      5  H   UNL     1       1.689   0.793   4.406  1.00  0.00     0.163 HD
BRANCH   3   6
ATOM      6  C   UNL     1      -1.479   1.863   4.067  1.00  0.00     0.048 A 
ATOM      7  C   UNL     1      -2.089   1.729   2.809  1.00  0.00     0.009 A 
ATOM      8  C   UNL     1      -3.092   2.624   2.409  1.00  0.00     0.010 A 
ATOM      9  C   UNL     1      -3.548   3.607   3.286  1.00  0.00     0.001 A 
ATOM     10  C   UNL     1      -1.979   2.838   4.951  1.00  0.00     0.014 A 
ATOM     11  C   UNL     1      -3.007   3.701   4.565  1.00  0.00     0.001 A 
BRANCH   7  12
ATOM     12  C   UNL     1      -1.697   0.727   1.804  1.00  0.00     0.159 C 
ATOM     13  N   UNL     1      -1.477  -0.501   2.129  1.00  0.00    -0.118 NA
BRANCH  13  14
ATOM     14  N   UNL     1      -0.831  -1.350   1.224  1.00  0.00    -0.147 N 
ATOM     15  C   UNL     1      -0.435  -0.897  -0.121  1.00  0.00     0.279 C 
BRANCH  14  16
ATOM     16  C   UNL     1      -0.125  -2.431   1.765  1.00  0.00     0.369 C 
ATOM     17  N   UNL     1       1.093  -2.654   1.440  1.00  0.00    -0.276 N 
ATOM     18  N   UNL     1      -0.873  -3.081   2.699  1.00  0.00    -0.276 N 
ATOM     19  H   UNL     1       1.500  -2.051   0.776  1.00  0.00     0.260 HD
ATOM     20  H   UNL     1      -1.853  -3.000   2.641  1.00  0.00     0.260 HD
BRANCH  17  21
ATOM     21  C   UNL     1       1.923  -3.721   1.969  1.00  0.00     0.197 C 
BRANCH  21  22
ATOM     22  C   UNL     1       1.194  -5.048   2.031  1.00  0.00     0.041 CG0
ATOM     23  G   UNL     1       0.295  -5.174   3.259  1.00  0.00     0.000 G0
ENDBRANCH  21  22
ENDBRANCH  17  21
BRANCH  18  24
ATOM     24  C   UNL     1      -0.328  -3.875   3.761  1.00  0.00     0.197 C 
BRANCH  24  25
ATOM     25  C   UNL     1       0.295  -5.174   3.259  1.00  0.00     0.041 CG0
ATOM     26  G   UNL     1       1.194  -5.048   2.031  1.00  0.00     0.000 G0
ENDBRANCH  24  25
ENDBRANCH  18  24
ENDBRANCH  14  16
ENDBRANCH  13  14
ENDBRANCH   7  12
ENDBRANCH   3   6
ENDBRANCH   1   2
BRANCH   1  27
ATOM     27  C   UNL     1       2.554   1.699   2.091  1.00  0.00     0.042 C 
BRANCH  27  28
ATOM     28  C   UNL     1       3.463   0.476   2.006  1.00  0.00     0.118 C 
BRANCH  28  29
ATOM     29  N   UNL     1       2.972  -0.599   1.144  1.00  0.00    -0.352 N 
ATOM     30  C   UNL     1       3.422  -1.177  -0.023  1.00  0.00     0.251 C 
ATOM     31  H   UNL     1       2.133  -0.998   1.470  1.00  0.00     0.163 HD
ATOM     32  O   UNL     1       2.702  -1.926  -0.668  1.00  0.00    -0.269 OA
BRANCH  30  33
ATOM     33  C   UNL     1       4.743  -0.876  -0.586  1.00  0.00     0.039 A 
ATOM     34  C   UNL     1       4.899  -1.046  -1.969  1.00  0.00     0.014 A 
ATOM     35  C   UNL     1       5.797  -0.410   0.186  1.00  0.00     0.014 A 
ATOM     36  C   UNL     1       6.046  -0.587  -2.590  1.00  0.00     0.010 A 
ATOM     37  C   UNL     1       6.862   0.199  -0.443  1.00  0.00     0.010 A 
ATOM     38  C   UNL     1       6.977   0.133  -1.836  1.00  0.00    -0.014 A 
BRANCH  38  39
ATOM     39  C   UNL     1       8.072   0.862  -2.491  1.00  0.00     0.031 A 
ATOM     40  C   UNL     1       9.481   0.521  -2.127  1.00  0.00     0.074 A 
ATOM     41  C   UNL     1       7.753   1.883  -3.309  1.00  0.00     0.049 A 
ATOM     42  N   UNL     1      10.582   1.135  -2.456  1.00  0.00    -0.248 NA
ATOM     43  C   UNL     1       9.676  -0.627  -1.223  1.00  0.00     0.031 C 
ATOM     44  C   UNL     1       6.387   2.313  -3.641  1.00  0.00     0.029 A 
ATOM     45  N   UNL     1       8.545   2.753  -4.003  1.00  0.00    -0.354 N 
ATOM     46  C   UNL     1      11.592   0.472  -1.772  1.00  0.00     0.074 A 
ATOM     47  C   UNL     1      10.969  -0.544  -0.956  1.00  0.00     0.031 C 
ATOM     48  C   UNL     1       6.441   3.337  -4.505  1.00  0.00     0.029 A 
ATOM     49  C   UNL     1       7.837   3.671  -4.745  1.00  0.00     0.049 A 
ATOM     50  H   UNL     1       9.528   2.727  -3.976  1.00  0.00     0.167 HD
ATOM     51  C   UNL     1      12.924   0.684  -1.851  1.00  0.00     0.037 A 
ATOM     52  C   UNL     1       8.281   4.673  -5.523  1.00  0.00     0.037 A 
ATOM     53  C   UNL     1      13.498   1.676  -2.718  1.00  0.00     0.049 A 
ATOM     54  C   UNL     1       9.768   4.848  -5.638  1.00  0.00     0.074 A 
ATOM     55  C   UNL     1      14.830   1.954  -2.951  1.00  0.00     0.029 A 
ATOM     56  N   UNL     1      12.757   2.548  -3.509  1.00  0.00    -0.354 N 
ATOM     57  N   UNL     1      10.723   4.179  -5.032  1.00  0.00    -0.248 NA
ATOM     58  C   UNL     1      10.245   5.900  -6.541  1.00  0.00     0.031 C 
ATOM     59  C   UNL     1      14.894   3.018  -3.857  1.00  0.00     0.029 A 
ATOM     60  C   UNL     1      13.603   3.372  -4.226  1.00  0.00     0.049 A 
ATOM     61  H   UNL     1      11.774   2.574  -3.552  1.00  0.00     0.167 HD
ATOM     62  C   UNL     1      11.916   4.712  -5.495  1.00  0.00     0.074 A 
ATOM     63  C   UNL     1      11.559   5.749  -6.447  1.00  0.00     0.031 C 
ATOM     64  C   UNL     1      13.191   4.385  -5.168  1.00  0.00     0.037 A 
BRANCH  51  65
ATOM     65  C   UNL     1      13.817  -0.170  -0.996  1.00  0.00     0.058 A 
ATOM     66  C   UNL     1      13.955  -1.551  -1.218  1.00  0.00     0.135 A 
ATOM     67  C   UNL     1      14.540   0.394   0.067  1.00  0.00     0.135 A 
ATOM     68  F   UNL     1      13.267  -2.151  -2.203  1.00  0.00    -0.206 F 
ATOM     69  C   UNL     1      14.749  -2.346  -0.399  1.00  0.00     0.059 A 
ATOM     70  C   UNL     1      15.366  -0.377   0.880  1.00  0.00     0.059 A 
ATOM     71  F   UNL     1      14.438   1.705   0.334  1.00  0.00    -0.206 F 
ATOM     72  C   UNL     1      15.452  -1.749   0.648  1.00  0.00     0.060 A 
BRANCH  72  73
ATOM     73  S   UNL     1      16.488  -2.794   1.694  1.00  0.00     0.124 S 
ATOM     74  O   UNL     1      15.484  -3.514   2.473  1.00  0.00    -0.237 OA
ATOM     75  O   UNL     1      17.218  -3.590   0.713  1.00  0.00    -0.237 OA
ATOM     76  O   UNL     1      17.292  -1.833   2.443  1.00  0.00    -0.744 OA
ENDBRANCH  72  73
ENDBRANCH  51  65
BRANCH  52  77
ATOM     77  C   UNL     1       7.319   5.537  -6.258  1.00  0.00     0.058 A 
ATOM     78  C   UNL     1       7.201   5.459  -7.654  1.00  0.00     0.135 A 
ATOM     79  C   UNL     1       6.469   6.428  -5.583  1.00  0.00     0.135 A 
ATOM     80  F   UNL     1       7.983   4.617  -8.346  1.00  0.00    -0.206 F 
ATOM     81  C   UNL     1       6.294   6.247  -8.357  1.00  0.00     0.059 A 
ATOM     82  C   UNL     1       5.537   7.208  -6.261  1.00  0.00     0.059 A 
ATOM     83  F   UNL     1       6.519   6.522  -4.245  1.00  0.00    -0.206 F 
ATOM     84  C   UNL     1       5.465   7.120  -7.651  1.00  0.00     0.060 A 
BRANCH  84  85
ATOM     85  S   UNL     1       4.268   8.112  -8.569  1.00  0.00     0.124 S 
ATOM     86  O   UNL     1       5.133   9.090  -9.218  1.00  0.00    -0.237 OA
ATOM     87  O   UNL     1       3.654   7.120  -9.446  1.00  0.00    -0.237 OA
ATOM     88  O   UNL     1       3.394   8.638  -7.523  1.00  0.00    -0.744 OA
ENDBRANCH  84  85
ENDBRANCH  52  77
BRANCH  64  89
ATOM     89  C   UNL     1      14.280   5.139  -5.870  1.00  0.00     0.058 A 
ATOM     90  C   UNL     1      14.573   6.472  -5.548  1.00  0.00     0.135 A 
ATOM     91  C   UNL     1      15.073   4.497  -6.833  1.00  0.00     0.135 A 
ATOM     92  F   UNL     1      13.834   7.127  -4.639  1.00  0.00    -0.206 F 
ATOM     93  C   UNL     1      15.607   7.153  -6.176  1.00  0.00     0.059 A 
ATOM     94  C   UNL     1      16.132   5.149  -7.451  1.00  0.00     0.059 A 
ATOM     95  F   UNL     1      14.835   3.217  -7.164  1.00  0.00    -0.206 F 
ATOM     96  C   UNL     1      16.383   6.481  -7.124  1.00  0.00     0.060 A 
BRANCH  96  97
ATOM     97  S   UNL     1      17.748   7.366  -7.902  1.00  0.00     0.124 S 
ATOM     98  O   UNL     1      17.037   8.251  -8.819  1.00  0.00    -0.237 OA
ATOM     99  O   UNL     1      18.389   8.014  -6.763  1.00  0.00    -0.237 OA
ATOM    100  O   UNL     1      18.526   6.303  -8.531  1.00  0.00    -0.744 OA
ENDBRANCH  96  97
ENDBRANCH  64  89
ENDBRANCH  38  39
ENDBRANCH  30  33
ENDBRANCH  28  29
ENDBRANCH  27  28
ENDBRANCH   1  27
TORSDOF 16
