REMARK SMILES COCC[C@@]1(C(=O)NCCCNC(=O)c2ccc(-c3c4nc(c(-c5c(F)cc(S(=O)(=O)[O-])cc5F)c5ccc([nH]5)c(-c5c(F)cc(S(=O)(=O)[O-])cc5F)c5nc(c(-c6c(F)cc(S(=O)(=O)[O-])cc6F)c6ccc3[nH]6)C=C5)C=C4)cc2)CCCN(C(=O)NCc2ccc(OC)cc2)C1
REMARK SMILES IDX 9 1 8 2 6 3 7 4 5 6 81 7 97 8 82 9 84 10 83 11 4 12 3 13
REMARK SMILES IDX 2 14 1 15 85 16 86 17 87 18 88 20 89 21 90 22 96 23 91 24
REMARK SMILES IDX 95 25 92 26 93 27 94 28 10 29 11 30 12 31 13 32 14 34 15 35
REMARK SMILES IDX 16 36 80 37 17 38 79 39 18 40 19 41 20 42 73 43 21 44 78 45
REMARK SMILES IDX 72 46 74 47 22 48 77 49 71 50 70 51 23 53 57 54 36 55 56 56
REMARK SMILES IDX 37 57 40 58 55 59 75 60 38 61 39 62 54 64 76 65 41 66 24 67
REMARK SMILES IDX 25 68 34 69 26 70 27 71 33 72 35 73 28 74 29 75 30 76 31 77
REMARK SMILES IDX 32 78 58 79 59 80 68 81 60 82 61 83 67 84 69 85 62 86 63 87
REMARK SMILES IDX 64 88 65 89 66 90 42 91 43 92 52 93 44 94 45 95 51 96 53 97
REMARK SMILES IDX 46 98 47 99 48 100 49 101 50 102
REMARK H PARENT 8 5 87 19 12 33 74 52 40 63
REMARK Flexibility Score: inf
ROOT
ATOM      1  C   UNL     1      -1.496  -1.696  -0.393  1.00  0.00     0.117 C 
ENDROOT
BRANCH   1   2
ATOM      2  N   UNL     1      -0.521  -2.465  -1.132  1.00  0.00    -0.355 N 
ATOM      3  C   UNL     1       0.524  -2.172  -1.927  1.00  0.00     0.228 C 
ATOM      4  O   UNL     1       1.034  -3.184  -2.436  1.00  0.00    -0.274 OA
ATOM      5  H   UNL     1      -0.654  -3.435  -1.030  1.00  0.00     0.163 HD
BRANCH   3   6
ATOM      6  C   UNL     1       1.188  -0.782  -2.167  1.00  0.00     0.069 C 
ATOM      7  C   UNL     1       2.429  -0.745  -1.239  1.00  0.00     0.021 C 
ATOM      8  C   UNL     1       0.321   0.478  -1.996  1.00  0.00     0.138 C 
ATOM      9  C   UNL     1       2.109  -0.243   0.172  1.00  0.00     0.023 C 
ATOM     10  N   UNL     1       0.179   1.012  -0.637  1.00  0.00    -0.324 N 
ATOM     11  C   UNL     1       1.419   1.110   0.114  1.00  0.00     0.121 C 
BRANCH   6  12
ATOM     12  C   UNL     1       1.623  -0.892  -3.687  1.00  0.00     0.047 C 
BRANCH  12  13
ATOM     13  C   UNL     1       2.043   0.353  -4.471  1.00  0.00     0.161 C 
BRANCH  13  14
ATOM     14  O   UNL     1       3.325   0.814  -4.065  1.00  0.00    -0.385 OA
ATOM     15  C   UNL     1       3.311   2.113  -3.494  1.00  0.00     0.194 C 
ENDBRANCH  13  14
ENDBRANCH  12  13
ENDBRANCH   6  12
BRANCH  10  16
ATOM     16  C   UNL     1      -0.954   1.743  -0.408  1.00  0.00     0.317 C 
ATOM     17  O   UNL     1      -1.655   2.150  -1.339  1.00  0.00    -0.249 OA
ATOM     18  N   UNL     1      -1.466   1.924   0.813  1.00  0.00    -0.334 N 
ATOM     19  H   UNL     1      -2.409   2.201   0.758  1.00  0.00     0.165 HD
BRANCH  18  20
ATOM     20  C   UNL     1      -1.039   1.831   2.194  1.00  0.00     0.153 C 
BRANCH  20  21
ATOM     21  C   UNL     1      -0.861   3.239   2.713  1.00  0.00    -0.028 A 
ATOM     22  C   UNL     1      -1.963   4.111   2.707  1.00  0.00     0.009 A 
ATOM     23  C   UNL     1       0.386   3.740   3.101  1.00  0.00     0.009 A 
ATOM     24  C   UNL     1      -1.810   5.457   3.026  1.00  0.00     0.047 A 
ATOM     25  C   UNL     1       0.532   5.093   3.443  1.00  0.00     0.047 A 
ATOM     26  C   UNL     1      -0.564   5.958   3.395  1.00  0.00     0.118 A 
BRANCH  26  27
ATOM     27  O   UNL     1      -0.555   7.298   3.662  1.00  0.00    -0.497 OA
ATOM     28  C   UNL     1       0.639   7.838   4.205  1.00  0.00     0.278 C 
ENDBRANCH  26  27
ENDBRANCH  20  21
ENDBRANCH  18  20
ENDBRANCH  10  16
ENDBRANCH   3   6
ENDBRANCH   1   2
BRANCH   1  29
ATOM     29  C   UNL     1      -2.578  -1.142  -1.306  1.00  0.00     0.042 C 
BRANCH  29  30
ATOM     30  C   UNL     1      -3.986  -1.396  -0.813  1.00  0.00     0.118 C 
BRANCH  30  31
ATOM     31  N   UNL     1      -4.263  -0.825   0.496  1.00  0.00    -0.352 N 
ATOM     32  C   UNL     1      -5.398  -0.194   0.948  1.00  0.00     0.251 C 
ATOM     33  H   UNL     1      -3.533  -0.902   1.153  1.00  0.00     0.163 HD
ATOM     34  O   UNL     1      -5.395   0.308   2.072  1.00  0.00    -0.269 OA
BRANCH  32  35
ATOM     35  C   UNL     1      -6.590  -0.070   0.073  1.00  0.00     0.039 A 
ATOM     36  C   UNL     1      -7.338   1.110   0.117  1.00  0.00     0.014 A 
ATOM     37  C   UNL     1      -6.957  -1.085  -0.813  1.00  0.00     0.014 A 
ATOM     38  C   UNL     1      -8.392   1.300  -0.782  1.00  0.00     0.010 A 
ATOM     39  C   UNL     1      -7.922  -0.847  -1.784  1.00  0.00     0.010 A 
ATOM     40  C   UNL     1      -8.662   0.343  -1.773  1.00  0.00    -0.014 A 
BRANCH  40  41
ATOM     41  C   UNL     1      -9.725   0.544  -2.792  1.00  0.00     0.031 A 
ATOM     42  C   UNL     1     -10.857  -0.447  -2.894  1.00  0.00     0.074 A 
ATOM     43  C   UNL     1      -9.627   1.561  -3.671  1.00  0.00     0.049 A 
ATOM     44  N   UNL     1     -11.815  -0.519  -3.781  1.00  0.00    -0.248 NA
ATOM     45  C   UNL     1     -10.892  -1.527  -1.892  1.00  0.00     0.031 C 
ATOM     46  C   UNL     1      -8.538   2.542  -3.719  1.00  0.00     0.029 A 
ATOM     47  N   UNL     1     -10.449   1.935  -4.704  1.00  0.00    -0.354 N 
ATOM     48  C   UNL     1     -12.538  -1.664  -3.466  1.00  0.00     0.074 A 
ATOM     49  C   UNL     1     -11.878  -2.287  -2.341  1.00  0.00     0.031 C 
ATOM     50  C   UNL     1      -8.778   3.421  -4.706  1.00  0.00     0.029 A 
ATOM     51  C   UNL     1     -10.012   3.047  -5.386  1.00  0.00     0.049 A 
ATOM     52  H   UNL     1     -11.275   1.452  -4.936  1.00  0.00     0.167 HD
ATOM     53  C   UNL     1     -13.668  -2.137  -4.042  1.00  0.00     0.037 A 
ATOM     54  C   UNL     1     -10.548   3.689  -6.443  1.00  0.00     0.037 A 
ATOM     55  C   UNL     1     -14.356  -1.471  -5.114  1.00  0.00     0.049 A 
ATOM     56  C   UNL     1     -11.836   3.175  -7.028  1.00  0.00     0.074 A 
ATOM     57  C   UNL     1     -15.554  -1.816  -5.713  1.00  0.00     0.029 A 
ATOM     58  N   UNL     1     -13.914  -0.313  -5.737  1.00  0.00    -0.354 N 
ATOM     59  N   UNL     1     -12.541   2.127  -6.673  1.00  0.00    -0.248 NA
ATOM     60  C   UNL     1     -12.407   3.932  -8.150  1.00  0.00     0.031 C 
ATOM     61  C   UNL     1     -15.823  -0.881  -6.718  1.00  0.00     0.029 A 
ATOM     62  C   UNL     1     -14.812   0.067  -6.719  1.00  0.00     0.049 A 
ATOM     63  H   UNL     1     -13.084   0.168  -5.513  1.00  0.00     0.167 HD
ATOM     64  C   UNL     1     -13.652   2.115  -7.509  1.00  0.00     0.074 A 
ATOM     65  C   UNL     1     -13.531   3.268  -8.378  1.00  0.00     0.031 C 
ATOM     66  C   UNL     1     -14.678   1.231  -7.556  1.00  0.00     0.037 A 
BRANCH  53  67
ATOM     67  C   UNL     1     -14.247  -3.418  -3.507  1.00  0.00     0.058 A 
ATOM     68  C   UNL     1     -14.858  -3.480  -2.245  1.00  0.00     0.135 A 
ATOM     69  C   UNL     1     -14.233  -4.588  -4.285  1.00  0.00     0.135 A 
ATOM     70  F   UNL     1     -14.883  -2.397  -1.452  1.00  0.00    -0.206 F 
ATOM     71  C   UNL     1     -15.415  -4.659  -1.762  1.00  0.00     0.059 A 
ATOM     72  C   UNL     1     -14.809  -5.772  -3.833  1.00  0.00     0.059 A 
ATOM     73  F   UNL     1     -13.659  -4.586  -5.498  1.00  0.00    -0.206 F 
ATOM     74  C   UNL     1     -15.387  -5.801  -2.565  1.00  0.00     0.060 A 
BRANCH  74  75
ATOM     75  S   UNL     1     -16.137  -7.316  -1.933  1.00  0.00     0.124 S 
ATOM     76  O   UNL     1     -15.151  -7.737  -0.943  1.00  0.00    -0.237 OA
ATOM     77  O   UNL     1     -17.407  -6.837  -1.397  1.00  0.00    -0.237 OA
ATOM     78  O   UNL     1     -16.239  -8.164  -3.116  1.00  0.00    -0.744 OA
ENDBRANCH  74  75
ENDBRANCH  53  67
BRANCH  54  79
ATOM     79  C   UNL     1      -9.890   4.902  -7.000  1.00  0.00     0.058 A 
ATOM     80  C   UNL     1     -10.468   6.170  -6.842  1.00  0.00     0.135 A 
ATOM     81  C   UNL     1      -8.680   4.820  -7.707  1.00  0.00     0.135 A 
ATOM     82  F   UNL     1     -11.625   6.301  -6.176  1.00  0.00    -0.206 F 
ATOM     83  C   UNL     1      -9.889   7.311  -7.389  1.00  0.00     0.059 A 
ATOM     84  C   UNL     1      -8.068   5.950  -8.242  1.00  0.00     0.059 A 
ATOM     85  F   UNL     1      -8.075   3.633  -7.870  1.00  0.00    -0.206 F 
ATOM     86  C   UNL     1      -8.689   7.189  -8.093  1.00  0.00     0.060 A 
BRANCH  86  87
ATOM     87  S   UNL     1      -7.936   8.677  -8.786  1.00  0.00     0.124 S 
ATOM     88  O   UNL     1      -8.790   8.926  -9.941  1.00  0.00    -0.237 OA
ATOM     89  O   UNL     1      -8.058   9.628  -7.685  1.00  0.00    -0.237 OA
ATOM     90  O   UNL     1      -6.572   8.252  -9.088  1.00  0.00    -0.744 OA
ENDBRANCH  86  87
ENDBRANCH  54  79
BRANCH  66  91
ATOM     91  C   UNL     1     -15.771   1.497  -8.550  1.00  0.00     0.058 A 
ATOM     92  C   UNL     1     -15.589   1.270  -9.922  1.00  0.00     0.135 A 
ATOM     93  C   UNL     1     -17.035   1.927  -8.114  1.00  0.00     0.135 A 
ATOM     94  F   UNL     1     -14.397   0.863 -10.387  1.00  0.00    -0.206 F 
ATOM     95  C   UNL     1     -16.618   1.480 -10.833  1.00  0.00     0.059 A 
ATOM     96  C   UNL     1     -18.085   2.120  -9.005  1.00  0.00     0.059 A 
ATOM     97  F   UNL     1     -17.262   2.147  -6.809  1.00  0.00    -0.206 F 
ATOM     98  C   UNL     1     -17.863   1.904 -10.364  1.00  0.00     0.060 A 
BRANCH  98  99
ATOM     99  S   UNL     1     -19.203   2.136 -11.552  1.00  0.00     0.124 S 
ATOM    100  O   UNL     1     -18.826   3.400 -12.175  1.00  0.00    -0.237 OA
ATOM    101  O   UNL     1     -19.082   0.951 -12.396  1.00  0.00    -0.237 OA
ATOM    102  O   UNL     1     -20.396   2.179 -10.712  1.00  0.00    -0.744 OA
ENDBRANCH  98  99
ENDBRANCH  66  91
ENDBRANCH  40  41
ENDBRANCH  32  35
ENDBRANCH  30  31
ENDBRANCH  29  30
ENDBRANCH   1  29
TORSDOF 20
