REMARK SMILES C[C@@H](NC(=O)CNC(=O)N1CC(=O)Nc2ccccc21)C(=O)NCCCNC(=O)c1ccc(-c2c3nc(c(-c4c(F)cc(S(=O)(=O)[O-])cc4F)c4ccc([nH]4)c(-c4c(F)cc(S(=O)(=O)[O-])cc4F)c4nc(c(-c5c(F)cc(S(=O)(=O)[O-])cc5F)c5ccc2[nH]5)C=C4)C=C3)cc1
REMARK SMILES IDX 24 1 23 2 21 3 22 4 2 6 1 7 3 8 4 9 5 11 6 12 7 13 8 14 9 16
REMARK SMILES IDX 10 17 11 18 20 19 12 20 15 21 19 22 13 23 14 24 16 25 18 26
REMARK SMILES IDX 17 28 25 29 26 30 27 31 28 32 29 34 30 35 31 36 95 37 32 38
REMARK SMILES IDX 94 39 33 40 34 41 35 42 88 43 36 44 93 45 87 46 89 47 37 48
REMARK SMILES IDX 92 49 86 50 85 51 38 53 72 54 51 55 71 56 52 57 55 58 70 59
REMARK SMILES IDX 90 60 53 61 54 62 69 64 91 65 56 66 39 67 40 68 49 69 41 70
REMARK SMILES IDX 42 71 48 72 50 73 43 74 44 75 45 76 46 77 47 78 73 79 74 80
REMARK SMILES IDX 83 81 75 82 76 83 82 84 84 85 77 86 78 87 79 88 80 89 81 90
REMARK SMILES IDX 57 91 58 92 67 93 59 94 60 95 66 96 68 97 61 98 62 99 63 100
REMARK SMILES IDX 64 101 65 102
REMARK H PARENT 23 5 3 10 7 15 14 27 27 33 89 52 55 63
REMARK Flexibility Score: inf
ROOT
ATOM      1  C   UNL     1      -0.451   2.329  -0.060  1.00  0.00     0.117 C 
ENDROOT
BRANCH   1   2
ATOM      2  N   UNL     1      -0.688   0.918  -0.305  1.00  0.00    -0.354 N 
ATOM      3  C   UNL     1      -0.088  -0.162   0.268  1.00  0.00     0.242 C 
ATOM      4  O   UNL     1      -0.281  -1.277  -0.222  1.00  0.00    -0.273 OA
ATOM      5  H   UNL     1      -1.378   0.713  -0.978  1.00  0.00     0.163 HD
BRANCH   3   6
ATOM      6  C   UNL     1       0.959   0.001   1.377  1.00  0.00     0.168 C 
ATOM      7  C   UNL     1       2.311   0.136   0.676  1.00  0.00     0.041 C 
BRANCH   6   8
ATOM      8  N   UNL     1       0.728   1.110   2.302  1.00  0.00    -0.343 N 
ATOM      9  C   UNL     1      -0.299   1.290   3.185  1.00  0.00     0.240 C 
ATOM     10  H   UNL     1       1.405   1.824   2.285  1.00  0.00     0.164 HD
ATOM     11  O   UNL     1      -0.299   2.318   3.866  1.00  0.00    -0.273 OA
BRANCH   9  12
ATOM     12  C   UNL     1      -1.488   0.322   3.211  1.00  0.00     0.218 C 
BRANCH  12  13
ATOM     13  N   UNL     1      -2.576   0.757   2.337  1.00  0.00    -0.329 N 
ATOM     14  C   UNL     1      -3.295  -0.013   1.459  1.00  0.00     0.322 C 
ATOM     15  H   UNL     1      -2.819   1.710   2.384  1.00  0.00     0.165 HD
ATOM     16  O   UNL     1      -3.805   0.542   0.489  1.00  0.00    -0.248 OA
BRANCH  14  17
ATOM     17  N   UNL     1      -3.330  -1.365   1.713  1.00  0.00    -0.283 N 
ATOM     18  C   UNL     1      -3.685  -1.863   3.039  1.00  0.00     0.227 C 
ATOM     19  C   UNL     1      -3.071  -2.361   0.724  1.00  0.00     0.070 A 
ATOM     20  C   UNL     1      -2.769  -2.977   3.510  1.00  0.00     0.244 C 
ATOM     21  C   UNL     1      -2.516  -3.581   1.164  1.00  0.00     0.065 A 
ATOM     22  C   UNL     1      -3.196  -2.139  -0.650  1.00  0.00     0.028 A 
ATOM     23  O   UNL     1      -2.575  -3.221   4.700  1.00  0.00    -0.273 OA
ATOM     24  N   UNL     1      -2.311  -3.820   2.533  1.00  0.00    -0.323 N 
ATOM     25  C   UNL     1      -2.062  -4.534   0.249  1.00  0.00     0.028 A 
ATOM     26  C   UNL     1      -2.759  -3.104  -1.565  1.00  0.00     0.002 A 
ATOM     27  H   UNL     1      -1.817  -4.628   2.801  1.00  0.00     0.170 HD
ATOM     28  C   UNL     1      -2.182  -4.292  -1.117  1.00  0.00     0.002 A 
ENDBRANCH  14  17
ENDBRANCH  12  13
ENDBRANCH   9  12
ENDBRANCH   6   8
ENDBRANCH   3   6
ENDBRANCH   1   2
BRANCH   1  29
ATOM     29  C   UNL     1      -0.952   3.202  -1.194  1.00  0.00     0.042 C 
BRANCH  29  30
ATOM     30  C   UNL     1      -2.468   3.318  -1.231  1.00  0.00     0.118 C 
BRANCH  30  31
ATOM     31  N   UNL     1      -3.007   4.181  -0.184  1.00  0.00    -0.352 N 
ATOM     32  C   UNL     1      -3.888   5.231  -0.316  1.00  0.00     0.251 C 
ATOM     33  H   UNL     1      -2.702   3.989   0.732  1.00  0.00     0.163 HD
ATOM     34  O   UNL     1      -4.197   5.921   0.649  1.00  0.00    -0.269 OA
BRANCH  32  35
ATOM     35  C   UNL     1      -4.401   5.546  -1.664  1.00  0.00     0.039 A 
ATOM     36  C   UNL     1      -4.155   6.813  -2.195  1.00  0.00     0.014 A 
ATOM     37  C   UNL     1      -4.987   4.544  -2.442  1.00  0.00     0.014 A 
ATOM     38  C   UNL     1      -4.403   7.045  -3.549  1.00  0.00     0.010 A 
ATOM     39  C   UNL     1      -5.154   4.753  -3.806  1.00  0.00     0.010 A 
ATOM     40  C   UNL     1      -4.848   5.999  -4.376  1.00  0.00    -0.014 A 
BRANCH  40  41
ATOM     41  C   UNL     1      -4.970   6.183  -5.845  1.00  0.00     0.031 A 
ATOM     42  C   UNL     1      -6.312   6.057  -6.508  1.00  0.00     0.074 A 
ATOM     43  C   UNL     1      -3.863   6.392  -6.588  1.00  0.00     0.049 A 
ATOM     44  N   UNL     1      -6.613   6.117  -7.779  1.00  0.00    -0.248 NA
ATOM     45  C   UNL     1      -7.465   5.803  -5.629  1.00  0.00     0.031 C 
ATOM     46  C   UNL     1      -2.496   6.478  -6.068  1.00  0.00     0.029 A 
ATOM     47  N   UNL     1      -3.710   6.559  -7.942  1.00  0.00    -0.354 N 
ATOM     48  C   UNL     1      -7.982   5.898  -7.853  1.00  0.00     0.074 A 
ATOM     49  C   UNL     1      -8.445   5.649  -6.506  1.00  0.00     0.031 C 
ATOM     50  C   UNL     1      -1.650   6.705  -7.086  1.00  0.00     0.029 A 
ATOM     51  C   UNL     1      -2.404   6.743  -8.335  1.00  0.00     0.049 A 
ATOM     52  H   UNL     1      -4.465   6.549  -8.574  1.00  0.00     0.167 HD
ATOM     53  C   UNL     1      -8.786   5.928  -8.943  1.00  0.00     0.037 A 
ATOM     54  C   UNL     1      -1.874   6.915  -9.562  1.00  0.00     0.037 A 
ATOM     55  C   UNL     1      -8.324   6.200 -10.278  1.00  0.00     0.049 A 
ATOM     56  C   UNL     1      -2.787   6.939 -10.758  1.00  0.00     0.074 A 
ATOM     57  C   UNL     1      -9.068   6.312 -11.438  1.00  0.00     0.029 A 
ATOM     58  N   UNL     1      -6.997   6.400 -10.632  1.00  0.00    -0.354 N 
ATOM     59  N   UNL     1      -4.091   6.801 -10.801  1.00  0.00    -0.248 NA
ATOM     60  C   UNL     1      -2.160   7.146 -12.071  1.00  0.00     0.031 C 
ATOM     61  C   UNL     1      -8.188   6.537 -12.502  1.00  0.00     0.029 A 
ATOM     62  C   UNL     1      -6.899   6.612 -11.997  1.00  0.00     0.049 A 
ATOM     63  H   UNL     1      -6.238   6.391 -10.005  1.00  0.00     0.167 HD
ATOM     64  C   UNL     1      -4.442   6.929 -12.140  1.00  0.00     0.074 A 
ATOM     65  C   UNL     1      -3.216   7.167 -12.873  1.00  0.00     0.031 C 
ATOM     66  C   UNL     1      -5.670   6.856 -12.711  1.00  0.00     0.037 A 
BRANCH  53  67
ATOM     67  C   UNL     1     -10.250   5.664  -8.731  1.00  0.00     0.058 A 
ATOM     68  C   UNL     1     -11.077   6.593  -8.078  1.00  0.00     0.135 A 
ATOM     69  C   UNL     1     -10.841   4.484  -9.210  1.00  0.00     0.135 A 
ATOM     70  F   UNL     1     -10.560   7.730  -7.585  1.00  0.00    -0.206 F 
ATOM     71  C   UNL     1     -12.432   6.348  -7.881  1.00  0.00     0.059 A 
ATOM     72  C   UNL     1     -12.200   4.231  -9.049  1.00  0.00     0.059 A 
ATOM     73  F   UNL     1     -10.096   3.562  -9.840  1.00  0.00    -0.206 F 
ATOM     74  C   UNL     1     -12.984   5.163  -8.370  1.00  0.00     0.060 A 
BRANCH  74  75
ATOM     75  S   UNL     1     -14.745   4.863  -8.111  1.00  0.00     0.124 S 
ATOM     76  O   UNL     1     -14.780   4.546  -6.686  1.00  0.00    -0.237 OA
ATOM     77  O   UNL     1     -15.339   6.141  -8.490  1.00  0.00    -0.237 OA
ATOM     78  O   UNL     1     -15.036   3.749  -9.009  1.00  0.00    -0.744 OA
ENDBRANCH  74  75
ENDBRANCH  53  67
BRANCH  54  79
ATOM     79  C   UNL     1      -0.405   7.095  -9.721  1.00  0.00     0.058 A 
ATOM     80  C   UNL     1       0.134   8.337 -10.088  1.00  0.00     0.135 A 
ATOM     81  C   UNL     1       0.488   6.035  -9.500  1.00  0.00     0.135 A 
ATOM     82  F   UNL     1      -0.680   9.379 -10.318  1.00  0.00    -0.206 F 
ATOM     83  C   UNL     1       1.504   8.520 -10.246  1.00  0.00     0.059 A 
ATOM     84  C   UNL     1       1.864   6.199  -9.629  1.00  0.00     0.059 A 
ATOM     85  F   UNL     1       0.025   4.830  -9.132  1.00  0.00    -0.206 F 
ATOM     86  C   UNL     1       2.362   7.444 -10.012  1.00  0.00     0.060 A 
BRANCH  86  87
ATOM     87  S   UNL     1       4.143   7.704 -10.171  1.00  0.00     0.124 S 
ATOM     88  O   UNL     1       4.301   7.772 -11.619  1.00  0.00    -0.237 OA
ATOM     89  O   UNL     1       4.336   8.956  -9.446  1.00  0.00    -0.237 OA
ATOM     90  O   UNL     1       4.712   6.523  -9.527  1.00  0.00    -0.744 OA
ENDBRANCH  86  87
ENDBRANCH  54  79
BRANCH  66  91
ATOM     91  C   UNL     1      -5.760   7.066 -14.197  1.00  0.00     0.058 A 
ATOM     92  C   UNL     1      -5.336   6.084 -15.105  1.00  0.00     0.135 A 
ATOM     93  C   UNL     1      -6.340   8.235 -14.715  1.00  0.00     0.135 A 
ATOM     94  F   UNL     1      -4.768   4.952 -14.661  1.00  0.00    -0.206 F 
ATOM     95  C   UNL     1      -5.470   6.261 -16.479  1.00  0.00     0.059 A 
ATOM     96  C   UNL     1      -6.508   8.421 -16.084  1.00  0.00     0.059 A 
ATOM     97  F   UNL     1      -6.771   9.200 -13.888  1.00  0.00    -0.206 F 
ATOM     98  C   UNL     1      -6.061   7.432 -16.958  1.00  0.00     0.060 A 
BRANCH  98  99
ATOM     99  S   UNL     1      -6.273   7.627 -18.741  1.00  0.00     0.124 S 
ATOM    100  O   UNL     1      -4.907   7.910 -19.169  1.00  0.00    -0.237 OA
ATOM    101  O   UNL     1      -6.806   6.327 -19.137  1.00  0.00    -0.237 OA
ATOM    102  O   UNL     1      -7.210   8.742 -18.851  1.00  0.00    -0.744 OA
ENDBRANCH  98  99
ENDBRANCH  66  91
ENDBRANCH  40  41
ENDBRANCH  32  35
ENDBRANCH  30  31
ENDBRANCH  29  30
ENDBRANCH   1  29
TORSDOF 17
