REMARK SMILES O=C(C[C@H]1C[C@H]2CC[C@@H](C1)N2C(=O)c1c[nH]c(=O)[nH]1)NCCCNC(=O)c1ccc(-c2c3nc(c(-c4c(F)cc(S(=O)(=O)[O-])cc4F)c4ccc([nH]4)c(-c4c(F)cc(S(=O)(=O)[O-])cc4F)c4nc(c(-c5c(F)cc(S(=O)(=O)[O-])cc5F)c5ccc2[nH]5)C=C4)C=C3)cc1
REMARK SMILES IDX 22 1 21 2 20 3 1 4 2 5 3 7 4 8 5 9 10 10 6 11 9 12 7 13
REMARK SMILES IDX 11 14 8 15 12 16 13 17 14 18 15 19 19 20 16 21 17 22 18 25
REMARK SMILES IDX 23 26 24 27 25 28 26 30 27 31 28 32 92 33 29 34 91 35 30 36
REMARK SMILES IDX 31 37 32 38 85 39 33 40 90 41 84 42 86 43 34 44 89 45 83 46
REMARK SMILES IDX 82 47 35 49 69 50 48 51 68 52 49 53 52 54 67 55 87 56 50 57
REMARK SMILES IDX 51 58 66 60 88 61 53 62 36 63 37 64 46 65 38 66 39 67 45 68
REMARK SMILES IDX 47 69 40 70 41 71 42 72 43 73 44 74 70 75 71 76 80 77 72 78
REMARK SMILES IDX 73 79 79 80 81 81 74 82 75 83 76 84 77 85 78 86 54 87 55 88
REMARK SMILES IDX 64 89 56 90 57 91 63 92 65 93 58 94 59 95 60 96 61 97 62 98
REMARK H PARENT 20 6 19 23 16 24 24 29 86 48 52 59
REMARK Flexibility Score: inf
ROOT
ATOM      1  C   UNL     1       2.318   0.398   3.497  1.00  0.00     0.042 C 
ENDROOT
BRANCH   1   2
ATOM      2  C   UNL     1       1.906   1.203   2.264  1.00  0.00     0.117 C 
BRANCH   2   3
ATOM      3  N   UNL     1       2.514   0.676   1.059  1.00  0.00    -0.356 N 
ATOM      4  O   UNL     1       0.680   0.826  -0.298  1.00  0.00    -0.275 OA
ATOM      5  C   UNL     1       1.849   0.493  -0.124  1.00  0.00     0.220 C 
ATOM      6  H   UNL     1       3.467   0.434   1.093  1.00  0.00     0.163 HD
BRANCH   5   7
ATOM      7  C   UNL     1       2.616  -0.292  -1.184  1.00  0.00     0.103 C 
BRANCH   7   8
ATOM      8  C   UNL     1       3.951   0.298  -1.701  1.00  0.00     0.002 C 
ATOM      9  C   UNL     1       5.203   0.040  -0.814  1.00  0.00     0.029 C 
ATOM     10  C   UNL     1       4.246  -0.175  -3.161  1.00  0.00     0.029 C 
ATOM     11  C   UNL     1       5.962  -1.262  -1.114  1.00  0.00     0.086 C 
ATOM     12  C   UNL     1       5.103  -1.458  -3.257  1.00  0.00     0.086 C 
ATOM     13  C   UNL     1       5.087  -2.516  -1.061  1.00  0.00     0.027 C 
ATOM     14  N   UNL     1       6.330  -1.226  -2.510  1.00  0.00    -0.331 N 
ATOM     15  C   UNL     1       4.493  -2.634  -2.480  1.00  0.00     0.027 C 
BRANCH  14  16
ATOM     16  C   UNL     1       7.641  -1.275  -2.908  1.00  0.00     0.272 C 
ATOM     17  O   UNL     1       8.583  -1.312  -2.119  1.00  0.00    -0.267 OA
BRANCH  16  18
ATOM     18  C   UNL     1       7.919  -1.358  -4.355  1.00  0.00     0.125 A 
ATOM     19  C   UNL     1       7.521  -0.540  -5.340  1.00  0.00     0.119 A 
ATOM     20  N   UNL     1       8.758  -2.311  -4.884  1.00  0.00    -0.302 N 
ATOM     21  N   UNL     1       8.076  -0.981  -6.516  1.00  0.00    -0.312 N 
ATOM     22  C   UNL     1       8.872  -2.108  -6.258  1.00  0.00     0.323 A 
ATOM     23  H   UNL     1       9.206  -3.023  -4.373  1.00  0.00     0.172 HD
ATOM     24  H   UNL     1       7.938  -0.572  -7.401  1.00  0.00     0.171 HD
ATOM     25  O   UNL     1       9.516  -2.757  -7.064  1.00  0.00    -0.248 OA
ENDBRANCH  16  18
ENDBRANCH  14  16
ENDBRANCH   7   8
ENDBRANCH   5   7
ENDBRANCH   2   3
ENDBRANCH   1   2
BRANCH   1  26
ATOM     26  C   UNL     1       3.819   0.360   3.790  1.00  0.00     0.118 C 
BRANCH  26  27
ATOM     27  N   UNL     1       4.394   1.675   4.020  1.00  0.00    -0.352 N 
ATOM     28  C   UNL     1       5.130   2.155   5.076  1.00  0.00     0.251 C 
ATOM     29  H   UNL     1       4.230   2.327   3.301  1.00  0.00     0.163 HD
ATOM     30  O   UNL     1       5.380   3.358   5.120  1.00  0.00    -0.269 OA
BRANCH  28  31
ATOM     31  C   UNL     1       5.601   1.265   6.164  1.00  0.00     0.039 A 
ATOM     32  C   UNL     1       5.575   1.753   7.474  1.00  0.00     0.014 A 
ATOM     33  C   UNL     1       6.108  -0.014   5.917  1.00  0.00     0.014 A 
ATOM     34  C   UNL     1       6.002   0.945   8.532  1.00  0.00     0.010 A 
ATOM     35  C   UNL     1       6.458  -0.849   6.982  1.00  0.00     0.010 A 
ATOM     36  C   UNL     1       6.413  -0.380   8.303  1.00  0.00    -0.014 A 
BRANCH  36  37
ATOM     37  C   UNL     1       6.769  -1.266   9.447  1.00  0.00     0.031 A 
ATOM     38  C   UNL     1       8.160  -1.826   9.597  1.00  0.00     0.074 A 
ATOM     39  C   UNL     1       5.822  -1.582  10.354  1.00  0.00     0.049 A 
ATOM     40  N   UNL     1       8.649  -2.574  10.555  1.00  0.00    -0.248 NA
ATOM     41  C   UNL     1       9.121  -1.530   8.524  1.00  0.00     0.031 C 
ATOM     42  C   UNL     1       4.420  -1.160  10.291  1.00  0.00     0.029 A 
ATOM     43  N   UNL     1       5.891  -2.321  11.509  1.00  0.00    -0.354 N 
ATOM     44  C   UNL     1       9.969  -2.837  10.202  1.00  0.00     0.074 A 
ATOM     45  C   UNL     1      10.184  -2.222   8.910  1.00  0.00     0.031 C 
ATOM     46  C   UNL     1       3.775  -1.609  11.379  1.00  0.00     0.029 A 
ATOM     47  C   UNL     1       4.702  -2.381  12.200  1.00  0.00     0.049 A 
ATOM     48  H   UNL     1       6.713  -2.767  11.815  1.00  0.00     0.167 HD
ATOM     49  C   UNL     1      10.920  -3.507  10.898  1.00  0.00     0.037 A 
ATOM     50  C   UNL     1       4.391  -2.982  13.365  1.00  0.00     0.037 A 
ATOM     51  C   UNL     1      10.703  -4.111  12.190  1.00  0.00     0.049 A 
ATOM     52  C   UNL     1       5.467  -3.709  14.124  1.00  0.00     0.074 A 
ATOM     53  C   UNL     1      11.617  -4.765  12.999  1.00  0.00     0.029 A 
ATOM     54  N   UNL     1       9.488  -4.143  12.860  1.00  0.00    -0.354 N 
ATOM     55  N   UNL     1       6.728  -3.882  13.809  1.00  0.00    -0.248 NA
ATOM     56  C   UNL     1       5.079  -4.310  15.408  1.00  0.00     0.031 C 
ATOM     57  C   UNL     1      10.943  -5.239  14.131  1.00  0.00     0.029 A 
ATOM     58  C   UNL     1       9.623  -4.825  14.060  1.00  0.00     0.049 A 
ATOM     59  H   UNL     1       8.652  -3.740  12.531  1.00  0.00     0.167 HD
ATOM     60  C   UNL     1       7.292  -4.586  14.868  1.00  0.00     0.074 A 
ATOM     61  C   UNL     1       6.238  -4.786  15.841  1.00  0.00     0.031 C 
ATOM     62  C   UNL     1       8.566  -5.027  15.021  1.00  0.00     0.037 A 
BRANCH  49  63
ATOM     63  C   UNL     1      12.291  -3.622  10.281  1.00  0.00     0.058 A 
ATOM     64  C   UNL     1      13.130  -2.505  10.129  1.00  0.00     0.135 A 
ATOM     65  C   UNL     1      12.793  -4.871   9.879  1.00  0.00     0.135 A 
ATOM     66  F   UNL     1      12.700  -1.284  10.484  1.00  0.00    -0.206 F 
ATOM     67  C   UNL     1      14.401  -2.617   9.574  1.00  0.00     0.059 A 
ATOM     68  C   UNL     1      14.073  -5.011   9.350  1.00  0.00     0.059 A 
ATOM     69  F   UNL     1      12.038  -5.974  10.001  1.00  0.00    -0.206 F 
ATOM     70  C   UNL     1      14.865  -3.875   9.189  1.00  0.00     0.060 A 
BRANCH  70  71
ATOM     71  S   UNL     1      16.520  -4.003   8.480  1.00  0.00     0.124 S 
ATOM     72  O   UNL     1      16.327  -3.376   7.176  1.00  0.00    -0.237 OA
ATOM     73  O   UNL     1      17.326  -3.246   9.433  1.00  0.00    -0.237 OA
ATOM     74  O   UNL     1      16.770  -5.440   8.453  1.00  0.00    -0.744 OA
ENDBRANCH  70  71
ENDBRANCH  49  63
BRANCH  50  75
ATOM     75  C   UNL     1       3.005  -2.893  13.901  1.00  0.00     0.058 A 
ATOM     76  C   UNL     1       2.720  -2.153  15.059  1.00  0.00     0.135 A 
ATOM     77  C   UNL     1       1.935  -3.540  13.262  1.00  0.00     0.135 A 
ATOM     78  F   UNL     1       3.708  -1.520  15.711  1.00  0.00    -0.206 F 
ATOM     79  C   UNL     1       1.431  -2.075  15.577  1.00  0.00     0.059 A 
ATOM     80  C   UNL     1       0.633  -3.451  13.743  1.00  0.00     0.059 A 
ATOM     81  F   UNL     1       2.150  -4.245  12.141  1.00  0.00    -0.206 F 
ATOM     82  C   UNL     1       0.393  -2.725  14.909  1.00  0.00     0.060 A 
BRANCH  82  83
ATOM     83  S   UNL     1      -1.284  -2.579  15.563  1.00  0.00     0.124 S 
ATOM     84  O   UNL     1      -1.208  -3.411  16.758  1.00  0.00    -0.237 OA
ATOM     85  O   UNL     1      -1.399  -1.142  15.790  1.00  0.00    -0.237 OA
ATOM     86  O   UNL     1      -2.112  -3.103  14.480  1.00  0.00    -0.744 OA
ENDBRANCH  82  83
ENDBRANCH  50  75
BRANCH  62  87
ATOM     87  C   UNL     1       8.897  -5.737  16.308  1.00  0.00     0.058 A 
ATOM     88  C   UNL     1       8.372  -7.003  16.616  1.00  0.00     0.135 A 
ATOM     89  C   UNL     1       9.750  -5.138  17.250  1.00  0.00     0.135 A 
ATOM     90  F   UNL     1       7.550  -7.622  15.754  1.00  0.00    -0.206 F 
ATOM     91  C   UNL     1       8.634  -7.623  17.834  1.00  0.00     0.059 A 
ATOM     92  C   UNL     1      10.055  -5.757  18.459  1.00  0.00     0.059 A 
ATOM     93  F   UNL     1      10.296  -3.937  17.003  1.00  0.00    -0.206 F 
ATOM     94  C   UNL     1       9.471  -6.988  18.753  1.00  0.00     0.060 A 
BRANCH  94  95
ATOM     95  S   UNL     1       9.785  -7.791  20.339  1.00  0.00     0.124 S 
ATOM     96  O   UNL     1       8.515  -7.585  21.028  1.00  0.00    -0.237 OA
ATOM     97  O   UNL     1      10.076  -9.165  19.942  1.00  0.00    -0.237 OA
ATOM     98  O   UNL     1      10.919  -7.047  20.878  1.00  0.00    -0.744 OA
ENDBRANCH  94  95
ENDBRANCH  62  87
ENDBRANCH  36  37
ENDBRANCH  28  31
ENDBRANCH  26  27
ENDBRANCH   1  26
TORSDOF 16
