REMARK SMILES Cc1nc(C[C@H](C(=O)NCCCNC(=O)c2ccc(-c3c4nc(c(-c5c(F)cc(S(=O)(=O)[O-])cc5F)c5ccc([nH]5)c(-c5c(F)cc(S(=O)(=O)[O-])cc5F)c5nc(c(-c6c(F)cc(S(=O)(=O)[O-])cc6F)c6ccc3[nH]6)C=C5)C=C4)cc2)c2ccccc2Br)cs1
REMARK SMILES IDX 11 1 10 2 9 3 7 4 8 5 6 7 5 8 4 9 1 10 2 11 3 12 90 13 89 14
REMARK SMILES IDX 82 15 83 16 87 17 84 18 86 19 88 20 85 21 12 22 13 23 14 24
REMARK SMILES IDX 15 26 16 27 17 28 81 29 18 30 80 31 19 32 20 33 21 34 74 35
REMARK SMILES IDX 22 36 79 37 73 38 75 39 23 40 78 41 72 42 71 43 24 45 58 46
REMARK SMILES IDX 37 47 57 48 38 49 41 50 56 51 76 52 39 53 40 54 55 56 77 57
REMARK SMILES IDX 42 58 25 59 26 60 35 61 27 62 28 63 34 64 36 65 29 66 30 67
REMARK SMILES IDX 31 68 32 69 33 70 59 71 60 72 69 73 61 74 62 75 68 76 70 77
REMARK SMILES IDX 63 78 64 79 65 80 66 81 67 82 43 83 44 84 53 85 45 86 46 87
REMARK SMILES IDX 52 88 54 89 47 90 48 91 49 92 50 93 51 94
REMARK H PARENT 9 6 13 25 75 44 41 55
REMARK Flexibility Score: inf
ROOT
ATOM      1  C   UNL     1       2.404  -5.668   0.815  1.00  0.00     0.042 C 
ENDROOT
BRANCH   1   2
ATOM      2  C   UNL     1       1.449  -4.658   0.184  1.00  0.00     0.117 C 
BRANCH   2   3
ATOM      3  N   UNL     1       1.732  -3.307   0.622  1.00  0.00    -0.355 N 
ATOM      4  C   UNL     1       2.501  -2.338   0.042  1.00  0.00     0.227 C 
ATOM      5  O   UNL     1       2.574  -1.264   0.645  1.00  0.00    -0.274 OA
ATOM      6  H   UNL     1       1.304  -3.046   1.470  1.00  0.00     0.163 HD
BRANCH   4   7
ATOM      7  C   UNL     1       3.166  -2.562  -1.332  1.00  0.00     0.115 C 
BRANCH   7   8
ATOM      8  C   UNL     1       3.612  -1.188  -1.881  1.00  0.00     0.075 C 
BRANCH   8   9
ATOM      9  C   UNL     1       4.194  -1.099  -3.262  1.00  0.00     0.053 A 
ATOM     10  C   UNL     1       5.458   1.349  -5.673  1.00  0.00     0.079 C 
ATOM     11  C   UNL     1       5.018   0.149  -4.914  1.00  0.00     0.090 A 
ATOM     12  N   UNL     1       4.470   0.186  -3.721  1.00  0.00    -0.247 NA
ATOM     13  S   UNL     1       5.208  -1.416  -5.586  1.00  0.00    -0.127 S 
ATOM     14  C   UNL     1       4.520  -2.090  -4.167  1.00  0.00     0.090 A 
ENDBRANCH   8   9
ENDBRANCH   7   8
BRANCH   7  15
ATOM     15  C   UNL     1       4.234  -3.660  -1.310  1.00  0.00    -0.021 A 
ATOM     16  C   UNL     1       3.966  -4.834  -2.059  1.00  0.00     0.006 A 
ATOM     17  C   UNL     1       5.438  -3.623  -0.586  1.00  0.00     0.021 A 
ATOM     18  C   UNL     1       4.836  -5.924  -2.065  1.00  0.00     0.000 A 
ATOM     19  C   UNL     1       6.321  -4.715  -0.614  1.00  0.00     0.016 A 
ATOM     20  Br  UNL     1       5.969  -2.172   0.514  1.00  0.00    -0.051 Br
ATOM     21  C   UNL     1       6.017  -5.864  -1.341  1.00  0.00     0.001 A 
ENDBRANCH   7  15
ENDBRANCH   4   7
ENDBRANCH   2   3
ENDBRANCH   1   2
BRANCH   1  22
ATOM     22  C   UNL     1       1.967  -6.129   2.200  1.00  0.00     0.118 C 
BRANCH  22  23
ATOM     23  N   UNL     1       0.807  -7.004   2.131  1.00  0.00    -0.352 N 
ATOM     24  C   UNL     1       0.613  -8.257   2.655  1.00  0.00     0.251 C 
ATOM     25  H   UNL     1       0.042  -6.641   1.631  1.00  0.00     0.163 HD
ATOM     26  O   UNL     1      -0.359  -8.908   2.278  1.00  0.00    -0.269 OA
BRANCH  24  27
ATOM     27  C   UNL     1       1.550  -8.832   3.649  1.00  0.00     0.039 A 
ATOM     28  C   UNL     1       1.774 -10.213   3.630  1.00  0.00     0.014 A 
ATOM     29  C   UNL     1       2.156  -8.049   4.636  1.00  0.00     0.014 A 
ATOM     30  C   UNL     1       2.618 -10.798   4.576  1.00  0.00     0.010 A 
ATOM     31  C   UNL     1       3.061  -8.621   5.529  1.00  0.00     0.010 A 
ATOM     32  C   UNL     1       3.284 -10.004   5.524  1.00  0.00    -0.014 A 
BRANCH  32  33
ATOM     33  C   UNL     1       4.192 -10.621   6.525  1.00  0.00     0.031 A 
ATOM     34  C   UNL     1       3.858 -10.564   7.993  1.00  0.00     0.074 A 
ATOM     35  C   UNL     1       5.332 -11.209   6.112  1.00  0.00     0.049 A 
ATOM     36  N   UNL     1       4.523 -11.049   9.011  1.00  0.00    -0.248 NA
ATOM     37  C   UNL     1       2.629  -9.847   8.371  1.00  0.00     0.031 C 
ATOM     38  C   UNL     1       5.795 -11.272   4.724  1.00  0.00     0.029 A 
ATOM     39  N   UNL     1       6.308 -11.867   6.816  1.00  0.00    -0.354 N 
ATOM     40  C   UNL     1       3.804 -10.685  10.145  1.00  0.00     0.074 A 
ATOM     41  C   UNL     1       2.681  -9.892   9.694  1.00  0.00     0.031 C 
ATOM     42  C   UNL     1       6.946 -11.962   4.674  1.00  0.00     0.029 A 
ATOM     43  C   UNL     1       7.317 -12.366   6.026  1.00  0.00     0.049 A 
ATOM     44  H   UNL     1       6.288 -11.973   7.795  1.00  0.00     0.167 HD
ATOM     45  C   UNL     1       4.040 -11.006  11.440  1.00  0.00     0.037 A 
ATOM     46  C   UNL     1       8.412 -13.077   6.355  1.00  0.00     0.037 A 
ATOM     47  C   UNL     1       5.144 -11.820  11.878  1.00  0.00     0.049 A 
ATOM     48  C   UNL     1       8.632 -13.455   7.793  1.00  0.00     0.074 A 
ATOM     49  C   UNL     1       5.447 -12.248  13.159  1.00  0.00     0.029 A 
ATOM     50  N   UNL     1       6.127 -12.335  11.044  1.00  0.00    -0.354 N 
ATOM     51  N   UNL     1       7.907 -13.154   8.845  1.00  0.00    -0.248 NA
ATOM     52  C   UNL     1       9.807 -14.284   8.088  1.00  0.00     0.031 C 
ATOM     53  C   UNL     1       6.631 -12.994  13.104  1.00  0.00     0.029 A 
ATOM     54  C   UNL     1       7.041 -13.069  11.783  1.00  0.00     0.049 A 
ATOM     55  H   UNL     1       6.168 -12.200  10.069  1.00  0.00     0.167 HD
ATOM     56  C   UNL     1       8.525 -13.778   9.923  1.00  0.00     0.074 A 
ATOM     57  C   UNL     1       9.671 -14.487   9.391  1.00  0.00     0.031 C 
ATOM     58  C   UNL     1       8.177 -13.766  11.234  1.00  0.00     0.037 A 
BRANCH  45  59
ATOM     59  C   UNL     1       3.080 -10.481  12.474  1.00  0.00     0.058 A 
ATOM     60  C   UNL     1       1.764 -10.964  12.570  1.00  0.00     0.135 A 
ATOM     61  C   UNL     1       3.483  -9.501  13.396  1.00  0.00     0.135 A 
ATOM     62  F   UNL     1       1.319 -11.889  11.705  1.00  0.00    -0.206 F 
ATOM     63  C   UNL     1       0.875 -10.473  13.520  1.00  0.00     0.059 A 
ATOM     64  C   UNL     1       2.618  -9.015  14.373  1.00  0.00     0.059 A 
ATOM     65  F   UNL     1       4.729  -9.003  13.351  1.00  0.00    -0.206 F 
ATOM     66  C   UNL     1       1.310  -9.496  14.416  1.00  0.00     0.060 A 
BRANCH  66  67
ATOM     67  S   UNL     1       0.144  -8.869  15.644  1.00  0.00     0.124 S 
ATOM     68  O   UNL     1      -0.717  -8.024  14.822  1.00  0.00    -0.237 OA
ATOM     69  O   UNL     1      -0.468 -10.094  16.149  1.00  0.00    -0.237 OA
ATOM     70  O   UNL     1       0.997  -8.161  16.593  1.00  0.00    -0.744 OA
ENDBRANCH  66  67
ENDBRANCH  45  59
BRANCH  46  71
ATOM     71  C   UNL     1       9.357 -13.515   5.293  1.00  0.00     0.058 A 
ATOM     72  C   UNL     1       9.438 -14.862   4.911  1.00  0.00     0.135 A 
ATOM     73  C   UNL     1      10.181 -12.596   4.627  1.00  0.00     0.135 A 
ATOM     74  F   UNL     1       8.671 -15.779   5.521  1.00  0.00    -0.206 F 
ATOM     75  C   UNL     1      10.314 -15.288   3.918  1.00  0.00     0.059 A 
ATOM     76  C   UNL     1      11.048 -12.993   3.613  1.00  0.00     0.059 A 
ATOM     77  F   UNL     1      10.127 -11.292   4.941  1.00  0.00    -0.206 F 
ATOM     78  C   UNL     1      11.115 -14.344   3.273  1.00  0.00     0.060 A 
BRANCH  78  79
ATOM     79  S   UNL     1      12.210 -14.896   1.947  1.00  0.00     0.124 S 
ATOM     80  O   UNL     1      13.275 -15.549   2.698  1.00  0.00    -0.237 OA
ATOM     81  O   UNL     1      11.338 -15.777   1.175  1.00  0.00    -0.237 OA
ATOM     82  O   UNL     1      12.578 -13.651   1.278  1.00  0.00    -0.744 OA
ENDBRANCH  78  79
ENDBRANCH  46  71
BRANCH  58  83
ATOM     83  C   UNL     1       9.032 -14.572  12.173  1.00  0.00     0.058 A 
ATOM     84  C   UNL     1      10.332 -14.170  12.517  1.00  0.00     0.135 A 
ATOM     85  C   UNL     1       8.540 -15.759  12.739  1.00  0.00     0.135 A 
ATOM     86  F   UNL     1      10.851 -13.044  12.000  1.00  0.00    -0.206 F 
ATOM     87  C   UNL     1      11.133 -14.941  13.353  1.00  0.00     0.059 A 
ATOM     88  C   UNL     1       9.313 -16.531  13.600  1.00  0.00     0.059 A 
ATOM     89  F   UNL     1       7.298 -16.180  12.454  1.00  0.00    -0.206 F 
ATOM     90  C   UNL     1      10.616 -16.125  13.883  1.00  0.00     0.060 A 
BRANCH  90  91
ATOM     91  S   UNL     1      11.666 -17.125  14.958  1.00  0.00     0.124 S 
ATOM     92  O   UNL     1      12.543 -17.773  13.988  1.00  0.00    -0.237 OA
ATOM     93  O   UNL     1      12.294 -16.121  15.810  1.00  0.00    -0.237 OA
ATOM     94  O   UNL     1      10.717 -18.006  15.633  1.00  0.00    -0.744 OA
ENDBRANCH  90  91
ENDBRANCH  58  83
ENDBRANCH  32  33
ENDBRANCH  24  27
ENDBRANCH  22  23
ENDBRANCH   1  22
TORSDOF 16
