REMARK SMILES O=C(NCCCNC(=O)c1ccc(-c2c3nc(c(-c4c(F)cc(S(=O)(=O)[O-])cc4F)c4ccc([nH]4)c(-c4c(F)cc(S(=O)(=O)[O-])cc4F)c4nc(c(-c5c(F)cc(S(=O)(=O)[O-])cc5F)c5ccc2[nH]5)C=C4)C=C3)cc1)c1ccc(NC(=O)[C@@H]2CC=CC[C@H]2C(=O)Nc2cccc([N+](=O)[O-])c2)cc1
REMARK SMILES IDX 4 1 3 2 1 3 2 4 76 6 77 7 102 8 78 9 101 10 79 11 80 12
REMARK SMILES IDX 81 13 82 15 83 16 84 17 88 18 85 19 87 20 86 21 89 22 90 23
REMARK SMILES IDX 91 24 92 26 93 27 100 28 94 29 96 30 95 31 97 32 98 33 99 34
REMARK SMILES IDX 5 35 6 36 7 37 8 38 9 40 10 41 11 42 75 43 12 44 74 45 13 46
REMARK SMILES IDX 14 47 15 48 68 49 16 50 73 51 67 52 69 53 17 54 72 55 66 56
REMARK SMILES IDX 65 57 18 59 52 60 31 61 51 62 32 63 35 64 50 65 70 66 33 67
REMARK SMILES IDX 34 68 49 70 71 71 36 72 19 73 20 74 29 75 21 76 22 77 28 78
REMARK SMILES IDX 30 79 23 80 24 81 25 82 26 83 27 84 53 85 54 86 63 87 55 88
REMARK SMILES IDX 56 89 62 90 64 91 57 92 58 93 59 94 60 95 61 96 37 97 38 98
REMARK SMILES IDX 47 99 39 100 40 101 46 102 48 103 41 104 42 105 43 106
REMARK SMILES IDX 44 107 45 108
REMARK H PARENT 3 5 80 14 91 25 7 39 69 58 35 69
REMARK Flexibility Score: inf
ROOT
ATOM      1  C   UNL     1       8.068  -8.918   1.083  1.00  0.00     0.118 C 
ENDROOT
BRANCH   1   2
ATOM      2  N   UNL     1       9.235  -9.145   0.241  1.00  0.00    -0.352 N 
ATOM      3  O   UNL     1      10.788  -8.597  -1.318  1.00  0.00    -0.269 OA
ATOM      4  C   UNL     1       9.927  -8.236  -0.526  1.00  0.00     0.251 C 
ATOM      5  H   UNL     1       9.572 -10.069   0.217  1.00  0.00     0.163 HD
BRANCH   4   6
ATOM      6  C   UNL     1       9.624  -6.802  -0.366  1.00  0.00     0.039 A 
ATOM      7  C   UNL     1       9.861  -6.191   0.861  1.00  0.00     0.016 A 
ATOM      8  C   UNL     1       9.117  -6.058  -1.431  1.00  0.00     0.016 A 
ATOM      9  C   UNL     1       9.474  -4.866   1.052  1.00  0.00     0.027 A 
ATOM     10  C   UNL     1       8.686  -4.742  -1.205  1.00  0.00     0.027 A 
ATOM     11  C   UNL     1       8.775  -4.179   0.074  1.00  0.00     0.041 A 
BRANCH  11  12
ATOM     12  N   UNL     1       8.278  -2.891   0.305  1.00  0.00    -0.326 N 
ATOM     13  C   UNL     1       8.074  -2.213   1.482  1.00  0.00     0.228 C 
ATOM     14  H   UNL     1       8.036  -2.391  -0.508  1.00  0.00     0.169 HD
ATOM     15  O   UNL     1       8.471  -1.043   1.510  1.00  0.00    -0.274 OA
BRANCH  13  16
ATOM     16  C   UNL     1       7.112  -2.772   2.586  1.00  0.00     0.095 C 
ATOM     17  C   UNL     1       6.399  -1.496   3.140  1.00  0.00     0.041 C 
ATOM     18  C   UNL     1       7.691  -3.634   3.741  1.00  0.00     0.095 C 
ATOM     19  C   UNL     1       5.548  -1.687   4.348  1.00  0.00    -0.030 C 
ATOM     20  C   UNL     1       6.911  -3.615   5.089  1.00  0.00     0.041 C 
ATOM     21  C   UNL     1       5.798  -2.643   5.241  1.00  0.00    -0.030 C 
BRANCH  18  22
ATOM     22  C   UNL     1       8.060  -5.128   3.607  1.00  0.00     0.228 C 
ATOM     23  O   UNL     1       9.207  -5.462   3.960  1.00  0.00    -0.274 OA
ATOM     24  N   UNL     1       7.232  -6.186   3.376  1.00  0.00    -0.326 N 
ATOM     25  H   UNL     1       7.689  -7.053   3.476  1.00  0.00     0.169 HD
BRANCH  24  26
ATOM     26  C   UNL     1       5.886  -6.324   3.030  1.00  0.00     0.048 A 
ATOM     27  C   UNL     1       5.168  -7.386   3.593  1.00  0.00     0.026 A 
ATOM     28  C   UNL     1       5.243  -5.504   2.124  1.00  0.00     0.111 A 
ATOM     29  C   UNL     1       3.789  -7.510   3.379  1.00  0.00     0.009 A 
ATOM     30  C   UNL     1       3.851  -5.559   1.983  1.00  0.00     0.271 A 
ATOM     31  C   UNL     1       3.114  -6.562   2.612  1.00  0.00     0.086 A 
BRANCH  30  32
ATOM     32  N   UNL     1       3.175  -4.506   1.217  1.00  0.00     0.062 N 
ATOM     33  O   UNL     1       1.944  -4.431   1.307  1.00  0.00    -0.258 OA
ATOM     34  O   UNL     1       3.886  -3.723   0.568  1.00  0.00    -0.258 OA
ENDBRANCH  30  32
ENDBRANCH  24  26
ENDBRANCH  18  22
ENDBRANCH  13  16
ENDBRANCH  11  12
ENDBRANCH   4   6
ENDBRANCH   1   2
BRANCH   1  35
ATOM     35  C   UNL     1       6.841  -9.679   0.595  1.00  0.00     0.042 C 
BRANCH  35  36
ATOM     36  C   UNL     1       6.935 -11.191   0.752  1.00  0.00     0.118 C 
BRANCH  36  37
ATOM     37  N   UNL     1       6.880 -11.626   2.143  1.00  0.00    -0.352 N 
ATOM     38  C   UNL     1       6.011 -12.489   2.771  1.00  0.00     0.251 C 
ATOM     39  H   UNL     1       7.575 -11.242   2.725  1.00  0.00     0.163 HD
ATOM     40  O   UNL     1       6.052 -12.587   3.995  1.00  0.00    -0.269 OA
BRANCH  38  41
ATOM     41  C   UNL     1       5.010 -13.263   1.997  1.00  0.00     0.039 A 
ATOM     42  C   UNL     1       3.725 -13.426   2.528  1.00  0.00     0.014 A 
ATOM     43  C   UNL     1       5.320 -13.830   0.759  1.00  0.00     0.014 A 
ATOM     44  C   UNL     1       2.736 -14.069   1.777  1.00  0.00     0.010 A 
ATOM     45  C   UNL     1       4.312 -14.388  -0.025  1.00  0.00     0.010 A 
ATOM     46  C   UNL     1       3.006 -14.509   0.471  1.00  0.00    -0.014 A 
BRANCH  46  47
ATOM     47  C   UNL     1       1.940 -15.080  -0.397  1.00  0.00     0.031 A 
ATOM     48  C   UNL     1       2.056 -16.488  -0.921  1.00  0.00     0.074 A 
ATOM     49  C   UNL     1       0.905 -14.305  -0.783  1.00  0.00     0.049 A 
ATOM     50  N   UNL     1       1.283 -17.122  -1.765  1.00  0.00    -0.248 NA
ATOM     51  C   UNL     1       3.210 -17.276  -0.458  1.00  0.00     0.031 C 
ATOM     52  C   UNL     1       0.700 -12.908  -0.390  1.00  0.00     0.029 A 
ATOM     53  N   UNL     1      -0.162 -14.575  -1.604  1.00  0.00    -0.354 N 
ATOM     54  C   UNL     1       1.864 -18.372  -1.948  1.00  0.00     0.074 A 
ATOM     55  C   UNL     1       3.082 -18.387  -1.167  1.00  0.00     0.031 C 
ATOM     56  C   UNL     1      -0.432 -12.453  -0.951  1.00  0.00     0.029 A 
ATOM     57  C   UNL     1      -1.012 -13.506  -1.778  1.00  0.00     0.049 A 
ATOM     58  H   UNL     1      -0.306 -15.451  -2.029  1.00  0.00     0.167 HD
ATOM     59  C   UNL     1       1.413 -19.419  -2.679  1.00  0.00     0.037 A 
ATOM     60  C   UNL     1      -2.125 -13.382  -2.526  1.00  0.00     0.037 A 
ATOM     61  C   UNL     1       0.185 -19.411  -3.431  1.00  0.00     0.049 A 
ATOM     62  C   UNL     1      -2.607 -14.559  -3.331  1.00  0.00     0.074 A 
ATOM     63  C   UNL     1      -0.388 -20.444  -4.154  1.00  0.00     0.029 A 
ATOM     64  N   UNL     1      -0.660 -18.319  -3.560  1.00  0.00    -0.354 N 
ATOM     65  N   UNL     1      -2.076 -15.754  -3.441  1.00  0.00    -0.248 NA
ATOM     66  C   UNL     1      -3.840 -14.375  -4.108  1.00  0.00     0.031 C 
ATOM     67  C   UNL     1      -1.556 -19.963  -4.754  1.00  0.00     0.029 A 
ATOM     68  C   UNL     1      -1.738 -18.646  -4.365  1.00  0.00     0.049 A 
ATOM     69  H   UNL     1      -0.514 -17.440  -3.140  1.00  0.00     0.167 HD
ATOM     70  C   UNL     1      -2.926 -16.471  -4.276  1.00  0.00     0.074 A 
ATOM     71  C   UNL     1      -4.010 -15.580  -4.634  1.00  0.00     0.031 C 
ATOM     72  C   UNL     1      -2.817 -17.752  -4.706  1.00  0.00     0.037 A 
BRANCH  59  73
ATOM     73  C   UNL     1       2.249 -20.670  -2.695  1.00  0.00     0.058 A 
ATOM     74  C   UNL     1       2.372 -21.489  -1.560  1.00  0.00     0.135 A 
ATOM     75  C   UNL     1       2.907 -21.076  -3.868  1.00  0.00     0.135 A 
ATOM     76  F   UNL     1       1.776 -21.142  -0.408  1.00  0.00    -0.206 F 
ATOM     77  C   UNL     1       3.143 -22.647  -1.578  1.00  0.00     0.059 A 
ATOM     78  C   UNL     1       3.660 -22.247  -3.916  1.00  0.00     0.059 A 
ATOM     79  F   UNL     1       2.824 -20.333  -4.982  1.00  0.00    -0.206 F 
ATOM     80  C   UNL     1       3.784 -23.017  -2.761  1.00  0.00     0.060 A 
BRANCH  80  81
ATOM     81  S   UNL     1       4.779 -24.523  -2.765  1.00  0.00     0.124 S 
ATOM     82  O   UNL     1       5.946 -24.102  -1.996  1.00  0.00    -0.237 OA
ATOM     83  O   UNL     1       3.898 -25.481  -2.106  1.00  0.00    -0.237 OA
ATOM     84  O   UNL     1       5.019 -24.768  -4.184  1.00  0.00    -0.744 OA
ENDBRANCH  80  81
ENDBRANCH  59  73
BRANCH  60  85
ATOM     85  C   UNL     1      -2.876 -12.098  -2.535  1.00  0.00     0.058 A 
ATOM     86  C   UNL     1      -4.131 -11.994  -1.918  1.00  0.00     0.135 A 
ATOM     87  C   UNL     1      -2.352 -10.949  -3.148  1.00  0.00     0.135 A 
ATOM     88  F   UNL     1      -4.677 -13.066  -1.325  1.00  0.00    -0.206 F 
ATOM     89  C   UNL     1      -4.849 -10.803  -1.921  1.00  0.00     0.059 A 
ATOM     90  C   UNL     1      -3.039  -9.739  -3.142  1.00  0.00     0.059 A 
ATOM     91  F   UNL     1      -1.146 -10.990  -3.736  1.00  0.00    -0.206 F 
ATOM     92  C   UNL     1      -4.293  -9.679  -2.534  1.00  0.00     0.060 A 
BRANCH  92  93
ATOM     93  S   UNL     1      -5.211  -8.125  -2.488  1.00  0.00     0.124 S 
ATOM     94  O   UNL     1      -6.277  -8.386  -3.448  1.00  0.00    -0.237 OA
ATOM     95  O   UNL     1      -5.615  -8.050  -1.087  1.00  0.00    -0.237 OA
ATOM     96  O   UNL     1      -4.217  -7.138  -2.899  1.00  0.00    -0.744 OA
ENDBRANCH  92  93
ENDBRANCH  60  85
BRANCH  72  97
ATOM     97  C   UNL     1      -3.917 -18.286  -5.583  1.00  0.00     0.058 A 
ATOM     98  C   UNL     1      -4.055 -17.888  -6.921  1.00  0.00     0.135 A 
ATOM     99  C   UNL     1      -4.809 -19.252  -5.090  1.00  0.00     0.135 A 
ATOM    100  F   UNL     1      -3.232 -16.962  -7.439  1.00  0.00    -0.206 F 
ATOM    101  C   UNL     1      -5.053 -18.413  -7.736  1.00  0.00     0.059 A 
ATOM    102  C   UNL     1      -5.797 -19.811  -5.895  1.00  0.00     0.059 A 
ATOM    103  F   UNL     1      -4.715 -19.675  -3.820  1.00  0.00    -0.206 F 
ATOM    104  C   UNL     1      -5.918 -19.377  -7.214  1.00  0.00     0.060 A 
BRANCH 104 105
ATOM    105  S   UNL     1      -7.183 -20.079  -8.293  1.00  0.00     0.124 S 
ATOM    106  O   UNL     1      -8.139 -18.980  -8.380  1.00  0.00    -0.237 OA
ATOM    107  O   UNL     1      -6.432 -20.365  -9.511  1.00  0.00    -0.237 OA
ATOM    108  O   UNL     1      -7.643 -21.254  -7.558  1.00  0.00    -0.744 OA
ENDBRANCH 104 105
ENDBRANCH  72  97
ENDBRANCH  46  47
ENDBRANCH  38  41
ENDBRANCH  36  37
ENDBRANCH  35  36
ENDBRANCH   1  35
TORSDOF 18
