REMARK SMILES CC1=C(C)C[C@@H](C(=O)NNC(=O)c2sccc2C)[C@@H](C(=O)NCCCNC(=O)c2ccc(-c3c4nc(c(-c5c(F)cc(S(=O)(=O)[O-])cc5F)c5ccc([nH]5)c(-c5c(F)cc(S(=O)(=O)[O-])cc5F)c5nc(c(-c6c(F)cc(S(=O)(=O)[O-])cc6F)c6ccc3[nH]6)C=C5)C=C4)cc2)C1
REMARK SMILES IDX 24 1 23 2 22 3 20 4 21 5 19 7 1 8 2 9 3 10 95 11 4 12 5 13
REMARK SMILES IDX 6 14 7 15 8 16 9 17 10 19 11 20 12 22 13 23 14 24 17 25
REMARK SMILES IDX 15 26 16 27 18 28 25 29 26 30 27 31 28 33 29 34 30 35 94 36
REMARK SMILES IDX 31 37 93 38 32 39 33 40 34 41 87 42 35 43 92 44 86 45 88 46
REMARK SMILES IDX 36 47 91 48 85 49 84 50 37 52 71 53 50 54 70 55 51 56 54 57
REMARK SMILES IDX 69 58 89 59 52 60 53 61 68 63 90 64 55 65 38 66 39 67 48 68
REMARK SMILES IDX 40 69 41 70 47 71 49 72 42 73 43 74 44 75 45 76 46 77 72 78
REMARK SMILES IDX 73 79 82 80 74 81 75 82 81 83 83 84 76 85 77 86 78 87 79 88
REMARK SMILES IDX 80 89 56 90 57 91 66 92 58 93 59 94 65 95 67 96 60 97 61 98
REMARK SMILES IDX 62 99 63 100 64 101
REMARK H PARENT 22 6 9 18 10 21 26 32 88 51 54 62
REMARK Flexibility Score: inf
ROOT
ATOM      1  C   UNL     1       2.004   1.738   3.251  1.00  0.00     0.042 C 
ENDROOT
BRANCH   1   2
ATOM      2  C   UNL     1       1.059   2.824   2.754  1.00  0.00     0.117 C 
BRANCH   2   3
ATOM      3  N   UNL     1       1.707   4.022   2.272  1.00  0.00    -0.356 N 
ATOM      4  C   UNL     1       1.657   4.617   1.052  1.00  0.00     0.224 C 
ATOM      5  O   UNL     1       2.141   5.748   0.954  1.00  0.00    -0.275 OA
ATOM      6  H   UNL     1       2.275   4.480   2.933  1.00  0.00     0.163 HD
BRANCH   4   7
ATOM      7  C   UNL     1       1.048   3.938  -0.177  1.00  0.00     0.095 C 
ATOM      8  C   UNL     1       1.134   0.022  -0.286  1.00  0.00     0.039 C 
ATOM      9  C   UNL     1       0.571   1.403  -0.513  1.00  0.00    -0.074 C 
ATOM     10  C   UNL     1      -0.713   1.638  -0.851  1.00  0.00    -0.074 C 
ATOM     11  C   UNL     1       1.585   2.515  -0.405  1.00  0.00     0.045 C 
ATOM     12  C   UNL     1      -1.749   0.557  -1.041  1.00  0.00     0.039 C 
ATOM     13  C   UNL     1      -1.218   3.037  -1.109  1.00  0.00     0.045 C 
ATOM     14  C   UNL     1      -0.458   4.174  -0.414  1.00  0.00     0.097 C 
BRANCH  14  15
ATOM     15  C   UNL     1      -1.236   4.907   0.691  1.00  0.00     0.242 C 
ATOM     16  O   UNL     1      -1.267   6.143   0.695  1.00  0.00    -0.273 OA
ATOM     17  N   UNL     1      -1.938   4.277   1.679  1.00  0.00    -0.267 N 
ATOM     18  H   UNL     1      -2.449   4.855   2.290  1.00  0.00     0.191 HD
BRANCH  17  19
ATOM     19  N   UNL     1      -2.007   2.912   1.914  1.00  0.00    -0.263 N 
ATOM     20  C   UNL     1      -2.188   2.373   3.175  1.00  0.00     0.280 C 
ATOM     21  H   UNL     1      -1.922   2.299   1.148  1.00  0.00     0.191 HD
ATOM     22  O   UNL     1      -1.770   1.222   3.361  1.00  0.00    -0.266 OA
BRANCH  20  23
ATOM     23  C   UNL     1      -2.800   3.189   4.202  1.00  0.00     0.096 A 
ATOM     24  S   UNL     1      -1.895   3.554   5.607  1.00  0.00    -0.138 S 
ATOM     25  C   UNL     1      -4.077   3.730   4.246  1.00  0.00    -0.027 A 
ATOM     26  C   UNL     1      -3.199   4.387   6.317  1.00  0.00     0.066 A 
ATOM     27  C   UNL     1      -4.295   4.422   5.486  1.00  0.00     0.016 A 
ATOM     28  C   UNL     1      -5.117   3.588   3.187  1.00  0.00     0.046 C 
ENDBRANCH  20  23
ENDBRANCH  17  19
ENDBRANCH  14  15
ENDBRANCH   4   7
ENDBRANCH   2   3
ENDBRANCH   1   2
BRANCH   1  29
ATOM     29  C   UNL     1       1.862   1.478   4.747  1.00  0.00     0.118 C 
BRANCH  29  30
ATOM     30  N   UNL     1       0.524   1.077   5.169  1.00  0.00    -0.352 N 
ATOM     31  C   UNL     1       0.108   0.527   6.360  1.00  0.00     0.251 C 
ATOM     32  H   UNL     1      -0.186   1.221   4.503  1.00  0.00     0.163 HD
ATOM     33  O   UNL     1      -1.085   0.325   6.575  1.00  0.00    -0.269 OA
BRANCH  31  34
ATOM     34  C   UNL     1       1.107   0.045   7.332  1.00  0.00     0.039 A 
ATOM     35  C   UNL     1       0.930  -1.251   7.827  1.00  0.00     0.014 A 
ATOM     36  C   UNL     1       2.257   0.770   7.642  1.00  0.00     0.014 A 
ATOM     37  C   UNL     1       1.972  -1.876   8.503  1.00  0.00     0.010 A 
ATOM     38  C   UNL     1       3.329   0.117   8.237  1.00  0.00     0.010 A 
ATOM     39  C   UNL     1       3.206  -1.223   8.630  1.00  0.00    -0.014 A 
BRANCH  39  40
ATOM     40  C   UNL     1       4.404  -1.961   9.086  1.00  0.00     0.031 A 
ATOM     41  C   UNL     1       5.101  -1.552  10.347  1.00  0.00     0.074 A 
ATOM     42  C   UNL     1       4.903  -2.933   8.294  1.00  0.00     0.049 A 
ATOM     43  N   UNL     1       6.212  -2.012  10.857  1.00  0.00    -0.248 NA
ATOM     44  C   UNL     1       4.491  -0.456  11.118  1.00  0.00     0.031 C 
ATOM     45  C   UNL     1       4.340  -3.346   7.003  1.00  0.00     0.029 A 
ATOM     46  N   UNL     1       6.000  -3.740   8.445  1.00  0.00    -0.354 N 
ATOM     47  C   UNL     1       6.447  -1.248  11.992  1.00  0.00     0.074 A 
ATOM     48  C   UNL     1       5.388  -0.268  12.075  1.00  0.00     0.031 C 
ATOM     49  C   UNL     1       5.082  -4.343   6.494  1.00  0.00     0.029 A 
ATOM     50  C   UNL     1       6.190  -4.616   7.401  1.00  0.00     0.049 A 
ATOM     51  H   UNL     1       6.596  -3.698   9.227  1.00  0.00     0.167 HD
ATOM     52  C   UNL     1       7.450  -1.374  12.892  1.00  0.00     0.037 A 
ATOM     53  C   UNL     1       7.155  -5.533   7.198  1.00  0.00     0.037 A 
ATOM     54  C   UNL     1       8.469  -2.385  12.812  1.00  0.00     0.049 A 
ATOM     55  C   UNL     1       8.221  -5.691   8.246  1.00  0.00     0.074 A 
ATOM     56  C   UNL     1       9.488  -2.655  13.708  1.00  0.00     0.029 A 
ATOM     57  N   UNL     1       8.593  -3.299  11.775  1.00  0.00    -0.354 N 
ATOM     58  N   UNL     1       8.386  -5.011   9.357  1.00  0.00    -0.248 NA
ATOM     59  C   UNL     1       9.225  -6.739   8.024  1.00  0.00     0.031 C 
ATOM     60  C   UNL     1      10.244  -3.717  13.199  1.00  0.00     0.029 A 
ATOM     61  C   UNL     1       9.677  -4.129  12.002  1.00  0.00     0.049 A 
ATOM     62  H   UNL     1       7.998  -3.350  10.992  1.00  0.00     0.167 HD
ATOM     63  C   UNL     1       9.503  -5.559   9.973  1.00  0.00     0.074 A 
ATOM     64  C   UNL     1       9.963  -6.637   9.121  1.00  0.00     0.031 C 
ATOM     65  C   UNL     1      10.100  -5.200  11.136  1.00  0.00     0.037 A 
BRANCH  52  66
ATOM     66  C   UNL     1       7.480  -0.405  14.039  1.00  0.00     0.058 A 
ATOM     67  C   UNL     1       6.542  -0.472  15.082  1.00  0.00     0.135 A 
ATOM     68  C   UNL     1       8.470   0.588  14.111  1.00  0.00     0.135 A 
ATOM     69  F   UNL     1       5.562  -1.389  15.051  1.00  0.00    -0.206 F 
ATOM     70  C   UNL     1       6.569   0.426  16.143  1.00  0.00     0.059 A 
ATOM     71  C   UNL     1       8.530   1.482  15.177  1.00  0.00     0.059 A 
ATOM     72  F   UNL     1       9.387   0.700  13.138  1.00  0.00    -0.206 F 
ATOM     73  C   UNL     1       7.567   1.401  16.181  1.00  0.00     0.060 A 
BRANCH  73  74
ATOM     74  S   UNL     1       7.595   2.553  17.571  1.00  0.00     0.124 S 
ATOM     75  O   UNL     1       6.487   3.442  17.233  1.00  0.00    -0.237 OA
ATOM     76  O   UNL     1       7.373   1.672  18.713  1.00  0.00    -0.237 OA
ATOM     77  O   UNL     1       8.925   3.148  17.492  1.00  0.00    -0.744 OA
ENDBRANCH  73  74
ENDBRANCH  52  66
BRANCH  53  78
ATOM     78  C   UNL     1       7.144  -6.376   5.974  1.00  0.00     0.058 A 
ATOM     79  C   UNL     1       6.821  -7.740   6.039  1.00  0.00     0.135 A 
ATOM     80  C   UNL     1       7.442  -5.836   4.713  1.00  0.00     0.135 A 
ATOM     81  F   UNL     1       6.529  -8.303   7.221  1.00  0.00    -0.206 F 
ATOM     82  C   UNL     1       6.815  -8.544   4.903  1.00  0.00     0.059 A 
ATOM     83  C   UNL     1       7.422  -6.615   3.559  1.00  0.00     0.059 A 
ATOM     84  F   UNL     1       7.735  -4.532   4.592  1.00  0.00    -0.206 F 
ATOM     85  C   UNL     1       7.120  -7.972   3.667  1.00  0.00     0.060 A 
BRANCH  85  86
ATOM     86  S   UNL     1       7.074  -9.014   2.191  1.00  0.00     0.124 S 
ATOM     87  O   UNL     1       8.324  -9.754   2.317  1.00  0.00    -0.237 OA
ATOM     88  O   UNL     1       5.852  -9.785   2.393  1.00  0.00    -0.237 OA
ATOM     89  O   UNL     1       7.019  -8.044   1.101  1.00  0.00    -0.744 OA
ENDBRANCH  85  86
ENDBRANCH  53  78
BRANCH  65  90
ATOM     90  C   UNL     1      11.300  -5.994  11.559  1.00  0.00     0.058 A 
ATOM     91  C   UNL     1      12.551  -5.804  10.953  1.00  0.00     0.135 A 
ATOM     92  C   UNL     1      11.210  -6.903  12.624  1.00  0.00     0.135 A 
ATOM     93  F   UNL     1      12.682  -4.950   9.926  1.00  0.00    -0.206 F 
ATOM     94  C   UNL     1      13.674  -6.501  11.382  1.00  0.00     0.059 A 
ATOM     95  C   UNL     1      12.325  -7.595  13.083  1.00  0.00     0.059 A 
ATOM     96  F   UNL     1      10.035  -7.111  13.239  1.00  0.00    -0.206 F 
ATOM     97  C   UNL     1      13.552  -7.393  12.450  1.00  0.00     0.060 A 
BRANCH  97  98
ATOM     98  S   UNL     1      15.026  -8.255  13.032  1.00  0.00     0.124 S 
ATOM     99  O   UNL     1      15.183  -9.287  12.013  1.00  0.00    -0.237 OA
ATOM    100  O   UNL     1      16.033  -7.197  13.024  1.00  0.00    -0.237 OA
ATOM    101  O   UNL     1      14.639  -8.732  14.356  1.00  0.00    -0.744 OA
ENDBRANCH  97  98
ENDBRANCH  65  90
ENDBRANCH  39  40
ENDBRANCH  31  34
ENDBRANCH  29  30
ENDBRANCH   1  29
TORSDOF 16
