REMARK SMILES O=C(NCCCNC(=O)[C@H]1CCCN(C(=O)c2ccc(NC(=O)c3ccccc3)cc2)C1)c1ccc(-c2c3nc(c(-c4c(F)cc(S(=O)(=O)[O-])cc4F)c4ccc([nH]4)c(-c4c(F)cc(S(=O)(=O)[O-])cc4F)c4nc(c(-c5c(F)cc(S(=O)(=O)[O-])cc5F)c5ccc2[nH]5)C=C4)C=C3)cc1
REMARK SMILES IDX 5 1 4 2 3 3 1 4 2 5 33 7 34 8 98 9 35 10 97 11 36 12 37 13
REMARK SMILES IDX 38 14 91 15 39 16 96 17 90 18 92 19 40 20 95 21 89 22 88 23
REMARK SMILES IDX 41 25 75 26 54 27 74 28 55 29 58 30 73 31 93 32 56 33 57 34
REMARK SMILES IDX 72 36 94 37 59 38 42 39 43 40 52 41 44 42 45 43 51 44 53 45
REMARK SMILES IDX 46 46 47 47 48 48 49 49 50 50 76 51 77 52 86 53 78 54 79 55
REMARK SMILES IDX 85 56 87 57 80 58 81 59 82 60 83 61 84 62 60 63 61 64 70 65
REMARK SMILES IDX 62 66 63 67 69 68 71 69 64 70 65 71 66 72 67 73 68 74 6 75
REMARK SMILES IDX 7 76 8 77 9 79 10 80 11 81 32 82 12 83 14 84 13 85 15 86
REMARK SMILES IDX 16 87 17 88 18 89 31 90 19 91 30 92 20 93 21 94 22 95 23 97
REMARK SMILES IDX 24 98 25 99 29 100 26 101 28 102 27 103
REMARK H PARENT 3 6 92 24 58 35 7 78 21 96
REMARK Flexibility Score: inf
ROOT
ATOM      1  C   UNL     1       3.763   3.040   1.169  1.00  0.00     0.042 C 
ENDROOT
BRANCH   1   2
ATOM      2  C   UNL     1       3.563   2.662  -0.294  1.00  0.00     0.118 C 
BRANCH   2   3
ATOM      3  N   UNL     1       3.917   1.273  -0.565  1.00  0.00    -0.352 N 
ATOM      4  O   UNL     1       3.582  -0.920  -0.927  1.00  0.00    -0.269 OA
ATOM      5  C   UNL     1       3.131   0.225  -0.969  1.00  0.00     0.251 C 
ATOM      6  H   UNL     1       4.868   1.054  -0.437  1.00  0.00     0.163 HD
BRANCH   5   7
ATOM      7  C   UNL     1       1.755   0.464  -1.452  1.00  0.00     0.039 A 
ATOM      8  C   UNL     1       1.479   1.544  -2.293  1.00  0.00     0.014 A 
ATOM      9  C   UNL     1       0.739  -0.434  -1.109  1.00  0.00     0.014 A 
ATOM     10  C   UNL     1       0.172   1.798  -2.690  1.00  0.00     0.010 A 
ATOM     11  C   UNL     1      -0.559  -0.230  -1.587  1.00  0.00     0.010 A 
ATOM     12  C   UNL     1      -0.853   0.893  -2.375  1.00  0.00    -0.014 A 
BRANCH  12  13
ATOM     13  C   UNL     1      -2.185   1.070  -3.003  1.00  0.00     0.031 A 
ATOM     14  C   UNL     1      -3.408   1.359  -2.183  1.00  0.00     0.074 A 
ATOM     15  C   UNL     1      -2.266   0.963  -4.346  1.00  0.00     0.049 A 
ATOM     16  N   UNL     1      -4.642   1.522  -2.586  1.00  0.00    -0.248 NA
ATOM     17  C   UNL     1      -3.234   1.475  -0.726  1.00  0.00     0.031 C 
ATOM     18  C   UNL     1      -1.138   0.660  -5.235  1.00  0.00     0.029 A 
ATOM     19  N   UNL     1      -3.330   1.095  -5.200  1.00  0.00    -0.354 N 
ATOM     20  C   UNL     1      -5.396   1.738  -1.439  1.00  0.00     0.074 A 
ATOM     21  C   UNL     1      -4.482   1.676  -0.318  1.00  0.00     0.031 C 
ATOM     22  C   UNL     1      -1.564   0.655  -6.505  1.00  0.00     0.029 A 
ATOM     23  C   UNL     1      -3.003   0.881  -6.519  1.00  0.00     0.049 A 
ATOM     24  H   UNL     1      -4.239   1.321  -4.899  1.00  0.00     0.167 HD
ATOM     25  C   UNL     1      -6.727   1.966  -1.342  1.00  0.00     0.037 A 
ATOM     26  C   UNL     1      -3.780   0.829  -7.617  1.00  0.00     0.037 A 
ATOM     27  C   UNL     1      -7.616   2.049  -2.474  1.00  0.00     0.049 A 
ATOM     28  C   UNL     1      -5.256   1.058  -7.467  1.00  0.00     0.074 A 
ATOM     29  C   UNL     1      -8.966   2.357  -2.483  1.00  0.00     0.029 A 
ATOM     30  N   UNL     1      -7.254   1.808  -3.792  1.00  0.00    -0.354 N 
ATOM     31  N   UNL     1      -5.938   1.341  -6.382  1.00  0.00    -0.248 NA
ATOM     32  C   UNL     1      -6.072   0.953  -8.683  1.00  0.00     0.031 C 
ATOM     33  C   UNL     1      -9.433   2.239  -3.795  1.00  0.00     0.029 A 
ATOM     34  C   UNL     1      -8.364   1.913  -4.614  1.00  0.00     0.049 A 
ATOM     35  H   UNL     1      -6.343   1.593  -4.097  1.00  0.00     0.167 HD
ATOM     36  C   UNL     1      -7.261   1.453  -6.787  1.00  0.00     0.074 A 
ATOM     37  C   UNL     1      -7.280   1.242  -8.220  1.00  0.00     0.031 C 
ATOM     38  C   UNL     1      -8.364   1.697  -6.039  1.00  0.00     0.037 A 
BRANCH  25  39
ATOM     39  C   UNL     1      -7.333   2.132   0.025  1.00  0.00     0.058 A 
ATOM     40  C   UNL     1      -7.164   3.305   0.775  1.00  0.00     0.135 A 
ATOM     41  C   UNL     1      -8.199   1.149   0.535  1.00  0.00     0.135 A 
ATOM     42  F   UNL     1      -6.338   4.271   0.342  1.00  0.00    -0.206 F 
ATOM     43  C   UNL     1      -7.836   3.502   1.978  1.00  0.00     0.059 A 
ATOM     44  C   UNL     1      -8.898   1.333   1.724  1.00  0.00     0.059 A 
ATOM     45  F   UNL     1      -8.394   0.006  -0.142  1.00  0.00    -0.206 F 
ATOM     46  C   UNL     1      -8.710   2.514   2.439  1.00  0.00     0.060 A 
BRANCH  46  47
ATOM     47  S   UNL     1      -9.620   2.814   3.970  1.00  0.00     0.124 S 
ATOM     48  O   UNL     1      -8.556   2.727   4.965  1.00  0.00    -0.237 OA
ATOM     49  O   UNL     1     -10.172   4.146   3.747  1.00  0.00    -0.237 OA
ATOM     50  O   UNL     1     -10.598   1.731   4.004  1.00  0.00    -0.744 OA
ENDBRANCH  46  47
ENDBRANCH  25  39
BRANCH  26  51
ATOM     51  C   UNL     1      -3.185   0.491  -8.938  1.00  0.00     0.058 A 
ATOM     52  C   UNL     1      -3.160   1.420  -9.986  1.00  0.00     0.135 A 
ATOM     53  C   UNL     1      -2.644  -0.783  -9.180  1.00  0.00     0.135 A 
ATOM     54  F   UNL     1      -3.666   2.650  -9.806  1.00  0.00    -0.206 F 
ATOM     55  C   UNL     1      -2.654   1.089 -11.239  1.00  0.00     0.059 A 
ATOM     56  C   UNL     1      -2.100  -1.126 -10.412  1.00  0.00     0.059 A 
ATOM     57  F   UNL     1      -2.624  -1.704  -8.203  1.00  0.00    -0.206 F 
ATOM     58  C   UNL     1      -2.130  -0.189 -11.443  1.00  0.00     0.060 A 
BRANCH  58  59
ATOM     59  S   UNL     1      -1.476  -0.611 -13.071  1.00  0.00     0.124 S 
ATOM     60  O   UNL     1      -2.702  -0.768 -13.845  1.00  0.00    -0.237 OA
ATOM     61  O   UNL     1      -0.664   0.559 -13.389  1.00  0.00    -0.237 OA
ATOM     62  O   UNL     1      -0.725  -1.838 -12.822  1.00  0.00    -0.744 OA
ENDBRANCH  58  59
ENDBRANCH  26  51
BRANCH  38  63
ATOM     63  C   UNL     1      -9.682   1.754  -6.758  1.00  0.00     0.058 A 
ATOM     64  C   UNL     1     -10.292   0.593  -7.260  1.00  0.00     0.135 A 
ATOM     65  C   UNL     1     -10.365   2.972  -6.907  1.00  0.00     0.135 A 
ATOM     66  F   UNL     1      -9.674  -0.594  -7.155  1.00  0.00    -0.206 F 
ATOM     67  C   UNL     1     -11.525   0.640  -7.900  1.00  0.00     0.059 A 
ATOM     68  C   UNL     1     -11.613   3.038  -7.516  1.00  0.00     0.059 A 
ATOM     69  F   UNL     1      -9.827   4.110  -6.439  1.00  0.00    -0.206 F 
ATOM     70  C   UNL     1     -12.181   1.867  -8.018  1.00  0.00     0.060 A 
BRANCH  70  71
ATOM     71  S   UNL     1     -13.801   1.905  -8.812  1.00  0.00     0.124 S 
ATOM     72  O   UNL     1     -13.449   1.689 -10.211  1.00  0.00    -0.237 OA
ATOM     73  O   UNL     1     -14.496   0.803  -8.155  1.00  0.00    -0.237 OA
ATOM     74  O   UNL     1     -14.306   3.237  -8.491  1.00  0.00    -0.744 OA
ENDBRANCH  70  71
ENDBRANCH  38  63
ENDBRANCH  12  13
ENDBRANCH   5   7
ENDBRANCH   2   3
ENDBRANCH   1   2
BRANCH   1  75
ATOM     75  C   UNL     1       5.208   2.919   1.632  1.00  0.00     0.117 C 
BRANCH  75  76
ATOM     76  N   UNL     1       6.090   3.858   0.957  1.00  0.00    -0.356 N 
ATOM     77  C   UNL     1       6.599   5.048   1.384  1.00  0.00     0.224 C 
ATOM     78  H   UNL     1       6.362   3.592   0.048  1.00  0.00     0.163 HD
ATOM     79  O   UNL     1       7.362   5.665   0.640  1.00  0.00    -0.275 OA
BRANCH  77  80
ATOM     80  C   UNL     1       6.202   5.589   2.739  1.00  0.00     0.098 C 
ATOM     81  C   UNL     1       7.429   6.025   3.547  1.00  0.00     0.017 C 
ATOM     82  C   UNL     1       5.277   6.787   2.552  1.00  0.00     0.133 C 
ATOM     83  C   UNL     1       6.982   6.567   4.905  1.00  0.00     0.022 C 
ATOM     84  N   UNL     1       4.833   7.265   3.866  1.00  0.00    -0.338 N 
ATOM     85  C   UNL     1       5.914   7.659   4.776  1.00  0.00     0.120 C 
BRANCH  84  86
ATOM     86  C   UNL     1       3.472   7.165   4.155  1.00  0.00     0.253 C 
ATOM     87  O   UNL     1       2.683   6.611   3.388  1.00  0.00    -0.269 OA
BRANCH  86  88
ATOM     88  C   UNL     1       2.910   7.676   5.429  1.00  0.00     0.040 A 
ATOM     89  C   UNL     1       1.899   6.920   6.026  1.00  0.00     0.016 A 
ATOM     90  C   UNL     1       3.269   8.896   6.004  1.00  0.00     0.016 A 
ATOM     91  C   UNL     1       1.328   7.328   7.232  1.00  0.00     0.027 A 
ATOM     92  C   UNL     1       2.728   9.274   7.242  1.00  0.00     0.027 A 
ATOM     93  C   UNL     1       1.798   8.458   7.898  1.00  0.00     0.041 A 
BRANCH  93  94
ATOM     94  N   UNL     1       1.394   8.843   9.192  1.00  0.00    -0.322 N 
ATOM     95  C   UNL     1       0.739   8.159  10.198  1.00  0.00     0.255 C 
ATOM     96  H   UNL     1       1.621   9.773   9.422  1.00  0.00     0.170 HD
ATOM     97  O   UNL     1       0.379   8.756  11.212  1.00  0.00    -0.269 OA
BRANCH  95  98
ATOM     98  C   UNL     1       0.504   6.705  10.112  1.00  0.00     0.040 A 
ATOM     99  C   UNL     1      -0.814   6.239  10.149  1.00  0.00     0.014 A 
ATOM    100  C   UNL     1       1.570   5.815   9.928  1.00  0.00     0.014 A 
ATOM    101  C   UNL     1      -1.070   4.889   9.910  1.00  0.00     0.001 A 
ATOM    102  C   UNL     1       1.305   4.468   9.678  1.00  0.00     0.001 A 
ATOM    103  C   UNL     1      -0.014   4.011   9.654  1.00  0.00     0.000 A 
ENDBRANCH  95  98
ENDBRANCH  93  94
ENDBRANCH  86  88
ENDBRANCH  84  86
ENDBRANCH  77  80
ENDBRANCH  75  76
ENDBRANCH   1  75
TORSDOF 17
