REMARK SMILES [NH3+][C@@]1(C(=O)NCCCNC(=O)c2ccc(-c3c4nc(c(-c5c(F)cc(S(=O)(=O)[O-])cc5F)c5ccc([nH]5)c(-c5c(F)cc(S(=O)(=O)[O-])cc5F)c5nc(c(-c6c(F)cc(S(=O)(=O)[O-])cc6F)c6ccc3[nH]6)C=C5)C=C4)cc2)CC[C@H](Sc2cccs2)C1
REMARK SMILES IDX 7 1 6 2 5 3 3 4 4 5 2 7 78 8 87 9 79 10 80 11 1 12 81 16
REMARK SMILES IDX 82 17 83 18 86 19 84 20 85 21 8 22 9 23 10 24 11 26 12 27
REMARK SMILES IDX 13 28 77 29 14 30 76 31 15 32 16 33 17 34 70 35 18 36 75 37
REMARK SMILES IDX 69 38 71 39 19 40 74 41 68 42 67 43 20 45 54 46 33 47 53 48
REMARK SMILES IDX 34 49 37 50 52 51 72 52 35 53 36 54 51 56 73 57 38 58 21 59
REMARK SMILES IDX 22 60 31 61 23 62 24 63 30 64 32 65 25 66 26 67 27 68 28 69
REMARK SMILES IDX 29 70 55 71 56 72 65 73 57 74 58 75 64 76 66 77 59 78 60 79
REMARK SMILES IDX 61 80 62 81 63 82 39 83 40 84 49 85 41 86 42 87 48 88 50 89
REMARK SMILES IDX 43 90 44 91 45 92 46 93 47 94
REMARK H PARENT 5 6 1 13 1 14 1 15 9 25 71 44 37 55
REMARK Flexibility Score: inf
ROOT
ATOM      1  C   UNL     1       0.383   0.599  -5.512  1.00  0.00     0.042 C 
ENDROOT
BRANCH   1   2
ATOM      2  C   UNL     1       0.744  -0.531  -4.562  1.00  0.00     0.118 C 
BRANCH   2   3
ATOM      3  N   UNL     1       1.726  -0.172  -3.562  1.00  0.00    -0.351 N 
ATOM      4  C   UNL     1       1.662  -0.197  -2.203  1.00  0.00     0.281 C 
ATOM      5  O   UNL     1       2.708   0.099  -1.605  1.00  0.00    -0.268 OA
ATOM      6  H   UNL     1       2.584   0.143  -3.925  1.00  0.00     0.163 HD
BRANCH   4   7
ATOM      7  C   UNL     1       0.363  -0.555  -1.386  1.00  0.00     0.175 C 
ATOM      8  C   UNL     1      -0.131  -1.996  -1.578  1.00  0.00     0.080 C 
ATOM      9  C   UNL     1      -0.821   0.363  -1.715  1.00  0.00     0.094 C 
ATOM     10  C   UNL     1      -1.459  -1.933  -2.331  1.00  0.00     0.022 C 
ATOM     11  C   UNL     1      -2.021  -0.541  -2.062  1.00  0.00     0.059 C 
BRANCH   7  12
ATOM     12  N   UNL     1       0.703  -0.387   0.059  1.00  0.00    -0.345 N 
ATOM     13  H   UNL     1       1.489  -0.992   0.296  1.00  0.00     0.345 HD
ATOM     14  H   UNL     1      -0.104  -0.640   0.630  1.00  0.00     0.345 HD
ATOM     15  H   UNL     1       0.955   0.585   0.239  1.00  0.00     0.345 HD
ENDBRANCH   7  12
BRANCH  11  16
ATOM     16  S   UNL     1      -3.042   0.334  -3.288  1.00  0.00    -0.112 SA
BRANCH  16  17
ATOM     17  C   UNL     1      -3.423  -0.712  -4.638  1.00  0.00     0.060 A 
ATOM     18  C   UNL     1      -3.773  -2.045  -4.646  1.00  0.00     0.027 A 
ATOM     19  S   UNL     1      -3.546  -0.036  -6.217  1.00  0.00    -0.137 S 
ATOM     20  C   UNL     1      -4.125  -2.514  -5.950  1.00  0.00     0.013 A 
ATOM     21  C   UNL     1      -4.054  -1.517  -6.896  1.00  0.00     0.066 A 
ENDBRANCH  16  17
ENDBRANCH  11  16
ENDBRANCH   4   7
ENDBRANCH   2   3
ENDBRANCH   1   2
BRANCH   1  22
ATOM     22  C   UNL     1       1.423   0.852  -6.590  1.00  0.00     0.118 C 
BRANCH  22  23
ATOM     23  N   UNL     1       1.555  -0.271  -7.515  1.00  0.00    -0.352 N 
ATOM     24  C   UNL     1       1.016  -0.499  -8.758  1.00  0.00     0.251 C 
ATOM     25  H   UNL     1       2.135  -0.995  -7.189  1.00  0.00     0.163 HD
ATOM     26  O   UNL     1       1.096  -1.636  -9.233  1.00  0.00    -0.269 OA
BRANCH  24  27
ATOM     27  C   UNL     1       0.331   0.567  -9.524  1.00  0.00     0.039 A 
ATOM     28  C   UNL     1      -0.769   0.231 -10.322  1.00  0.00     0.014 A 
ATOM     29  C   UNL     1       0.781   1.887  -9.504  1.00  0.00     0.014 A 
ATOM     30  C   UNL     1      -1.466   1.229 -11.011  1.00  0.00     0.010 A 
ATOM     31  C   UNL     1       0.026   2.893 -10.101  1.00  0.00     0.010 A 
ATOM     32  C   UNL     1      -1.111   2.579 -10.857  1.00  0.00    -0.014 A 
BRANCH  32  33
ATOM     33  C   UNL     1      -1.930   3.676 -11.440  1.00  0.00     0.031 A 
ATOM     34  C   UNL     1      -1.322   4.655 -12.411  1.00  0.00     0.074 A 
ATOM     35  C   UNL     1      -3.200   3.847 -11.017  1.00  0.00     0.049 A 
ATOM     36  N   UNL     1      -1.845   5.737 -12.930  1.00  0.00    -0.248 NA
ATOM     37  C   UNL     1       0.067   4.404 -12.831  1.00  0.00     0.031 C 
ATOM     38  C   UNL     1      -3.884   3.005 -10.032  1.00  0.00     0.029 A 
ATOM     39  N   UNL     1      -4.136   4.797 -11.342  1.00  0.00    -0.354 N 
ATOM     40  C   UNL     1      -0.848   6.304 -13.716  1.00  0.00     0.074 A 
ATOM     41  C   UNL     1       0.327   5.474 -13.569  1.00  0.00     0.031 C 
ATOM     42  C   UNL     1      -5.133   3.461  -9.851  1.00  0.00     0.029 A 
ATOM     43  C   UNL     1      -5.325   4.656 -10.665  1.00  0.00     0.049 A 
ATOM     44  H   UNL     1      -3.972   5.512 -11.999  1.00  0.00     0.167 HD
ATOM     45  C   UNL     1      -0.912   7.405 -14.503  1.00  0.00     0.037 A 
ATOM     46  C   UNL     1      -6.439   5.414 -10.678  1.00  0.00     0.037 A 
ATOM     47  C   UNL     1      -2.096   8.209 -14.668  1.00  0.00     0.049 A 
ATOM     48  C   UNL     1      -6.485   6.632 -11.560  1.00  0.00     0.074 A 
ATOM     49  C   UNL     1      -2.287   9.297 -15.503  1.00  0.00     0.029 A 
ATOM     50  N   UNL     1      -3.287   8.020 -13.982  1.00  0.00    -0.354 N 
ATOM     51  N   UNL     1      -5.557   7.108 -12.356  1.00  0.00    -0.248 NA
ATOM     52  C   UNL     1      -7.727   7.417 -11.546  1.00  0.00     0.031 C 
ATOM     53  C   UNL     1      -3.575   9.796 -15.285  1.00  0.00     0.029 A 
ATOM     54  C   UNL     1      -4.206   8.989 -14.352  1.00  0.00     0.049 A 
ATOM     55  H   UNL     1      -3.454   7.303 -13.329  1.00  0.00     0.167 HD
ATOM     56  C   UNL     1      -6.108   8.239 -12.948  1.00  0.00     0.074 A 
ATOM     57  C   UNL     1      -7.458   8.362 -12.436  1.00  0.00     0.031 C 
ATOM     58  C   UNL     1      -5.546   9.100 -13.832  1.00  0.00     0.037 A 
BRANCH  45  59
ATOM     59  C   UNL     1       0.327   7.805 -15.258  1.00  0.00     0.058 A 
ATOM     60  C   UNL     1       0.810   7.049 -16.338  1.00  0.00     0.135 A 
ATOM     61  C   UNL     1       1.009   8.990 -14.935  1.00  0.00     0.135 A 
ATOM     62  F   UNL     1       0.207   5.901 -16.683  1.00  0.00    -0.206 F 
ATOM     63  C   UNL     1       1.937   7.439 -17.055  1.00  0.00     0.059 A 
ATOM     64  C   UNL     1       2.122   9.415 -15.656  1.00  0.00     0.059 A 
ATOM     65  F   UNL     1       0.592   9.753 -13.912  1.00  0.00    -0.206 F 
ATOM     66  C   UNL     1       2.585   8.626 -16.708  1.00  0.00     0.060 A 
BRANCH  66  67
ATOM     67  S   UNL     1       4.035   9.127 -17.660  1.00  0.00     0.124 S 
ATOM     68  O   UNL     1       5.028   8.154 -17.210  1.00  0.00    -0.237 OA
ATOM     69  O   UNL     1       3.573   8.966 -19.037  1.00  0.00    -0.237 OA
ATOM     70  O   UNL     1       4.266  10.501 -17.235  1.00  0.00    -0.744 OA
ENDBRANCH  66  67
ENDBRANCH  45  59
BRANCH  46  71
ATOM     71  C   UNL     1      -7.604   5.040  -9.831  1.00  0.00     0.058 A 
ATOM     72  C   UNL     1      -8.793   4.570 -10.406  1.00  0.00     0.135 A 
ATOM     73  C   UNL     1      -7.549   5.134  -8.431  1.00  0.00     0.135 A 
ATOM     74  F   UNL     1      -8.898   4.469 -11.740  1.00  0.00    -0.206 F 
ATOM     75  C   UNL     1      -9.893   4.223  -9.628  1.00  0.00     0.059 A 
ATOM     76  C   UNL     1      -8.625   4.765  -7.629  1.00  0.00     0.059 A 
ATOM     77  F   UNL     1      -6.429   5.564  -7.829  1.00  0.00    -0.206 F 
ATOM     78  C   UNL     1      -9.798   4.322  -8.239  1.00  0.00     0.060 A 
BRANCH  78  79
ATOM     79  S   UNL     1     -11.217   3.827  -7.237  1.00  0.00     0.124 S 
ATOM     80  O   UNL     1     -12.144   4.927  -7.480  1.00  0.00    -0.237 OA
ATOM     81  O   UNL     1     -11.581   2.544  -7.834  1.00  0.00    -0.237 OA
ATOM     82  O   UNL     1     -10.667   3.749  -5.889  1.00  0.00    -0.744 OA
ENDBRANCH  78  79
ENDBRANCH  46  71
BRANCH  58  83
ATOM     83  C   UNL     1      -6.393  10.245 -14.314  1.00  0.00     0.058 A 
ATOM     84  C   UNL     1      -6.702  11.332 -13.481  1.00  0.00     0.135 A 
ATOM     85  C   UNL     1      -6.857  10.281 -15.639  1.00  0.00     0.135 A 
ATOM     86  F   UNL     1      -6.290  11.343 -12.204  1.00  0.00    -0.206 F 
ATOM     87  C   UNL     1      -7.460  12.405 -13.938  1.00  0.00     0.059 A 
ATOM     88  C   UNL     1      -7.593  11.357 -16.126  1.00  0.00     0.059 A 
ATOM     89  F   UNL     1      -6.582   9.272 -16.480  1.00  0.00    -0.206 F 
ATOM     90  C   UNL     1      -7.899  12.410 -15.264  1.00  0.00     0.060 A 
BRANCH  90  91
ATOM     91  S   UNL     1      -8.850  13.826 -15.854  1.00  0.00     0.124 S 
ATOM     92  O   UNL     1     -10.135  13.612 -15.197  1.00  0.00    -0.237 OA
ATOM     93  O   UNL     1      -8.066  14.955 -15.362  1.00  0.00    -0.237 OA
ATOM     94  O   UNL     1      -8.850  13.656 -17.304  1.00  0.00    -0.744 OA
ENDBRANCH  90  91
ENDBRANCH  58  83
ENDBRANCH  32  33
ENDBRANCH  24  27
ENDBRANCH  22  23
ENDBRANCH   1  22
TORSDOF 16
