REMARK SMILES Cc1cc2c(c(C)c1Br)C=C(C(=O)NCCCNC(=O)c1ccc(-c3c4nc(c(-c5c(F)cc(S(=O)(=O)[O-])cc5F)c5ccc([nH]5)c(-c5c(F)cc(S(=O)(=O)[O-])cc5F)c5nc(c(-c6c(F)cc(S(=O)(=O)[O-])cc6F)c6ccc3[nH]6)C=C5)C=C4)cc1)[C@@H](C(F)(F)F)O2
REMARK SMILES IDX 17 1 16 2 15 3 14 4 12 5 13 6 11 8 1 9 2 10 3 11 8 12 4 13
REMARK SMILES IDX 6 14 9 15 5 16 92 17 7 18 10 19 87 20 88 21 89 22 90 23
REMARK SMILES IDX 91 24 18 25 19 26 20 28 21 29 22 30 86 31 23 32 85 33 24 34
REMARK SMILES IDX 25 35 26 36 79 37 27 38 84 39 78 40 80 41 28 42 83 43 77 44
REMARK SMILES IDX 76 45 29 47 63 48 42 49 62 50 43 51 46 52 61 53 81 54 44 55
REMARK SMILES IDX 45 56 60 58 82 59 47 60 30 61 31 62 40 63 32 64 33 65 39 66
REMARK SMILES IDX 41 67 34 68 35 69 36 70 37 71 38 72 64 73 65 74 74 75 66 76
REMARK SMILES IDX 67 77 73 78 75 79 68 80 69 81 70 82 71 83 72 84 48 85 49 86
REMARK SMILES IDX 58 87 50 88 51 89 57 90 59 91 52 92 53 93 54 94 55 95 56 96
REMARK H PARENT 14 7 18 27 80 46 46 57
REMARK Flexibility Score: inf
ROOT
ATOM      1  C   UNL     1      -3.380   6.578   7.865  1.00  0.00     0.118 C 
ENDROOT
BRANCH   1   2
ATOM      2  C   UNL     1      -3.083   5.340   7.029  1.00  0.00     0.042 C 
BRANCH   2   3
ATOM      3  C   UNL     1      -3.519   5.505   5.581  1.00  0.00     0.118 C 
BRANCH   3   4
ATOM      4  N   UNL     1      -2.595   6.339   4.825  1.00  0.00    -0.352 N 
ATOM      5  C   UNL     1      -1.683   6.172   3.840  1.00  0.00     0.251 C 
ATOM      6  O   UNL     1      -1.112   7.204   3.472  1.00  0.00    -0.270 OA
ATOM      7  H   UNL     1      -2.649   7.281   5.108  1.00  0.00     0.163 HD
BRANCH   5   8
ATOM      8  C   UNL     1      -1.346   4.870   3.195  1.00  0.00     0.067 C 
ATOM      9  C   UNL     1       1.129  -0.170  -0.091  1.00  0.00     0.046 C 
ATOM     10  C   UNL     1       0.782   1.186   0.461  1.00  0.00    -0.033 A 
ATOM     11  C   UNL     1      -0.115   1.244   1.530  1.00  0.00     0.051 A 
ATOM     12  C   UNL     1       1.312   2.391  -0.050  1.00  0.00     0.024 A 
ATOM     13  C   UNL     1      -0.478   2.465   2.084  1.00  0.00     0.128 A 
ATOM     14  C   UNL     1       0.960   3.644   0.516  1.00  0.00    -0.026 A 
ATOM     15  Br  UNL     1       2.528   2.287  -1.526  1.00  0.00    -0.050 Br
ATOM     16  C   UNL     1       0.054   3.666   1.607  1.00  0.00     0.021 A 
ATOM     17  O   UNL     1      -1.340   2.388   3.139  1.00  0.00    -0.475 OA
ATOM     18  C   UNL     1       1.521   4.952   0.007  1.00  0.00     0.046 C 
ATOM     19  C   UNL     1      -0.334   4.896   2.308  1.00  0.00     0.026 C 
ATOM     20  C   UNL     1      -2.078   3.591   3.462  1.00  0.00     0.314 C 
BRANCH  20  21
ATOM     21  C   UNL     1      -3.458   3.546   2.778  1.00  0.00     0.429 C 
ATOM     22  F   UNL     1      -4.235   2.584   3.336  1.00  0.00    -0.167 F 
ATOM     23  F   UNL     1      -4.142   4.708   2.902  1.00  0.00    -0.167 F 
ATOM     24  F   UNL     1      -3.377   3.283   1.454  1.00  0.00    -0.167 F 
ENDBRANCH  20  21
ENDBRANCH   5   8
ENDBRANCH   3   4
ENDBRANCH   2   3
ENDBRANCH   1   2
BRANCH   1  25
ATOM     25  N   UNL     1      -4.815   6.841   7.951  1.00  0.00    -0.352 N 
ATOM     26  C   UNL     1      -5.690   6.636   8.986  1.00  0.00     0.251 C 
ATOM     27  H   UNL     1      -5.215   7.226   7.138  1.00  0.00     0.163 HD
ATOM     28  O   UNL     1      -6.901   6.644   8.768  1.00  0.00    -0.269 OA
BRANCH  26  29
ATOM     29  C   UNL     1      -5.181   6.406  10.351  1.00  0.00     0.039 A 
ATOM     30  C   UNL     1      -5.807   5.464  11.170  1.00  0.00     0.014 A 
ATOM     31  C   UNL     1      -4.096   7.144  10.830  1.00  0.00     0.014 A 
ATOM     32  C   UNL     1      -5.301   5.220  12.448  1.00  0.00     0.010 A 
ATOM     33  C   UNL     1      -3.532   6.828  12.058  1.00  0.00     0.010 A 
ATOM     34  C   UNL     1      -4.139   5.876  12.887  1.00  0.00    -0.014 A 
BRANCH  34  35
ATOM     35  C   UNL     1      -3.559   5.609  14.225  1.00  0.00     0.031 A 
ATOM     36  C   UNL     1      -3.478   6.719  15.238  1.00  0.00     0.074 A 
ATOM     37  C   UNL     1      -3.055   4.389  14.501  1.00  0.00     0.049 A 
ATOM     38  N   UNL     1      -2.947   6.707  16.432  1.00  0.00    -0.248 NA
ATOM     39  C   UNL     1      -4.041   8.025  14.848  1.00  0.00     0.031 C 
ATOM     40  C   UNL     1      -3.030   3.254  13.575  1.00  0.00     0.029 A 
ATOM     41  N   UNL     1      -2.462   3.901  15.637  1.00  0.00    -0.354 N 
ATOM     42  C   UNL     1      -3.101   7.997  16.927  1.00  0.00     0.074 A 
ATOM     43  C   UNL     1      -3.717   8.784  15.884  1.00  0.00     0.031 C 
ATOM     44  C   UNL     1      -2.481   2.195  14.191  1.00  0.00     0.029 A 
ATOM     45  C   UNL     1      -2.078   2.583  15.539  1.00  0.00     0.049 A 
ATOM     46  H   UNL     1      -2.323   4.442  16.448  1.00  0.00     0.167 HD
ATOM     47  C   UNL     1      -2.788   8.471  18.154  1.00  0.00     0.037 A 
ATOM     48  C   UNL     1      -1.467   1.782  16.433  1.00  0.00     0.037 A 
ATOM     49  C   UNL     1      -2.217   7.667  19.200  1.00  0.00     0.049 A 
ATOM     50  C   UNL     1      -1.131   2.336  17.793  1.00  0.00     0.074 A 
ATOM     51  C   UNL     1      -1.924   8.034  20.501  1.00  0.00     0.029 A 
ATOM     52  N   UNL     1      -1.858   6.334  19.067  1.00  0.00    -0.354 N 
ATOM     53  N   UNL     1      -1.346   3.541  18.266  1.00  0.00    -0.248 NA
ATOM     54  C   UNL     1      -0.475   1.425  18.741  1.00  0.00     0.031 C 
ATOM     55  C   UNL     1      -1.345   6.936  21.142  1.00  0.00     0.029 A 
ATOM     56  C   UNL     1      -1.323   5.870  20.256  1.00  0.00     0.049 A 
ATOM     57  H   UNL     1      -1.966   5.798  18.248  1.00  0.00     0.167 HD
ATOM     58  C   UNL     1      -0.870   3.526  19.572  1.00  0.00     0.074 A 
ATOM     59  C   UNL     1      -0.372   2.189  19.820  1.00  0.00     0.031 C 
ATOM     60  C   UNL     1      -0.843   4.530  20.483  1.00  0.00     0.037 A 
BRANCH  47  61
ATOM     61  C   UNL     1      -3.080   9.916  18.451  1.00  0.00     0.058 A 
ATOM     62  C   UNL     1      -4.395  10.378  18.616  1.00  0.00     0.135 A 
ATOM     63  C   UNL     1      -2.034  10.830  18.652  1.00  0.00     0.135 A 
ATOM     64  F   UNL     1      -5.434   9.551  18.415  1.00  0.00    -0.206 F 
ATOM     65  C   UNL     1      -4.663  11.697  18.965  1.00  0.00     0.059 A 
ATOM     66  C   UNL     1      -2.278  12.148  19.028  1.00  0.00     0.059 A 
ATOM     67  F   UNL     1      -0.758  10.441  18.499  1.00  0.00    -0.206 F 
ATOM     68  C   UNL     1      -3.597  12.572  19.179  1.00  0.00     0.060 A 
BRANCH  68  69
ATOM     69  S   UNL     1      -3.967  14.266  19.680  1.00  0.00     0.124 S 
ATOM     70  O   UNL     1      -4.569  14.806  18.465  1.00  0.00    -0.237 OA
ATOM     71  O   UNL     1      -4.877  14.064  20.802  1.00  0.00    -0.237 OA
ATOM     72  O   UNL     1      -2.659  14.813  20.026  1.00  0.00    -0.744 OA
ENDBRANCH  68  69
ENDBRANCH  47  61
BRANCH  48  73
ATOM     73  C   UNL     1      -1.156   0.371  16.080  1.00  0.00     0.058 A 
ATOM     74  C   UNL     1      -1.841  -0.693  16.686  1.00  0.00     0.135 A 
ATOM     75  C   UNL     1      -0.180   0.056  15.122  1.00  0.00     0.135 A 
ATOM     76  F   UNL     1      -2.781  -0.445  17.611  1.00  0.00    -0.206 F 
ATOM     77  C   UNL     1      -1.560  -2.018  16.368  1.00  0.00     0.059 A 
ATOM     78  C   UNL     1       0.102  -1.260  14.768  1.00  0.00     0.059 A 
ATOM     79  F   UNL     1       0.493   1.036  14.499  1.00  0.00    -0.206 F 
ATOM     80  C   UNL     1      -0.587  -2.291  15.405  1.00  0.00     0.060 A 
BRANCH  80  81
ATOM     81  S   UNL     1      -0.259  -4.014  14.973  1.00  0.00     0.124 S 
ATOM     82  O   UNL     1       0.400  -4.500  16.180  1.00  0.00    -0.237 OA
ATOM     83  O   UNL     1      -1.603  -4.527  14.727  1.00  0.00    -0.237 OA
ATOM     84  O   UNL     1       0.589  -3.908  13.790  1.00  0.00    -0.744 OA
ENDBRANCH  80  81
ENDBRANCH  48  73
BRANCH  60  85
ATOM     85  C   UNL     1      -0.273   4.227  21.840  1.00  0.00     0.058 A 
ATOM     86  C   UNL     1       1.108   4.079  22.036  1.00  0.00     0.135 A 
ATOM     87  C   UNL     1      -1.108   4.184  22.968  1.00  0.00     0.135 A 
ATOM     88  F   UNL     1       1.947   4.108  20.989  1.00  0.00    -0.206 F 
ATOM     89  C   UNL     1       1.642   3.890  23.306  1.00  0.00     0.059 A 
ATOM     90  C   UNL     1      -0.593   4.024  24.250  1.00  0.00     0.059 A 
ATOM     91  F   UNL     1      -2.436   4.332  22.833  1.00  0.00    -0.206 F 
ATOM     92  C   UNL     1       0.784   3.873  24.408  1.00  0.00     0.060 A 
BRANCH  92  93
ATOM     93  S   UNL     1       1.501   3.688  26.053  1.00  0.00     0.124 S 
ATOM     94  O   UNL     1       1.943   2.297  26.027  1.00  0.00    -0.237 OA
ATOM     95  O   UNL     1       2.562   4.691  26.044  1.00  0.00    -0.237 OA
ATOM     96  O   UNL     1       0.383   3.974  26.947  1.00  0.00    -0.744 OA
ENDBRANCH  92  93
ENDBRANCH  60  85
ENDBRANCH  34  35
ENDBRANCH  26  29
ENDBRANCH   1  25
TORSDOF 14
