REMARK SMILES Cc1cc(C(=O)NC2(CC(=O)NCCCNC(=O)c3ccc(-c4c5nc(c(-c6c(F)cc(S(=O)(=O)[O-])cc6F)c6ccc([nH]6)c(-c6c(F)cc(S(=O)(=O)[O-])cc6F)c6nc(c(-c7c(F)cc(S(=O)(=O)[O-])cc7F)c7ccc4[nH]7)C=C6)C=C5)cc3)CCC2)sc1C
REMARK SMILES IDX 14 1 13 2 12 3 10 4 11 5 9 7 8 8 85 9 87 10 86 11 7 12 5 13
REMARK SMILES IDX 6 14 4 16 1 17 2 18 3 19 89 20 88 21 90 22 15 23 16 24 17 25
REMARK SMILES IDX 18 27 19 28 20 29 84 30 21 31 83 32 22 33 23 34 24 35 77 36
REMARK SMILES IDX 25 37 82 38 76 39 78 40 26 41 81 42 75 43 74 44 27 46 61 47
REMARK SMILES IDX 40 48 60 49 41 50 44 51 59 52 79 53 42 54 43 55 58 57 80 58
REMARK SMILES IDX 45 59 28 60 29 61 38 62 30 63 31 64 37 65 39 66 32 67 33 68
REMARK SMILES IDX 34 69 35 70 36 71 62 72 63 73 72 74 64 75 65 76 71 77 73 78
REMARK SMILES IDX 66 79 67 80 68 81 69 82 70 83 46 84 47 85 56 86 48 87 49 88
REMARK SMILES IDX 55 89 57 90 50 91 51 92 52 93 53 94 54 95
REMARK H PARENT 12 6 7 15 16 26 78 45 44 56
REMARK Flexibility Score: inf
ROOT
ATOM      1  C   UNL     1       6.593  -0.662   2.846  1.00  0.00     0.042 C 
ENDROOT
BRANCH   1   2
ATOM      2  C   UNL     1       7.308  -0.818   1.505  1.00  0.00     0.117 C 
BRANCH   2   3
ATOM      3  N   UNL     1       6.909  -2.046   0.845  1.00  0.00    -0.356 N 
ATOM      4  C   UNL     1       5.959  -2.254  -0.103  1.00  0.00     0.222 C 
ATOM      5  O   UNL     1       5.618  -3.415  -0.342  1.00  0.00    -0.275 OA
ATOM      6  H   UNL     1       7.401  -2.851   1.126  1.00  0.00     0.163 HD
BRANCH   4   7
ATOM      7  C   UNL     1       5.325  -1.107  -0.856  1.00  0.00     0.128 C 
BRANCH   7   8
ATOM      8  C   UNL     1       3.931  -0.648  -0.363  1.00  0.00     0.049 C 
ATOM      9  C   UNL     1       3.355   0.404  -1.345  1.00  0.00     0.029 C 
ATOM     10  C   UNL     1       4.012   0.453   0.720  1.00  0.00     0.029 C 
ATOM     11  C   UNL     1       3.770   1.515  -0.364  1.00  0.00     0.005 C 
BRANCH   8  12
ATOM     12  N   UNL     1       3.082  -1.827  -0.056  1.00  0.00    -0.345 N 
ATOM     13  C   UNL     1       1.743  -2.121   0.127  1.00  0.00     0.261 C 
ATOM     14  O   UNL     1       1.515  -3.335   0.213  1.00  0.00    -0.268 OA
ATOM     15  H   UNL     1       3.634  -2.636   0.046  1.00  0.00     0.164 HD
BRANCH  13  16
ATOM     16  C   UNL     1       0.642  -1.170   0.155  1.00  0.00     0.092 A 
ATOM     17  C   UNL     1      -3.033  -0.436  -0.354  1.00  0.00     0.045 C 
ATOM     18  C   UNL     1      -1.570  -0.353  -0.076  1.00  0.00    -0.037 A 
ATOM     19  C   UNL     1      -0.679  -1.478  -0.142  1.00  0.00     0.029 A 
ATOM     20  C   UNL     1      -0.870   0.791   0.263  1.00  0.00     0.005 A 
ATOM     21  S   UNL     1       0.715   0.415   0.755  1.00  0.00    -0.135 S 
ATOM     22  C   UNL     1      -1.333   2.208   0.311  1.00  0.00     0.056 C 
ENDBRANCH  13  16
ENDBRANCH   8  12
ENDBRANCH   7   8
ENDBRANCH   4   7
ENDBRANCH   2   3
ENDBRANCH   1   2
BRANCH   1  23
ATOM     23  C   UNL     1       7.120  -1.589   3.933  1.00  0.00     0.118 C 
BRANCH  23  24
ATOM     24  N   UNL     1       8.454  -1.212   4.370  1.00  0.00    -0.352 N 
ATOM     25  C   UNL     1       8.881  -0.636   5.541  1.00  0.00     0.251 C 
ATOM     26  H   UNL     1       9.169  -1.401   3.720  1.00  0.00     0.163 HD
ATOM     27  O   UNL     1      10.014  -0.165   5.588  1.00  0.00    -0.269 OA
BRANCH  25  28
ATOM     28  C   UNL     1       8.002  -0.567   6.733  1.00  0.00     0.039 A 
ATOM     29  C   UNL     1       8.090   0.550   7.571  1.00  0.00     0.014 A 
ATOM     30  C   UNL     1       7.147  -1.618   7.075  1.00  0.00     0.014 A 
ATOM     31  C   UNL     1       7.294   0.630   8.718  1.00  0.00     0.010 A 
ATOM     32  C   UNL     1       6.290  -1.497   8.167  1.00  0.00     0.010 A 
ATOM     33  C   UNL     1       6.368  -0.382   9.013  1.00  0.00    -0.014 A 
BRANCH  33  34
ATOM     34  C   UNL     1       5.503  -0.315  10.220  1.00  0.00     0.031 A 
ATOM     35  C   UNL     1       5.633  -1.358  11.300  1.00  0.00     0.074 A 
ATOM     36  C   UNL     1       4.568   0.650  10.324  1.00  0.00     0.049 A 
ATOM     37  N   UNL     1       4.923  -1.517  12.388  1.00  0.00    -0.248 NA
ATOM     38  C   UNL     1       6.683  -2.373  11.117  1.00  0.00     0.031 C 
ATOM     39  C   UNL     1       4.318   1.697   9.331  1.00  0.00     0.029 A 
ATOM     40  N   UNL     1       3.649   0.904  11.311  1.00  0.00    -0.354 N 
ATOM     41  C   UNL     1       5.425  -2.657  13.006  1.00  0.00     0.074 A 
ATOM     42  C   UNL     1       6.462  -3.181  12.144  1.00  0.00     0.031 C 
ATOM     43  C   UNL     1       3.336   2.499   9.775  1.00  0.00     0.029 A 
ATOM     44  C   UNL     1       2.860   2.002  11.062  1.00  0.00     0.049 A 
ATOM     45  H   UNL     1       3.563   0.352  12.121  1.00  0.00     0.167 HD
ATOM     46  C   UNL     1       5.076  -3.204  14.195  1.00  0.00     0.037 A 
ATOM     47  C   UNL     1       1.863   2.545  11.787  1.00  0.00     0.037 A 
ATOM     48  C   UNL     1       4.065  -2.662  15.065  1.00  0.00     0.049 A 
ATOM     49  C   UNL     1       1.487   1.918  13.102  1.00  0.00     0.074 A 
ATOM     50  C   UNL     1       3.666  -3.112  16.311  1.00  0.00     0.029 A 
ATOM     51  N   UNL     1       3.294  -1.544  14.779  1.00  0.00    -0.354 N 
ATOM     52  N   UNL     1       2.001   0.864  13.690  1.00  0.00    -0.248 NA
ATOM     53  C   UNL     1       0.396   2.556  13.852  1.00  0.00     0.031 C 
ATOM     54  C   UNL     1       2.632  -2.286  16.765  1.00  0.00     0.029 A 
ATOM     55  C   UNL     1       2.413  -1.297  15.819  1.00  0.00     0.049 A 
ATOM     56  H   UNL     1       3.363  -1.006  13.957  1.00  0.00     0.167 HD
ATOM     57  C   UNL     1       1.316   0.728  14.892  1.00  0.00     0.074 A 
ATOM     58  C   UNL     1       0.355   1.812  14.950  1.00  0.00     0.031 C 
ATOM     59  C   UNL     1       1.469  -0.207  15.862  1.00  0.00     0.037 A 
BRANCH  46  60
ATOM     60  C   UNL     1       5.802  -4.452  14.620  1.00  0.00     0.058 A 
ATOM     61  C   UNL     1       7.155  -4.423  14.997  1.00  0.00     0.135 A 
ATOM     62  C   UNL     1       5.143  -5.691  14.649  1.00  0.00     0.135 A 
ATOM     63  F   UNL     1       7.838  -3.267  14.975  1.00  0.00    -0.206 F 
ATOM     64  C   UNL     1       7.841  -5.583  15.341  1.00  0.00     0.059 A 
ATOM     65  C   UNL     1       5.802  -6.861  15.017  1.00  0.00     0.059 A 
ATOM     66  F   UNL     1       3.849  -5.778  14.303  1.00  0.00    -0.206 F 
ATOM     67  C   UNL     1       7.158  -6.800  15.339  1.00  0.00     0.060 A 
BRANCH  67  68
ATOM     68  S   UNL     1       8.068  -8.301  15.759  1.00  0.00     0.124 S 
ATOM     69  O   UNL     1       8.827  -8.531  14.534  1.00  0.00    -0.237 OA
ATOM     70  O   UNL     1       8.848  -7.884  16.919  1.00  0.00    -0.237 OA
ATOM     71  O   UNL     1       7.012  -9.272  16.034  1.00  0.00    -0.744 OA
ENDBRANCH  67  68
ENDBRANCH  46  60
BRANCH  47  72
ATOM     72  C   UNL     1       1.181   3.774  11.305  1.00  0.00     0.058 A 
ATOM     73  C   UNL     1       1.409   5.009  11.928  1.00  0.00     0.135 A 
ATOM     74  C   UNL     1       0.314   3.748  10.202  1.00  0.00     0.135 A 
ATOM     75  F   UNL     1       2.226   5.083  12.991  1.00  0.00    -0.206 F 
ATOM     76  C   UNL     1       0.795   6.175  11.483  1.00  0.00     0.059 A 
ATOM     77  C   UNL     1      -0.295   4.905   9.724  1.00  0.00     0.059 A 
ATOM     78  F   UNL     1       0.076   2.593   9.561  1.00  0.00    -0.206 F 
ATOM     79  C   UNL     1      -0.053   6.113  10.377  1.00  0.00     0.060 A 
BRANCH  79  80
ATOM     80  S   UNL     1      -0.797   7.643   9.769  1.00  0.00     0.124 S 
ATOM     81  O   UNL     1      -1.821   7.892  10.777  1.00  0.00    -0.237 OA
ATOM     82  O   UNL     1       0.339   8.559   9.772  1.00  0.00    -0.237 OA
ATOM     83  O   UNL     1      -1.289   7.273   8.445  1.00  0.00    -0.744 OA
ENDBRANCH  79  80
ENDBRANCH  47  72
BRANCH  59  84
ATOM     84  C   UNL     1       0.604  -0.082  17.084  1.00  0.00     0.058 A 
ATOM     85  C   UNL     1      -0.759  -0.412  17.058  1.00  0.00     0.135 A 
ATOM     86  C   UNL     1       1.158   0.330  18.306  1.00  0.00     0.135 A 
ATOM     87  F   UNL     1      -1.339  -0.804  15.912  1.00  0.00    -0.206 F 
ATOM     88  C   UNL     1      -1.550  -0.320  18.199  1.00  0.00     0.059 A 
ATOM     89  C   UNL     1       0.392   0.407  19.465  1.00  0.00     0.059 A 
ATOM     90  F   UNL     1       2.460   0.649  18.385  1.00  0.00    -0.206 F 
ATOM     91  C   UNL     1      -0.964   0.090  19.399  1.00  0.00     0.060 A 
BRANCH  91  92
ATOM     92  S   UNL     1      -1.991   0.173  20.881  1.00  0.00     0.124 S 
ATOM     93  O   UNL     1      -2.748   1.397  20.646  1.00  0.00    -0.237 OA
ATOM     94  O   UNL     1      -2.754  -1.069  20.805  1.00  0.00    -0.237 OA
ATOM     95  O   UNL     1      -1.016   0.236  21.966  1.00  0.00    -0.744 OA
ENDBRANCH  91  92
ENDBRANCH  59  84
ENDBRANCH  33  34
ENDBRANCH  25  28
ENDBRANCH  23  24
ENDBRANCH   1  23
TORSDOF 16
