REMARK SMILES CCC(CC)(NC(=O)NC[C@H](C)[NH+]1CCCCC1)C(=O)NCCCNC(=O)c1ccc(-c2c3nc(c(-c4c(F)cc(S(=O)(=O)[O-])cc4F)c4ccc([nH]4)c(-c4c(F)cc(S(=O)(=O)[O-])cc4F)c4nc(c(-c5c(F)cc(S(=O)(=O)[O-])cc5F)c5ccc2[nH]5)C=C4)C=C3)cc1
REMARK SMILES IDX 22 1 21 2 19 3 20 4 3 6 2 7 1 8 4 9 5 10 6 11 7 12 8 14 9 15
REMARK SMILES IDX 10 17 11 18 12 19 13 20 14 21 18 22 15 24 17 25 16 26 23 27
REMARK SMILES IDX 24 28 25 29 26 30 27 32 28 33 29 34 93 35 30 36 92 37 31 38
REMARK SMILES IDX 32 39 33 40 86 41 34 42 91 43 85 44 87 45 35 46 90 47 84 48
REMARK SMILES IDX 83 49 36 51 70 52 49 53 69 54 50 55 53 56 68 57 88 58 51 59
REMARK SMILES IDX 52 60 67 62 89 63 54 64 37 65 38 66 47 67 39 68 40 69 46 70
REMARK SMILES IDX 48 71 41 72 42 73 43 74 44 75 45 76 71 77 72 78 81 79 73 80
REMARK SMILES IDX 74 81 80 82 82 83 75 84 76 85 77 86 78 87 79 88 55 89 56 90
REMARK SMILES IDX 65 91 57 92 58 93 64 94 66 95 59 96 60 97 61 98 62 99 63 100
REMARK H PARENT 21 5 6 13 9 16 13 23 25 31 87 50 53 61
REMARK Flexibility Score: inf
ROOT
ATOM      1  C   UNL     1       3.312   1.393  -4.234  1.00  0.00     0.117 C 
ENDROOT
BRANCH   1   2
ATOM      2  N   UNL     1       4.319   0.868  -3.297  1.00  0.00    -0.354 N 
ATOM      3  C   UNL     1       5.696   0.859  -3.238  1.00  0.00     0.245 C 
ATOM      4  O   UNL     1       6.213   0.637  -2.138  1.00  0.00    -0.272 OA
ATOM      5  H   UNL     1       3.910   0.413  -2.526  1.00  0.00     0.163 HD
BRANCH   3   6
ATOM      6  C   UNL     1       6.566   1.368  -4.390  1.00  0.00     0.120 C 
BRANCH   6   7
ATOM      7  C   UNL     1       8.079   1.006  -4.442  1.00  0.00     0.035 C 
ATOM      8  C   UNL     1       8.914   1.158  -3.179  1.00  0.00     0.007 C 
ENDBRANCH   6   7
BRANCH   6   9
ATOM      9  C   UNL     1       6.379   2.912  -4.118  1.00  0.00     0.035 C 
ATOM     10  C   UNL     1       7.250   3.968  -4.763  1.00  0.00     0.007 C 
ENDBRANCH   6   9
BRANCH   6  11
ATOM     11  N   UNL     1       5.971   0.828  -5.622  1.00  0.00    -0.324 N 
ATOM     12  C   UNL     1       5.577  -0.414  -5.992  1.00  0.00     0.315 C 
ATOM     13  H   UNL     1       5.831   1.507  -6.320  1.00  0.00     0.166 HD
ATOM     14  O   UNL     1       5.412  -0.596  -7.202  1.00  0.00    -0.249 OA
ATOM     15  N   UNL     1       5.158  -1.405  -5.165  1.00  0.00    -0.332 N 
ATOM     16  H   UNL     1       4.325  -1.823  -5.483  1.00  0.00     0.165 HD
BRANCH  15  17
ATOM     17  C   UNL     1       5.638  -2.013  -3.904  1.00  0.00     0.182 C 
BRANCH  17  18
ATOM     18  C   UNL     1       4.612  -2.564  -2.807  1.00  0.00     0.200 C 
ATOM     19  C   UNL     1       3.453  -1.725  -2.263  1.00  0.00     0.077 C 
BRANCH  18  20
ATOM     20  N   UNL     1       5.214  -3.009  -1.536  1.00  0.00    -0.331 N 
ATOM     21  C   UNL     1       5.621  -4.397  -1.470  1.00  0.00     0.262 C 
ATOM     22  C   UNL     1       6.163  -2.070  -0.939  1.00  0.00     0.262 C 
ATOM     23  H   UNL     1       4.410  -2.986  -0.909  1.00  0.00     0.348 HD
ATOM     24  C   UNL     1       5.878  -4.771  -0.006  1.00  0.00     0.062 C 
ATOM     25  C   UNL     1       6.482  -2.404   0.509  1.00  0.00     0.062 C 
ATOM     26  C   UNL     1       6.911  -3.853   0.641  1.00  0.00     0.012 C 
ENDBRANCH  18  20
ENDBRANCH  17  18
ENDBRANCH  15  17
ENDBRANCH   6  11
ENDBRANCH   3   6
ENDBRANCH   1   2
BRANCH   1  27
ATOM     27  C   UNL     1       2.555   0.551  -5.292  1.00  0.00     0.042 C 
BRANCH  27  28
ATOM     28  C   UNL     1       1.792  -0.747  -5.018  1.00  0.00     0.118 C 
BRANCH  28  29
ATOM     29  N   UNL     1       0.827  -0.697  -3.933  1.00  0.00    -0.352 N 
ATOM     30  C   UNL     1      -0.369  -1.379  -3.794  1.00  0.00     0.251 C 
ATOM     31  H   UNL     1       1.056  -0.092  -3.191  1.00  0.00     0.163 HD
ATOM     32  O   UNL     1      -1.002  -1.310  -2.765  1.00  0.00    -0.269 OA
BRANCH  30  33
ATOM     33  C   UNL     1      -0.915  -2.118  -4.957  1.00  0.00     0.039 A 
ATOM     34  C   UNL     1      -2.155  -1.703  -5.449  1.00  0.00     0.014 A 
ATOM     35  C   UNL     1      -0.210  -3.148  -5.582  1.00  0.00     0.014 A 
ATOM     36  C   UNL     1      -2.649  -2.254  -6.631  1.00  0.00     0.010 A 
ATOM     37  C   UNL     1      -0.684  -3.666  -6.788  1.00  0.00     0.010 A 
ATOM     38  C   UNL     1      -1.892  -3.201  -7.337  1.00  0.00    -0.014 A 
BRANCH  38  39
ATOM     39  C   UNL     1      -2.328  -3.671  -8.677  1.00  0.00     0.031 A 
ATOM     40  C   UNL     1      -2.736  -5.101  -8.880  1.00  0.00     0.074 A 
ATOM     41  C   UNL     1      -2.291  -2.814  -9.717  1.00  0.00     0.049 A 
ATOM     42  N   UNL     1      -3.058  -5.717  -9.987  1.00  0.00    -0.248 NA
ATOM     43  C   UNL     1      -2.767  -5.955  -7.683  1.00  0.00     0.031 C 
ATOM     44  C   UNL     1      -1.882  -1.408  -9.638  1.00  0.00     0.029 A 
ATOM     45  N   UNL     1      -2.583  -2.995 -11.046  1.00  0.00    -0.354 N 
ATOM     46  C   UNL     1      -3.314  -7.034  -9.626  1.00  0.00     0.074 A 
ATOM     47  C   UNL     1      -3.071  -7.136  -8.203  1.00  0.00     0.031 C 
ATOM     48  C   UNL     1      -1.959  -0.856 -10.858  1.00  0.00     0.029 A 
ATOM     49  C   UNL     1      -2.379  -1.873 -11.816  1.00  0.00     0.049 A 
ATOM     50  H   UNL     1      -2.908  -3.849 -11.414  1.00  0.00     0.167 HD
ATOM     51  C   UNL     1      -3.729  -8.057 -10.410  1.00  0.00     0.037 A 
ATOM     52  C   UNL     1      -2.499  -1.690 -13.146  1.00  0.00     0.037 A 
ATOM     53  C   UNL     1      -3.978  -7.933 -11.823  1.00  0.00     0.049 A 
ATOM     54  C   UNL     1      -2.944  -2.847 -13.999  1.00  0.00     0.074 A 
ATOM     55  C   UNL     1      -4.441  -8.895 -12.704  1.00  0.00     0.029 A 
ATOM     56  N   UNL     1      -3.781  -6.775 -12.564  1.00  0.00    -0.354 N 
ATOM     57  N   UNL     1      -3.233  -4.074 -13.633  1.00  0.00    -0.248 NA
ATOM     58  C   UNL     1      -3.085  -2.600 -15.440  1.00  0.00     0.031 C 
ATOM     59  C   UNL     1      -4.478  -8.332 -13.984  1.00  0.00     0.029 A 
ATOM     60  C   UNL     1      -4.095  -7.003 -13.893  1.00  0.00     0.049 A 
ATOM     61  H   UNL     1      -3.465  -5.917 -12.197  1.00  0.00     0.167 HD
ATOM     62  C   UNL     1      -3.623  -4.735 -14.792  1.00  0.00     0.074 A 
ATOM     63  C   UNL     1      -3.535  -3.772 -15.871  1.00  0.00     0.031 C 
ATOM     64  C   UNL     1      -4.021  -6.022 -14.948  1.00  0.00     0.037 A 
BRANCH  51  65
ATOM     65  C   UNL     1      -3.932  -9.400  -9.761  1.00  0.00     0.058 A 
ATOM     66  C   UNL     1      -4.983  -9.633  -8.859  1.00  0.00     0.135 A 
ATOM     67  C   UNL     1      -3.085 -10.477 -10.068  1.00  0.00     0.135 A 
ATOM     68  F   UNL     1      -5.815  -8.636  -8.518  1.00  0.00    -0.206 F 
ATOM     69  C   UNL     1      -5.167 -10.875  -8.260  1.00  0.00     0.059 A 
ATOM     70  C   UNL     1      -3.268 -11.737  -9.503  1.00  0.00     0.059 A 
ATOM     71  F   UNL     1      -2.064 -10.313 -10.924  1.00  0.00    -0.206 F 
ATOM     72  C   UNL     1      -4.303 -11.921  -8.588  1.00  0.00     0.060 A 
BRANCH  72  73
ATOM     73  S   UNL     1      -4.558 -13.527  -7.802  1.00  0.00     0.124 S 
ATOM     74  O   UNL     1      -4.111 -13.257  -6.439  1.00  0.00    -0.237 OA
ATOM     75  O   UNL     1      -5.993 -13.732  -7.970  1.00  0.00    -0.237 OA
ATOM     76  O   UNL     1      -3.704 -14.424  -8.575  1.00  0.00    -0.744 OA
ENDBRANCH  72  73
ENDBRANCH  51  65
BRANCH  52  77
ATOM     77  C   UNL     1      -2.207  -0.359 -13.746  1.00  0.00     0.058 A 
ATOM     78  C   UNL     1      -3.233   0.437 -14.275  1.00  0.00     0.135 A 
ATOM     79  C   UNL     1      -0.900   0.154 -13.784  1.00  0.00     0.135 A 
ATOM     80  F   UNL     1      -4.499  -0.009 -14.268  1.00  0.00    -0.206 F 
ATOM     81  C   UNL     1      -2.976   1.685 -14.835  1.00  0.00     0.059 A 
ATOM     82  C   UNL     1      -0.621   1.411 -14.314  1.00  0.00     0.059 A 
ATOM     83  F   UNL     1       0.117  -0.558 -13.277  1.00  0.00    -0.206 F 
ATOM     84  C   UNL     1      -1.665   2.165 -14.847  1.00  0.00     0.060 A 
BRANCH  84  85
ATOM     85  S   UNL     1      -1.350   3.807 -15.532  1.00  0.00     0.124 S 
ATOM     86  O   UNL     1      -1.530   3.569 -16.959  1.00  0.00    -0.237 OA
ATOM     87  O   UNL     1      -2.381   4.612 -14.884  1.00  0.00    -0.237 OA
ATOM     88  O   UNL     1       0.017   4.092 -15.107  1.00  0.00    -0.744 OA
ENDBRANCH  84  85
ENDBRANCH  52  77
BRANCH  64  89
ATOM     89  C   UNL     1      -4.446  -6.459 -16.322  1.00  0.00     0.058 A 
ATOM     90  C   UNL     1      -3.516  -6.694 -17.345  1.00  0.00     0.135 A 
ATOM     91  C   UNL     1      -5.798  -6.737 -16.584  1.00  0.00     0.135 A 
ATOM     92  F   UNL     1      -2.213  -6.434 -17.147  1.00  0.00    -0.206 F 
ATOM     93  C   UNL     1      -3.912  -7.185 -18.584  1.00  0.00     0.059 A 
ATOM     94  C   UNL     1      -6.212  -7.255 -17.807  1.00  0.00     0.059 A 
ATOM     95  F   UNL     1      -6.726  -6.537 -15.635  1.00  0.00    -0.206 F 
ATOM     96  C   UNL     1      -5.261  -7.472 -18.802  1.00  0.00     0.060 A 
BRANCH  96  97
ATOM     97  S   UNL     1      -5.749  -8.179 -20.390  1.00  0.00     0.124 S 
ATOM     98  O   UNL     1      -5.621  -7.028 -21.277  1.00  0.00    -0.237 OA
ATOM     99  O   UNL     1      -4.761  -9.237 -20.577  1.00  0.00    -0.237 OA
ATOM    100  O   UNL     1      -7.114  -8.639 -20.153  1.00  0.00    -0.744 OA
ENDBRANCH  96  97
ENDBRANCH  64  89
ENDBRANCH  38  39
ENDBRANCH  30  33
ENDBRANCH  28  29
ENDBRANCH  27  28
ENDBRANCH   1  27
TORSDOF 19
