REMARK SMILES O=C(NCCCNC(=O)c1ccc(-c2c3nc(c(-c4c(F)cc(S(=O)(=O)[O-])cc4F)c4ccc([nH]4)c(-c4c(F)cc(S(=O)(=O)[O-])cc4F)c4nc(c(-c5c(F)cc(S(=O)(=O)[O-])cc5F)c5ccc2[nH]5)C=C4)C=C3)cc1)C1=Cc2cc(S(F)(F)(F)(F)F)ccc2O[C@@H]1C(F)(F)F
REMARK SMILES IDX 6 1 5 2 4 3 3 4 1 5 2 6 76 8 77 9 91 10 78 11 90 12 79 13
REMARK SMILES IDX 89 14 80 15 88 16 87 17 92 18 93 19 94 20 95 21 81 22 82 23
REMARK SMILES IDX 83 24 84 25 85 26 86 27 7 28 8 29 9 31 10 32 11 33 75 34
REMARK SMILES IDX 12 35 74 36 13 37 14 38 15 39 68 40 16 41 73 42 67 43 69 44
REMARK SMILES IDX 17 45 72 46 66 47 65 48 18 50 52 51 31 52 51 53 32 54 35 55
REMARK SMILES IDX 50 56 70 57 33 58 34 59 49 61 71 62 36 63 19 64 20 65 29 66
REMARK SMILES IDX 21 67 22 68 28 69 30 70 23 71 24 72 25 73 26 74 27 75 53 76
REMARK SMILES IDX 54 77 63 78 55 79 56 80 62 81 64 82 57 83 58 84 59 85 60 86
REMARK SMILES IDX 61 87 37 88 38 89 47 90 39 91 40 92 46 93 48 94 41 95 42 96
REMARK SMILES IDX 43 97 44 98 45 99
REMARK H PARENT 3 7 7 30 69 49 35 60
REMARK Flexibility Score: inf
ROOT
ATOM      1  C   UNL     1       4.526  -0.853   3.520  1.00  0.00     0.118 C 
ENDROOT
BRANCH   1   2
ATOM      2  C   UNL     1       5.033  -0.033   2.344  1.00  0.00     0.042 C 
BRANCH   2   3
ATOM      3  C   UNL     1       4.526  -0.642   1.046  1.00  0.00     0.118 C 
BRANCH   3   4
ATOM      4  N   UNL     1       3.056  -0.642   1.046  1.00  0.00    -0.352 N 
ATOM      5  O   UNL     1       1.050   0.086   0.002  1.00  0.00    -0.270 OA
ATOM      6  C   UNL     1       2.321   0.086   0.002  1.00  0.00     0.251 C 
ATOM      7  H   UNL     1       2.564  -1.129   1.746  1.00  0.00     0.163 HD
BRANCH   6   8
ATOM      8  C   UNL     1       3.081   0.839  -1.078  1.00  0.00     0.067 C 
ATOM      9  C   UNL     1       4.441   0.839  -1.078  1.00  0.00     0.025 C 
ATOM     10  C   UNL     1       2.321   1.592  -2.158  1.00  0.00     0.314 C 
ATOM     11  C   UNL     1       5.201   0.086   0.002  1.00  0.00     0.019 A 
ATOM     12  O   UNL     1       3.587  -1.657  -0.047  1.00  0.00    -0.475 OA
ATOM     13  C   UNL     1       6.349   0.678   0.504  1.00  0.00     0.036 A 
ATOM     14  C   UNL     1       4.847  -1.143   0.358  1.00  0.00     0.128 A 
ATOM     15  C   UNL     1       7.219  -0.225   1.161  1.00  0.00     0.107 A 
ATOM     16  C   UNL     1       5.689  -1.921   1.116  1.00  0.00     0.048 A 
ATOM     17  C   UNL     1       6.867  -1.421   1.597  1.00  0.00     0.028 A 
BRANCH  10  18
ATOM     18  C   UNL     1       2.688   1.030  -3.521  1.00  0.00     0.429 C 
ATOM     19  F   UNL     1       2.367  -0.260  -3.570  1.00  0.00    -0.167 F 
ATOM     20  F   UNL     1       2.023   1.689  -4.466  1.00  0.00    -0.167 F 
ATOM     21  F   UNL     1       3.996   1.169  -3.720  1.00  0.00    -0.167 F 
ENDBRANCH  10  18
BRANCH  15  22
ATOM     22  S   UNL     1       8.932   0.295   1.421  1.00  0.00     0.310 S 
ATOM     23  F   UNL     1       8.758   0.292   2.998  1.00  0.00    -0.094 F 
ATOM     24  F   UNL     1       8.441   1.792   1.438  1.00  0.00    -0.094 F 
ATOM     25  F   UNL     1      10.403   0.746   1.647  1.00  0.00    -0.094 F 
ATOM     26  F   UNL     1       9.385  -1.213   1.541  1.00  0.00    -0.094 F 
ATOM     27  F   UNL     1       7.429  -0.180   1.306  1.00  0.00    -0.094 F 
ENDBRANCH  15  22
ENDBRANCH   6   8
ENDBRANCH   3   4
ENDBRANCH   2   3
ENDBRANCH   1   2
BRANCH   1  28
ATOM     28  N   UNL     1       5.016  -2.234   3.402  1.00  0.00    -0.352 N 
ATOM     29  C   UNL     1       5.861  -2.807   4.459  1.00  0.00     0.251 C 
ATOM     30  H   UNL     1       4.778  -2.775   2.614  1.00  0.00     0.163 HD
ATOM     31  O   UNL     1       6.285  -4.000   4.357  1.00  0.00    -0.269 OA
BRANCH  29  32
ATOM     32  C   UNL     1       6.228  -1.971   5.675  1.00  0.00     0.039 A 
ATOM     33  C   UNL     1       7.491  -2.095   6.231  1.00  0.00     0.014 A 
ATOM     34  C   UNL     1       5.279  -1.260   6.272  1.00  0.00     0.014 A 
ATOM     35  C   UNL     1       7.569  -1.664   7.577  1.00  0.00     0.010 A 
ATOM     36  C   UNL     1       5.474  -0.754   7.534  1.00  0.00     0.010 A 
ATOM     37  C   UNL     1       6.677  -0.890   8.168  1.00  0.00    -0.014 A 
BRANCH  37  38
ATOM     38  C   UNL     1       6.974  -0.188   9.483  1.00  0.00     0.031 A 
ATOM     39  C   UNL     1       6.144  -0.498  10.562  1.00  0.00     0.074 A 
ATOM     40  C   UNL     1       8.109   0.598   9.581  1.00  0.00     0.049 A 
ATOM     41  N   UNL     1       6.301  -0.142  11.838  1.00  0.00    -0.248 NA
ATOM     42  C   UNL     1       4.919  -1.304  10.454  1.00  0.00     0.031 C 
ATOM     43  C   UNL     1       8.956   0.909   8.499  1.00  0.00     0.029 A 
ATOM     44  N   UNL     1       8.620   1.209  10.705  1.00  0.00    -0.354 N 
ATOM     45  C   UNL     1       5.314  -0.645  12.582  1.00  0.00     0.074 A 
ATOM     46  C   UNL     1       4.407  -1.395  11.701  1.00  0.00     0.031 C 
ATOM     47  C   UNL     1       9.956   1.705   8.962  1.00  0.00     0.029 A 
ATOM     48  C   UNL     1       9.752   1.904  10.340  1.00  0.00     0.049 A 
ATOM     49  H   UNL     1       8.242   1.157  11.613  1.00  0.00     0.167 HD
ATOM     50  C   UNL     1       5.135  -0.510  13.960  1.00  0.00     0.037 A 
ATOM     51  C   UNL     1      10.571   2.676  11.149  1.00  0.00     0.037 A 
ATOM     52  C   UNL     1       5.979   0.226  14.775  1.00  0.00     0.049 A 
ATOM     53  C   UNL     1      10.359   2.860  12.517  1.00  0.00     0.074 A 
ATOM     54  C   UNL     1       5.817   0.366  16.167  1.00  0.00     0.029 A 
ATOM     55  N   UNL     1       7.096   0.942  14.406  1.00  0.00    -0.354 N 
ATOM     56  N   UNL     1       9.395   2.324  13.267  1.00  0.00    -0.248 NA
ATOM     57  C   UNL     1      11.202   3.701  13.377  1.00  0.00     0.031 C 
ATOM     58  C   UNL     1       6.818   1.163  16.630  1.00  0.00     0.029 A 
ATOM     59  C   UNL     1       7.620   1.534  15.534  1.00  0.00     0.049 A 
ATOM     60  H   UNL     1       7.458   1.017  13.494  1.00  0.00     0.167 HD
ATOM     61  C   UNL     1       9.529   2.715  14.536  1.00  0.00     0.074 A 
ATOM     62  C   UNL     1      10.689   3.612  14.624  1.00  0.00     0.031 C 
ATOM     63  C   UNL     1       8.732   2.356  15.625  1.00  0.00     0.037 A 
BRANCH  50  64
ATOM     64  C   UNL     1       3.948  -1.210  14.601  1.00  0.00     0.058 A 
ATOM     65  C   UNL     1       3.796  -2.583  14.495  1.00  0.00     0.135 A 
ATOM     66  C   UNL     1       3.049  -0.465  15.233  1.00  0.00     0.135 A 
ATOM     67  F   UNL     1       4.775  -3.393  14.101  1.00  0.00    -0.206 F 
ATOM     68  C   UNL     1       2.505  -3.045  14.843  1.00  0.00     0.059 A 
ATOM     69  C   UNL     1       1.866  -1.012  15.667  1.00  0.00     0.059 A 
ATOM     70  F   UNL     1       3.297   0.824  15.449  1.00  0.00    -0.206 F 
ATOM     71  C   UNL     1       1.624  -2.352  15.541  1.00  0.00     0.060 A 
BRANCH  71  72
ATOM     72  S   UNL     1       0.174  -3.134  16.291  1.00  0.00     0.124 S 
ATOM     73  O   UNL     1      -0.683  -3.776  15.197  1.00  0.00    -0.237 OA
ATOM     74  O   UNL     1       0.628  -4.209  17.280  1.00  0.00    -0.237 OA
ATOM     75  O   UNL     1      -0.748  -1.953  17.116  1.00  0.00    -0.744 OA
ENDBRANCH  71  72
ENDBRANCH  50  64
BRANCH  51  76
ATOM     76  C   UNL     1      11.768   3.362  10.510  1.00  0.00     0.058 A 
ATOM     77  C   UNL     1      13.056   3.063  10.921  1.00  0.00     0.135 A 
ATOM     78  C   UNL     1      11.541   4.230   9.530  1.00  0.00     0.135 A 
ATOM     79  F   UNL     1      13.345   2.031  11.708  1.00  0.00    -0.206 F 
ATOM     80  C   UNL     1      14.037   3.955  10.427  1.00  0.00     0.059 A 
ATOM     81  C   UNL     1      12.569   4.971   9.001  1.00  0.00     0.059 A 
ATOM     82  F   UNL     1      10.307   4.383   9.058  1.00  0.00    -0.206 F 
ATOM     83  C   UNL     1      13.861   4.770   9.402  1.00  0.00     0.060 A 
BRANCH  83  84
ATOM     84  S   UNL     1      15.254   5.576   8.574  1.00  0.00     0.124 S 
ATOM     85  O   UNL     1      16.010   6.447   9.580  1.00  0.00    -0.237 OA
ATOM     86  O   UNL     1      16.197   4.512   8.009  1.00  0.00    -0.237 OA
ATOM     87  O   UNL     1      14.670   6.555   7.299  1.00  0.00    -0.744 OA
ENDBRANCH  83  84
ENDBRANCH  51  76
BRANCH  63  88
ATOM     88  C   UNL     1       9.108   2.900  16.994  1.00  0.00     0.058 A 
ATOM     89  C   UNL     1       9.269   4.265  17.170  1.00  0.00     0.135 A 
ATOM     90  C   UNL     1       9.396   2.042  17.965  1.00  0.00     0.135 A 
ATOM     91  F   UNL     1       8.763   5.169  16.335  1.00  0.00    -0.206 F 
ATOM     92  C   UNL     1      10.020   4.610  18.319  1.00  0.00     0.059 A 
ATOM     93  C   UNL     1      10.007   2.470  19.118  1.00  0.00     0.059 A 
ATOM     94  F   UNL     1       9.090   0.756  17.819  1.00  0.00    -0.206 F 
ATOM     95  C   UNL     1      10.251   3.798  19.334  1.00  0.00     0.060 A 
BRANCH  95  96
ATOM     96  S   UNL     1      10.857   4.410  20.926  1.00  0.00     0.124 S 
ATOM     97  O   UNL     1      12.206   5.104  20.725  1.00  0.00    -0.237 OA
ATOM     98  O   UNL     1       9.851   5.408  21.505  1.00  0.00    -0.237 OA
ATOM     99  O   UNL     1      11.045   3.099  22.007  1.00  0.00    -0.744 OA
ENDBRANCH  95  96
ENDBRANCH  63  88
ENDBRANCH  37  38
ENDBRANCH  29  32
ENDBRANCH   1  28
TORSDOF 15
