REMARK SMILES Cc1c(Cl)ccc2c1C=C(C(=O)NCCCNC(=O)c1ccc(-c3c4nc(c(-c5c(F)cc(S(=O)(=O)[O-])cc5F)c5ccc([nH]5)c(-c5c(F)cc(S(=O)(=O)[O-])cc5F)c5nc(c(-c6c(F)cc(S(=O)(=O)[O-])cc6F)c6ccc3[nH]6)C=C5)C=C4)cc1)[C@@H](C(F)(F)F)O2
REMARK SMILES IDX 16 1 15 2 14 3 13 4 11 5 12 6 10 8 1 9 2 10 3 11 8 12 4 13
REMARK SMILES IDX 5 14 7 15 9 16 6 17 91 18 86 19 87 20 88 21 89 22 90 23
REMARK SMILES IDX 17 24 18 25 19 27 20 28 21 29 85 30 22 31 84 32 23 33 24 34
REMARK SMILES IDX 25 35 78 36 26 37 83 38 77 39 79 40 27 41 82 42 76 43 75 44
REMARK SMILES IDX 28 46 62 47 41 48 61 49 42 50 45 51 60 52 80 53 43 54 44 55
REMARK SMILES IDX 59 57 81 58 46 59 29 60 30 61 39 62 31 63 32 64 38 65 40 66
REMARK SMILES IDX 33 67 34 68 35 69 36 70 37 71 63 72 64 73 73 74 65 75 66 76
REMARK SMILES IDX 72 77 74 78 67 79 68 80 69 81 70 82 71 83 47 84 48 85 57 86
REMARK SMILES IDX 49 87 50 88 56 89 58 90 51 91 52 92 53 93 54 94 55 95
REMARK H PARENT 13 7 17 26 79 45 45 56
REMARK Flexibility Score: inf
ROOT
ATOM      1  C   UNL     1       0.858   9.171  -0.456  1.00  0.00     0.118 C 
ENDROOT
BRANCH   1   2
ATOM      2  C   UNL     1       0.556   8.059  -1.456  1.00  0.00     0.042 C 
BRANCH   2   3
ATOM      3  C   UNL     1       1.722   7.093  -1.613  1.00  0.00     0.118 C 
BRANCH   3   4
ATOM      4  N   UNL     1       1.825   6.179  -0.485  1.00  0.00    -0.352 N 
ATOM      5  C   UNL     1       1.615   4.866  -0.244  1.00  0.00     0.251 C 
ATOM      6  O   UNL     1       1.843   4.506   0.916  1.00  0.00    -0.270 OA
ATOM      7  H   UNL     1       2.132   6.646   0.326  1.00  0.00     0.163 HD
BRANCH   5   8
ATOM      8  C   UNL     1       1.155   3.864  -1.250  1.00  0.00     0.067 C 
ATOM      9  C   UNL     1       0.911  -0.237   0.057  1.00  0.00     0.047 C 
ATOM     10  C   UNL     1       0.464   0.191  -1.319  1.00  0.00    -0.021 A 
ATOM     11  C   UNL     1       0.031  -0.749  -2.278  1.00  0.00     0.044 A 
ATOM     12  C   UNL     1       0.507   1.558  -1.690  1.00  0.00     0.022 A 
ATOM     13  Cl  UNL     1      -0.021  -2.449  -1.959  1.00  0.00    -0.084 Cl
ATOM     14  C   UNL     1      -0.379  -0.343  -3.552  1.00  0.00     0.024 A 
ATOM     15  C   UNL     1       0.105   1.939  -2.979  1.00  0.00     0.128 A 
ATOM     16  C   UNL     1       0.926   2.625  -0.776  1.00  0.00     0.026 C 
ATOM     17  C   UNL     1      -0.350   1.002  -3.900  1.00  0.00     0.048 A 
ATOM     18  O   UNL     1       0.095   3.236  -3.406  1.00  0.00    -0.475 OA
ATOM     19  C   UNL     1       0.981   4.151  -2.710  1.00  0.00     0.314 C 
BRANCH  19  20
ATOM     20  C   UNL     1       2.325   4.233  -3.460  1.00  0.00     0.429 C 
ATOM     21  F   UNL     1       2.164   4.836  -4.663  1.00  0.00    -0.167 F 
ATOM     22  F   UNL     1       3.253   4.957  -2.789  1.00  0.00    -0.167 F 
ATOM     23  F   UNL     1       2.871   3.017  -3.686  1.00  0.00    -0.167 F 
ENDBRANCH  19  20
ENDBRANCH   5   8
ENDBRANCH   3   4
ENDBRANCH   2   3
ENDBRANCH   1   2
BRANCH   1  24
ATOM     24  N   UNL     1       1.914  10.054  -0.942  1.00  0.00    -0.352 N 
ATOM     25  C   UNL     1       1.812  11.292  -1.525  1.00  0.00     0.251 C 
ATOM     26  H   UNL     1       2.831   9.712  -0.837  1.00  0.00     0.163 HD
ATOM     27  O   UNL     1       2.766  11.758  -2.147  1.00  0.00    -0.269 OA
BRANCH  25  28
ATOM     28  C   UNL     1       0.558  12.057  -1.399  1.00  0.00     0.039 A 
ATOM     29  C   UNL     1       0.027  12.704  -2.518  1.00  0.00     0.014 A 
ATOM     30  C   UNL     1      -0.078  12.151  -0.158  1.00  0.00     0.014 A 
ATOM     31  C   UNL     1      -1.177  13.400  -2.401  1.00  0.00     0.010 A 
ATOM     32  C   UNL     1      -1.310  12.782  -0.059  1.00  0.00     0.010 A 
ATOM     33  C   UNL     1      -1.864  13.423  -1.176  1.00  0.00    -0.014 A 
BRANCH  33  34
ATOM     34  C   UNL     1      -3.135  14.166  -1.014  1.00  0.00     0.031 A 
ATOM     35  C   UNL     1      -3.163  15.386  -0.134  1.00  0.00     0.074 A 
ATOM     36  C   UNL     1      -4.257  13.720  -1.610  1.00  0.00     0.049 A 
ATOM     37  N   UNL     1      -4.181  16.125   0.220  1.00  0.00    -0.248 NA
ATOM     38  C   UNL     1      -1.877  15.820   0.441  1.00  0.00     0.031 C 
ATOM     39  C   UNL     1      -4.348  12.539  -2.471  1.00  0.00     0.029 A 
ATOM     40  N   UNL     1      -5.539  14.207  -1.579  1.00  0.00    -0.354 N 
ATOM     41  C   UNL     1      -3.659  17.112   1.047  1.00  0.00     0.074 A 
ATOM     42  C   UNL     1      -2.248  16.839   1.201  1.00  0.00     0.031 C 
ATOM     43  C   UNL     1      -5.613  12.410  -2.909  1.00  0.00     0.029 A 
ATOM     44  C   UNL     1      -6.427  13.475  -2.332  1.00  0.00     0.049 A 
ATOM     45  H   UNL     1      -5.799  15.005  -1.065  1.00  0.00     0.167 HD
ATOM     46  C   UNL     1      -4.293  18.172   1.598  1.00  0.00     0.037 A 
ATOM     47  C   UNL     1      -7.748  13.650  -2.530  1.00  0.00     0.037 A 
ATOM     48  C   UNL     1      -5.694  18.448   1.425  1.00  0.00     0.049 A 
ATOM     49  C   UNL     1      -8.439  14.807  -1.856  1.00  0.00     0.074 A 
ATOM     50  C   UNL     1      -6.434  19.498   1.937  1.00  0.00     0.029 A 
ATOM     51  N   UNL     1      -6.562  17.676   0.667  1.00  0.00    -0.354 N 
ATOM     52  N   UNL     1      -7.928  15.738  -1.086  1.00  0.00    -0.248 NA
ATOM     53  C   UNL     1      -9.886  14.936  -2.076  1.00  0.00     0.031 C 
ATOM     54  C   UNL     1      -7.756  19.348   1.510  1.00  0.00     0.029 A 
ATOM     55  C   UNL     1      -7.831  18.225   0.702  1.00  0.00     0.049 A 
ATOM     56  H   UNL     1      -6.312  16.860   0.177  1.00  0.00     0.167 HD
ATOM     57  C   UNL     1      -8.983  16.582  -0.759  1.00  0.00     0.074 A 
ATOM     58  C   UNL     1     -10.160  16.055  -1.419  1.00  0.00     0.031 C 
ATOM     59  C   UNL     1      -8.982  17.693   0.017  1.00  0.00     0.037 A 
BRANCH  46  60
ATOM     60  C   UNL     1      -3.471  19.135   2.405  1.00  0.00     0.058 A 
ATOM     61  C   UNL     1      -2.572  20.015   1.781  1.00  0.00     0.135 A 
ATOM     62  C   UNL     1      -3.623  19.228   3.796  1.00  0.00     0.135 A 
ATOM     63  F   UNL     1      -2.373  19.951   0.455  1.00  0.00    -0.206 F 
ATOM     64  C   UNL     1      -1.847  20.950   2.510  1.00  0.00     0.059 A 
ATOM     65  C   UNL     1      -2.925  20.173   4.544  1.00  0.00     0.059 A 
ATOM     66  F   UNL     1      -4.463  18.404   4.442  1.00  0.00    -0.206 F 
ATOM     67  C   UNL     1      -2.036  21.027   3.890  1.00  0.00     0.060 A 
BRANCH  67  68
ATOM     68  S   UNL     1      -1.117  22.278   4.811  1.00  0.00     0.124 S 
ATOM     69  O   UNL     1       0.244  21.753   4.738  1.00  0.00    -0.237 OA
ATOM     70  O   UNL     1      -1.373  23.485   4.034  1.00  0.00    -0.237 OA
ATOM     71  O   UNL     1      -1.730  22.245   6.136  1.00  0.00    -0.744 OA
ENDBRANCH  67  68
ENDBRANCH  46  60
BRANCH  47  72
ATOM     72  C   UNL     1      -8.506  12.738  -3.427  1.00  0.00     0.058 A 
ATOM     73  C   UNL     1      -8.999  13.197  -4.658  1.00  0.00     0.135 A 
ATOM     74  C   UNL     1      -8.777  11.409  -3.069  1.00  0.00     0.135 A 
ATOM     75  F   UNL     1      -8.770  14.462  -5.042  1.00  0.00    -0.206 F 
ATOM     76  C   UNL     1      -9.760  12.382  -5.489  1.00  0.00     0.059 A 
ATOM     77  C   UNL     1      -9.515  10.566  -3.895  1.00  0.00     0.059 A 
ATOM     78  F   UNL     1      -8.313  10.916  -1.910  1.00  0.00    -0.206 F 
ATOM     79  C   UNL     1     -10.016  11.068  -5.096  1.00  0.00     0.060 A 
BRANCH  79  80
ATOM     80  S   UNL     1     -10.997  10.016  -6.189  1.00  0.00     0.124 S 
ATOM     81  O   UNL     1     -12.331  10.578  -6.017  1.00  0.00    -0.237 OA
ATOM     82  O   UNL     1     -10.366  10.248  -7.484  1.00  0.00    -0.237 OA
ATOM     83  O   UNL     1     -10.798   8.680  -5.634  1.00  0.00    -0.744 OA
ENDBRANCH  79  80
ENDBRANCH  47  72
BRANCH  59  84
ATOM     84  C   UNL     1     -10.277  18.437   0.168  1.00  0.00     0.058 A 
ATOM     85  C   UNL     1     -11.307  17.955   0.987  1.00  0.00     0.135 A 
ATOM     86  C   UNL     1     -10.453  19.686  -0.450  1.00  0.00     0.135 A 
ATOM     87  F   UNL     1     -11.188  16.764   1.594  1.00  0.00    -0.206 F 
ATOM     88  C   UNL     1     -12.476  18.682   1.182  1.00  0.00     0.059 A 
ATOM     89  C   UNL     1     -11.603  20.442  -0.249  1.00  0.00     0.059 A 
ATOM     90  F   UNL     1      -9.490  20.194  -1.235  1.00  0.00    -0.206 F 
ATOM     91  C   UNL     1     -12.612  19.928   0.565  1.00  0.00     0.060 A 
BRANCH  91  92
ATOM     92  S   UNL     1     -14.111  20.884   0.874  1.00  0.00     0.124 S 
ATOM     93  O   UNL     1     -15.100  20.138   0.103  1.00  0.00    -0.237 OA
ATOM     94  O   UNL     1     -14.242  20.797   2.325  1.00  0.00    -0.237 OA
ATOM     95  O   UNL     1     -13.782  22.209   0.358  1.00  0.00    -0.744 OA
ENDBRANCH  91  92
ENDBRANCH  59  84
ENDBRANCH  33  34
ENDBRANCH  25  28
ENDBRANCH   1  24
TORSDOF 14
