REMARK SMILES CC[C@@H](C)[C@@H](C(=O)NCCCNC(=O)c1ccc(-c2c3nc(c(-c4c(F)cc(S(=O)(=O)[O-])cc4F)c4ccc([nH]4)c(-c4c(F)cc(S(=O)(=O)[O-])cc4F)c4nc(c(-c5c(F)cc(S(=O)(=O)[O-])cc5F)c5ccc2[nH]5)C=C4)C=C3)cc1)N1C(=O)/C(=C\c2ccn(C)c2)SC1=S
REMARK SMILES IDX 10 1 9 2 8 3 6 4 7 5 5 7 3 8 4 9 2 10 1 11 81 12 82 13 93 14
REMARK SMILES IDX 83 15 84 16 92 17 94 18 85 19 86 20 87 21 91 22 88 23 89 24
REMARK SMILES IDX 90 25 11 26 12 27 13 28 14 30 15 31 16 32 80 33 17 34 79 35
REMARK SMILES IDX 18 36 19 37 20 38 73 39 21 40 78 41 72 42 74 43 22 44 77 45
REMARK SMILES IDX 71 46 70 47 23 49 57 50 36 51 56 52 37 53 40 54 55 55 75 56
REMARK SMILES IDX 38 57 39 58 54 60 76 61 41 62 24 63 25 64 34 65 26 66 27 67
REMARK SMILES IDX 33 68 35 69 28 70 29 71 30 72 31 73 32 74 58 75 59 76 68 77
REMARK SMILES IDX 60 78 61 79 67 80 69 81 62 82 63 83 64 84 65 85 66 86 42 87
REMARK SMILES IDX 43 88 52 89 44 90 45 91 51 92 53 93 46 94 47 95 48 96 49 97
REMARK SMILES IDX 50 98
REMARK H PARENT 8 6 12 29 74 48 40 59
REMARK Flexibility Score: inf
ROOT
ATOM      1  C   UNL     1      -0.371   3.086  -1.169  1.00  0.00     0.042 C 
ENDROOT
BRANCH   1   2
ATOM      2  C   UNL     1      -0.565   2.561  -2.597  1.00  0.00     0.117 C 
BRANCH   2   3
ATOM      3  N   UNL     1       0.698   2.236  -3.245  1.00  0.00    -0.354 N 
ATOM      4  C   UNL     1       1.274   1.047  -3.587  1.00  0.00     0.243 C 
ATOM      5  O   UNL     1       2.457   1.077  -3.948  1.00  0.00    -0.273 OA
ATOM      6  H   UNL     1       1.240   3.024  -3.480  1.00  0.00     0.163 HD
BRANCH   4   7
ATOM      7  C   UNL     1       0.506  -0.305  -3.476  1.00  0.00     0.184 C 
BRANCH   7   8
ATOM      8  C   UNL     1       1.214  -1.031  -2.245  1.00  0.00     0.018 C 
ATOM      9  C   UNL     1       0.855  -2.497  -2.009  1.00  0.00     0.010 C 
BRANCH   8  10
ATOM     10  C   UNL     1       0.978  -0.212  -0.951  1.00  0.00     0.002 C 
ATOM     11  C   UNL     1       1.466  -0.830   0.351  1.00  0.00     0.004 C 
ENDBRANCH   8  10
ENDBRANCH   7   8
BRANCH   7  12
ATOM     12  N   UNL     1       0.617  -1.071  -4.763  1.00  0.00    -0.280 N 
ATOM     13  C   UNL     1       0.995  -0.442  -5.943  1.00  0.00     0.266 C 
ATOM     14  C   UNL     1      -0.049  -2.233  -5.069  1.00  0.00     0.149 C 
ATOM     15  O   UNL     1       0.835   0.742  -6.200  1.00  0.00    -0.268 OA
ATOM     16  C   UNL     1       1.362  -1.465  -6.968  1.00  0.00     0.081 C 
ATOM     17  S   UNL     1       0.712  -2.982  -6.474  1.00  0.00    -0.054 SA
ATOM     18  S   UNL     1      -1.457  -2.849  -4.411  1.00  0.00    -0.052 S 
ATOM     19  C   UNL     1       2.005  -1.276  -8.127  1.00  0.00     0.031 C 
BRANCH  19  20
ATOM     20  C   UNL     1       2.488  -0.036  -8.622  1.00  0.00    -0.007 A 
ATOM     21  C   UNL     1       3.514   0.786  -8.098  1.00  0.00     0.027 A 
ATOM     22  C   UNL     1       1.975   0.591  -9.737  1.00  0.00     0.093 A 
ATOM     23  C   UNL     1       3.573   1.913  -8.891  1.00  0.00     0.086 A 
ATOM     24  N   UNL     1       2.606   1.800  -9.855  1.00  0.00    -0.357 N 
ATOM     25  C   UNL     1       2.267   2.830 -10.808  1.00  0.00     0.149 C 
ENDBRANCH  19  20
ENDBRANCH   7  12
ENDBRANCH   4   7
ENDBRANCH   2   3
ENDBRANCH   1   2
BRANCH   1  26
ATOM     26  C   UNL     1       0.405   4.401  -1.068  1.00  0.00     0.118 C 
BRANCH  26  27
ATOM     27  N   UNL     1      -0.485   5.546  -0.977  1.00  0.00    -0.352 N 
ATOM     28  C   UNL     1      -0.683   6.434   0.053  1.00  0.00     0.251 C 
ATOM     29  H   UNL     1      -1.031   5.712  -1.779  1.00  0.00     0.163 HD
ATOM     30  O   UNL     1      -1.660   7.180   0.006  1.00  0.00    -0.269 OA
BRANCH  28  31
ATOM     31  C   UNL     1       0.240   6.511   1.216  1.00  0.00     0.039 A 
ATOM     32  C   UNL     1      -0.303   6.760   2.483  1.00  0.00     0.014 A 
ATOM     33  C   UNL     1       1.629   6.441   1.072  1.00  0.00     0.014 A 
ATOM     34  C   UNL     1       0.533   6.906   3.597  1.00  0.00     0.010 A 
ATOM     35  C   UNL     1       2.461   6.531   2.195  1.00  0.00     0.010 A 
ATOM     36  C   UNL     1       1.925   6.781   3.468  1.00  0.00    -0.014 A 
BRANCH  36  37
ATOM     37  C   UNL     1       2.824   6.938   4.646  1.00  0.00     0.031 A 
ATOM     38  C   UNL     1       3.786   8.097   4.723  1.00  0.00     0.074 A 
ATOM     39  C   UNL     1       2.817   6.015   5.630  1.00  0.00     0.049 A 
ATOM     40  N   UNL     1       4.687   8.364   5.636  1.00  0.00    -0.248 NA
ATOM     41  C   UNL     1       3.747   9.070   3.620  1.00  0.00     0.031 C 
ATOM     42  C   UNL     1       1.975   4.818   5.661  1.00  0.00     0.029 A 
ATOM     43  N   UNL     1       3.554   5.932   6.786  1.00  0.00    -0.354 N 
ATOM     44  C   UNL     1       5.343   9.511   5.202  1.00  0.00     0.074 A 
ATOM     45  C   UNL     1       4.751   9.879   3.934  1.00  0.00     0.031 C 
ATOM     46  C   UNL     1       2.242   4.122   6.779  1.00  0.00     0.029 A 
ATOM     47  C   UNL     1       3.287   4.808   7.533  1.00  0.00     0.049 A 
ATOM     48  H   UNL     1       4.212   6.613   7.055  1.00  0.00     0.167 HD
ATOM     49  C   UNL     1       6.336  10.204   5.810  1.00  0.00     0.037 A 
ATOM     50  C   UNL     1       3.828   4.372   8.688  1.00  0.00     0.037 A 
ATOM     51  C   UNL     1       6.886   9.880   7.101  1.00  0.00     0.049 A 
ATOM     52  C   UNL     1       4.888   5.192   9.372  1.00  0.00     0.074 A 
ATOM     53  C   UNL     1       7.826  10.583   7.835  1.00  0.00     0.029 A 
ATOM     54  N   UNL     1       6.547   8.765   7.850  1.00  0.00    -0.354 N 
ATOM     55  N   UNL     1       5.439   6.315   8.981  1.00  0.00    -0.248 NA
ATOM     56  C   UNL     1       5.394   4.689  10.658  1.00  0.00     0.031 C 
ATOM     57  C   UNL     1       8.075   9.879   9.019  1.00  0.00     0.029 A 
ATOM     58  C   UNL     1       7.268   8.753   9.033  1.00  0.00     0.049 A 
ATOM     59  H   UNL     1       5.890   8.082   7.582  1.00  0.00     0.167 HD
ATOM     60  C   UNL     1       6.340   6.664   9.982  1.00  0.00     0.074 A 
ATOM     61  C   UNL     1       6.253   5.640  11.001  1.00  0.00     0.031 C 
ATOM     62  C   UNL     1       7.166   7.736  10.047  1.00  0.00     0.037 A 
BRANCH  49  63
ATOM     63  C   UNL     1       6.896  11.400   5.093  1.00  0.00     0.058 A 
ATOM     64  C   UNL     1       6.194  12.612   5.023  1.00  0.00     0.135 A 
ATOM     65  C   UNL     1       8.180  11.350   4.526  1.00  0.00     0.135 A 
ATOM     66  F   UNL     1       4.958  12.708   5.539  1.00  0.00    -0.206 F 
ATOM     67  C   UNL     1       6.737  13.730   4.399  1.00  0.00     0.059 A 
ATOM     68  C   UNL     1       8.751  12.463   3.915  1.00  0.00     0.059 A 
ATOM     69  F   UNL     1       8.894  10.214   4.568  1.00  0.00    -0.206 F 
ATOM     70  C   UNL     1       8.017  13.646   3.847  1.00  0.00     0.060 A 
BRANCH  70  71
ATOM     71  S   UNL     1       8.719  15.110   3.058  1.00  0.00     0.124 S 
ATOM     72  O   UNL     1       8.016  15.116   1.779  1.00  0.00    -0.237 OA
ATOM     73  O   UNL     1       8.353  16.175   3.986  1.00  0.00    -0.237 OA
ATOM     74  O   UNL     1      10.145  14.807   2.990  1.00  0.00    -0.744 OA
ENDBRANCH  70  71
ENDBRANCH  49  63
BRANCH  50  75
ATOM     75  C   UNL     1       3.368   3.092   9.286  1.00  0.00     0.058 A 
ATOM     76  C   UNL     1       2.560   3.077  10.431  1.00  0.00     0.135 A 
ATOM     77  C   UNL     1       3.736   1.859   8.726  1.00  0.00     0.135 A 
ATOM     78  F   UNL     1       2.191   4.232  11.006  1.00  0.00    -0.206 F 
ATOM     79  C   UNL     1       2.147   1.885  11.015  1.00  0.00     0.059 A 
ATOM     80  C   UNL     1       3.318   0.653   9.279  1.00  0.00     0.059 A 
ATOM     81  F   UNL     1       4.495   1.822   7.620  1.00  0.00    -0.206 F 
ATOM     82  C   UNL     1       2.534   0.676  10.433  1.00  0.00     0.060 A 
BRANCH  82  83
ATOM     83  S   UNL     1       1.962  -0.871  11.168  1.00  0.00     0.124 S 
ATOM     84  O   UNL     1       2.893  -1.028  12.279  1.00  0.00    -0.237 OA
ATOM     85  O   UNL     1       0.583  -0.554  11.529  1.00  0.00    -0.237 OA
ATOM     86  O   UNL     1       2.109  -1.830  10.077  1.00  0.00    -0.744 OA
ENDBRANCH  82  83
ENDBRANCH  50  75
BRANCH  62  87
ATOM     87  C   UNL     1       8.021   7.878  11.273  1.00  0.00     0.058 A 
ATOM     88  C   UNL     1       9.171   7.095  11.460  1.00  0.00     0.135 A 
ATOM     89  C   UNL     1       7.714   8.839  12.249  1.00  0.00     0.135 A 
ATOM     90  F   UNL     1       9.503   6.158  10.558  1.00  0.00    -0.206 F 
ATOM     91  C   UNL     1       9.978   7.247  12.582  1.00  0.00     0.059 A 
ATOM     92  C   UNL     1       8.517   9.022  13.370  1.00  0.00     0.059 A 
ATOM     93  F   UNL     1       6.630   9.618  12.112  1.00  0.00    -0.206 F 
ATOM     94  C   UNL     1       9.642   8.213  13.534  1.00  0.00     0.060 A 
BRANCH  94  95
ATOM     95  S   UNL     1      10.712   8.429  14.972  1.00  0.00     0.124 S 
ATOM     96  O   UNL     1      10.289   7.320  15.821  1.00  0.00    -0.237 OA
ATOM     97  O   UNL     1      12.048   8.311  14.395  1.00  0.00    -0.237 OA
ATOM     98  O   UNL     1      10.362   9.761  15.456  1.00  0.00    -0.744 OA
ENDBRANCH  94  95
ENDBRANCH  62  87
ENDBRANCH  36  37
ENDBRANCH  28  31
ENDBRANCH  26  27
ENDBRANCH   1  26
TORSDOF 17
