REMARK SMILES Cc1ccccc1OCC(=O)NCCC(=O)NCCCNC(=O)c1ccc(-c2c3nc(c(-c4c(F)cc(S(=O)(=O)[O-])cc4F)c4ccc([nH]4)c(-c4c(F)cc(S(=O)(=O)[O-])cc4F)c4nc(c(-c5c(F)cc(S(=O)(=O)[O-])cc5F)c5ccc2[nH]5)C=C4)C=C3)cc1
REMARK SMILES IDX 18 1 17 2 15 3 16 4 14 6 13 7 12 8 10 9 11 10 9 12 8 13 7 14
REMARK SMILES IDX 1 15 2 16 3 17 4 18 6 19 5 20 19 21 20 22 21 23 22 24 23 26
REMARK SMILES IDX 24 27 25 28 89 29 26 30 88 31 27 32 28 33 29 34 82 35 30 36
REMARK SMILES IDX 87 37 81 38 83 39 31 40 86 41 80 42 79 43 32 45 66 46 45 47
REMARK SMILES IDX 65 48 46 49 49 50 64 51 84 52 47 53 48 54 63 56 85 57 50 58
REMARK SMILES IDX 33 59 34 60 43 61 35 62 36 63 42 64 44 65 37 66 38 67 39 68
REMARK SMILES IDX 40 69 41 70 67 71 68 72 77 73 69 74 70 75 76 76 78 77 71 78
REMARK SMILES IDX 72 79 73 80 74 81 75 82 51 83 52 84 61 85 53 86 54 87 60 88
REMARK SMILES IDX 62 89 55 90 56 91 57 92 58 93 59 94
REMARK H PARENT 17 5 12 11 21 25 83 44 49 55
REMARK Flexibility Score: inf
ROOT
ATOM      1  C   UNL     1       1.503   0.203   3.935  1.00  0.00     0.117 C 
ENDROOT
BRANCH   1   2
ATOM      2  N   UNL     1       1.292   1.325   4.836  1.00  0.00    -0.356 N 
ATOM      3  C   UNL     1       0.839   2.584   4.571  1.00  0.00     0.221 C 
ATOM      4  O   UNL     1       0.778   3.404   5.489  1.00  0.00    -0.275 OA
ATOM      5  H   UNL     1       1.508   1.150   5.780  1.00  0.00     0.163 HD
BRANCH   3   6
ATOM      6  C   UNL     1       0.420   2.975   3.171  1.00  0.00     0.121 C 
BRANCH   6   7
ATOM      7  C   UNL     1       1.405   3.953   2.541  1.00  0.00     0.126 C 
BRANCH   7   8
ATOM      8  N   UNL     1       2.657   3.328   2.149  1.00  0.00    -0.353 N 
ATOM      9  C   UNL     1       3.011   2.769   0.954  1.00  0.00     0.257 C 
ATOM     10  O   UNL     1       4.129   2.260   0.847  1.00  0.00    -0.271 OA
ATOM     11  H   UNL     1       3.351   3.304   2.846  1.00  0.00     0.163 HD
BRANCH   9  12
ATOM     12  C   UNL     1       2.075   2.881  -0.251  1.00  0.00     0.329 C 
BRANCH  12  13
ATOM     13  O   UNL     1       0.735   2.485  -0.109  1.00  0.00    -0.484 OA
BRANCH  13  14
ATOM     14  C   UNL     1       0.295   1.198  -0.149  1.00  0.00     0.122 A 
ATOM     15  C   UNL     1       2.442  -0.243  -0.502  1.00  0.00     0.048 C 
ATOM     16  C   UNL     1       0.970  -0.022  -0.293  1.00  0.00    -0.009 A 
ATOM     17  C   UNL     1       0.212  -1.216  -0.188  1.00  0.00     0.007 A 
ATOM     18  C   UNL     1      -1.172  -1.211  -0.012  1.00  0.00     0.001 A 
ATOM     19  C   UNL     1      -1.107   1.180   0.013  1.00  0.00     0.047 A 
ATOM     20  C   UNL     1      -1.839  -0.003   0.074  1.00  0.00     0.004 A 
ENDBRANCH  13  14
ENDBRANCH  12  13
ENDBRANCH   9  12
ENDBRANCH   7   8
ENDBRANCH   6   7
ENDBRANCH   3   6
ENDBRANCH   1   2
BRANCH   1  21
ATOM     21  C   UNL     1       2.949   0.100   3.470  1.00  0.00     0.042 C 
BRANCH  21  22
ATOM     22  C   UNL     1       3.827  -0.771   4.361  1.00  0.00     0.118 C 
BRANCH  22  23
ATOM     23  N   UNL     1       4.656  -1.669   3.553  1.00  0.00    -0.352 N 
ATOM     24  C   UNL     1       5.849  -2.280   3.879  1.00  0.00     0.251 C 
ATOM     25  H   UNL     1       4.314  -1.864   2.650  1.00  0.00     0.163 HD
ATOM     26  O   UNL     1       6.453  -3.002   3.104  1.00  0.00    -0.269 OA
BRANCH  24  27
ATOM     27  C   UNL     1       6.338  -2.062   5.248  1.00  0.00     0.039 A 
ATOM     28  C   UNL     1       6.129  -3.085   6.177  1.00  0.00     0.014 A 
ATOM     29  C   UNL     1       6.677  -0.768   5.636  1.00  0.00     0.014 A 
ATOM     30  C   UNL     1       6.080  -2.766   7.528  1.00  0.00     0.010 A 
ATOM     31  C   UNL     1       6.563  -0.444   6.974  1.00  0.00     0.010 A 
ATOM     32  C   UNL     1       6.205  -1.432   7.908  1.00  0.00    -0.014 A 
BRANCH  32  33
ATOM     33  C   UNL     1       5.880  -0.954   9.245  1.00  0.00     0.031 A 
ATOM     34  C   UNL     1       6.963  -0.540  10.164  1.00  0.00     0.074 A 
ATOM     35  C   UNL     1       4.588  -0.804   9.614  1.00  0.00     0.049 A 
ATOM     36  N   UNL     1       6.797  -0.318  11.425  1.00  0.00    -0.248 NA
ATOM     37  C   UNL     1       8.360  -0.425   9.744  1.00  0.00     0.031 C 
ATOM     38  C   UNL     1       4.074   0.013  10.710  1.00  0.00     0.029 A 
ATOM     39  N   UNL     1       3.488  -1.564   9.201  1.00  0.00    -0.354 N 
ATOM     40  C   UNL     1       7.941   0.288  11.881  1.00  0.00     0.074 A 
ATOM     41  C   UNL     1       8.925   0.048  10.859  1.00  0.00     0.031 C 
ATOM     42  C   UNL     1       2.857  -0.433  11.054  1.00  0.00     0.029 A 
ATOM     43  C   UNL     1       2.617  -1.654  10.307  1.00  0.00     0.049 A 
ATOM     44  H   UNL     1       3.348  -1.959   8.311  1.00  0.00     0.167 HD
ATOM     45  C   UNL     1       7.867   1.080  12.985  1.00  0.00     0.037 A 
ATOM     46  C   UNL     1       2.312  -2.857  10.880  1.00  0.00     0.037 A 
ATOM     47  C   UNL     1       6.654   0.798  13.754  1.00  0.00     0.049 A 
ATOM     48  C   UNL     1       2.721  -2.984  12.329  1.00  0.00     0.074 A 
ATOM     49  C   UNL     1       5.484   1.494  13.992  1.00  0.00     0.029 A 
ATOM     50  N   UNL     1       6.443  -0.498  14.224  1.00  0.00    -0.354 N 
ATOM     51  N   UNL     1       3.523  -2.155  12.940  1.00  0.00    -0.248 NA
ATOM     52  C   UNL     1       2.281  -4.072  13.200  1.00  0.00     0.031 C 
ATOM     53  C   UNL     1       4.522   0.566  14.486  1.00  0.00     0.029 A 
ATOM     54  C   UNL     1       5.127  -0.675  14.602  1.00  0.00     0.049 A 
ATOM     55  H   UNL     1       7.138  -1.193  14.279  1.00  0.00     0.167 HD
ATOM     56  C   UNL     1       3.766  -2.603  14.212  1.00  0.00     0.074 A 
ATOM     57  C   UNL     1       2.930  -3.782  14.342  1.00  0.00     0.031 C 
ATOM     58  C   UNL     1       4.655  -1.983  15.044  1.00  0.00     0.037 A 
BRANCH  45  59
ATOM     59  C   UNL     1       8.783   2.265  13.239  1.00  0.00     0.058 A 
ATOM     60  C   UNL     1       8.700   2.989  14.448  1.00  0.00     0.135 A 
ATOM     61  C   UNL     1       9.650   2.836  12.275  1.00  0.00     0.135 A 
ATOM     62  F   UNL     1       7.896   2.580  15.441  1.00  0.00    -0.206 F 
ATOM     63  C   UNL     1       9.404   4.181  14.673  1.00  0.00     0.059 A 
ATOM     64  C   UNL     1      10.402   3.989  12.499  1.00  0.00     0.059 A 
ATOM     65  F   UNL     1       9.759   2.356  11.031  1.00  0.00    -0.206 F 
ATOM     66  C   UNL     1      10.252   4.676  13.689  1.00  0.00     0.060 A 
BRANCH  66  67
ATOM     67  S   UNL     1      11.134   6.227  13.945  1.00  0.00     0.124 S 
ATOM     68  O   UNL     1      10.072   7.209  13.756  1.00  0.00    -0.237 OA
ATOM     69  O   UNL     1      11.637   6.085  15.307  1.00  0.00    -0.237 OA
ATOM     70  O   UNL     1      12.158   6.209  12.903  1.00  0.00    -0.744 OA
ENDBRANCH  66  67
ENDBRANCH  45  59
BRANCH  46  71
ATOM     71  C   UNL     1       2.243  -3.972   9.898  1.00  0.00     0.058 A 
ATOM     72  C   UNL     1       1.182  -3.954   8.973  1.00  0.00     0.135 A 
ATOM     73  C   UNL     1       3.378  -4.728   9.574  1.00  0.00     0.135 A 
ATOM     74  F   UNL     1       0.065  -3.260   9.246  1.00  0.00    -0.206 F 
ATOM     75  C   UNL     1       1.310  -4.512   7.708  1.00  0.00     0.059 A 
ATOM     76  C   UNL     1       3.525  -5.303   8.310  1.00  0.00     0.059 A 
ATOM     77  F   UNL     1       4.417  -4.785  10.420  1.00  0.00    -0.206 F 
ATOM     78  C   UNL     1       2.515  -5.122   7.363  1.00  0.00     0.060 A 
BRANCH  78  79
ATOM     79  S   UNL     1       2.803  -5.470   5.612  1.00  0.00     0.124 S 
ATOM     80  O   UNL     1       1.753  -6.439   5.317  1.00  0.00    -0.237 OA
ATOM     81  O   UNL     1       2.625  -4.146   5.017  1.00  0.00    -0.237 OA
ATOM     82  O   UNL     1       4.166  -5.988   5.591  1.00  0.00    -0.744 OA
ENDBRANCH  78  79
ENDBRANCH  46  71
BRANCH  58  83
ATOM     83  C   UNL     1       5.110  -2.525  16.379  1.00  0.00     0.058 A 
ATOM     84  C   UNL     1       5.253  -3.894  16.666  1.00  0.00     0.135 A 
ATOM     85  C   UNL     1       5.542  -1.641  17.395  1.00  0.00     0.135 A 
ATOM     86  F   UNL     1       4.993  -4.829  15.740  1.00  0.00    -0.206 F 
ATOM     87  C   UNL     1       5.710  -4.358  17.902  1.00  0.00     0.059 A 
ATOM     88  C   UNL     1       6.049  -2.082  18.616  1.00  0.00     0.059 A 
ATOM     89  F   UNL     1       5.487  -0.311  17.229  1.00  0.00    -0.206 F 
ATOM     90  C   UNL     1       6.100  -3.444  18.875  1.00  0.00     0.060 A 
BRANCH  90  91
ATOM     91  S   UNL     1       6.725  -4.027  20.463  1.00  0.00     0.124 S 
ATOM     92  O   UNL     1       5.509  -4.034  21.270  1.00  0.00    -0.237 OA
ATOM     93  O   UNL     1       7.271  -5.342  20.138  1.00  0.00    -0.237 OA
ATOM     94  O   UNL     1       7.717  -3.017  20.819  1.00  0.00    -0.744 OA
ENDBRANCH  90  91
ENDBRANCH  58  83
ENDBRANCH  32  33
ENDBRANCH  24  27
ENDBRANCH  22  23
ENDBRANCH  21  22
ENDBRANCH   1  21
TORSDOF 18
