REMARK SMILES O=C(NCCCNC(=O)c1ccc2c(c1)CCN2C(=O)c1ccn[nH]1)c1ccc(-c2c3nc(c(-c4c(F)cc(S(=O)(=O)[O-])cc4F)c4ccc([nH]4)c(-c4c(F)cc(S(=O)(=O)[O-])cc4F)c4nc(c(-c5c(F)cc(S(=O)(=O)[O-])cc5F)c5ccc2[nH]5)C=C4)C=C3)cc1
REMARK SMILES IDX 4 1 3 2 1 3 2 4 26 6 27 7 91 8 28 9 90 10 29 11 30 12 31 13
REMARK SMILES IDX 84 14 32 15 89 16 83 17 85 18 33 19 88 20 82 21 81 22 34 24
REMARK SMILES IDX 68 25 47 26 67 27 48 28 51 29 66 30 86 31 49 32 50 33 65 35
REMARK SMILES IDX 87 36 52 37 35 38 36 39 45 40 37 41 38 42 44 43 46 44 39 45
REMARK SMILES IDX 40 46 41 47 42 48 43 49 69 50 70 51 79 52 71 53 72 54 78 55
REMARK SMILES IDX 80 56 73 57 74 58 75 59 76 60 77 61 53 62 54 63 63 64 55 65
REMARK SMILES IDX 56 66 62 67 64 68 57 69 58 70 59 71 60 72 61 73 5 74 6 75
REMARK SMILES IDX 7 76 8 77 9 79 10 80 11 81 15 82 12 83 14 84 13 85 16 86
REMARK SMILES IDX 18 87 17 88 19 89 20 90 21 91 22 92 25 93 23 94 24 95
REMARK H PARENT 3 5 85 23 51 34 7 78 25 96
REMARK Flexibility Score: inf
ROOT
ATOM      1  C   UNL     1       4.854  -1.029   0.850  1.00  0.00     0.118 C 
ENDROOT
BRANCH   1   2
ATOM      2  N   UNL     1       3.417  -1.070   0.623  1.00  0.00    -0.352 N 
ATOM      3  O   UNL     1       1.390  -0.381  -0.036  1.00  0.00    -0.269 OA
ATOM      4  C   UNL     1       2.609  -0.287  -0.163  1.00  0.00     0.251 C 
ATOM      5  H   UNL     1       2.945  -1.778   1.117  1.00  0.00     0.163 HD
BRANCH   4   6
ATOM      6  C   UNL     1       3.174   0.669  -1.143  1.00  0.00     0.039 A 
ATOM      7  C   UNL     1       4.253   0.329  -1.962  1.00  0.00     0.014 A 
ATOM      8  C   UNL     1       2.554   1.915  -1.297  1.00  0.00     0.014 A 
ATOM      9  C   UNL     1       4.784   1.268  -2.846  1.00  0.00     0.010 A 
ATOM     10  C   UNL     1       3.047   2.834  -2.227  1.00  0.00     0.010 A 
ATOM     11  C   UNL     1       4.183   2.528  -2.990  1.00  0.00    -0.014 A 
BRANCH  11  12
ATOM     12  C   UNL     1       4.723   3.500  -3.973  1.00  0.00     0.031 A 
ATOM     13  C   UNL     1       5.380   4.771  -3.518  1.00  0.00     0.074 A 
ATOM     14  C   UNL     1       4.618   3.233  -5.289  1.00  0.00     0.049 A 
ATOM     15  N   UNL     1       5.880   5.742  -4.238  1.00  0.00    -0.248 NA
ATOM     16  C   UNL     1       5.481   4.984  -2.066  1.00  0.00     0.031 C 
ATOM     17  C   UNL     1       3.982   2.045  -5.860  1.00  0.00     0.029 A 
ATOM     18  N   UNL     1       5.046   3.942  -6.382  1.00  0.00    -0.354 N 
ATOM     19  C   UNL     1       6.324   6.697  -3.333  1.00  0.00     0.074 A 
ATOM     20  C   UNL     1       6.035   6.188  -2.008  1.00  0.00     0.031 C 
ATOM     21  C   UNL     1       4.085   2.092  -7.197  1.00  0.00     0.029 A 
ATOM     22  C   UNL     1       4.761   3.329  -7.578  1.00  0.00     0.049 A 
ATOM     23  H   UNL     1       5.513   4.806  -6.316  1.00  0.00     0.167 HD
ATOM     24  C   UNL     1       6.917   7.889  -3.582  1.00  0.00     0.037 A 
ATOM     25  C   UNL     1       5.005   3.721  -8.843  1.00  0.00     0.037 A 
ATOM     26  C   UNL     1       7.239   8.384  -4.893  1.00  0.00     0.049 A 
ATOM     27  C   UNL     1       5.698   5.025  -9.096  1.00  0.00     0.074 A 
ATOM     28  C   UNL     1       7.881   9.561  -5.238  1.00  0.00     0.029 A 
ATOM     29  N   UNL     1       6.945   7.727  -6.079  1.00  0.00    -0.354 N 
ATOM     30  N   UNL     1       6.127   5.906  -8.225  1.00  0.00    -0.248 NA
ATOM     31  C   UNL     1       5.933   5.393 -10.498  1.00  0.00     0.031 C 
ATOM     32  C   UNL     1       7.965   9.621  -6.636  1.00  0.00     0.029 A 
ATOM     33  C   UNL     1       7.385   8.476  -7.158  1.00  0.00     0.049 A 
ATOM     34  H   UNL     1       6.491   6.856  -6.144  1.00  0.00     0.167 HD
ATOM     35  C   UNL     1       6.677   6.939  -8.973  1.00  0.00     0.074 A 
ATOM     36  C   UNL     1       6.542   6.566 -10.367  1.00  0.00     0.031 C 
ATOM     37  C   UNL     1       7.237   8.094  -8.539  1.00  0.00     0.037 A 
BRANCH  24  38
ATOM     38  C   UNL     1       7.238   8.745  -2.394  1.00  0.00     0.058 A 
ATOM     39  C   UNL     1       8.383   8.517  -1.616  1.00  0.00     0.135 A 
ATOM     40  C   UNL     1       6.383   9.793  -2.021  1.00  0.00     0.135 A 
ATOM     41  F   UNL     1       9.221   7.515  -1.924  1.00  0.00    -0.206 F 
ATOM     42  C   UNL     1       8.653   9.281  -0.485  1.00  0.00     0.059 A 
ATOM     43  C   UNL     1       6.639  10.576  -0.900  1.00  0.00     0.059 A 
ATOM     44  F   UNL     1       5.272  10.044  -2.732  1.00  0.00    -0.206 F 
ATOM     45  C   UNL     1       7.767  10.299  -0.127  1.00  0.00     0.060 A 
BRANCH  45  46
ATOM     46  S   UNL     1       8.091  11.264   1.364  1.00  0.00     0.124 S 
ATOM     47  O   UNL     1       7.470  10.428   2.387  1.00  0.00    -0.237 OA
ATOM     48  O   UNL     1       9.549  11.326   1.400  1.00  0.00    -0.237 OA
ATOM     49  O   UNL     1       7.421  12.531   1.092  1.00  0.00    -0.744 OA
ENDBRANCH  45  46
ENDBRANCH  24  38
BRANCH  25  50
ATOM     50  C   UNL     1       4.577   2.840  -9.955  1.00  0.00     0.058 A 
ATOM     51  C   UNL     1       5.487   1.968 -10.568  1.00  0.00     0.135 A 
ATOM     52  C   UNL     1       3.232   2.777 -10.346  1.00  0.00     0.135 A 
ATOM     53  F   UNL     1       6.782   1.997 -10.221  1.00  0.00    -0.206 F 
ATOM     54  C   UNL     1       5.073   1.043 -11.519  1.00  0.00     0.059 A 
ATOM     55  C   UNL     1       2.793   1.853 -11.287  1.00  0.00     0.059 A 
ATOM     56  F   UNL     1       2.327   3.585  -9.772  1.00  0.00    -0.206 F 
ATOM     57  C   UNL     1       3.721   0.985 -11.864  1.00  0.00     0.060 A 
BRANCH  57  58
ATOM     58  S   UNL     1       3.154  -0.302 -12.999  1.00  0.00     0.124 S 
ATOM     59  O   UNL     1       3.359   0.338 -14.293  1.00  0.00    -0.237 OA
ATOM     60  O   UNL     1       4.048  -1.415 -12.689  1.00  0.00    -0.237 OA
ATOM     61  O   UNL     1       1.764  -0.500 -12.600  1.00  0.00    -0.744 OA
ENDBRANCH  57  58
ENDBRANCH  25  50
BRANCH  37  62
ATOM     62  C   UNL     1       7.738   9.045  -9.583  1.00  0.00     0.058 A 
ATOM     63  C   UNL     1       6.871   9.953 -10.207  1.00  0.00     0.135 A 
ATOM     64  C   UNL     1       9.098   9.087  -9.922  1.00  0.00     0.135 A 
ATOM     65  F   UNL     1       5.560   9.943  -9.916  1.00  0.00    -0.206 F 
ATOM     66  C   UNL     1       7.335  10.874 -11.139  1.00  0.00     0.059 A 
ATOM     67  C   UNL     1       9.586  10.005 -10.846  1.00  0.00     0.059 A 
ATOM     68  F   UNL     1       9.965   8.238  -9.348  1.00  0.00    -0.206 F 
ATOM     69  C   UNL     1       8.696  10.891 -11.454  1.00  0.00     0.060 A 
BRANCH  69  70
ATOM     70  S   UNL     1       9.309  12.116 -12.631  1.00  0.00     0.124 S 
ATOM     71  O   UNL     1       9.051  11.453 -13.905  1.00  0.00    -0.237 OA
ATOM     72  O   UNL     1       8.479  13.282 -12.344  1.00  0.00    -0.237 OA
ATOM     73  O   UNL     1      10.716  12.254 -12.265  1.00  0.00    -0.744 OA
ENDBRANCH  69  70
ENDBRANCH  37  62
ENDBRANCH  11  12
ENDBRANCH   4   6
ENDBRANCH   1   2
BRANCH   1  74
ATOM     74  C   UNL     1       5.216  -0.524   2.243  1.00  0.00     0.042 C 
BRANCH  74  75
ATOM     75  C   UNL     1       4.684  -1.371   3.393  1.00  0.00     0.118 C 
BRANCH  75  76
ATOM     76  N   UNL     1       5.195  -2.736   3.379  1.00  0.00    -0.352 N 
ATOM     77  C   UNL     1       5.900  -3.426   4.331  1.00  0.00     0.251 C 
ATOM     78  H   UNL     1       5.003  -3.242   2.556  1.00  0.00     0.163 HD
ATOM     79  O   UNL     1       6.366  -4.532   4.067  1.00  0.00    -0.269 OA
BRANCH  77  80
ATOM     80  C   UNL     1       6.122  -2.850   5.674  1.00  0.00     0.040 A 
ATOM     81  C   UNL     1       5.070  -2.280   6.406  1.00  0.00     0.016 A 
ATOM     82  C   UNL     1       7.403  -2.918   6.226  1.00  0.00     0.019 A 
ATOM     83  C   UNL     1       5.304  -1.692   7.655  1.00  0.00     0.027 A 
ATOM     84  C   UNL     1       7.609  -2.361   7.482  1.00  0.00    -0.022 A 
ATOM     85  C   UNL     1       6.577  -1.740   8.197  1.00  0.00     0.047 A 
ATOM     86  C   UNL     1       8.912  -2.285   8.209  1.00  0.00     0.059 C 
ATOM     87  N   UNL     1       7.085  -1.227   9.406  1.00  0.00    -0.306 N 
ATOM     88  C   UNL     1       8.508  -1.585   9.505  1.00  0.00     0.131 C 
BRANCH  87  89
ATOM     89  C   UNL     1       6.521  -0.453  10.413  1.00  0.00     0.276 C 
ATOM     90  O   UNL     1       7.224  -0.006  11.321  1.00  0.00    -0.267 OA
BRANCH  89  91
ATOM     91  C   UNL     1       5.122  -0.137  10.381  1.00  0.00     0.123 A 
ATOM     92  C   UNL     1       4.003  -0.906  10.635  1.00  0.00     0.055 A 
ATOM     93  N   UNL     1       4.654   1.136  10.204  1.00  0.00    -0.273 N 
ATOM     94  C   UNL     1       2.918  -0.020  10.500  1.00  0.00     0.135 A 
ATOM     95  N   UNL     1       3.311   1.222  10.214  1.00  0.00    -0.183 NA
ATOM     96  H   UNL     1       5.243   1.915  10.080  1.00  0.00     0.190 HD
ENDBRANCH  89  91
ENDBRANCH  87  89
ENDBRANCH  77  80
ENDBRANCH  75  76
ENDBRANCH  74  75
ENDBRANCH   1  74
TORSDOF 15
