REMARK SMILES C[C@@H](C(=O)NCCCNC(=O)c1ccc(-c2c3nc(c(-c4c(F)cc(S(=O)(=O)[O-])cc4F)c4ccc([nH]4)c(-c4c(F)cc(S(=O)(=O)[O-])cc4F)c4nc(c(-c5c(F)cc(S(=O)(=O)[O-])cc5F)c5ccc2[nH]5)C=C4)C=C3)cc1)c1ccc2c3cc(Cl)ccc3n(C(=O)c3cocn3)c2c1
REMARK SMILES IDX 7 1 6 2 5 3 3 4 4 5 2 7 1 8 78 9 79 10 98 11 80 12 97 13
REMARK SMILES IDX 81 14 89 15 82 16 88 17 83 18 87 19 84 20 86 21 85 22 90 23
REMARK SMILES IDX 91 24 92 25 93 26 96 27 94 28 95 29 8 30 9 31 10 32 11 34
REMARK SMILES IDX 12 35 13 36 77 37 14 38 76 39 15 40 16 41 17 42 70 43 18 44
REMARK SMILES IDX 75 45 69 46 71 47 19 48 74 49 68 50 67 51 20 53 54 54 33 55
REMARK SMILES IDX 53 56 34 57 37 58 52 59 72 60 35 61 36 62 51 64 73 65 38 66
REMARK SMILES IDX 21 67 22 68 31 69 23 70 24 71 30 72 32 73 25 74 26 75 27 76
REMARK SMILES IDX 28 77 29 78 55 79 56 80 65 81 57 82 58 83 64 84 66 85 59 86
REMARK SMILES IDX 60 87 61 88 62 89 63 90 39 91 40 92 49 93 41 94 42 95 48 96
REMARK SMILES IDX 50 97 43 98 44 99 45 100 46 101 47 102
REMARK H PARENT 5 6 9 33 71 52 37 63
REMARK Flexibility Score: inf
ROOT
ATOM      1  C   UNL     1       4.466  -0.685  -1.079  1.00  0.00     0.042 C 
ENDROOT
BRANCH   1   2
ATOM      2  C   UNL     1       3.614   0.221  -1.965  1.00  0.00     0.117 C 
BRANCH   2   3
ATOM      3  N   UNL     1       2.537  -0.504  -2.611  1.00  0.00    -0.356 N 
ATOM      4  C   UNL     1       1.200  -0.532  -2.347  1.00  0.00     0.227 C 
ATOM      5  O   UNL     1       0.518  -1.274  -3.060  1.00  0.00    -0.274 OA
ATOM      6  H   UNL     1       2.819  -1.071  -3.365  1.00  0.00     0.163 HD
BRANCH   4   7
ATOM      7  C   UNL     1       0.604   0.357  -1.240  1.00  0.00     0.105 C 
ATOM      8  C   UNL     1       1.036  -0.094   0.160  1.00  0.00     0.023 C 
BRANCH   7   9
ATOM      9  C   UNL     1      -0.922   0.408  -1.316  1.00  0.00    -0.034 A 
ATOM     10  C   UNL     1      -1.580   1.568  -1.731  1.00  0.00     0.005 A 
ATOM     11  C   UNL     1      -1.679  -0.726  -0.975  1.00  0.00     0.032 A 
ATOM     12  C   UNL     1      -2.978   1.605  -1.823  1.00  0.00     0.011 A 
ATOM     13  C   UNL     1      -3.083  -0.673  -1.032  1.00  0.00     0.058 A 
ATOM     14  C   UNL     1      -3.740   0.467  -1.479  1.00  0.00     0.008 A 
ATOM     15  N   UNL     1      -4.036  -1.652  -0.737  1.00  0.00    -0.274 N 
ATOM     16  C   UNL     1      -5.135   0.182  -1.472  1.00  0.00     0.009 A 
ATOM     17  C   UNL     1      -5.309  -1.119  -0.982  1.00  0.00     0.057 A 
ATOM     18  C   UNL     1      -6.268   0.951  -1.818  1.00  0.00     0.031 A 
ATOM     19  C   UNL     1      -6.602  -1.632  -0.750  1.00  0.00     0.029 A 
ATOM     20  C   UNL     1      -7.543   0.420  -1.632  1.00  0.00     0.041 A 
ATOM     21  C   UNL     1      -7.710  -0.849  -1.095  1.00  0.00     0.023 A 
ATOM     22  Cl  UNL     1      -8.923   1.362  -2.045  1.00  0.00    -0.084 Cl
BRANCH  15  23
ATOM     23  C   UNL     1      -3.719  -2.937  -0.223  1.00  0.00     0.284 C 
ATOM     24  O   UNL     1      -2.746  -2.988   0.533  1.00  0.00    -0.266 OA
BRANCH  23  25
ATOM     25  C   UNL     1      -4.442  -4.159  -0.560  1.00  0.00     0.167 A 
ATOM     26  C   UNL     1      -5.206  -4.430  -1.676  1.00  0.00     0.231 A 
ATOM     27  N   UNL     1      -4.351  -5.317   0.199  1.00  0.00    -0.211 NA
ATOM     28  O   UNL     1      -5.606  -5.733  -1.621  1.00  0.00    -0.451 OA
ATOM     29  C   UNL     1      -5.036  -6.205  -0.480  1.00  0.00     0.308 A 
ENDBRANCH  23  25
ENDBRANCH  15  23
ENDBRANCH   7   9
ENDBRANCH   4   7
ENDBRANCH   2   3
ENDBRANCH   1   2
BRANCH   1  30
ATOM     30  C   UNL     1       5.141  -1.846  -1.808  1.00  0.00     0.118 C 
BRANCH  30  31
ATOM     31  N   UNL     1       6.040  -1.404  -2.861  1.00  0.00    -0.352 N 
ATOM     32  C   UNL     1       7.377  -1.640  -3.055  1.00  0.00     0.251 C 
ATOM     33  H   UNL     1       5.619  -0.840  -3.550  1.00  0.00     0.163 HD
ATOM     34  O   UNL     1       7.966  -1.006  -3.928  1.00  0.00    -0.269 OA
BRANCH  32  35
ATOM     35  C   UNL     1       8.120  -2.622  -2.231  1.00  0.00     0.039 A 
ATOM     36  C   UNL     1       9.432  -2.313  -1.858  1.00  0.00     0.014 A 
ATOM     37  C   UNL     1       7.574  -3.859  -1.875  1.00  0.00     0.014 A 
ATOM     38  C   UNL     1      10.173  -3.216  -1.093  1.00  0.00     0.010 A 
ATOM     39  C   UNL     1       8.292  -4.734  -1.056  1.00  0.00     0.010 A 
ATOM     40  C   UNL     1       9.601  -4.424  -0.661  1.00  0.00    -0.014 A 
BRANCH  40  41
ATOM     41  C   UNL     1      10.369  -5.351   0.210  1.00  0.00     0.031 A 
ATOM     42  C   UNL     1      10.793  -6.706  -0.289  1.00  0.00     0.074 A 
ATOM     43  C   UNL     1      10.664  -4.977   1.470  1.00  0.00     0.049 A 
ATOM     44  N   UNL     1      11.484  -7.632   0.326  1.00  0.00    -0.248 NA
ATOM     45  C   UNL     1      10.369  -7.079  -1.648  1.00  0.00     0.031 C 
ATOM     46  C   UNL     1      10.255  -3.716   2.094  1.00  0.00     0.029 A 
ATOM     47  N   UNL     1      11.376  -5.617   2.453  1.00  0.00    -0.354 N 
ATOM     48  C   UNL     1      11.573  -8.697  -0.563  1.00  0.00     0.074 A 
ATOM     49  C   UNL     1      10.824  -8.320  -1.744  1.00  0.00     0.031 C 
ATOM     50  C   UNL     1      10.747  -3.663   3.342  1.00  0.00     0.029 A 
ATOM     51  C   UNL     1      11.486  -4.891   3.615  1.00  0.00     0.049 A 
ATOM     52  H   UNL     1      11.770  -6.511   2.337  1.00  0.00     0.167 HD
ATOM     53  C   UNL     1      12.236  -9.870  -0.420  1.00  0.00     0.037 A 
ATOM     54  C   UNL     1      12.119  -5.178   4.769  1.00  0.00     0.037 A 
ATOM     55  C   UNL     1      12.999 -10.233   0.746  1.00  0.00     0.049 A 
ATOM     56  C   UNL     1      12.878  -6.468   4.890  1.00  0.00     0.074 A 
ATOM     57  C   UNL     1      13.753 -11.374   0.963  1.00  0.00     0.029 A 
ATOM     58  N   UNL     1      13.108  -9.461   1.893  1.00  0.00    -0.354 N 
ATOM     59  N   UNL     1      13.006  -7.435   4.012  1.00  0.00    -0.248 NA
ATOM     60  C   UNL     1      13.590  -6.703   6.154  1.00  0.00     0.031 C 
ATOM     61  C   UNL     1      14.294 -11.305   2.253  1.00  0.00     0.029 A 
ATOM     62  C   UNL     1      13.905 -10.105   2.826  1.00  0.00     0.049 A 
ATOM     63  H   UNL     1      12.681  -8.584   2.026  1.00  0.00     0.167 HD
ATOM     64  C   UNL     1      13.822  -8.386   4.612  1.00  0.00     0.074 A 
ATOM     65  C   UNL     1      14.176  -7.869   5.919  1.00  0.00     0.031 C 
ATOM     66  C   UNL     1      14.239  -9.582   4.127  1.00  0.00     0.037 A 
BRANCH  53  67
ATOM     67  C   UNL     1      12.174 -10.844  -1.565  1.00  0.00     0.058 A 
ATOM     68  C   UNL     1      12.868 -10.611  -2.763  1.00  0.00     0.135 A 
ATOM     69  C   UNL     1      11.439 -12.035  -1.455  1.00  0.00     0.135 A 
ATOM     70  F   UNL     1      13.575  -9.482  -2.926  1.00  0.00    -0.206 F 
ATOM     71  C   UNL     1      12.811 -11.509  -3.824  1.00  0.00     0.059 A 
ATOM     72  C   UNL     1      11.387 -12.960  -2.495  1.00  0.00     0.059 A 
ATOM     73  F   UNL     1      10.758 -12.308  -0.331  1.00  0.00    -0.206 F 
ATOM     74  C   UNL     1      12.064 -12.680  -3.682  1.00  0.00     0.060 A 
BRANCH  74  75
ATOM     75  S   UNL     1      11.998 -13.837  -5.066  1.00  0.00     0.124 S 
ATOM     76  O   UNL     1      11.067 -13.160  -5.965  1.00  0.00    -0.237 OA
ATOM     77  O   UNL     1      13.388 -13.879  -5.509  1.00  0.00    -0.237 OA
ATOM     78  O   UNL     1      11.500 -15.066  -4.457  1.00  0.00    -0.744 OA
ENDBRANCH  74  75
ENDBRANCH  53  67
BRANCH  54  79
ATOM     79  C   UNL     1      12.091  -4.200   5.887  1.00  0.00     0.058 A 
ATOM     80  C   UNL     1      13.226  -3.440   6.207  1.00  0.00     0.135 A 
ATOM     81  C   UNL     1      10.925  -3.988   6.638  1.00  0.00     0.135 A 
ATOM     82  F   UNL     1      14.364  -3.613   5.519  1.00  0.00    -0.206 F 
ATOM     83  C   UNL     1      13.210  -2.510   7.241  1.00  0.00     0.059 A 
ATOM     84  C   UNL     1      10.879  -3.048   7.663  1.00  0.00     0.059 A 
ATOM     85  F   UNL     1       9.809  -4.678   6.356  1.00  0.00    -0.206 F 
ATOM     86  C   UNL     1      12.030  -2.320   7.962  1.00  0.00     0.060 A 
BRANCH  86  87
ATOM     87  S   UNL     1      11.997  -1.064   9.260  1.00  0.00     0.124 S 
ATOM     88  O   UNL     1      12.691  -1.747  10.346  1.00  0.00    -0.237 OA
ATOM     89  O   UNL     1      12.717   0.043   8.639  1.00  0.00    -0.237 OA
ATOM     90  O   UNL     1      10.570  -0.835   9.465  1.00  0.00    -0.744 OA
ENDBRANCH  86  87
ENDBRANCH  54  79
BRANCH  66  91
ATOM     91  C   UNL     1      15.130 -10.403   5.015  1.00  0.00     0.058 A 
ATOM     92  C   UNL     1      14.624 -11.075   6.139  1.00  0.00     0.135 A 
ATOM     93  C   UNL     1      16.499 -10.527   4.736  1.00  0.00     0.135 A 
ATOM     94  F   UNL     1      13.322 -10.983   6.452  1.00  0.00    -0.206 F 
ATOM     95  C   UNL     1      15.453 -11.814   6.977  1.00  0.00     0.059 A 
ATOM     96  C   UNL     1      17.343 -11.279   5.548  1.00  0.00     0.059 A 
ATOM     97  F   UNL     1      17.030  -9.912   3.667  1.00  0.00    -0.206 F 
ATOM     98  C   UNL     1      16.813 -11.903   6.677  1.00  0.00     0.060 A 
BRANCH  98  99
ATOM     99  S   UNL     1      17.884 -12.864   7.769  1.00  0.00     0.124 S 
ATOM    100  O   UNL     1      18.085 -11.932   8.873  1.00  0.00    -0.237 OA
ATOM    101  O   UNL     1      17.064 -14.034   8.067  1.00  0.00    -0.237 OA
ATOM    102  O   UNL     1      19.059 -13.125   6.943  1.00  0.00    -0.744 OA
ENDBRANCH  98  99
ENDBRANCH  66  91
ENDBRANCH  40  41
ENDBRANCH  32  35
ENDBRANCH  30  31
ENDBRANCH   1  30
TORSDOF 16
