REMARK SMILES CC(C)c1cc2c(cc1Cl)C=C(C(=O)NCCCNC(=O)c1ccc(-c3c4nc(c(-c5c(F)cc(S(=O)(=O)[O-])cc5F)c5ccc([nH]5)c(-c5c(F)cc(S(=O)(=O)[O-])cc5F)c5nc(c(-c6c(F)cc(S(=O)(=O)[O-])cc6F)c6ccc3[nH]6)C=C5)C=C4)cc1)[C@@H](C(F)(F)F)O2
REMARK SMILES IDX 18 1 17 2 16 3 15 4 13 5 14 6 12 8 4 9 5 10 9 11 6 12 8 13
REMARK SMILES IDX 10 14 7 15 93 16 11 17 88 18 2 19 1 20 3 21 89 22 90 23
REMARK SMILES IDX 91 24 92 25 19 26 20 27 21 29 22 30 23 31 87 32 24 33 86 34
REMARK SMILES IDX 25 35 26 36 27 37 80 38 28 39 85 40 79 41 81 42 29 43 84 44
REMARK SMILES IDX 78 45 77 46 30 48 64 49 43 50 63 51 44 52 47 53 62 54 82 55
REMARK SMILES IDX 45 56 46 57 61 59 83 60 48 61 31 62 32 63 41 64 33 65 34 66
REMARK SMILES IDX 40 67 42 68 35 69 36 70 37 71 38 72 39 73 65 74 66 75 75 76
REMARK SMILES IDX 67 77 68 78 74 79 76 80 69 81 70 82 71 83 72 84 73 85 49 86
REMARK SMILES IDX 50 87 59 88 51 89 52 90 58 91 60 92 53 93 54 94 55 95 56 96
REMARK SMILES IDX 57 97
REMARK H PARENT 15 7 19 28 81 47 47 58
REMARK Flexibility Score: inf
ROOT
ATOM      1  C   UNL     1      -9.376  -4.157   2.401  1.00  0.00     0.118 C 
ENDROOT
BRANCH   1   2
ATOM      2  C   UNL     1      -7.898  -3.944   2.101  1.00  0.00     0.042 C 
BRANCH   2   3
ATOM      3  C   UNL     1      -7.666  -3.148   0.826  1.00  0.00     0.118 C 
BRANCH   3   4
ATOM      4  N   UNL     1      -7.896  -1.724   1.019  1.00  0.00    -0.352 N 
ATOM      5  C   UNL     1      -7.145  -0.607   1.156  1.00  0.00     0.251 C 
ATOM      6  O   UNL     1      -7.784   0.442   1.288  1.00  0.00    -0.270 OA
ATOM      7  H   UNL     1      -8.858  -1.518   1.061  1.00  0.00     0.163 HD
BRANCH   5   8
ATOM      8  C   UNL     1      -5.655  -0.566   1.148  1.00  0.00     0.067 C 
ATOM      9  C   UNL     1      -0.805   0.907   1.246  1.00  0.00    -0.023 A 
ATOM     10  C   UNL     1      -1.489  -0.323   1.388  1.00  0.00     0.052 A 
ATOM     11  C   UNL     1      -1.596   2.066   1.138  1.00  0.00     0.045 A 
ATOM     12  C   UNL     1      -2.880  -0.395   1.382  1.00  0.00     0.128 A 
ATOM     13  C   UNL     1      -3.002   1.988   1.188  1.00  0.00     0.032 A 
ATOM     14  Cl  UNL     1      -0.967   3.657   0.904  1.00  0.00    -0.084 Cl
ATOM     15  C   UNL     1      -3.647   0.758   1.298  1.00  0.00     0.019 A 
ATOM     16  O   UNL     1      -3.436  -1.638   1.478  1.00  0.00    -0.475 OA
ATOM     17  C   UNL     1      -5.100   0.647   1.336  1.00  0.00     0.025 C 
ATOM     18  C   UNL     1      -4.773  -1.760   0.913  1.00  0.00     0.314 C 
BRANCH   9  19
ATOM     19  C   UNL     1       0.717   0.792   1.193  1.00  0.00     0.014 C 
ATOM     20  C   UNL     1       1.155   0.188  -0.150  1.00  0.00     0.012 C 
ATOM     21  C   UNL     1       1.572   2.023   1.493  1.00  0.00     0.012 C 
ENDBRANCH   9  19
BRANCH  18  22
ATOM     22  C   UNL     1      -4.672  -2.131  -0.581  1.00  0.00     0.429 C 
ATOM     23  F   UNL     1      -4.194  -3.391  -0.729  1.00  0.00    -0.167 F 
ATOM     24  F   UNL     1      -5.873  -2.100  -1.207  1.00  0.00    -0.167 F 
ATOM     25  F   UNL     1      -3.855  -1.306  -1.275  1.00  0.00    -0.167 F 
ENDBRANCH  18  22
ENDBRANCH   5   8
ENDBRANCH   3   4
ENDBRANCH   2   3
ENDBRANCH   1   2
BRANCH   1  26
ATOM     26  N   UNL     1     -10.030  -5.000   1.401  1.00  0.00    -0.352 N 
ATOM     27  C   UNL     1     -10.632  -6.229   1.529  1.00  0.00     0.251 C 
ATOM     28  H   UNL     1     -10.040  -4.627   0.490  1.00  0.00     0.163 HD
ATOM     29  O   UNL     1     -10.937  -6.862   0.522  1.00  0.00    -0.269 OA
BRANCH  27  30
ATOM     30  C   UNL     1     -10.893  -6.791   2.870  1.00  0.00     0.039 A 
ATOM     31  C   UNL     1     -11.342  -5.968   3.901  1.00  0.00     0.014 A 
ATOM     32  C   UNL     1     -10.687  -8.154   3.102  1.00  0.00     0.014 A 
ATOM     33  C   UNL     1     -11.392  -6.457   5.198  1.00  0.00     0.010 A 
ATOM     34  C   UNL     1     -10.849  -8.671   4.392  1.00  0.00     0.010 A 
ATOM     35  C   UNL     1     -11.154  -7.816   5.461  1.00  0.00    -0.014 A 
BRANCH  35  36
ATOM     36  C   UNL     1     -11.239  -8.295   6.865  1.00  0.00     0.031 A 
ATOM     37  C   UNL     1     -10.030  -8.854   7.567  1.00  0.00     0.074 A 
ATOM     38  C   UNL     1     -12.398  -8.131   7.536  1.00  0.00     0.049 A 
ATOM     39  N   UNL     1      -9.914  -9.253   8.808  1.00  0.00    -0.248 NA
ATOM     40  C   UNL     1      -8.794  -8.988   6.780  1.00  0.00     0.031 C 
ATOM     41  C   UNL     1     -13.634  -7.594   6.957  1.00  0.00     0.029 A 
ATOM     42  N   UNL     1     -12.717  -8.345   8.851  1.00  0.00    -0.354 N 
ATOM     43  C   UNL     1      -8.606  -9.704   8.944  1.00  0.00     0.074 A 
ATOM     44  C   UNL     1      -7.972  -9.555   7.653  1.00  0.00     0.031 C 
ATOM     45  C   UNL     1     -14.544  -7.438   7.928  1.00  0.00     0.029 A 
ATOM     46  C   UNL     1     -13.987  -7.933   9.182  1.00  0.00     0.049 A 
ATOM     47  H   UNL     1     -12.098  -8.755   9.497  1.00  0.00     0.167 HD
ATOM     48  C   UNL     1      -7.988 -10.185  10.050  1.00  0.00     0.037 A 
ATOM     49  C   UNL     1     -14.637  -7.954  10.361  1.00  0.00     0.037 A 
ATOM     50  C   UNL     1      -8.618 -10.300  11.340  1.00  0.00     0.049 A 
ATOM     51  C   UNL     1     -13.937  -8.512  11.564  1.00  0.00     0.074 A 
ATOM     52  C   UNL     1      -8.073 -10.764  12.524  1.00  0.00     0.029 A 
ATOM     53  N   UNL     1      -9.928  -9.938  11.617  1.00  0.00    -0.354 N 
ATOM     54  N   UNL     1     -12.704  -8.947  11.668  1.00  0.00    -0.248 NA
ATOM     55  C   UNL     1     -14.718  -8.604  12.804  1.00  0.00     0.031 C 
ATOM     56  C   UNL     1      -9.065 -10.715  13.510  1.00  0.00     0.029 A 
ATOM     57  C   UNL     1     -10.215 -10.184  12.949  1.00  0.00     0.049 A 
ATOM     58  H   UNL     1     -10.561  -9.562  10.963  1.00  0.00     0.167 HD
ATOM     59  C   UNL     1     -12.561  -9.369  12.983  1.00  0.00     0.074 A 
ATOM     60  C   UNL     1     -13.825  -9.113  13.644  1.00  0.00     0.031 C 
ATOM     61  C   UNL     1     -11.483  -9.928  13.585  1.00  0.00     0.037 A 
BRANCH  48  62
ATOM     62  C   UNL     1      -6.559 -10.633   9.916  1.00  0.00     0.058 A 
ATOM     63  C   UNL     1      -5.506  -9.713   9.797  1.00  0.00     0.135 A 
ATOM     64  C   UNL     1      -6.232 -11.999   9.960  1.00  0.00     0.135 A 
ATOM     65  F   UNL     1      -5.764  -8.397   9.732  1.00  0.00    -0.206 F 
ATOM     66  C   UNL     1      -4.182 -10.130   9.707  1.00  0.00     0.059 A 
ATOM     67  C   UNL     1      -4.912 -12.438   9.895  1.00  0.00     0.059 A 
ATOM     68  F   UNL     1      -7.200 -12.922  10.072  1.00  0.00    -0.206 F 
ATOM     69  C   UNL     1      -3.895 -11.495   9.758  1.00  0.00     0.060 A 
BRANCH  69  70
ATOM     70  S   UNL     1      -2.170 -12.017   9.648  1.00  0.00     0.124 S 
ATOM     71  O   UNL     1      -1.874 -11.749   8.243  1.00  0.00    -0.237 OA
ATOM     72  O   UNL     1      -1.516 -11.137  10.611  1.00  0.00    -0.237 OA
ATOM     73  O   UNL     1      -2.215 -13.428  10.020  1.00  0.00    -0.744 OA
ENDBRANCH  69  70
ENDBRANCH  48  62
BRANCH  49  74
ATOM     74  C   UNL     1     -16.025  -7.431  10.445  1.00  0.00     0.058 A 
ATOM     75  C   UNL     1     -16.305  -6.232  11.115  1.00  0.00     0.135 A 
ATOM     76  C   UNL     1     -17.090  -8.091   9.812  1.00  0.00     0.135 A 
ATOM     77  F   UNL     1     -15.321  -5.567  11.740  1.00  0.00    -0.206 F 
ATOM     78  C   UNL     1     -17.591  -5.702  11.152  1.00  0.00     0.059 A 
ATOM     79  C   UNL     1     -18.379  -7.570   9.813  1.00  0.00     0.059 A 
ATOM     80  F   UNL     1     -16.870  -9.235   9.144  1.00  0.00    -0.206 F 
ATOM     81  C   UNL     1     -18.620  -6.375  10.490  1.00  0.00     0.060 A 
BRANCH  81  82
ATOM     82  S   UNL     1     -20.270  -5.641  10.478  1.00  0.00     0.124 S 
ATOM     83  O   UNL     1     -20.715  -5.898  11.843  1.00  0.00    -0.237 OA
ATOM     84  O   UNL     1     -19.984  -4.248  10.149  1.00  0.00    -0.237 OA
ATOM     85  O   UNL     1     -20.963  -6.393   9.435  1.00  0.00    -0.744 OA
ENDBRANCH  81  82
ENDBRANCH  49  74
BRANCH  61  86
ATOM     86  C   UNL     1     -11.623 -10.308  15.030  1.00  0.00     0.058 A 
ATOM     87  C   UNL     1     -12.333 -11.456  15.414  1.00  0.00     0.135 A 
ATOM     88  C   UNL     1     -10.982  -9.562  16.031  1.00  0.00     0.135 A 
ATOM     89  F   UNL     1     -12.970 -12.196  14.493  1.00  0.00    -0.206 F 
ATOM     90  C   UNL     1     -12.408 -11.848  16.745  1.00  0.00     0.059 A 
ATOM     91  C   UNL     1     -11.027  -9.948  17.366  1.00  0.00     0.059 A 
ATOM     92  F   UNL     1     -10.286  -8.459  15.711  1.00  0.00    -0.206 F 
ATOM     93  C   UNL     1     -11.746 -11.091  17.714  1.00  0.00     0.060 A 
BRANCH  93  94
ATOM     94  S   UNL     1     -11.807 -11.645  19.430  1.00  0.00     0.124 S 
ATOM     95  O   UNL     1     -13.180 -11.315  19.798  1.00  0.00    -0.237 OA
ATOM     96  O   UNL     1     -11.507 -13.068  19.309  1.00  0.00    -0.237 OA
ATOM     97  O   UNL     1     -10.773 -10.846  20.082  1.00  0.00    -0.744 OA
ENDBRANCH  93  94
ENDBRANCH  61  86
ENDBRANCH  35  36
ENDBRANCH  27  30
ENDBRANCH   1  26
TORSDOF 15
