REMARK SMILES COc1ccc([C@H]2CC(c3ccc(S(C)(=O)=O)cc3)=NN2c2ccc(C(=O)NCCCNC(=O)c3ccc(-c4c5nc(c(-c6c(F)cc(S(=O)(=O)[O-])cc6F)c6ccc([nH]6)c(-c6c(F)cc(S(=O)(=O)[O-])cc6F)c6nc(c(-c7c(F)cc(S(=O)(=O)[O-])cc7F)c7ccc4[nH]7)C=C6)C=C5)cc3)cc2)cc1OC
REMARK SMILES IDX 30 1 29 2 28 3 26 4 27 5 25 7 22 8 23 9 102 10 24 11 101 12
REMARK SMILES IDX 21 13 7 14 8 15 9 16 20 17 6 18 3 19 4 20 104 21 5 22 103 23
REMARK SMILES IDX 2 24 1 25 105 26 106 27 10 28 11 29 19 30 12 31 18 32 13 33
REMARK SMILES IDX 14 34 15 35 16 36 17 37 31 38 32 39 33 40 34 42 35 43 36 44
REMARK SMILES IDX 100 45 37 46 99 47 38 48 39 49 40 50 93 51 41 52 98 53 92 54
REMARK SMILES IDX 94 55 42 56 97 57 91 58 90 59 43 61 77 62 56 63 76 64 57 65
REMARK SMILES IDX 60 66 75 67 95 68 58 69 59 70 74 72 96 73 61 74 44 75 45 76
REMARK SMILES IDX 54 77 46 78 47 79 53 80 55 81 48 82 49 83 50 84 51 85 52 86
REMARK SMILES IDX 78 87 79 88 88 89 80 90 81 91 87 92 89 93 82 94 83 95 84 96
REMARK SMILES IDX 85 97 86 98 62 99 63 100 72 101 64 102 65 103 71 104 73 105
REMARK SMILES IDX 66 106 67 107 68 108 69 109 70 110
REMARK H PARENT 28 6 32 41 94 60 60 71
REMARK Flexibility Score: inf
ROOT
ATOM      1  C   UNL     1       0.368  -7.326  -8.961  1.00  0.00     0.042 C 
ENDROOT
BRANCH   1   2
ATOM      2  C   UNL     1       0.580  -7.120  -7.462  1.00  0.00     0.118 C 
BRANCH   2   3
ATOM      3  N   UNL     1       1.930  -7.483  -7.071  1.00  0.00    -0.352 N 
ATOM      4  C   UNL     1       3.050  -6.738  -6.806  1.00  0.00     0.251 C 
ATOM      5  O   UNL     1       4.056  -7.346  -6.437  1.00  0.00    -0.269 OA
ATOM      6  H   UNL     1       2.069  -8.453  -6.979  1.00  0.00     0.163 HD
BRANCH   4   7
ATOM      7  C   UNL     1       3.087  -5.251  -6.882  1.00  0.00     0.039 A 
ATOM      8  C   UNL     1       3.255  -2.425  -6.838  1.00  0.00     0.060 A 
ATOM      9  C   UNL     1       4.119  -3.206  -6.064  1.00  0.00     0.029 A 
ATOM     10  C   UNL     1       2.348  -3.076  -7.675  1.00  0.00     0.029 A 
ATOM     11  C   UNL     1       4.024  -4.600  -6.069  1.00  0.00     0.016 A 
ATOM     12  C   UNL     1       2.291  -4.475  -7.727  1.00  0.00     0.016 A 
BRANCH   8  13
ATOM     13  N   UNL     1       3.324  -1.045  -6.779  1.00  0.00    -0.257 N 
ATOM     14  C   UNL     1       2.219  -0.175  -6.382  1.00  0.00     0.144 C 
ATOM     15  C   UNL     1       2.766   1.223  -6.701  1.00  0.00     0.091 C 
ATOM     16  C   UNL     1       4.128   0.861  -7.223  1.00  0.00     0.071 C 
ATOM     17  N   UNL     1       4.414  -0.400  -7.261  1.00  0.00    -0.176 NA
BRANCH  14  18
ATOM     18  C   UNL     1       1.879  -0.346  -4.908  1.00  0.00    -0.019 A 
ATOM     19  C   UNL     1       1.284  -0.724  -2.175  1.00  0.00     0.160 A 
ATOM     20  C   UNL     1       0.276  -0.818  -3.145  1.00  0.00     0.051 A 
ATOM     21  C   UNL     1       2.601  -0.454  -2.560  1.00  0.00     0.161 A 
ATOM     22  C   UNL     1       0.568  -0.622  -4.500  1.00  0.00     0.010 A 
ATOM     23  C   UNL     1       2.879  -0.267  -3.921  1.00  0.00     0.056 A 
BRANCH  19  24
ATOM     24  O   UNL     1       0.968  -1.017  -0.875  1.00  0.00    -0.493 OA
ATOM     25  C   UNL     1       0.161  -0.002  -0.279  1.00  0.00     0.278 C 
ENDBRANCH  19  24
BRANCH  21  26
ATOM     26  O   UNL     1       3.719  -0.356  -1.777  1.00  0.00    -0.493 OA
ATOM     27  C   UNL     1       3.556  -0.282  -0.370  1.00  0.00     0.278 C 
ENDBRANCH  21  26
ENDBRANCH  14  18
BRANCH  16  28
ATOM     28  C   UNL     1       5.048   1.893  -7.705  1.00  0.00    -0.002 A 
ATOM     29  C   UNL     1       5.435   1.876  -9.049  1.00  0.00     0.011 A 
ATOM     30  C   UNL     1       5.543   2.854  -6.822  1.00  0.00     0.011 A 
ATOM     31  C   UNL     1       6.315   2.848  -9.524  1.00  0.00     0.021 A 
ATOM     32  C   UNL     1       6.443   3.812  -7.290  1.00  0.00     0.021 A 
ATOM     33  C   UNL     1       6.825   3.803  -8.638  1.00  0.00     0.067 A 
BRANCH  33  34
ATOM     34  S   UNL     1       7.962   5.030  -9.240  1.00  0.00     0.175 S 
ATOM     35  C   UNL     1       9.347   4.095  -9.833  1.00  0.00     0.163 C 
ATOM     36  O   UNL     1       7.320   5.675 -10.374  1.00  0.00    -0.224 OA
ATOM     37  O   UNL     1       8.414   5.806  -8.104  1.00  0.00    -0.224 OA
ENDBRANCH  33  34
ENDBRANCH  16  28
ENDBRANCH   8  13
ENDBRANCH   4   7
ENDBRANCH   2   3
ENDBRANCH   1   2
BRANCH   1  38
ATOM     38  C   UNL     1       0.252  -8.797  -9.355  1.00  0.00     0.118 C 
BRANCH  38  39
ATOM     39  N   UNL     1      -0.992  -9.388  -8.882  1.00  0.00    -0.352 N 
ATOM     40  C   UNL     1      -2.014  -9.969  -9.591  1.00  0.00     0.251 C 
ATOM     41  H   UNL     1      -1.120  -9.367  -7.906  1.00  0.00     0.163 HD
ATOM     42  O   UNL     1      -3.085 -10.193  -9.033  1.00  0.00    -0.269 OA
BRANCH  40  43
ATOM     43  C   UNL     1      -1.835 -10.315 -11.018  1.00  0.00     0.039 A 
ATOM     44  C   UNL     1      -2.875 -10.050 -11.913  1.00  0.00     0.014 A 
ATOM     45  C   UNL     1      -0.664 -10.931 -11.468  1.00  0.00     0.014 A 
ATOM     46  C   UNL     1      -2.717 -10.345 -13.270  1.00  0.00     0.010 A 
ATOM     47  C   UNL     1      -0.483 -11.168 -12.829  1.00  0.00     0.010 A 
ATOM     48  C   UNL     1      -1.506 -10.876 -13.743  1.00  0.00    -0.014 A 
BRANCH  48  49
ATOM     49  C   UNL     1      -1.280 -11.117 -15.191  1.00  0.00     0.031 A 
ATOM     50  C   UNL     1      -1.075 -12.517 -15.702  1.00  0.00     0.074 A 
ATOM     51  C   UNL     1      -1.177 -10.067 -16.029  1.00  0.00     0.049 A 
ATOM     52  N   UNL     1      -0.758 -12.918 -16.906  1.00  0.00    -0.248 NA
ATOM     53  C   UNL     1      -1.223 -13.608 -14.725  1.00  0.00     0.031 C 
ATOM     54  C   UNL     1      -1.318  -8.661 -15.644  1.00  0.00     0.029 A 
ATOM     55  N   UNL     1      -0.911 -10.016 -17.375  1.00  0.00    -0.354 N 
ATOM     56  C   UNL     1      -0.649 -14.301 -16.830  1.00  0.00     0.074 A 
ATOM     57  C   UNL     1      -0.896 -14.668 -15.451  1.00  0.00     0.031 C 
ATOM     58  C   UNL     1      -1.149  -7.888 -16.728  1.00  0.00     0.029 A 
ATOM     59  C   UNL     1      -0.847  -8.737 -17.876  1.00  0.00     0.049 A 
ATOM     60  H   UNL     1      -0.779 -10.819 -17.928  1.00  0.00     0.167 HD
ATOM     61  C   UNL     1      -0.383 -15.185 -17.821  1.00  0.00     0.037 A 
ATOM     62  C   UNL     1      -0.560  -8.297 -19.117  1.00  0.00     0.037 A 
ATOM     63  C   UNL     1      -0.165 -14.813 -19.195  1.00  0.00     0.049 A 
ATOM     64  C   UNL     1      -0.259  -9.297 -20.199  1.00  0.00     0.074 A 
ATOM     65  C   UNL     1       0.046 -15.638 -20.286  1.00  0.00     0.029 A 
ATOM     66  N   UNL     1      -0.126 -13.509 -19.667  1.00  0.00    -0.354 N 
ATOM     67  N   UNL     1      -0.220 -10.606 -20.122  1.00  0.00    -0.248 NA
ATOM     68  C   UNL     1       0.035  -8.763 -21.536  1.00  0.00     0.031 C 
ATOM     69  C   UNL     1       0.254 -14.832 -21.411  1.00  0.00     0.029 A 
ATOM     70  C   UNL     1       0.129 -13.506 -21.029  1.00  0.00     0.049 A 
ATOM     71  H   UNL     1      -0.259 -12.705 -19.116  1.00  0.00     0.167 HD
ATOM     72  C   UNL     1       0.081 -11.053 -21.403  1.00  0.00     0.074 A 
ATOM     73  C   UNL     1       0.203  -9.876 -22.238  1.00  0.00     0.031 C 
ATOM     74  C   UNL     1       0.241 -12.324 -21.847  1.00  0.00     0.037 A 
BRANCH  61  75
ATOM     75  C   UNL     1      -0.314 -16.643 -17.458  1.00  0.00     0.058 A 
ATOM     76  C   UNL     1      -1.465 -17.373 -17.120  1.00  0.00     0.135 A 
ATOM     77  C   UNL     1       0.912 -17.328 -17.482  1.00  0.00     0.135 A 
ATOM     78  F   UNL     1      -2.661 -16.765 -17.069  1.00  0.00    -0.206 F 
ATOM     79  C   UNL     1      -1.399 -18.723 -16.791  1.00  0.00     0.059 A 
ATOM     80  C   UNL     1       0.997 -18.684 -17.182  1.00  0.00     0.059 A 
ATOM     81  F   UNL     1       2.043 -16.678 -17.799  1.00  0.00    -0.206 F 
ATOM     82  C   UNL     1      -0.163 -19.370 -16.823  1.00  0.00     0.060 A 
BRANCH  82  83
ATOM     83  S   UNL     1      -0.095 -21.123 -16.395  1.00  0.00     0.124 S 
ATOM     84  O   UNL     1      -0.264 -21.074 -14.946  1.00  0.00    -0.237 OA
ATOM     85  O   UNL     1      -1.219 -21.672 -17.145  1.00  0.00    -0.237 OA
ATOM     86  O   UNL     1       1.226 -21.535 -16.859  1.00  0.00    -0.744 OA
ENDBRANCH  82  83
ENDBRANCH  61  75
BRANCH  62  87
ATOM     87  C   UNL     1      -0.557  -6.838 -19.403  1.00  0.00     0.058 A 
ATOM     88  C   UNL     1      -1.572  -6.256 -20.176  1.00  0.00     0.135 A 
ATOM     89  C   UNL     1       0.443  -5.995 -18.894  1.00  0.00     0.135 A 
ATOM     90  F   UNL     1      -2.546  -7.022 -20.689  1.00  0.00    -0.206 F 
ATOM     91  C   UNL     1      -1.591  -4.891 -20.445  1.00  0.00     0.059 A 
ATOM     92  C   UNL     1       0.433  -4.624 -19.130  1.00  0.00     0.059 A 
ATOM     93  F   UNL     1       1.427  -6.501 -18.134  1.00  0.00    -0.206 F 
ATOM     94  C   UNL     1      -0.584  -4.083 -19.915  1.00  0.00     0.060 A 
BRANCH  94  95
ATOM     95  S   UNL     1      -0.648  -2.304 -20.223  1.00  0.00     0.124 S 
ATOM     96  O   UNL     1      -0.228  -2.232 -21.617  1.00  0.00    -0.237 OA
ATOM     97  O   UNL     1      -2.051  -1.997 -19.962  1.00  0.00    -0.237 OA
ATOM     98  O   UNL     1       0.294  -1.762 -19.249  1.00  0.00    -0.744 OA
ENDBRANCH  94  95
ENDBRANCH  62  87
BRANCH  74  99
ATOM     99  C   UNL     1       0.538 -12.515 -23.308  1.00  0.00     0.058 A 
ATOM    100  C   UNL     1       1.804 -12.236 -23.843  1.00  0.00     0.135 A 
ATOM    101  C   UNL     1      -0.438 -13.045 -24.168  1.00  0.00     0.135 A 
ATOM    102  F   UNL     1       2.768 -11.719 -23.064  1.00  0.00    -0.206 F 
ATOM    103  C   UNL     1       2.091 -12.464 -25.185  1.00  0.00     0.059 A 
ATOM    104  C   UNL     1      -0.166 -13.304 -25.507  1.00  0.00     0.059 A 
ATOM    105  F   UNL     1      -1.663 -13.335 -23.703  1.00  0.00    -0.206 F 
ATOM    106  C   UNL     1       1.100 -13.003 -26.008  1.00  0.00     0.060 A 
BRANCH 106 107
ATOM    107  S   UNL     1       1.500 -13.342 -27.736  1.00  0.00     0.124 S 
ATOM    108  O   UNL     1       1.501 -12.000 -28.307  1.00  0.00    -0.237 OA
ATOM    109  O   UNL     1       2.805 -13.989 -27.634  1.00  0.00    -0.237 OA
ATOM    110  O   UNL     1       0.411 -14.210 -28.172  1.00  0.00    -0.744 OA
ENDBRANCH 106 107
ENDBRANCH  74  99
ENDBRANCH  48  49
ENDBRANCH  40  43
ENDBRANCH  38  39
ENDBRANCH   1  38
TORSDOF 19
