REMARK SMILES Nc1nc(N2CC(C(=O)NCCCNC(=O)c3ccc(-c4c5nc(c(-c6c(F)cc(S(=O)(=O)[O-])cc6F)c6ccc([nH]6)c(-c6c(F)cc(S(=O)(=O)[O-])cc6F)c6nc(c(-c7c(F)cc(S(=O)(=O)[O-])cc7F)c7ccc4[nH]7)C=C6)C=C5)cc3)C2)ccc1[N+](=O)[O-]
REMARK SMILES IDX 12 1 11 2 10 3 8 4 9 5 7 7 5 8 6 9 83 10 4 11 2 12 3 13
REMARK SMILES IDX 86 14 85 15 84 16 1 17 87 20 88 21 89 22 13 23 14 24 15 25
REMARK SMILES IDX 16 27 17 28 18 29 82 30 19 31 81 32 20 33 21 34 22 35 75 36
REMARK SMILES IDX 23 37 80 38 74 39 76 40 24 41 79 42 73 43 72 44 25 46 59 47
REMARK SMILES IDX 38 48 58 49 39 50 42 51 57 52 77 53 40 54 41 55 56 57 78 58
REMARK SMILES IDX 43 59 26 60 27 61 36 62 28 63 29 64 35 65 37 66 30 67 31 68
REMARK SMILES IDX 32 69 33 70 34 71 60 72 61 73 70 74 62 75 63 76 69 77 71 78
REMARK SMILES IDX 64 79 65 80 66 81 67 82 68 83 44 84 45 85 54 86 46 87 47 88
REMARK SMILES IDX 53 89 55 90 48 91 49 92 50 93 51 94 52 95
REMARK H PARENT 10 6 1 18 1 19 14 26 76 45 42 56
REMARK Flexibility Score: inf
ROOT
ATOM      1  C   UNL     1      -5.849   4.269  -0.438  1.00  0.00     0.042 C 
ENDROOT
BRANCH   1   2
ATOM      2  C   UNL     1      -4.528   4.581  -1.133  1.00  0.00     0.117 C 
BRANCH   2   3
ATOM      3  N   UNL     1      -3.826   5.680  -0.496  1.00  0.00    -0.356 N 
ATOM      4  C   UNL     1      -2.652   5.717   0.215  1.00  0.00     0.226 C 
ATOM      5  O   UNL     1      -2.322   6.835   0.639  1.00  0.00    -0.275 OA
ATOM      6  H   UNL     1      -4.269   6.554  -0.591  1.00  0.00     0.163 HD
BRANCH   4   7
ATOM      7  C   UNL     1      -1.788   4.483   0.462  1.00  0.00     0.117 C 
ATOM      8  N   UNL     1      -1.769   2.495  -0.119  1.00  0.00    -0.355 N 
ATOM      9  C   UNL     1      -1.237   3.684  -0.712  1.00  0.00     0.133 C 
ATOM     10  C   UNL     1      -2.360   3.176   0.998  1.00  0.00     0.133 C 
BRANCH   8  11
ATOM     11  C   UNL     1      -1.130   1.246  -0.046  1.00  0.00     0.131 A 
ATOM     12  C   UNL     1       0.836  -0.016  -0.099  1.00  0.00     0.204 A 
ATOM     13  N   UNL     1       0.215   1.181  -0.177  1.00  0.00    -0.207 NA
ATOM     14  C   UNL     1       0.114  -1.196   0.058  1.00  0.00     0.311 A 
ATOM     15  C   UNL     1      -1.278  -1.138   0.179  1.00  0.00     0.093 A 
ATOM     16  C   UNL     1      -1.903   0.105   0.141  1.00  0.00     0.054 A 
BRANCH  12  17
ATOM     17  N   UNL     1       2.203   0.060  -0.273  1.00  0.00    -0.378 N 
ATOM     18  H   UNL     1       2.638   0.938  -0.377  1.00  0.00     0.158 HD
ATOM     19  H   UNL     1       2.743  -0.762  -0.294  1.00  0.00     0.158 HD
ENDBRANCH  12  17
BRANCH  14  20
ATOM     20  N   UNL     1       0.778  -2.492   0.118  1.00  0.00     0.066 N 
ATOM     21  O   UNL     1       0.090  -3.497  -0.114  1.00  0.00    -0.258 OA
ATOM     22  O   UNL     1       1.980  -2.529   0.428  1.00  0.00    -0.258 OA
ENDBRANCH  14  20
ENDBRANCH   8  11
ENDBRANCH   4   7
ENDBRANCH   2   3
ENDBRANCH   1   2
BRANCH   1  23
ATOM     23  C   UNL     1      -6.882   5.389  -0.527  1.00  0.00     0.118 C 
BRANCH  23  24
ATOM     24  N   UNL     1      -7.299   5.663  -1.895  1.00  0.00    -0.352 N 
ATOM     25  C   UNL     1      -8.537   5.580  -2.480  1.00  0.00     0.251 C 
ATOM     26  H   UNL     1      -6.577   5.956  -2.497  1.00  0.00     0.163 HD
ATOM     27  O   UNL     1      -8.628   5.677  -3.706  1.00  0.00    -0.269 OA
BRANCH  25  28
ATOM     28  C   UNL     1      -9.752   5.356  -1.666  1.00  0.00     0.039 A 
ATOM     29  C   UNL     1     -10.736   4.488  -2.148  1.00  0.00     0.014 A 
ATOM     30  C   UNL     1      -9.942   6.014  -0.449  1.00  0.00     0.014 A 
ATOM     31  C   UNL     1     -11.875   4.231  -1.379  1.00  0.00     0.010 A 
ATOM     32  C   UNL     1     -11.036   5.694   0.353  1.00  0.00     0.010 A 
ATOM     33  C   UNL     1     -12.017   4.801  -0.104  1.00  0.00    -0.014 A 
BRANCH  33  34
ATOM     34  C   UNL     1     -13.178   4.472   0.765  1.00  0.00     0.031 A 
ATOM     35  C   UNL     1     -14.141   5.549   1.190  1.00  0.00     0.074 A 
ATOM     36  C   UNL     1     -13.330   3.213   1.224  1.00  0.00     0.049 A 
ATOM     37  N   UNL     1     -15.168   5.467   1.996  1.00  0.00    -0.248 NA
ATOM     38  C   UNL     1     -13.902   6.902   0.662  1.00  0.00     0.031 C 
ATOM     39  C   UNL     1     -12.436   2.091   0.926  1.00  0.00     0.029 A 
ATOM     40  N   UNL     1     -14.281   2.666   2.049  1.00  0.00    -0.354 N 
ATOM     41  C   UNL     1     -15.687   6.754   2.084  1.00  0.00     0.074 A 
ATOM     42  C   UNL     1     -14.830   7.608   1.292  1.00  0.00     0.031 C 
ATOM     43  C   UNL     1     -12.894   0.988   1.540  1.00  0.00     0.029 A 
ATOM     44  C   UNL     1     -14.086   1.330   2.309  1.00  0.00     0.049 A 
ATOM     45  H   UNL     1     -15.033   3.183   2.420  1.00  0.00     0.167 HD
ATOM     46  C   UNL     1     -16.789   7.181   2.747  1.00  0.00     0.037 A 
ATOM     47  C   UNL     1     -14.781   0.476   3.087  1.00  0.00     0.037 A 
ATOM     48  C   UNL     1     -17.652   6.320   3.514  1.00  0.00     0.049 A 
ATOM     49  C   UNL     1     -16.003   0.973   3.811  1.00  0.00     0.074 A 
ATOM     50  C   UNL     1     -18.828   6.644   4.169  1.00  0.00     0.029 A 
ATOM     51  N   UNL     1     -17.434   4.967   3.734  1.00  0.00    -0.354 N 
ATOM     52  N   UNL     1     -16.517   2.180   3.828  1.00  0.00    -0.248 NA
ATOM     53  C   UNL     1     -16.744  -0.008   4.616  1.00  0.00     0.031 C 
ATOM     54  C   UNL     1     -19.291   5.501   4.828  1.00  0.00     0.029 A 
ATOM     55  C   UNL     1     -18.439   4.449   4.535  1.00  0.00     0.049 A 
ATOM     56  H   UNL     1     -16.676   4.452   3.374  1.00  0.00     0.167 HD
ATOM     57  C   UNL     1     -17.657   2.097   4.620  1.00  0.00     0.074 A 
ATOM     58  C   UNL     1     -17.763   0.719   5.054  1.00  0.00     0.031 C 
ATOM     59  C   UNL     1     -18.536   3.073   4.956  1.00  0.00     0.037 A 
BRANCH  46  60
ATOM     60  C   UNL     1     -17.129   8.646   2.672  1.00  0.00     0.058 A 
ATOM     61  C   UNL     1     -17.580   9.241   1.483  1.00  0.00     0.135 A 
ATOM     62  C   UNL     1     -17.043   9.457   3.816  1.00  0.00     0.135 A 
ATOM     63  F   UNL     1     -17.668   8.518   0.355  1.00  0.00    -0.206 F 
ATOM     64  C   UNL     1     -17.905  10.592   1.422  1.00  0.00     0.059 A 
ATOM     65  C   UNL     1     -17.393  10.804   3.786  1.00  0.00     0.059 A 
ATOM     66  F   UNL     1     -16.619   8.942   4.980  1.00  0.00    -0.206 F 
ATOM     67  C   UNL     1     -17.810  11.366   2.580  1.00  0.00     0.060 A 
BRANCH  67  68
ATOM     68  S   UNL     1     -18.245  13.115   2.485  1.00  0.00     0.124 S 
ATOM     69  O   UNL     1     -17.120  13.653   1.726  1.00  0.00    -0.237 OA
ATOM     70  O   UNL     1     -19.524  13.081   1.783  1.00  0.00    -0.237 OA
ATOM     71  O   UNL     1     -18.311  13.527   3.884  1.00  0.00    -0.744 OA
ENDBRANCH  67  68
ENDBRANCH  46  60
BRANCH  47  72
ATOM     72  C   UNL     1     -14.345  -0.942   3.205  1.00  0.00     0.058 A 
ATOM     73  C   UNL     1     -15.098  -1.980   2.637  1.00  0.00     0.135 A 
ATOM     74  C   UNL     1     -13.159  -1.285   3.872  1.00  0.00     0.135 A 
ATOM     75  F   UNL     1     -16.243  -1.704   1.994  1.00  0.00    -0.206 F 
ATOM     76  C   UNL     1     -14.700  -3.309   2.738  1.00  0.00     0.059 A 
ATOM     77  C   UNL     1     -12.726  -2.604   3.963  1.00  0.00     0.059 A 
ATOM     78  F   UNL     1     -12.393  -0.328   4.418  1.00  0.00    -0.206 F 
ATOM     79  C   UNL     1     -13.509  -3.611   3.400  1.00  0.00     0.060 A 
BRANCH  79  80
ATOM     80  S   UNL     1     -12.973  -5.334   3.477  1.00  0.00     0.124 S 
ATOM     81  O   UNL     1     -13.920  -5.894   4.434  1.00  0.00    -0.237 OA
ATOM     82  O   UNL     1     -13.131  -5.765   2.092  1.00  0.00    -0.237 OA
ATOM     83  O   UNL     1     -11.591  -5.234   3.940  1.00  0.00    -0.744 OA
ENDBRANCH  79  80
ENDBRANCH  47  72
BRANCH  59  84
ATOM     84  C   UNL     1     -19.716   2.683   5.805  1.00  0.00     0.058 A 
ATOM     85  C   UNL     1     -19.577   2.358   7.163  1.00  0.00     0.135 A 
ATOM     86  C   UNL     1     -21.012   2.684   5.261  1.00  0.00     0.135 A 
ATOM     87  F   UNL     1     -18.361   2.336   7.732  1.00  0.00    -0.206 F 
ATOM     88  C   UNL     1     -20.677   2.023   7.946  1.00  0.00     0.059 A 
ATOM     89  C   UNL     1     -22.129   2.382   6.033  1.00  0.00     0.059 A 
ATOM     90  F   UNL     1     -21.203   2.998   3.970  1.00  0.00    -0.206 F 
ATOM     91  C   UNL     1     -21.950   2.040   7.372  1.00  0.00     0.060 A 
BRANCH  91  92
ATOM     92  S   UNL     1     -23.372   1.633   8.408  1.00  0.00     0.124 S 
ATOM     93  O   UNL     1     -23.216   0.191   8.566  1.00  0.00    -0.237 OA
ATOM     94  O   UNL     1     -23.126   2.433   9.604  1.00  0.00    -0.237 OA
ATOM     95  O   UNL     1     -24.513   2.056   7.601  1.00  0.00    -0.744 OA
ENDBRANCH  91  92
ENDBRANCH  59  84
ENDBRANCH  33  34
ENDBRANCH  25  28
ENDBRANCH  23  24
ENDBRANCH   1  23
TORSDOF 16
