REMARK SMILES CC(C)[C@H](NC(=O)[C@H](C)NC(=O)CNC(=O)OCc1ccccc1)C(=O)NCCCNC(=O)c1ccc(-c2c3nc(c(-c4c(F)cc(S(=O)(=O)[O-])cc4F)c4ccc([nH]4)c(-c4c(F)cc(S(=O)(=O)[O-])cc4F)c4nc(c(-c5c(F)cc(S(=O)(=O)[O-])cc5F)c5ccc2[nH]5)C=C4)C=C3)cc1
REMARK SMILES IDX 25 1 26 2 27 3 4 5 2 6 1 7 3 8 5 9 6 10 7 12 8 13 9 14 10 15
REMARK SMILES IDX 11 16 12 18 13 19 14 20 15 21 16 23 17 24 18 25 19 26 20 27
REMARK SMILES IDX 24 28 21 29 23 30 22 31 28 32 29 33 30 34 31 35 32 36 33 38
REMARK SMILES IDX 34 39 35 40 99 41 36 42 98 43 37 44 38 45 39 46 92 47 40 48
REMARK SMILES IDX 97 49 91 50 93 51 41 52 96 53 90 54 89 55 42 57 76 58 55 59
REMARK SMILES IDX 75 60 56 61 59 62 74 63 94 64 57 65 58 66 73 68 95 69 60 70
REMARK SMILES IDX 43 71 44 72 53 73 45 74 46 75 52 76 54 77 47 78 48 79 49 80
REMARK SMILES IDX 50 81 51 82 77 83 78 84 87 85 79 86 80 87 86 88 88 89 81 90
REMARK SMILES IDX 82 91 83 92 84 93 85 94 61 95 62 96 71 97 63 98 64 99 70 100
REMARK SMILES IDX 72 101 65 102 66 103 67 104 68 105 69 106
REMARK H PARENT 27 4 5 11 10 17 14 22 31 37 93 56 59 67
REMARK Flexibility Score: inf
ROOT
ATOM      1  C   UNL     1      -3.121  -3.664   0.096  1.00  0.00     0.242 C 
ATOM      2  O   UNL     1      -3.011  -2.615   0.735  1.00  0.00    -0.273 OA
ATOM      3  N   UNL     1      -4.396  -4.153  -0.074  1.00  0.00    -0.354 N 
ATOM      4  H   UNL     1      -4.955  -4.251   0.730  1.00  0.00     0.163 HD
ENDROOT
BRANCH   1   5
ATOM      5  C   UNL     1      -1.883  -4.550  -0.242  1.00  0.00     0.173 C 
BRANCH   5   6
ATOM      6  C   UNL     1      -0.538  -3.910  -0.655  1.00  0.00     0.015 C 
ATOM      7  C   UNL     1      -0.311  -2.445  -0.309  1.00  0.00     0.010 C 
ATOM      8  C   UNL     1       0.655  -4.767  -0.204  1.00  0.00     0.010 C 
ENDBRANCH   5   6
BRANCH   5   9
ATOM      9  N   UNL     1      -2.130  -5.771  -1.012  1.00  0.00    -0.342 N 
ATOM     10  C   UNL     1      -2.122  -6.149  -2.311  1.00  0.00     0.242 C 
ATOM     11  H   UNL     1      -2.365  -6.524  -0.423  1.00  0.00     0.164 HD
ATOM     12  O   UNL     1      -2.253  -7.375  -2.440  1.00  0.00    -0.273 OA
BRANCH  10  13
ATOM     13  C   UNL     1      -2.225  -5.207  -3.569  1.00  0.00     0.168 C 
ATOM     14  C   UNL     1      -2.063  -6.068  -4.840  1.00  0.00     0.041 C 
BRANCH  13  15
ATOM     15  N   UNL     1      -1.388  -4.015  -3.704  1.00  0.00    -0.343 N 
ATOM     16  C   UNL     1      -1.632  -2.673  -3.668  1.00  0.00     0.240 C 
ATOM     17  H   UNL     1      -0.438  -4.228  -3.855  1.00  0.00     0.164 HD
ATOM     18  O   UNL     1      -0.684  -1.933  -3.954  1.00  0.00    -0.273 OA
BRANCH  16  19
ATOM     19  C   UNL     1      -3.005  -2.070  -3.350  1.00  0.00     0.219 C 
BRANCH  19  20
ATOM     20  N   UNL     1      -3.849  -2.082  -4.520  1.00  0.00    -0.312 N 
ATOM     21  C   UNL     1      -5.207  -2.000  -4.601  1.00  0.00     0.407 C 
ATOM     22  H   UNL     1      -3.378  -2.160  -5.381  1.00  0.00     0.167 HD
ATOM     23  O   UNL     1      -5.742  -2.097  -5.689  1.00  0.00    -0.225 OA
BRANCH  21  24
ATOM     24  O   UNL     1      -5.834  -1.866  -3.407  1.00  0.00    -0.445 OA
BRANCH  24  25
ATOM     25  C   UNL     1      -7.186  -2.361  -3.329  1.00  0.00     0.270 C 
BRANCH  25  26
ATOM     26  C   UNL     1      -8.303  -1.731  -4.125  1.00  0.00    -0.011 A 
ATOM     27  C   UNL     1      -8.598  -2.193  -5.419  1.00  0.00     0.007 A 
ATOM     28  C   UNL     1      -9.141  -0.763  -3.559  1.00  0.00     0.007 A 
ATOM     29  C   UNL     1      -9.675  -1.685  -6.143  1.00  0.00     0.000 A 
ATOM     30  C   UNL     1     -10.229  -0.261  -4.280  1.00  0.00     0.000 A 
ATOM     31  C   UNL     1     -10.491  -0.716  -5.572  1.00  0.00     0.000 A 
ENDBRANCH  25  26
ENDBRANCH  24  25
ENDBRANCH  21  24
ENDBRANCH  19  20
ENDBRANCH  16  19
ENDBRANCH  13  15
ENDBRANCH  10  13
ENDBRANCH   5   9
ENDBRANCH   1   5
BRANCH   3  32
ATOM     32  C   UNL     1      -4.979  -4.535  -1.344  1.00  0.00     0.117 C 
BRANCH  32  33
ATOM     33  C   UNL     1      -5.424  -5.980  -1.516  1.00  0.00     0.042 C 
BRANCH  33  34
ATOM     34  C   UNL     1      -6.424  -6.121  -2.670  1.00  0.00     0.118 C 
BRANCH  34  35
ATOM     35  N   UNL     1      -5.968  -5.619  -3.966  1.00  0.00    -0.352 N 
ATOM     36  C   UNL     1      -6.610  -5.564  -5.187  1.00  0.00     0.251 C 
ATOM     37  H   UNL     1      -5.050  -5.262  -3.967  1.00  0.00     0.163 HD
ATOM     38  O   UNL     1      -5.952  -5.275  -6.183  1.00  0.00    -0.269 OA
BRANCH  36  39
ATOM     39  C   UNL     1      -8.042  -5.922  -5.318  1.00  0.00     0.039 A 
ATOM     40  C   UNL     1      -8.463  -6.591  -6.472  1.00  0.00     0.014 A 
ATOM     41  C   UNL     1      -8.955  -5.678  -4.296  1.00  0.00     0.014 A 
ATOM     42  C   UNL     1      -9.728  -7.178  -6.503  1.00  0.00     0.010 A 
ATOM     43  C   UNL     1     -10.158  -6.356  -4.268  1.00  0.00     0.010 A 
ATOM     44  C   UNL     1     -10.526  -7.157  -5.349  1.00  0.00    -0.014 A 
BRANCH  44  45
ATOM     45  C   UNL     1     -11.643  -8.103  -5.159  1.00  0.00     0.031 A 
ATOM     46  C   UNL     1     -13.031  -7.606  -4.899  1.00  0.00     0.074 A 
ATOM     47  C   UNL     1     -11.329  -9.410  -5.048  1.00  0.00     0.049 A 
ATOM     48  N   UNL     1     -14.109  -8.293  -4.635  1.00  0.00    -0.248 NA
ATOM     49  C   UNL     1     -13.229  -6.147  -4.889  1.00  0.00     0.031 C 
ATOM     50  C   UNL     1      -9.971  -9.963  -5.149  1.00  0.00     0.029 A 
ATOM     51  N   UNL     1     -12.108 -10.508  -4.804  1.00  0.00    -0.354 N 
ATOM     52  C   UNL     1     -15.114  -7.356  -4.436  1.00  0.00     0.074 A 
ATOM     53  C   UNL     1     -14.502  -6.049  -4.532  1.00  0.00     0.031 C 
ATOM     54  C   UNL     1     -10.021 -11.295  -5.012  1.00  0.00     0.029 A 
ATOM     55  C   UNL     1     -11.401 -11.689  -4.771  1.00  0.00     0.049 A 
ATOM     56  H   UNL     1     -13.081 -10.459  -4.666  1.00  0.00     0.167 HD
ATOM     57  C   UNL     1     -16.432  -7.578  -4.221  1.00  0.00     0.037 A 
ATOM     58  C   UNL     1     -11.824 -12.949  -4.570  1.00  0.00     0.037 A 
ATOM     59  C   UNL     1     -17.001  -8.897  -4.121  1.00  0.00     0.049 A 
ATOM     60  C   UNL     1     -13.294 -13.170  -4.361  1.00  0.00     0.074 A 
ATOM     61  C   UNL     1     -18.328  -9.256  -3.972  1.00  0.00     0.029 A 
ATOM     62  N   UNL     1     -16.268 -10.078  -4.148  1.00  0.00    -0.354 N 
ATOM     63  N   UNL     1     -14.256 -12.279  -4.293  1.00  0.00    -0.248 NA
ATOM     64  C   UNL     1     -13.742 -14.559  -4.217  1.00  0.00     0.031 C 
ATOM     65  C   UNL     1     -18.391 -10.648  -3.854  1.00  0.00     0.029 A 
ATOM     66  C   UNL     1     -17.111 -11.165  -3.995  1.00  0.00     0.049 A 
ATOM     67  H   UNL     1     -15.291 -10.133  -4.260  1.00  0.00     0.167 HD
ATOM     68  C   UNL     1     -15.431 -13.001  -4.128  1.00  0.00     0.074 A 
ATOM     69  C   UNL     1     -15.056 -14.402  -4.122  1.00  0.00     0.031 C 
ATOM     70  C   UNL     1     -16.703 -12.550  -3.994  1.00  0.00     0.037 A 
BRANCH  57  71
ATOM     71  C   UNL     1     -17.335  -6.379  -4.101  1.00  0.00     0.058 A 
ATOM     72  C   UNL     1     -17.574  -5.526  -5.192  1.00  0.00     0.135 A 
ATOM     73  C   UNL     1     -17.999  -6.093  -2.897  1.00  0.00     0.135 A 
ATOM     74  F   UNL     1     -16.957  -5.739  -6.366  1.00  0.00    -0.206 F 
ATOM     75  C   UNL     1     -18.411  -4.420  -5.086  1.00  0.00     0.059 A 
ATOM     76  C   UNL     1     -18.866  -5.010  -2.777  1.00  0.00     0.059 A 
ATOM     77  F   UNL     1     -17.807  -6.869  -1.818  1.00  0.00    -0.206 F 
ATOM     78  C   UNL     1     -19.055  -4.171  -3.874  1.00  0.00     0.060 A 
BRANCH  78  79
ATOM     79  S   UNL     1     -20.148  -2.739  -3.761  1.00  0.00     0.124 S 
ATOM     80  O   UNL     1     -19.190  -1.637  -3.805  1.00  0.00    -0.237 OA
ATOM     81  O   UNL     1     -20.987  -2.894  -4.945  1.00  0.00    -0.237 OA
ATOM     82  O   UNL     1     -20.827  -2.927  -2.484  1.00  0.00    -0.744 OA
ENDBRANCH  78  79
ENDBRANCH  57  71
BRANCH  58  83
ATOM     83  C   UNL     1     -10.857 -14.078  -4.619  1.00  0.00     0.058 A 
ATOM     84  C   UNL     1     -10.873 -14.993  -5.682  1.00  0.00     0.135 A 
ATOM     85  C   UNL     1      -9.871 -14.244  -3.633  1.00  0.00     0.135 A 
ATOM     86  F   UNL     1     -11.790 -14.874  -6.654  1.00  0.00    -0.206 F 
ATOM     87  C   UNL     1      -9.967 -16.046  -5.755  1.00  0.00     0.059 A 
ATOM     88  C   UNL     1      -8.934 -15.271  -3.698  1.00  0.00     0.059 A 
ATOM     89  F   UNL     1      -9.790 -13.378  -2.610  1.00  0.00    -0.206 F 
ATOM     90  C   UNL     1      -8.999 -16.176  -4.757  1.00  0.00     0.060 A 
BRANCH  90  91
ATOM     91  S   UNL     1      -7.807 -17.527  -4.881  1.00  0.00     0.124 S 
ATOM     92  O   UNL     1      -8.648 -18.686  -4.603  1.00  0.00    -0.237 OA
ATOM     93  O   UNL     1      -7.337 -17.394  -6.256  1.00  0.00    -0.237 OA
ATOM     94  O   UNL     1      -6.822 -17.201  -3.854  1.00  0.00    -0.744 OA
ENDBRANCH  90  91
ENDBRANCH  58  83
BRANCH  70  95
ATOM     95  C   UNL     1     -17.781 -13.587  -3.865  1.00  0.00     0.058 A 
ATOM     96  C   UNL     1     -17.928 -14.359  -2.702  1.00  0.00     0.135 A 
ATOM     97  C   UNL     1     -18.709 -13.774  -4.902  1.00  0.00     0.135 A 
ATOM     98  F   UNL     1     -17.060 -14.224  -1.686  1.00  0.00    -0.206 F 
ATOM     99  C   UNL     1     -18.942 -15.301  -2.583  1.00  0.00     0.059 A 
ATOM    100  C   UNL     1     -19.752 -14.685  -4.790  1.00  0.00     0.059 A 
ATOM    101  F   UNL     1     -18.617 -13.053  -6.031  1.00  0.00    -0.206 F 
ATOM    102  C   UNL     1     -19.853 -15.453  -3.631  1.00  0.00     0.060 A 
BRANCH 102 103
ATOM    103  S   UNL     1     -21.188 -16.651  -3.444  1.00  0.00     0.124 S 
ATOM    104  O   UNL     1     -20.467 -17.914  -3.561  1.00  0.00    -0.237 OA
ATOM    105  O   UNL     1     -21.704 -16.336  -2.116  1.00  0.00    -0.237 OA
ATOM    106  O   UNL     1     -22.085 -16.336  -4.551  1.00  0.00    -0.744 OA
ENDBRANCH 102 103
ENDBRANCH  70  95
ENDBRANCH  44  45
ENDBRANCH  36  39
ENDBRANCH  34  35
ENDBRANCH  33  34
ENDBRANCH  32  33
ENDBRANCH   3  32
TORSDOF 22
