REMARK SMILES CCOc1ccc(CNC(=O)Cc2c(C(=O)NCCCNC(=O)c3ccc(-c4c5nc(c(-c6c(F)cc(S(=O)(=O)[O-])cc6F)c6ccc([nH]6)c(-c6c(F)cc(S(=O)(=O)[O-])cc6F)c6nc(c(-c7c(F)cc(S(=O)(=O)[O-])cc7F)c7ccc4[nH]7)C=C6)C=C5)cc3)c(C)cn2C)cc1
REMARK SMILES IDX 15 1 16 2 17 3 14 5 13 6 93 7 90 8 92 9 94 10 91 11 12 12
REMARK SMILES IDX 10 13 9 14 11 16 8 17 7 18 4 19 5 20 96 21 6 22 95 23 3 24
REMARK SMILES IDX 2 25 1 26 18 27 19 28 20 29 21 30 22 31 23 33 24 34 25 35
REMARK SMILES IDX 89 36 26 37 88 38 27 39 28 40 29 41 82 42 30 43 87 44 81 45
REMARK SMILES IDX 83 46 31 47 86 48 80 49 79 50 32 52 66 53 45 54 65 55 46 56
REMARK SMILES IDX 49 57 64 58 84 59 47 60 48 61 63 63 85 64 50 65 33 66 34 67
REMARK SMILES IDX 43 68 35 69 36 70 42 71 44 72 37 73 38 74 39 75 40 76 41 77
REMARK SMILES IDX 67 78 68 79 77 80 69 81 70 82 76 83 78 84 71 85 72 86 73 87
REMARK SMILES IDX 74 88 75 89 51 90 52 91 61 92 53 93 54 94 60 95 62 96 55 97
REMARK SMILES IDX 56 98 57 99 58 100 59 101
REMARK H PARENT 17 4 9 15 21 32 83 51 49 62
REMARK Flexibility Score: inf
ROOT
ATOM      1  C   UNL     1       4.997  -0.753  -6.954  1.00  0.00     0.253 C 
ATOM      2  O   UNL     1       5.773  -1.491  -7.560  1.00  0.00    -0.269 OA
ATOM      3  N   UNL     1       3.746  -1.258  -6.720  1.00  0.00    -0.352 N 
ATOM      4  H   UNL     1       3.633  -2.190  -7.018  1.00  0.00     0.163 HD
ENDROOT
BRANCH   1   5
ATOM      5  C   UNL     1       5.453   0.565  -6.475  1.00  0.00     0.064 A 
ATOM      6  C   UNL     1       6.757   0.743  -5.971  1.00  0.00     0.040 A 
ATOM      7  N   UNL     1       6.977   2.096  -5.854  1.00  0.00    -0.353 N 
ATOM      8  C   UNL     1       4.842   1.879  -6.456  1.00  0.00    -0.020 A 
ATOM      9  C   UNL     1       5.809   2.769  -6.032  1.00  0.00     0.089 A 
ATOM     10  C   UNL     1       8.255   2.749  -5.662  1.00  0.00     0.149 C 
ATOM     11  C   UNL     1       3.484   2.340  -6.838  1.00  0.00     0.047 C 
BRANCH   6  12
ATOM     12  C   UNL     1       7.867  -0.250  -5.688  1.00  0.00     0.154 C 
BRANCH  12  13
ATOM     13  C   UNL     1       7.436  -1.560  -5.041  1.00  0.00     0.226 C 
ATOM     14  N   UNL     1       6.752  -1.591  -3.862  1.00  0.00    -0.352 N 
ATOM     15  H   UNL     1       6.320  -2.450  -3.653  1.00  0.00     0.163 HD
ATOM     16  O   UNL     1       7.794  -2.645  -5.506  1.00  0.00    -0.275 OA
BRANCH  14  17
ATOM     17  C   UNL     1       6.565  -0.553  -2.873  1.00  0.00     0.151 C 
BRANCH  17  18
ATOM     18  C   UNL     1       5.131  -0.470  -2.416  1.00  0.00    -0.029 A 
ATOM     19  C   UNL     1       2.403  -0.435  -1.758  1.00  0.00     0.119 A 
ATOM     20  C   UNL     1       2.869   0.353  -2.798  1.00  0.00     0.047 A 
ATOM     21  C   UNL     1       3.286  -1.217  -1.019  1.00  0.00     0.047 A 
ATOM     22  C   UNL     1       4.228   0.340  -3.113  1.00  0.00     0.009 A 
ATOM     23  C   UNL     1       4.648  -1.231  -1.343  1.00  0.00     0.009 A 
BRANCH  19  24
ATOM     24  O   UNL     1       1.062  -0.562  -1.541  1.00  0.00    -0.494 OA
BRANCH  24  25
ATOM     25  C   UNL     1       0.506   0.558  -0.850  1.00  0.00     0.226 C 
ATOM     26  C   UNL     1       0.546   0.298   0.645  1.00  0.00     0.049 C 
ENDBRANCH  24  25
ENDBRANCH  19  24
ENDBRANCH  17  18
ENDBRANCH  14  17
ENDBRANCH  12  13
ENDBRANCH   6  12
ENDBRANCH   1   5
BRANCH   3  27
ATOM     27  C   UNL     1       2.560  -0.691  -6.124  1.00  0.00     0.118 C 
BRANCH  27  28
ATOM     28  C   UNL     1       1.561  -0.239  -7.192  1.00  0.00     0.042 C 
BRANCH  28  29
ATOM     29  C   UNL     1       0.555  -1.312  -7.557  1.00  0.00     0.118 C 
BRANCH  29  30
ATOM     30  N   UNL     1      -0.460  -1.488  -6.519  1.00  0.00    -0.352 N 
ATOM     31  C   UNL     1      -1.411  -2.490  -6.431  1.00  0.00     0.251 C 
ATOM     32  H   UNL     1      -0.468  -0.816  -5.799  1.00  0.00     0.163 HD
ATOM     33  O   UNL     1      -2.434  -2.329  -5.793  1.00  0.00    -0.269 OA
BRANCH  31  34
ATOM     34  C   UNL     1      -1.145  -3.747  -7.154  1.00  0.00     0.039 A 
ATOM     35  C   UNL     1      -2.130  -4.342  -7.940  1.00  0.00     0.014 A 
ATOM     36  C   UNL     1       0.150  -4.260  -7.108  1.00  0.00     0.014 A 
ATOM     37  C   UNL     1      -1.764  -5.396  -8.770  1.00  0.00     0.010 A 
ATOM     38  C   UNL     1       0.541  -5.192  -8.038  1.00  0.00     0.010 A 
ATOM     39  C   UNL     1      -0.414  -5.790  -8.851  1.00  0.00    -0.014 A 
BRANCH  39  40
ATOM     40  C   UNL     1       0.013  -6.728  -9.886  1.00  0.00     0.031 A 
ATOM     41  C   UNL     1      -0.474  -6.392 -11.251  1.00  0.00     0.074 A 
ATOM     42  C   UNL     1       0.898  -7.731  -9.700  1.00  0.00     0.049 A 
ATOM     43  N   UNL     1      -1.475  -6.926 -11.867  1.00  0.00    -0.248 NA
ATOM     44  C   UNL     1       0.082  -5.215 -11.937  1.00  0.00     0.031 C 
ATOM     45  C   UNL     1       1.726  -8.025  -8.526  1.00  0.00     0.029 A 
ATOM     46  N   UNL     1       1.300  -8.681 -10.589  1.00  0.00    -0.354 N 
ATOM     47  C   UNL     1      -1.506  -6.339 -13.127  1.00  0.00     0.074 A 
ATOM     48  C   UNL     1      -0.688  -5.158 -13.028  1.00  0.00     0.031 C 
ATOM     49  C   UNL     1       2.677  -8.928  -8.853  1.00  0.00     0.029 A 
ATOM     50  C   UNL     1       2.411  -9.417 -10.193  1.00  0.00     0.049 A 
ATOM     51  H   UNL     1       0.840  -8.834 -11.446  1.00  0.00     0.167 HD
ATOM     52  C   UNL     1      -1.989  -7.026 -14.202  1.00  0.00     0.037 A 
ATOM     53  C   UNL     1       3.063 -10.365 -10.913  1.00  0.00     0.037 A 
ATOM     54  C   UNL     1      -2.709  -8.204 -13.771  1.00  0.00     0.049 A 
ATOM     55  C   UNL     1       2.109 -10.855 -11.941  1.00  0.00     0.074 A 
ATOM     56  C   UNL     1      -3.787  -8.438 -12.938  1.00  0.00     0.029 A 
ATOM     57  N   UNL     1      -2.066  -9.413 -13.895  1.00  0.00    -0.354 N 
ATOM     58  N   UNL     1       1.028 -11.532 -11.665  1.00  0.00    -0.248 NA
ATOM     59  C   UNL     1       2.116 -10.200 -13.239  1.00  0.00     0.031 C 
ATOM     60  C   UNL     1      -3.449  -9.625 -12.223  1.00  0.00     0.029 A 
ATOM     61  C   UNL     1      -2.233 -10.098 -12.719  1.00  0.00     0.049 A 
ATOM     62  H   UNL     1      -1.573  -9.731 -14.686  1.00  0.00     0.167 HD
ATOM     63  C   UNL     1       0.065 -11.025 -12.524  1.00  0.00     0.074 A 
ATOM     64  C   UNL     1       0.816 -10.283 -13.535  1.00  0.00     0.031 C 
ATOM     65  C   UNL     1      -1.256 -11.018 -12.178  1.00  0.00     0.037 A 
BRANCH  52  66
ATOM     66  C   UNL     1      -1.488  -6.882 -15.624  1.00  0.00     0.058 A 
ATOM     67  C   UNL     1      -2.140  -7.600 -16.652  1.00  0.00     0.135 A 
ATOM     68  C   UNL     1      -0.244  -6.318 -15.980  1.00  0.00     0.135 A 
ATOM     69  F   UNL     1      -3.333  -8.177 -16.434  1.00  0.00    -0.206 F 
ATOM     70  C   UNL     1      -1.557  -7.821 -17.900  1.00  0.00     0.059 A 
ATOM     71  C   UNL     1       0.331  -6.480 -17.236  1.00  0.00     0.059 A 
ATOM     72  F   UNL     1       0.526  -5.660 -15.107  1.00  0.00    -0.206 F 
ATOM     73  C   UNL     1      -0.311  -7.269 -18.175  1.00  0.00     0.060 A 
BRANCH  73  74
ATOM     74  S   UNL     1       0.485  -7.626 -19.749  1.00  0.00     0.124 S 
ATOM     75  O   UNL     1       0.806  -9.040 -19.598  1.00  0.00    -0.237 OA
ATOM     76  O   UNL     1      -0.574  -7.307 -20.701  1.00  0.00    -0.237 OA
ATOM     77  O   UNL     1       1.626  -6.715 -19.761  1.00  0.00    -0.744 OA
ENDBRANCH  73  74
ENDBRANCH  52  66
BRANCH  53  78
ATOM     78  C   UNL     1       4.517 -10.665 -10.972  1.00  0.00     0.058 A 
ATOM     79  C   UNL     1       4.992 -11.822 -11.616  1.00  0.00     0.135 A 
ATOM     80  C   UNL     1       5.481  -9.679 -10.678  1.00  0.00     0.135 A 
ATOM     81  F   UNL     1       4.143 -12.810 -11.941  1.00  0.00    -0.206 F 
ATOM     82  C   UNL     1       6.325 -11.963 -12.013  1.00  0.00     0.059 A 
ATOM     83  C   UNL     1       6.818  -9.800 -11.058  1.00  0.00     0.059 A 
ATOM     84  F   UNL     1       5.128  -8.521 -10.101  1.00  0.00    -0.206 F 
ATOM     85  C   UNL     1       7.227 -10.932 -11.754  1.00  0.00     0.060 A 
BRANCH  85  86
ATOM     86  S   UNL     1       8.896 -11.021 -12.449  1.00  0.00     0.124 S 
ATOM     87  O   UNL     1       9.501 -12.081 -11.648  1.00  0.00    -0.237 OA
ATOM     88  O   UNL     1       8.632 -11.351 -13.846  1.00  0.00    -0.237 OA
ATOM     89  O   UNL     1       9.431  -9.682 -12.220  1.00  0.00    -0.744 OA
ENDBRANCH  85  86
ENDBRANCH  53  78
BRANCH  65  90
ATOM     90  C   UNL     1      -1.705 -11.891 -11.033  1.00  0.00     0.058 A 
ATOM     91  C   UNL     1      -1.264 -11.783  -9.702  1.00  0.00     0.135 A 
ATOM     92  C   UNL     1      -2.735 -12.811 -11.290  1.00  0.00     0.135 A 
ATOM     93  F   UNL     1      -0.361 -10.858  -9.343  1.00  0.00    -0.206 F 
ATOM     94  C   UNL     1      -1.784 -12.594  -8.688  1.00  0.00     0.059 A 
ATOM     95  C   UNL     1      -3.292 -13.601 -10.291  1.00  0.00     0.059 A 
ATOM     96  F   UNL     1      -3.244 -12.922 -12.529  1.00  0.00    -0.206 F 
ATOM     97  C   UNL     1      -2.798 -13.503  -8.995  1.00  0.00     0.060 A 
BRANCH  97  98
ATOM     98  S   UNL     1      -3.500 -14.526  -7.683  1.00  0.00     0.124 S 
ATOM     99  O   UNL     1      -2.406 -15.446  -7.391  1.00  0.00    -0.237 OA
ATOM    100  O   UNL     1      -3.801 -13.547  -6.642  1.00  0.00    -0.237 OA
ATOM    101  O   UNL     1      -4.672 -15.132  -8.312  1.00  0.00    -0.744 OA
ENDBRANCH  97  98
ENDBRANCH  65  90
ENDBRANCH  39  40
ENDBRANCH  31  34
ENDBRANCH  29  30
ENDBRANCH  28  29
ENDBRANCH  27  28
ENDBRANCH   3  27
TORSDOF 19
