REMARK SMILES CS(=O)(=O)c1ccc(C2=NN(c3ccc(C(=O)NCCCNC(=O)c4ccc(-c5c6nc(c(-c7c(F)cc(S(=O)(=O)[O-])cc7F)c7ccc([nH]7)c(-c7c(F)cc(S(=O)(=O)[O-])cc7F)c7nc(c(-c8c(F)cc(S(=O)(=O)[O-])cc8F)c8ccc5[nH]8)C=C7)C=C6)cc4)cc3)[C@H](c3ccc(F)cc3)C2)cc1
REMARK SMILES IDX 20 1 19 2 18 3 16 4 17 5 15 7 12 8 13 9 92 10 14 11 91 12
REMARK SMILES IDX 11 13 9 14 10 15 101 16 93 17 8 18 5 19 6 20 103 21 7 22
REMARK SMILES IDX 102 23 2 24 1 25 3 26 4 27 94 28 95 29 100 30 96 31 99 32
REMARK SMILES IDX 97 33 98 34 21 35 22 36 23 37 24 39 25 40 26 41 90 42 27 43
REMARK SMILES IDX 89 44 28 45 29 46 30 47 83 48 31 49 88 50 82 51 84 52 32 53
REMARK SMILES IDX 87 54 81 55 80 56 33 58 67 59 46 60 66 61 47 62 50 63 65 64
REMARK SMILES IDX 85 65 48 66 49 67 64 69 86 70 51 71 34 72 35 73 44 74 36 75
REMARK SMILES IDX 37 76 43 77 45 78 38 79 39 80 40 81 41 82 42 83 68 84 69 85
REMARK SMILES IDX 78 86 70 87 71 88 77 89 79 90 72 91 73 92 74 93 75 94 76 95
REMARK SMILES IDX 52 96 53 97 62 98 54 99 55 100 61 101 63 102 56 103 57 104
REMARK SMILES IDX 58 105 59 106 60 107
REMARK H PARENT 18 6 22 38 84 57 50 68
REMARK Flexibility Score: inf
ROOT
ATOM      1  C   UNL     1       0.172 -15.053  -1.531  1.00  0.00     0.042 C 
ENDROOT
BRANCH   1   2
ATOM      2  C   UNL     1       1.633 -14.706  -1.810  1.00  0.00     0.118 C 
BRANCH   2   3
ATOM      3  N   UNL     1       1.805 -14.111  -3.126  1.00  0.00    -0.352 N 
ATOM      4  C   UNL     1       2.047 -12.812  -3.502  1.00  0.00     0.251 C 
ATOM      5  O   UNL     1       2.307 -12.578  -4.681  1.00  0.00    -0.269 OA
ATOM      6  H   UNL     1       1.737 -14.747  -3.875  1.00  0.00     0.163 HD
BRANCH   4   7
ATOM      7  C   UNL     1       2.070 -11.702  -2.517  1.00  0.00     0.039 A 
ATOM      8  C   UNL     1       2.277  -9.606  -0.648  1.00  0.00     0.060 A 
ATOM      9  C   UNL     1       3.119  -9.645  -1.764  1.00  0.00     0.029 A 
ATOM     10  C   UNL     1       1.285 -10.581  -0.522  1.00  0.00     0.029 A 
ATOM     11  C   UNL     1       3.016 -10.684  -2.695  1.00  0.00     0.016 A 
ATOM     12  C   UNL     1       1.170 -11.611  -1.455  1.00  0.00     0.016 A 
BRANCH   8  13
ATOM     13  N   UNL     1       2.401  -8.640   0.336  1.00  0.00    -0.257 N 
ATOM     14  C   UNL     1       2.358  -6.619   0.979  1.00  0.00     0.071 C 
ATOM     15  N   UNL     1       1.806  -7.442   0.146  1.00  0.00    -0.176 NA
ATOM     16  C   UNL     1       3.487  -7.179   1.801  1.00  0.00     0.091 C 
ATOM     17  C   UNL     1       3.450  -8.654   1.358  1.00  0.00     0.144 C 
BRANCH  14  18
ATOM     18  C   UNL     1       1.901  -5.226   1.109  1.00  0.00    -0.002 A 
ATOM     19  C   UNL     1       0.940  -2.625   1.309  1.00  0.00     0.067 A 
ATOM     20  C   UNL     1       0.040  -3.673   1.110  1.00  0.00     0.021 A 
ATOM     21  C   UNL     1       2.316  -2.868   1.418  1.00  0.00     0.021 A 
ATOM     22  C   UNL     1       0.527  -4.975   0.997  1.00  0.00     0.011 A 
ATOM     23  C   UNL     1       2.799  -4.176   1.319  1.00  0.00     0.011 A 
BRANCH  19  24
ATOM     24  S   UNL     1       0.339  -0.961   1.474  1.00  0.00     0.175 S 
ATOM     25  C   UNL     1       0.868  -0.170  -0.021  1.00  0.00     0.163 C 
ATOM     26  O   UNL     1       1.056  -0.362   2.583  1.00  0.00    -0.224 OA
ATOM     27  O   UNL     1      -1.111  -1.005   1.459  1.00  0.00    -0.224 OA
ENDBRANCH  19  24
ENDBRANCH  14  18
BRANCH  17  28
ATOM     28  C   UNL     1       3.165  -9.722   2.414  1.00  0.00    -0.023 A 
ATOM     29  C   UNL     1       2.589  -9.458   3.668  1.00  0.00     0.009 A 
ATOM     30  C   UNL     1       3.451 -11.069   2.095  1.00  0.00     0.009 A 
ATOM     31  C   UNL     1       2.329 -10.496   4.571  1.00  0.00     0.039 A 
ATOM     32  C   UNL     1       3.164 -12.107   2.984  1.00  0.00     0.039 A 
ATOM     33  C   UNL     1       2.612 -11.809   4.219  1.00  0.00     0.123 A 
ATOM     34  F   UNL     1       2.344 -12.799   5.080  1.00  0.00    -0.207 F 
ENDBRANCH  17  28
ENDBRANCH   8  13
ENDBRANCH   4   7
ENDBRANCH   2   3
ENDBRANCH   1   2
BRANCH   1  35
ATOM     35  C   UNL     1      -0.332 -16.263  -2.311  1.00  0.00     0.118 C 
BRANCH  35  36
ATOM     36  N   UNL     1       0.262 -17.505  -1.839  1.00  0.00    -0.352 N 
ATOM     37  C   UNL     1      -0.338 -18.635  -1.341  1.00  0.00     0.251 C 
ATOM     38  H   UNL     1       1.245 -17.540  -1.884  1.00  0.00     0.163 HD
ATOM     39  O   UNL     1       0.356 -19.489  -0.797  1.00  0.00    -0.269 OA
BRANCH  37  40
ATOM     40  C   UNL     1      -1.804 -18.826  -1.443  1.00  0.00     0.039 A 
ATOM     41  C   UNL     1      -2.482 -19.398  -0.363  1.00  0.00     0.014 A 
ATOM     42  C   UNL     1      -2.504 -18.491  -2.605  1.00  0.00     0.014 A 
ATOM     43  C   UNL     1      -3.866 -19.585  -0.428  1.00  0.00     0.010 A 
ATOM     44  C   UNL     1      -3.893 -18.613  -2.643  1.00  0.00     0.010 A 
ATOM     45  C   UNL     1      -4.588 -19.167  -1.558  1.00  0.00    -0.014 A 
BRANCH  45  46
ATOM     46  C   UNL     1      -6.066 -19.306  -1.623  1.00  0.00     0.031 A 
ATOM     47  C   UNL     1      -6.697 -20.207  -2.651  1.00  0.00     0.074 A 
ATOM     48  C   UNL     1      -6.841 -18.578  -0.795  1.00  0.00     0.049 A 
ATOM     49  N   UNL     1      -7.964 -20.392  -2.921  1.00  0.00    -0.248 NA
ATOM     50  C   UNL     1      -5.783 -20.986  -3.503  1.00  0.00     0.031 C 
ATOM     51  C   UNL     1      -6.349 -17.635   0.213  1.00  0.00     0.029 A 
ATOM     52  N   UNL     1      -8.207 -18.502  -0.679  1.00  0.00    -0.354 N 
ATOM     53  C   UNL     1      -8.000 -21.300  -3.974  1.00  0.00     0.074 A 
ATOM     54  C   UNL     1      -6.627 -21.587  -4.329  1.00  0.00     0.031 C 
ATOM     55  C   UNL     1      -7.395 -17.082   0.847  1.00  0.00     0.029 A 
ATOM     56  C   UNL     1      -8.631 -17.601   0.269  1.00  0.00     0.049 A 
ATOM     57  H   UNL     1      -8.824 -19.041  -1.224  1.00  0.00     0.167 HD
ATOM     58  C   UNL     1      -9.078 -21.863  -4.571  1.00  0.00     0.037 A 
ATOM     59  C   UNL     1      -9.875 -17.222   0.623  1.00  0.00     0.037 A 
ATOM     60  C   UNL     1     -10.442 -21.586  -4.201  1.00  0.00     0.049 A 
ATOM     61  C   UNL     1     -11.056 -17.860  -0.057  1.00  0.00     0.074 A 
ATOM     62  C   UNL     1     -11.603 -22.127  -4.726  1.00  0.00     0.029 A 
ATOM     63  N   UNL     1     -10.829 -20.697  -3.210  1.00  0.00    -0.354 N 
ATOM     64  N   UNL     1     -11.070 -18.750  -1.020  1.00  0.00    -0.248 NA
ATOM     65  C   UNL     1     -12.391 -17.450   0.402  1.00  0.00     0.031 C 
ATOM     66  C   UNL     1     -12.693 -21.540  -4.075  1.00  0.00     0.029 A 
ATOM     67  C   UNL     1     -12.211 -20.667  -3.113  1.00  0.00     0.049 A 
ATOM     68  H   UNL     1     -10.213 -20.164  -2.656  1.00  0.00     0.167 HD
ATOM     69  C   UNL     1     -12.411 -19.025  -1.265  1.00  0.00     0.074 A 
ATOM     70  C   UNL     1     -13.178 -18.219  -0.338  1.00  0.00     0.031 C 
ATOM     71  C   UNL     1     -12.958 -19.868  -2.175  1.00  0.00     0.037 A 
BRANCH  58  72
ATOM     72  C   UNL     1      -8.827 -22.852  -5.677  1.00  0.00     0.058 A 
ATOM     73  C   UNL     1      -8.298 -24.126  -5.412  1.00  0.00     0.135 A 
ATOM     74  C   UNL     1      -9.162 -22.547  -7.006  1.00  0.00     0.135 A 
ATOM     75  F   UNL     1      -7.946 -24.465  -4.161  1.00  0.00    -0.206 F 
ATOM     76  C   UNL     1      -8.090 -25.054  -6.426  1.00  0.00     0.059 A 
ATOM     77  C   UNL     1      -8.986 -23.470  -8.034  1.00  0.00     0.059 A 
ATOM     78  F   UNL     1      -9.670 -21.344  -7.316  1.00  0.00    -0.206 F 
ATOM     79  C   UNL     1      -8.439 -24.717  -7.735  1.00  0.00     0.060 A 
BRANCH  79  80
ATOM     80  S   UNL     1      -8.178 -25.941  -9.037  1.00  0.00     0.124 S 
ATOM     81  O   UNL     1      -6.724 -25.920  -9.169  1.00  0.00    -0.237 OA
ATOM     82  O   UNL     1      -8.742 -27.150  -8.446  1.00  0.00    -0.237 OA
ATOM     83  O   UNL     1      -8.919 -25.396 -10.170  1.00  0.00    -0.744 OA
ENDBRANCH  79  80
ENDBRANCH  58  72
BRANCH  59  84
ATOM     84  C   UNL     1     -10.068 -16.188   1.675  1.00  0.00     0.058 A 
ATOM     85  C   UNL     1     -10.598 -16.520   2.931  1.00  0.00     0.135 A 
ATOM     86  C   UNL     1      -9.729 -14.846   1.444  1.00  0.00     0.135 A 
ATOM     87  F   UNL     1     -10.941 -17.790   3.199  1.00  0.00    -0.206 F 
ATOM     88  C   UNL     1     -10.811 -15.556   3.911  1.00  0.00     0.059 A 
ATOM     89  C   UNL     1      -9.907 -13.868   2.417  1.00  0.00     0.059 A 
ATOM     90  F   UNL     1      -9.200 -14.479   0.266  1.00  0.00    -0.206 F 
ATOM     91  C   UNL     1     -10.463 -14.231   3.643  1.00  0.00     0.060 A 
BRANCH  91  92
ATOM     92  S   UNL     1     -10.716 -12.990   4.931  1.00  0.00     0.124 S 
ATOM     93  O   UNL     1     -12.163 -12.813   4.886  1.00  0.00    -0.237 OA
ATOM     94  O   UNL     1     -10.191 -13.663   6.115  1.00  0.00    -0.237 OA
ATOM     95  O   UNL     1      -9.925 -11.856   4.462  1.00  0.00    -0.744 OA
ENDBRANCH  91  92
ENDBRANCH  59  84
BRANCH  71  96
ATOM     96  C   UNL     1     -14.457 -19.991  -2.191  1.00  0.00     0.058 A 
ATOM     97  C   UNL     1     -15.275 -18.971  -2.699  1.00  0.00     0.135 A 
ATOM     98  C   UNL     1     -15.077 -21.167  -1.738  1.00  0.00     0.135 A 
ATOM     99  F   UNL     1     -14.733 -17.824  -3.138  1.00  0.00    -0.206 F 
ATOM    100  C   UNL     1     -16.660 -19.102  -2.736  1.00  0.00     0.059 A 
ATOM    101  C   UNL     1     -16.457 -21.331  -1.790  1.00  0.00     0.059 A 
ATOM    102  F   UNL     1     -14.338 -22.177  -1.252  1.00  0.00    -0.206 F 
ATOM    103  C   UNL     1     -17.241 -20.287  -2.281  1.00  0.00     0.060 A 
BRANCH 103 104
ATOM    104  S   UNL     1     -19.037 -20.459  -2.367  1.00  0.00     0.124 S 
ATOM    105  O   UNL     1     -19.467 -19.602  -1.268  1.00  0.00    -0.237 OA
ATOM    106  O   UNL     1     -19.334 -19.968  -3.709  1.00  0.00    -0.237 OA
ATOM    107  O   UNL     1     -19.250 -21.890  -2.169  1.00  0.00    -0.744 OA
ENDBRANCH 103 104
ENDBRANCH  71  96
ENDBRANCH  45  46
ENDBRANCH  37  40
ENDBRANCH  35  36
ENDBRANCH   1  35
TORSDOF 17
