REMARK SMILES O=C(NCCCNC(=O)c1c(F)cccc1N1CC[C@@H]([NH+]2CCCCC2)C1)c1ccc(-c2c3nc(c(-c4c(F)cc(S(=O)(=O)[O-])cc4F)c4ccc([nH]4)c(-c4c(F)cc(S(=O)(=O)[O-])cc4F)c4nc(c(-c5c(F)cc(S(=O)(=O)[O-])cc5F)c5ccc2[nH]5)C=C4)C=C3)cc1
REMARK SMILES IDX 4 1 3 2 1 3 2 4 28 6 29 7 93 8 30 9 92 10 31 11 32 12 33 13
REMARK SMILES IDX 86 14 34 15 91 16 85 17 87 18 35 19 90 20 84 21 83 22 36 24
REMARK SMILES IDX 70 25 49 26 69 27 50 28 53 29 68 30 88 31 51 32 52 33 67 35
REMARK SMILES IDX 89 36 54 37 37 38 38 39 47 40 39 41 40 42 46 43 48 44 41 45
REMARK SMILES IDX 42 46 43 47 44 48 45 49 71 50 72 51 81 52 73 53 74 54 80 55
REMARK SMILES IDX 82 56 75 57 76 58 77 59 78 60 79 61 55 62 56 63 65 64 57 65
REMARK SMILES IDX 58 66 64 67 66 68 59 69 60 70 61 71 62 72 63 73 5 74 6 75
REMARK SMILES IDX 7 76 8 77 9 79 10 80 11 81 16 82 12 83 13 84 15 85 14 86
REMARK SMILES IDX 17 87 18 88 27 89 19 90 20 91 21 92 22 93 26 94 23 96 25 97
REMARK SMILES IDX 24 98
REMARK H PARENT 3 5 87 23 53 34 7 78 21 95
REMARK Flexibility Score: inf
ROOT
ATOM      1  C   UNL     1       4.628  -0.681  -1.377  1.00  0.00     0.118 C 
ENDROOT
BRANCH   1   2
ATOM      2  N   UNL     1       3.207  -0.457  -1.140  1.00  0.00    -0.352 N 
ATOM      3  O   UNL     1       1.294  -0.043  -0.045  1.00  0.00    -0.269 OA
ATOM      4  C   UNL     1       2.523  -0.005  -0.036  1.00  0.00     0.251 C 
ATOM      5  H   UNL     1       2.633  -0.666  -1.911  1.00  0.00     0.163 HD
BRANCH   4   6
ATOM      6  C   UNL     1       3.231   0.493   1.166  1.00  0.00     0.039 A 
ATOM      7  C   UNL     1       4.376   1.280   1.068  1.00  0.00     0.014 A 
ATOM      8  C   UNL     1       2.705   0.202   2.432  1.00  0.00     0.014 A 
ATOM      9  C   UNL     1       5.092   1.615   2.214  1.00  0.00     0.010 A 
ATOM     10  C   UNL     1       3.369   0.630   3.588  1.00  0.00     0.010 A 
ATOM     11  C   UNL     1       4.595   1.302   3.490  1.00  0.00    -0.014 A 
BRANCH  11  12
ATOM     12  C   UNL     1       5.362   1.726   4.693  1.00  0.00     0.031 A 
ATOM     13  C   UNL     1       5.944   0.715   5.644  1.00  0.00     0.074 A 
ATOM     14  C   UNL     1       5.592   3.041   4.889  1.00  0.00     0.049 A 
ATOM     15  N   UNL     1       6.695   0.914   6.698  1.00  0.00    -0.248 NA
ATOM     16  C   UNL     1       5.642  -0.702   5.387  1.00  0.00     0.031 C 
ATOM     17  C   UNL     1       5.074   4.118   4.042  1.00  0.00     0.029 A 
ATOM     18  N   UNL     1       6.343   3.694   5.833  1.00  0.00    -0.354 N 
ATOM     19  C   UNL     1       6.949  -0.344   7.233  1.00  0.00     0.074 A 
ATOM     20  C   UNL     1       6.240  -1.299   6.409  1.00  0.00     0.031 C 
ATOM     21  C   UNL     1       5.582   5.287   4.457  1.00  0.00     0.029 A 
ATOM     22  C   UNL     1       6.408   5.054   5.637  1.00  0.00     0.049 A 
ATOM     23  H   UNL     1       6.793   3.234   6.578  1.00  0.00     0.167 HD
ATOM     24  C   UNL     1       7.713  -0.673   8.303  1.00  0.00     0.037 A 
ATOM     25  C   UNL     1       7.056   6.012   6.327  1.00  0.00     0.037 A 
ATOM     26  C   UNL     1       8.423   0.281   9.117  1.00  0.00     0.049 A 
ATOM     27  C   UNL     1       7.878   5.626   7.521  1.00  0.00     0.074 A 
ATOM     28  C   UNL     1       9.226   0.044  10.219  1.00  0.00     0.029 A 
ATOM     29  N   UNL     1       8.419   1.655   8.917  1.00  0.00    -0.354 N 
ATOM     30  N   UNL     1       8.103   4.431   8.011  1.00  0.00    -0.248 NA
ATOM     31  C   UNL     1       8.525   6.716   8.263  1.00  0.00     0.031 C 
ATOM     32  C   UNL     1       9.678   1.275  10.707  1.00  0.00     0.029 A 
ATOM     33  C   UNL     1       9.193   2.278   9.883  1.00  0.00     0.049 A 
ATOM     34  H   UNL     1       7.936   2.119   8.195  1.00  0.00     0.167 HD
ATOM     35  C   UNL     1       8.924   4.622   9.115  1.00  0.00     0.074 A 
ATOM     36  C   UNL     1       9.170   6.047   9.210  1.00  0.00     0.031 C 
ATOM     37  C   UNL     1       9.423   3.699   9.973  1.00  0.00     0.037 A 
BRANCH  24  38
ATOM     38  C   UNL     1       7.818  -2.131   8.663  1.00  0.00     0.058 A 
ATOM     39  C   UNL     1       7.202  -2.629   9.822  1.00  0.00     0.135 A 
ATOM     40  C   UNL     1       8.561  -3.030   7.881  1.00  0.00     0.135 A 
ATOM     41  F   UNL     1       6.477  -1.815  10.606  1.00  0.00    -0.206 F 
ATOM     42  C   UNL     1       7.321  -3.965  10.195  1.00  0.00     0.059 A 
ATOM     43  C   UNL     1       8.673  -4.376   8.222  1.00  0.00     0.059 A 
ATOM     44  F   UNL     1       9.154  -2.612   6.751  1.00  0.00    -0.206 F 
ATOM     45  C   UNL     1       8.057  -4.832   9.386  1.00  0.00     0.060 A 
BRANCH  45  46
ATOM     46  S   UNL     1       8.149  -6.576   9.846  1.00  0.00     0.124 S 
ATOM     47  O   UNL     1       9.057  -6.539  10.986  1.00  0.00    -0.237 OA
ATOM     48  O   UNL     1       6.755  -6.889  10.150  1.00  0.00    -0.237 OA
ATOM     49  O   UNL     1       8.674  -7.214   8.641  1.00  0.00    -0.744 OA
ENDBRANCH  45  46
ENDBRANCH  24  38
BRANCH  25  50
ATOM     50  C   UNL     1       6.961   7.423   5.870  1.00  0.00     0.058 A 
ATOM     51  C   UNL     1       5.756   8.137   5.969  1.00  0.00     0.135 A 
ATOM     52  C   UNL     1       8.048   8.053   5.247  1.00  0.00     0.135 A 
ATOM     53  F   UNL     1       4.685   7.572   6.548  1.00  0.00    -0.206 F 
ATOM     54  C   UNL     1       5.619   9.408   5.426  1.00  0.00     0.059 A 
ATOM     55  C   UNL     1       7.942   9.336   4.718  1.00  0.00     0.059 A 
ATOM     56  F   UNL     1       9.222   7.412   5.141  1.00  0.00    -0.206 F 
ATOM     57  C   UNL     1       6.715   9.994   4.791  1.00  0.00     0.060 A 
BRANCH  57  58
ATOM     58  S   UNL     1       6.500  11.624   4.044  1.00  0.00     0.124 S 
ATOM     59  O   UNL     1       5.645  11.310   2.903  1.00  0.00    -0.237 OA
ATOM     60  O   UNL     1       5.869  12.375   5.124  1.00  0.00    -0.237 OA
ATOM     61  O   UNL     1       7.864  12.026   3.715  1.00  0.00    -0.744 OA
ENDBRANCH  57  58
ENDBRANCH  25  50
BRANCH  37  62
ATOM     62  C   UNL     1      10.295   4.197  11.092  1.00  0.00     0.058 A 
ATOM     63  C   UNL     1      11.678   3.957  11.078  1.00  0.00     0.135 A 
ATOM     64  C   UNL     1       9.753   4.859  12.204  1.00  0.00     0.135 A 
ATOM     65  F   UNL     1      12.245   3.325  10.038  1.00  0.00    -0.206 F 
ATOM     66  C   UNL     1      12.493   4.347  12.135  1.00  0.00     0.059 A 
ATOM     67  C   UNL     1      10.554   5.278  13.263  1.00  0.00     0.059 A 
ATOM     68  F   UNL     1       8.438   5.123  12.258  1.00  0.00    -0.206 F 
ATOM     69  C   UNL     1      11.921   5.004  13.226  1.00  0.00     0.060 A 
BRANCH  69  70
ATOM     70  S   UNL     1      12.996   5.521  14.581  1.00  0.00     0.124 S 
ATOM     71  O   UNL     1      13.297   4.248  15.225  1.00  0.00    -0.237 OA
ATOM     72  O   UNL     1      14.105   6.153  13.872  1.00  0.00    -0.237 OA
ATOM     73  O   UNL     1      12.155   6.433  15.351  1.00  0.00    -0.744 OA
ENDBRANCH  69  70
ENDBRANCH  37  62
ENDBRANCH  11  12
ENDBRANCH   4   6
ENDBRANCH   1   2
BRANCH   1  74
ATOM     74  C   UNL     1       5.007  -2.156  -1.444  1.00  0.00     0.042 C 
BRANCH  74  75
ATOM     75  C   UNL     1       4.336  -2.938  -2.566  1.00  0.00     0.118 C 
BRANCH  75  76
ATOM     76  N   UNL     1       4.616  -2.401  -3.888  1.00  0.00    -0.352 N 
ATOM     77  C   UNL     1       5.312  -2.956  -4.938  1.00  0.00     0.256 C 
ATOM     78  H   UNL     1       4.252  -1.502  -4.059  1.00  0.00     0.163 HD
ATOM     79  O   UNL     1       5.415  -2.327  -5.989  1.00  0.00    -0.269 OA
BRANCH  77  80
ATOM     80  C   UNL     1       5.943  -4.284  -4.798  1.00  0.00     0.098 A 
ATOM     81  C   UNL     1       5.085  -5.376  -4.620  1.00  0.00     0.138 A 
ATOM     82  C   UNL     1       7.333  -4.477  -4.971  1.00  0.00     0.053 A 
ATOM     83  F   UNL     1       3.759  -5.197  -4.507  1.00  0.00    -0.206 F 
ATOM     84  C   UNL     1       5.577  -6.672  -4.542  1.00  0.00     0.040 A 
ATOM     85  C   UNL     1       7.795  -5.807  -4.931  1.00  0.00     0.027 A 
ATOM     86  C   UNL     1       6.938  -6.889  -4.699  1.00  0.00     0.005 A 
BRANCH  82  87
ATOM     87  N   UNL     1       8.247  -3.466  -5.148  1.00  0.00    -0.365 N 
ATOM     88  C   UNL     1       8.303  -2.264  -4.342  1.00  0.00     0.123 C 
ATOM     89  C   UNL     1       9.231  -3.433  -6.234  1.00  0.00     0.181 C 
ATOM     90  C   UNL     1       8.864  -1.226  -5.299  1.00  0.00     0.088 C 
ATOM     91  C   UNL     1       9.842  -1.990  -6.199  1.00  0.00     0.205 C 
BRANCH  91  92
ATOM     92  N   UNL     1      11.285  -1.934  -5.890  1.00  0.00    -0.331 N 
ATOM     93  C   UNL     1      11.733  -2.434  -4.592  1.00  0.00     0.262 C 
ATOM     94  C   UNL     1      11.948  -0.678  -6.257  1.00  0.00     0.262 C 
ATOM     95  H   UNL     1      11.613  -2.652  -6.536  1.00  0.00     0.348 HD
ATOM     96  C   UNL     1      11.707  -1.411  -3.455  1.00  0.00     0.062 C 
ATOM     97  C   UNL     1      11.914   0.415  -5.189  1.00  0.00     0.062 C 
ATOM     98  C   UNL     1      12.381  -0.098  -3.833  1.00  0.00     0.012 C 
ENDBRANCH  91  92
ENDBRANCH  82  87
ENDBRANCH  77  80
ENDBRANCH  75  76
ENDBRANCH  74  75
ENDBRANCH   1  74
TORSDOF 15
