REMARK SMILES COc1ccc([C@H]2[C@H](C(=O)NCCCNC(=O)c3ccc(-c4c5nc(c(-c6c(F)cc(S(=O)(=O)[O-])cc6F)c6ccc([nH]6)c(-c6c(F)cc(S(=O)(=O)[O-])cc6F)c6nc(c(-c7c(F)cc(S(=O)(=O)[O-])cc7F)c7ccc4[nH]7)C=C6)C=C5)cc3)CCN2c2ccc(F)cc2)cc1
REMARK SMILES IDX 13 1 12 2 11 3 9 4 10 5 8 7 7 8 86 9 84 10 85 11 6 12 3 13
REMARK SMILES IDX 4 14 95 15 5 16 94 17 2 18 1 19 87 20 88 21 93 22 89 23
REMARK SMILES IDX 92 24 90 25 91 26 14 27 15 28 16 29 17 31 18 32 19 33 83 34
REMARK SMILES IDX 20 35 82 36 21 37 22 38 23 39 76 40 24 41 81 42 75 43 77 44
REMARK SMILES IDX 25 45 80 46 74 47 73 48 26 50 60 51 39 52 59 53 40 54 43 55
REMARK SMILES IDX 58 56 78 57 41 58 42 59 57 61 79 62 44 63 27 64 28 65 37 66
REMARK SMILES IDX 29 67 30 68 36 69 38 70 31 71 32 72 33 73 34 74 35 75 61 76
REMARK SMILES IDX 62 77 71 78 63 79 64 80 70 81 72 82 65 83 66 84 67 85 68 86
REMARK SMILES IDX 69 87 45 88 46 89 55 90 47 91 48 92 54 93 56 94 49 95 50 96
REMARK SMILES IDX 51 97 52 98 53 99
REMARK H PARENT 11 6 15 30 77 49 43 60
REMARK Flexibility Score: inf
ROOT
ATOM      1  C   UNL     1       5.036  -0.075  -5.176  1.00  0.00     0.042 C 
ENDROOT
BRANCH   1   2
ATOM      2  C   UNL     1       5.516  -1.349  -5.859  1.00  0.00     0.117 C 
BRANCH   2   3
ATOM      3  N   UNL     1       5.000  -2.543  -5.210  1.00  0.00    -0.356 N 
ATOM      4  C   UNL     1       3.914  -3.326  -5.418  1.00  0.00     0.225 C 
ATOM      5  O   UNL     1       3.737  -4.218  -4.575  1.00  0.00    -0.275 OA
ATOM      6  H   UNL     1       5.560  -2.847  -4.459  1.00  0.00     0.163 HD
BRANCH   4   7
ATOM      7  C   UNL     1       2.896  -3.196  -6.548  1.00  0.00     0.107 C 
ATOM      8  C   UNL     1       1.772  -2.196  -6.205  1.00  0.00     0.125 C 
ATOM      9  N   UNL     1       2.230  -0.989  -6.913  1.00  0.00    -0.364 N 
ATOM     10  C   UNL     1       3.374  -2.806  -7.940  1.00  0.00     0.037 C 
ATOM     11  C   UNL     1       2.929  -1.354  -8.146  1.00  0.00     0.118 C 
BRANCH   8  12
ATOM     12  C   UNL     1       0.408  -2.665  -6.744  1.00  0.00    -0.024 A 
ATOM     13  C   UNL     1      -1.982  -3.651  -7.904  1.00  0.00     0.118 A 
ATOM     14  C   UNL     1      -1.301  -4.398  -6.944  1.00  0.00     0.047 A 
ATOM     15  C   UNL     1      -1.528  -2.376  -8.218  1.00  0.00     0.047 A 
ATOM     16  C   UNL     1      -0.119  -3.912  -6.367  1.00  0.00     0.010 A 
ATOM     17  C   UNL     1      -0.353  -1.889  -7.637  1.00  0.00     0.010 A 
BRANCH  13  18
ATOM     18  O   UNL     1      -3.093  -4.234  -8.451  1.00  0.00    -0.497 OA
ATOM     19  C   UNL     1      -3.345  -3.871  -9.807  1.00  0.00     0.278 C 
ENDBRANCH  13  18
ENDBRANCH   8  12
BRANCH   9  20
ATOM     20  C   UNL     1       2.017   0.315  -6.521  1.00  0.00     0.037 A 
ATOM     21  C   UNL     1       2.208   1.386  -7.413  1.00  0.00     0.029 A 
ATOM     22  C   UNL     1       1.666   0.656  -5.202  1.00  0.00     0.029 A 
ATOM     23  C   UNL     1       2.124   2.721  -7.001  1.00  0.00     0.041 A 
ATOM     24  C   UNL     1       1.608   1.988  -4.772  1.00  0.00     0.041 A 
ATOM     25  C   UNL     1       1.849   3.009  -5.676  1.00  0.00     0.123 A 
ATOM     26  F   UNL     1       1.823   4.282  -5.264  1.00  0.00    -0.207 F 
ENDBRANCH   9  20
ENDBRANCH   4   7
ENDBRANCH   2   3
ENDBRANCH   1   2
BRANCH   1  27
ATOM     27  C   UNL     1       5.996   0.496  -4.141  1.00  0.00     0.118 C 
BRANCH  27  28
ATOM     28  N   UNL     1       7.154   1.125  -4.753  1.00  0.00    -0.352 N 
ATOM     29  C   UNL     1       7.583   2.430  -4.776  1.00  0.00     0.251 C 
ATOM     30  H   UNL     1       7.739   0.502  -5.241  1.00  0.00     0.163 HD
ATOM     31  O   UNL     1       8.491   2.715  -5.558  1.00  0.00    -0.269 OA
BRANCH  29  32
ATOM     32  C   UNL     1       7.004   3.494  -3.911  1.00  0.00     0.039 A 
ATOM     33  C   UNL     1       7.065   4.816  -4.372  1.00  0.00     0.014 A 
ATOM     34  C   UNL     1       6.497   3.253  -2.632  1.00  0.00     0.014 A 
ATOM     35  C   UNL     1       6.607   5.870  -3.573  1.00  0.00     0.010 A 
ATOM     36  C   UNL     1       5.952   4.295  -1.873  1.00  0.00     0.010 A 
ATOM     37  C   UNL     1       6.026   5.620  -2.320  1.00  0.00    -0.014 A 
BRANCH  37  38
ATOM     38  C   UNL     1       5.535   6.747  -1.476  1.00  0.00     0.031 A 
ATOM     39  C   UNL     1       6.161   7.042  -0.135  1.00  0.00     0.074 A 
ATOM     40  C   UNL     1       4.518   7.515  -1.918  1.00  0.00     0.049 A 
ATOM     41  N   UNL     1       5.902   8.014   0.704  1.00  0.00    -0.248 NA
ATOM     42  C   UNL     1       7.194   6.108   0.341  1.00  0.00     0.031 C 
ATOM     43  C   UNL     1       3.777   7.299  -3.163  1.00  0.00     0.029 A 
ATOM     44  N   UNL     1       3.940   8.638  -1.379  1.00  0.00    -0.354 N 
ATOM     45  C   UNL     1       6.726   7.803   1.804  1.00  0.00     0.074 A 
ATOM     46  C   UNL     1       7.452   6.578   1.553  1.00  0.00     0.031 C 
ATOM     47  C   UNL     1       2.880   8.286  -3.317  1.00  0.00     0.029 A 
ATOM     48  C   UNL     1       2.961   9.189  -2.173  1.00  0.00     0.049 A 
ATOM     49  H   UNL     1       4.202   9.013  -0.508  1.00  0.00     0.167 HD
ATOM     50  C   UNL     1       6.887   8.571   2.911  1.00  0.00     0.037 A 
ATOM     51  C   UNL     1       2.224  10.305  -2.009  1.00  0.00     0.037 A 
ATOM     52  C   UNL     1       6.185   9.806   3.148  1.00  0.00     0.049 A 
ATOM     53  C   UNL     1       2.455  11.168  -0.800  1.00  0.00     0.074 A 
ATOM     54  C   UNL     1       6.317  10.684   4.210  1.00  0.00     0.029 A 
ATOM     55  N   UNL     1       5.221  10.343   2.307  1.00  0.00    -0.354 N 
ATOM     56  N   UNL     1       3.287  10.986   0.198  1.00  0.00    -0.248 NA
ATOM     57  C   UNL     1       1.656  12.398  -0.702  1.00  0.00     0.031 C 
ATOM     58  C   UNL     1       5.409  11.735   4.028  1.00  0.00     0.029 A 
ATOM     59  C   UNL     1       4.742  11.534   2.830  1.00  0.00     0.049 A 
ATOM     60  H   UNL     1       4.921   9.938   1.461  1.00  0.00     0.167 HD
ATOM     61  C   UNL     1       3.128  12.088   1.031  1.00  0.00     0.074 A 
ATOM     62  C   UNL     1       2.134  12.940   0.410  1.00  0.00     0.031 C 
ATOM     63  C   UNL     1       3.749  12.370   2.204  1.00  0.00     0.037 A 
BRANCH  50  64
ATOM     64  C   UNL     1       7.871   8.096   3.948  1.00  0.00     0.058 A 
ATOM     65  C   UNL     1       9.255   8.110   3.711  1.00  0.00     0.135 A 
ATOM     66  C   UNL     1       7.429   7.641   5.202  1.00  0.00     0.135 A 
ATOM     67  F   UNL     1       9.734   8.522   2.527  1.00  0.00    -0.206 F 
ATOM     68  C   UNL     1      10.163   7.654   4.662  1.00  0.00     0.059 A 
ATOM     69  C   UNL     1       8.321   7.207   6.179  1.00  0.00     0.059 A 
ATOM     70  F   UNL     1       6.118   7.610   5.486  1.00  0.00    -0.206 F 
ATOM     71  C   UNL     1       9.686   7.199   5.892  1.00  0.00     0.060 A 
BRANCH  71  72
ATOM     72  S   UNL     1      10.872   6.599   7.114  1.00  0.00     0.124 S 
ATOM     73  O   UNL     1      11.229   5.296   6.555  1.00  0.00    -0.237 OA
ATOM     74  O   UNL     1      11.921   7.616   7.059  1.00  0.00    -0.237 OA
ATOM     75  O   UNL     1      10.103   6.564   8.349  1.00  0.00    -0.744 OA
ENDBRANCH  71  72
ENDBRANCH  50  64
BRANCH  51  76
ATOM     76  C   UNL     1       1.239  10.697  -3.051  1.00  0.00     0.058 A 
ATOM     77  C   UNL     1       1.484  11.787  -3.901  1.00  0.00     0.135 A 
ATOM     78  C   UNL     1       0.049   9.977  -3.239  1.00  0.00     0.135 A 
ATOM     79  F   UNL     1       2.605  12.510  -3.756  1.00  0.00    -0.206 F 
ATOM     80  C   UNL     1       0.582  12.157  -4.892  1.00  0.00     0.059 A 
ATOM     81  C   UNL     1      -0.858  10.313  -4.240  1.00  0.00     0.059 A 
ATOM     82  F   UNL     1      -0.225   8.918  -2.462  1.00  0.00    -0.206 F 
ATOM     83  C   UNL     1      -0.586  11.410  -5.057  1.00  0.00     0.060 A 
BRANCH  83  84
ATOM     84  S   UNL     1      -1.721  11.858  -6.388  1.00  0.00     0.124 S 
ATOM     85  O   UNL     1      -2.358  13.051  -5.842  1.00  0.00    -0.237 OA
ATOM     86  O   UNL     1      -0.812  12.077  -7.509  1.00  0.00    -0.237 OA
ATOM     87  O   UNL     1      -2.578  10.682  -6.509  1.00  0.00    -0.744 OA
ENDBRANCH  83  84
ENDBRANCH  51  76
BRANCH  63  88
ATOM     88  C   UNL     1       3.386  13.665   2.876  1.00  0.00     0.058 A 
ATOM     89  C   UNL     1       2.142  13.849   3.501  1.00  0.00     0.135 A 
ATOM     90  C   UNL     1       4.296  14.734   2.900  1.00  0.00     0.135 A 
ATOM     91  F   UNL     1       1.235  12.860   3.504  1.00  0.00    -0.206 F 
ATOM     92  C   UNL     1       1.797  15.062   4.088  1.00  0.00     0.059 A 
ATOM     93  C   UNL     1       3.982  15.947   3.506  1.00  0.00     0.059 A 
ATOM     94  F   UNL     1       5.505  14.606   2.331  1.00  0.00    -0.206 F 
ATOM     95  C   UNL     1       2.721  16.108   4.079  1.00  0.00     0.060 A 
BRANCH  95  96
ATOM     96  S   UNL     1       2.262  17.682   4.835  1.00  0.00     0.124 S 
ATOM     97  O   UNL     1       1.398  18.258   3.809  1.00  0.00    -0.237 OA
ATOM     98  O   UNL     1       1.594  17.260   6.062  1.00  0.00    -0.237 OA
ATOM     99  O   UNL     1       3.545  18.353   5.026  1.00  0.00    -0.744 OA
ENDBRANCH  95  96
ENDBRANCH  63  88
ENDBRANCH  37  38
ENDBRANCH  29  32
ENDBRANCH  27  28
ENDBRANCH   1  27
TORSDOF 16
