REMARK SMILES CC(=O)c1nnn(-c2ccc(C(=O)NCCCNC(=O)c3ccc(-c4c5nc(c(-c6c(F)cc(S(=O)(=O)[O-])cc6F)c6ccc([nH]6)c(-c6c(F)cc(S(=O)(=O)[O-])cc6F)c6nc(c(-c7c(F)cc(S(=O)(=O)[O-])cc7F)c7ccc4[nH]7)C=C6)C=C5)cc3)cc2)c1C
REMARK SMILES IDX 16 1 15 2 14 3 12 4 13 5 11 7 8 8 9 9 88 10 10 11 87 12 7 13
REMARK SMILES IDX 4 14 5 15 89 16 6 17 90 18 2 19 1 20 3 21 17 22 18 23 19 24
REMARK SMILES IDX 20 26 21 27 22 28 86 29 23 30 85 31 24 32 25 33 26 34 79 35
REMARK SMILES IDX 27 36 84 37 78 38 80 39 28 40 83 41 77 42 76 43 29 45 63 46
REMARK SMILES IDX 42 47 62 48 43 49 46 50 61 51 81 52 44 53 45 54 60 56 82 57
REMARK SMILES IDX 47 58 30 59 31 60 40 61 32 62 33 63 39 64 41 65 34 66 35 67
REMARK SMILES IDX 36 68 37 69 38 70 64 71 65 72 74 73 66 74 67 75 73 76 75 77
REMARK SMILES IDX 68 78 69 79 70 80 71 81 72 82 48 83 49 84 58 85 50 86 51 87
REMARK SMILES IDX 57 88 59 89 52 90 53 91 54 92 55 93 56 94
REMARK H PARENT 14 6 18 25 80 44 46 55
REMARK Flexibility Score: inf
ROOT
ATOM      1  C   UNL     1       7.754   7.382  -0.017  1.00  0.00     0.042 C 
ENDROOT
BRANCH   1   2
ATOM      2  C   UNL     1       7.893   6.329   1.094  1.00  0.00     0.118 C 
BRANCH   2   3
ATOM      3  N   UNL     1       7.552   6.865   2.405  1.00  0.00    -0.352 N 
ATOM      4  C   UNL     1       6.391   6.838   3.141  1.00  0.00     0.251 C 
ATOM      5  O   UNL     1       6.425   7.269   4.292  1.00  0.00    -0.269 OA
ATOM      6  H   UNL     1       8.294   7.337   2.848  1.00  0.00     0.163 HD
BRANCH   4   7
ATOM      7  C   UNL     1       5.123   6.243   2.632  1.00  0.00     0.039 A 
ATOM      8  C   UNL     1       2.867   4.830   1.796  1.00  0.00     0.067 A 
ATOM      9  C   UNL     1       3.040   5.082   3.156  1.00  0.00     0.029 A 
ATOM     10  C   UNL     1       3.724   5.389   0.851  1.00  0.00     0.029 A 
ATOM     11  C   UNL     1       4.191   5.763   3.570  1.00  0.00     0.016 A 
ATOM     12  C   UNL     1       4.818   6.132   1.275  1.00  0.00     0.016 A 
BRANCH   8  13
ATOM     13  N   UNL     1       1.864   3.953   1.355  1.00  0.00    -0.217 N 
ATOM     14  C   UNL     1       0.724   2.441   0.289  1.00  0.00     0.151 A 
ATOM     15  N   UNL     1      -0.142   3.258   0.971  1.00  0.00    -0.126 NA
ATOM     16  C   UNL     1       2.025   2.834   0.554  1.00  0.00     0.073 A 
ATOM     17  N   UNL     1       0.572   4.106   1.700  1.00  0.00    -0.061 NA
ATOM     18  C   UNL     1       3.346   2.248   0.215  1.00  0.00     0.069 C 
BRANCH  14  19
ATOM     19  C   UNL     1       0.258   1.313  -0.497  1.00  0.00     0.181 C 
ATOM     20  C   UNL     1       0.688  -0.062  -0.052  1.00  0.00     0.095 C 
ATOM     21  O   UNL     1      -0.472   1.458  -1.476  1.00  0.00    -0.293 OA
ENDBRANCH  14  19
ENDBRANCH   8  13
ENDBRANCH   4   7
ENDBRANCH   2   3
ENDBRANCH   1   2
BRANCH   1  22
ATOM     22  C   UNL     1       9.007   8.221  -0.160  1.00  0.00     0.118 C 
BRANCH  22  23
ATOM     23  N   UNL     1      10.117   7.464  -0.749  1.00  0.00    -0.352 N 
ATOM     24  C   UNL     1      11.398   7.900  -1.053  1.00  0.00     0.251 C 
ATOM     25  H   UNL     1       9.928   6.521  -0.955  1.00  0.00     0.163 HD
ATOM     26  O   UNL     1      12.092   7.282  -1.840  1.00  0.00    -0.269 OA
BRANCH  24  27
ATOM     27  C   UNL     1      11.897   9.120  -0.391  1.00  0.00     0.039 A 
ATOM     28  C   UNL     1      12.732  10.041  -1.034  1.00  0.00     0.014 A 
ATOM     29  C   UNL     1      11.480   9.338   0.915  1.00  0.00     0.014 A 
ATOM     30  C   UNL     1      13.088  11.207  -0.356  1.00  0.00     0.010 A 
ATOM     31  C   UNL     1      11.618  10.572   1.471  1.00  0.00     0.010 A 
ATOM     32  C   UNL     1      12.516  11.459   0.898  1.00  0.00    -0.014 A 
BRANCH  32  33
ATOM     33  C   UNL     1      12.736  12.687   1.645  1.00  0.00     0.031 A 
ATOM     34  C   UNL     1      12.185  13.889   0.970  1.00  0.00     0.074 A 
ATOM     35  C   UNL     1      13.083  12.642   2.954  1.00  0.00     0.049 A 
ATOM     36  N   UNL     1      12.837  14.853   0.408  1.00  0.00    -0.248 NA
ATOM     37  C   UNL     1      10.736  13.919   0.689  1.00  0.00     0.031 C 
ATOM     38  C   UNL     1      13.287  11.453   3.797  1.00  0.00     0.029 A 
ATOM     39  N   UNL     1      13.187  13.653   3.856  1.00  0.00    -0.354 N 
ATOM     40  C   UNL     1      11.862  15.750  -0.023  1.00  0.00     0.074 A 
ATOM     41  C   UNL     1      10.642  14.995  -0.094  1.00  0.00     0.031 C 
ATOM     42  C   UNL     1      13.245  11.803   5.102  1.00  0.00     0.029 A 
ATOM     43  C   UNL     1      13.179  13.247   5.193  1.00  0.00     0.049 A 
ATOM     44  H   UNL     1      13.263  14.597   3.589  1.00  0.00     0.167 HD
ATOM     45  C   UNL     1      12.068  17.096   0.045  1.00  0.00     0.037 A 
ATOM     46  C   UNL     1      13.076  14.059   6.279  1.00  0.00     0.037 A 
ATOM     47  C   UNL     1      13.467  17.379   0.280  1.00  0.00     0.049 A 
ATOM     48  C   UNL     1      13.430  15.429   5.814  1.00  0.00     0.074 A 
ATOM     49  C   UNL     1      14.647  17.075  -0.371  1.00  0.00     0.029 A 
ATOM     50  N   UNL     1      13.825  17.734   1.560  1.00  0.00    -0.354 N 
ATOM     51  N   UNL     1      14.618  15.760   5.380  1.00  0.00    -0.248 NA
ATOM     52  C   UNL     1      12.341  16.278   5.354  1.00  0.00     0.031 C 
ATOM     53  C   UNL     1      15.582  16.797   0.669  1.00  0.00     0.029 A 
ATOM     54  C   UNL     1      14.954  17.034   1.894  1.00  0.00     0.049 A 
ATOM     55  H   UNL     1      13.353  18.379   2.135  1.00  0.00     0.167 HD
ATOM     56  C   UNL     1      14.382  16.567   4.275  1.00  0.00     0.074 A 
ATOM     57  C   UNL     1      12.961  16.904   4.349  1.00  0.00     0.031 C 
ATOM     58  C   UNL     1      15.280  16.631   3.246  1.00  0.00     0.037 A 
BRANCH  45  59
ATOM     59  C   UNL     1      10.994  18.129   0.339  1.00  0.00     0.058 A 
ATOM     60  C   UNL     1      11.354  19.494   0.318  1.00  0.00     0.135 A 
ATOM     61  C   UNL     1       9.732  17.852   0.913  1.00  0.00     0.135 A 
ATOM     62  F   UNL     1      12.520  19.886  -0.221  1.00  0.00    -0.206 F 
ATOM     63  C   UNL     1      10.580  20.486   0.920  1.00  0.00     0.059 A 
ATOM     64  C   UNL     1       8.920  18.833   1.470  1.00  0.00     0.059 A 
ATOM     65  F   UNL     1       9.248  16.615   1.050  1.00  0.00    -0.206 F 
ATOM     66  C   UNL     1       9.372  20.139   1.514  1.00  0.00     0.060 A 
BRANCH  66  67
ATOM     67  S   UNL     1       8.421  21.392   2.385  1.00  0.00     0.124 S 
ATOM     68  O   UNL     1       9.282  21.663   3.531  1.00  0.00    -0.237 OA
ATOM     69  O   UNL     1       8.331  22.450   1.385  1.00  0.00    -0.237 OA
ATOM     70  O   UNL     1       7.165  20.711   2.684  1.00  0.00    -0.744 OA
ENDBRANCH  66  67
ENDBRANCH  45  59
BRANCH  46  71
ATOM     71  C   UNL     1      12.354  13.810   7.561  1.00  0.00     0.058 A 
ATOM     72  C   UNL     1      12.527  14.652   8.677  1.00  0.00     0.135 A 
ATOM     73  C   UNL     1      11.264  12.918   7.629  1.00  0.00     0.135 A 
ATOM     74  F   UNL     1      13.527  15.547   8.696  1.00  0.00    -0.206 F 
ATOM     75  C   UNL     1      11.646  14.645   9.768  1.00  0.00     0.059 A 
ATOM     76  C   UNL     1      10.378  12.888   8.707  1.00  0.00     0.059 A 
ATOM     77  F   UNL     1      10.972  12.107   6.601  1.00  0.00    -0.206 F 
ATOM     78  C   UNL     1      10.558  13.773   9.763  1.00  0.00     0.060 A 
BRANCH  78  79
ATOM     79  S   UNL     1       9.318  13.880  11.078  1.00  0.00     0.124 S 
ATOM     80  O   UNL     1      10.055  13.376  12.232  1.00  0.00    -0.237 OA
ATOM     81  O   UNL     1       9.006  15.305  11.095  1.00  0.00    -0.237 OA
ATOM     82  O   UNL     1       8.241  13.016  10.600  1.00  0.00    -0.744 OA
ENDBRANCH  78  79
ENDBRANCH  46  71
BRANCH  58  83
ATOM     83  C   UNL     1      16.660  16.061   3.458  1.00  0.00     0.058 A 
ATOM     84  C   UNL     1      16.947  14.698   3.663  1.00  0.00     0.135 A 
ATOM     85  C   UNL     1      17.752  16.921   3.276  1.00  0.00     0.135 A 
ATOM     86  F   UNL     1      15.965  13.791   3.746  1.00  0.00    -0.206 F 
ATOM     87  C   UNL     1      18.260  14.223   3.719  1.00  0.00     0.059 A 
ATOM     88  C   UNL     1      19.066  16.466   3.296  1.00  0.00     0.059 A 
ATOM     89  F   UNL     1      17.544  18.222   3.014  1.00  0.00    -0.206 F 
ATOM     90  C   UNL     1      19.314  15.116   3.532  1.00  0.00     0.060 A 
BRANCH  90  91
ATOM     91  S   UNL     1      21.011  14.497   3.537  1.00  0.00     0.124 S 
ATOM     92  O   UNL     1      21.205  14.146   4.939  1.00  0.00    -0.237 OA
ATOM     93  O   UNL     1      20.942  13.375   2.605  1.00  0.00    -0.237 OA
ATOM     94  O   UNL     1      21.792  15.639   3.066  1.00  0.00    -0.744 OA
ENDBRANCH  90  91
ENDBRANCH  58  83
ENDBRANCH  32  33
ENDBRANCH  24  27
ENDBRANCH  22  23
ENDBRANCH   1  22
TORSDOF 15
