REMARK SMILES O=C(CCCN1C(=O)c2ccc3c4c(ccc(c24)C1=O)C(=O)NC3=O)NCCCNC(=O)c1ccc(-c2c3nc(c(-c4c(F)cc(S(=O)(=O)[O-])cc4F)c4ccc([nH]4)c(-c4c(F)cc(S(=O)(=O)[O-])cc4F)c4nc(c(-c5c(F)cc(S(=O)(=O)[O-])cc5F)c5ccc2[nH]5)C=C4)C=C3)cc1
REMARK SMILES IDX 28 1 27 2 26 3 1 4 2 5 3 7 4 8 5 9 6 10 19 11 7 12 20 13
REMARK SMILES IDX 17 14 9 15 8 16 16 17 18 18 10 19 15 20 13 21 11 22 14 23
REMARK SMILES IDX 12 24 21 25 24 26 23 27 22 28 25 29 29 31 30 32 31 33 32 35
REMARK SMILES IDX 33 36 34 37 98 38 35 39 97 40 36 41 37 42 38 43 91 44 39 45
REMARK SMILES IDX 96 46 90 47 92 48 40 49 95 50 89 51 88 52 41 54 75 55 54 56
REMARK SMILES IDX 74 57 55 58 58 59 73 60 93 61 56 62 57 63 72 65 94 66 59 67
REMARK SMILES IDX 42 68 43 69 52 70 44 71 45 72 51 73 53 74 46 75 47 76 48 77
REMARK SMILES IDX 49 78 50 79 76 80 77 81 86 82 78 83 79 84 85 85 87 86 80 87
REMARK SMILES IDX 81 88 82 89 83 90 84 91 60 92 61 93 70 94 62 95 63 96 69 97
REMARK SMILES IDX 71 98 64 99 65 100 66 101 67 102 68 103
REMARK H PARENT 26 6 23 30 30 34 92 53 58 64
REMARK Flexibility Score: inf
ROOT
ATOM      1  C   UNL     1       2.465   0.432   3.606  1.00  0.00     0.042 C 
ENDROOT
BRANCH   1   2
ATOM      2  C   UNL     1       2.093   1.141   2.309  1.00  0.00     0.117 C 
BRANCH   2   3
ATOM      3  N   UNL     1       2.672   0.497   1.149  1.00  0.00    -0.356 N 
ATOM      4  O   UNL     1       0.798   0.647  -0.172  1.00  0.00    -0.275 OA
ATOM      5  C   UNL     1       1.966   0.312  -0.015  1.00  0.00     0.220 C 
ATOM      6  H   UNL     1       3.604   0.180   1.196  1.00  0.00     0.163 HD
BRANCH   5   7
ATOM      7  C   UNL     1       2.756  -0.378  -1.101  1.00  0.00     0.102 C 
BRANCH   7   8
ATOM      8  C   UNL     1       3.791   0.525  -1.774  1.00  0.00     0.032 C 
BRANCH   8   9
ATOM      9  C   UNL     1       5.107   0.782  -1.020  1.00  0.00     0.130 C 
BRANCH   9  10
ATOM     10  N   UNL     1       5.848  -0.351  -0.451  1.00  0.00    -0.274 N 
ATOM     11  C   UNL     1       6.868  -0.021   0.453  1.00  0.00     0.261 C 
ATOM     12  C   UNL     1       5.726  -1.625  -0.990  1.00  0.00     0.261 C 
ATOM     13  O   UNL     1       7.107   1.127   0.814  1.00  0.00    -0.269 OA
ATOM     14  C   UNL     1       7.694  -1.133   0.990  1.00  0.00     0.049 A 
ATOM     15  C   UNL     1       6.306  -2.730  -0.204  1.00  0.00     0.049 A 
ATOM     16  O   UNL     1       5.199  -1.895  -2.064  1.00  0.00    -0.269 OA
ATOM     17  C   UNL     1       8.789  -0.869   1.823  1.00  0.00     0.015 A 
ATOM     18  C   UNL     1       7.329  -2.452   0.702  1.00  0.00     0.009 A 
ATOM     19  C   UNL     1       5.868  -4.041  -0.422  1.00  0.00     0.015 A 
ATOM     20  C   UNL     1       9.511  -1.926   2.381  1.00  0.00     0.015 A 
ATOM     21  C   UNL     1       8.013  -3.525   1.317  1.00  0.00     0.009 A 
ATOM     22  C   UNL     1       6.491  -5.097   0.238  1.00  0.00     0.015 A 
ATOM     23  C   UNL     1       9.114  -3.246   2.140  1.00  0.00     0.048 A 
ATOM     24  C   UNL     1       7.580  -4.840   1.078  1.00  0.00     0.048 A 
ATOM     25  C   UNL     1       9.868  -4.371   2.740  1.00  0.00     0.258 C 
ATOM     26  C   UNL     1       8.298  -5.967   1.714  1.00  0.00     0.258 C 
ATOM     27  N   UNL     1       9.381  -5.634   2.490  1.00  0.00    -0.288 N 
ATOM     28  O   UNL     1      10.870  -4.176   3.409  1.00  0.00    -0.269 OA
ATOM     29  O   UNL     1       7.944  -7.126   1.533  1.00  0.00    -0.269 OA
ATOM     30  H   UNL     1       9.862  -6.381   2.914  1.00  0.00     0.173 HD
ENDBRANCH   9  10
ENDBRANCH   8   9
ENDBRANCH   7   8
ENDBRANCH   5   7
ENDBRANCH   2   3
ENDBRANCH   1   2
BRANCH   1  31
ATOM     31  C   UNL     1       3.958   0.413   3.920  1.00  0.00     0.118 C 
BRANCH  31  32
ATOM     32  N   UNL     1       4.525   1.739   4.096  1.00  0.00    -0.352 N 
ATOM     33  C   UNL     1       5.246   2.263   5.141  1.00  0.00     0.251 C 
ATOM     34  H   UNL     1       4.368   2.359   3.348  1.00  0.00     0.163 HD
ATOM     35  O   UNL     1       5.481   3.469   5.159  1.00  0.00    -0.269 OA
BRANCH  33  36
ATOM     36  C   UNL     1       5.719   1.402   6.251  1.00  0.00     0.039 A 
ATOM     37  C   UNL     1       5.675   1.912   7.551  1.00  0.00     0.014 A 
ATOM     38  C   UNL     1       6.232   0.121   6.027  1.00  0.00     0.014 A 
ATOM     39  C   UNL     1       6.091   1.120   8.624  1.00  0.00     0.010 A 
ATOM     40  C   UNL     1       6.564  -0.699   7.106  1.00  0.00     0.010 A 
ATOM     41  C   UNL     1       6.505  -0.208   8.418  1.00  0.00    -0.014 A 
BRANCH  41  42
ATOM     42  C   UNL     1       6.856  -1.076   9.576  1.00  0.00     0.031 A 
ATOM     43  C   UNL     1       8.247  -1.634   9.734  1.00  0.00     0.074 A 
ATOM     44  C   UNL     1       5.906  -1.378  10.484  1.00  0.00     0.049 A 
ATOM     45  N   UNL     1       8.735  -2.370  10.701  1.00  0.00    -0.248 NA
ATOM     46  C   UNL     1       9.209  -1.354   8.656  1.00  0.00     0.031 C 
ATOM     47  C   UNL     1       4.504  -0.959  10.411  1.00  0.00     0.029 A 
ATOM     48  N   UNL     1       5.972  -2.100  11.650  1.00  0.00    -0.354 N 
ATOM     49  C   UNL     1      10.053  -2.640  10.350  1.00  0.00     0.074 A 
ATOM     50  C   UNL     1      10.269  -2.045   9.049  1.00  0.00     0.031 C 
ATOM     51  C   UNL     1       3.856  -1.390  11.504  1.00  0.00     0.029 A 
ATOM     52  C   UNL     1       4.783  -2.147  12.339  1.00  0.00     0.049 A 
ATOM     53  H   UNL     1       6.794  -2.542  11.963  1.00  0.00     0.167 HD
ATOM     54  C   UNL     1      11.005  -3.296  11.057  1.00  0.00     0.037 A 
ATOM     55  C   UNL     1       4.471  -2.726  13.515  1.00  0.00     0.037 A 
ATOM     56  C   UNL     1      10.787  -3.877  12.360  1.00  0.00     0.049 A 
ATOM     57  C   UNL     1       5.548  -3.438  14.288  1.00  0.00     0.074 A 
ATOM     58  C   UNL     1      11.701  -4.515  13.181  1.00  0.00     0.029 A 
ATOM     59  N   UNL     1       9.572  -3.894  13.030  1.00  0.00    -0.354 N 
ATOM     60  N   UNL     1       6.810  -3.615  13.975  1.00  0.00    -0.248 NA
ATOM     61  C   UNL     1       5.163  -4.014  15.583  1.00  0.00     0.031 C 
ATOM     62  C   UNL     1      11.027  -4.966  14.322  1.00  0.00     0.029 A 
ATOM     63  C   UNL     1       9.707  -4.552  14.243  1.00  0.00     0.049 A 
ATOM     64  H   UNL     1       8.737  -3.497  12.693  1.00  0.00     0.167 HD
ATOM     65  C   UNL     1       7.375  -4.299  15.046  1.00  0.00     0.074 A 
ATOM     66  C   UNL     1       6.322  -4.481  16.024  1.00  0.00     0.031 C 
ATOM     67  C   UNL     1       8.650  -4.735  15.207  1.00  0.00     0.037 A 
BRANCH  54  68
ATOM     68  C   UNL     1      12.375  -3.420  10.441  1.00  0.00     0.058 A 
ATOM     69  C   UNL     1      13.212  -2.304  10.272  1.00  0.00     0.135 A 
ATOM     70  C   UNL     1      12.877  -4.674  10.056  1.00  0.00     0.135 A 
ATOM     71  F   UNL     1      12.782  -1.078  10.608  1.00  0.00    -0.206 F 
ATOM     72  C   UNL     1      14.483  -2.422   9.717  1.00  0.00     0.059 A 
ATOM     73  C   UNL     1      14.158  -4.820   9.528  1.00  0.00     0.059 A 
ATOM     74  F   UNL     1      12.124  -5.776  10.196  1.00  0.00    -0.206 F 
ATOM     75  C   UNL     1      14.948  -3.686   9.350  1.00  0.00     0.060 A 
BRANCH  75  76
ATOM     76  S   UNL     1      16.606  -3.822   8.648  1.00  0.00     0.124 S 
ATOM     77  O   UNL     1      16.419  -3.210   7.336  1.00  0.00    -0.237 OA
ATOM     78  O   UNL     1      17.409  -3.054   9.595  1.00  0.00    -0.237 OA
ATOM     79  O   UNL     1      16.856  -5.260   8.639  1.00  0.00    -0.744 OA
ENDBRANCH  75  76
ENDBRANCH  54  68
BRANCH  55  80
ATOM     80  C   UNL     1       3.086  -2.627  14.050  1.00  0.00     0.058 A 
ATOM     81  C   UNL     1       2.801  -1.863  15.192  1.00  0.00     0.135 A 
ATOM     82  C   UNL     1       2.017  -3.288  13.425  1.00  0.00     0.135 A 
ATOM     83  F   UNL     1       3.789  -1.216  15.829  1.00  0.00    -0.206 F 
ATOM     84  C   UNL     1       1.512  -1.774  15.709  1.00  0.00     0.059 A 
ATOM     85  C   UNL     1       0.715  -3.190  13.905  1.00  0.00     0.059 A 
ATOM     86  F   UNL     1       2.231  -4.017  12.318  1.00  0.00    -0.206 F 
ATOM     87  C   UNL     1       0.474  -2.440  15.055  1.00  0.00     0.060 A 
BRANCH  87  88
ATOM     88  S   UNL     1      -1.202  -2.282  15.707  1.00  0.00     0.124 S 
ATOM     89  O   UNL     1      -1.125  -3.092  16.916  1.00  0.00    -0.237 OA
ATOM     90  O   UNL     1      -1.317  -0.841  15.908  1.00  0.00    -0.237 OA
ATOM     91  O   UNL     1      -2.031  -2.825  14.634  1.00  0.00    -0.744 OA
ENDBRANCH  87  88
ENDBRANCH  55  80
BRANCH  67  92
ATOM     92  C   UNL     1       8.981  -5.421  16.507  1.00  0.00     0.058 A 
ATOM     93  C   UNL     1       8.460  -6.684  16.835  1.00  0.00     0.135 A 
ATOM     94  C   UNL     1       9.830  -4.804  17.440  1.00  0.00     0.135 A 
ATOM     95  F   UNL     1       7.642  -7.321  15.982  1.00  0.00    -0.206 F 
ATOM     96  C   UNL     1       8.724  -7.283  18.063  1.00  0.00     0.059 A 
ATOM     97  C   UNL     1      10.137  -5.401  18.658  1.00  0.00     0.059 A 
ATOM     98  F   UNL     1      10.371  -3.604  17.173  1.00  0.00    -0.206 F 
ATOM     99  C   UNL     1       9.558  -6.630  18.972  1.00  0.00     0.060 A 
BRANCH  99 100
ATOM    100  S   UNL     1       9.876  -7.406  20.570  1.00  0.00     0.124 S 
ATOM    101  O   UNL     1       8.607  -7.192  21.257  1.00  0.00    -0.237 OA
ATOM    102  O   UNL     1      10.168  -8.786  20.195  1.00  0.00    -0.237 OA
ATOM    103  O   UNL     1      11.010  -6.652  21.095  1.00  0.00    -0.744 OA
ENDBRANCH  99 100
ENDBRANCH  67  92
ENDBRANCH  41  42
ENDBRANCH  33  36
ENDBRANCH  31  32
ENDBRANCH   1  31
TORSDOF 16
