REMARK SMILES [NH3+][C@]1(C(=O)NCCCNC(=O)c2ccc(-c3c4nc(c(-c5c(F)cc(S(=O)(=O)[O-])cc5F)c5ccc([nH]5)c(-c5c(F)cc(S(=O)(=O)[O-])cc5F)c5nc(c(-c6c(F)cc(S(=O)(=O)[O-])cc6F)c6ccc3[nH]6)C=C5)C=C4)cc2)CCC[C@@H](OC2CCC2)C1
REMARK SMILES IDX 7 1 6 2 5 3 3 4 4 5 2 7 78 8 87 9 79 10 81 11 80 12 1 13
REMARK SMILES IDX 82 17 83 18 84 19 86 20 85 21 8 22 9 23 10 24 11 26 12 27
REMARK SMILES IDX 13 28 77 29 14 30 76 31 15 32 16 33 17 34 70 35 18 36 75 37
REMARK SMILES IDX 69 38 71 39 19 40 74 41 68 42 67 43 20 45 54 46 33 47 53 48
REMARK SMILES IDX 34 49 37 50 52 51 72 52 35 53 36 54 51 56 73 57 38 58 21 59
REMARK SMILES IDX 22 60 31 61 23 62 24 63 30 64 32 65 25 66 26 67 27 68 28 69
REMARK SMILES IDX 29 70 55 71 56 72 65 73 57 74 58 75 64 76 66 77 59 78 60 79
REMARK SMILES IDX 61 80 62 81 63 82 39 83 40 84 49 85 41 86 42 87 48 88 50 89
REMARK SMILES IDX 43 90 44 91 45 92 46 93 47 94
REMARK H PARENT 5 6 1 14 1 15 1 16 9 25 71 44 37 55
REMARK Flexibility Score: inf
ROOT
ATOM      1  C   UNL     1      -1.868   3.397  -2.199  1.00  0.00     0.042 C 
ENDROOT
BRANCH   1   2
ATOM      2  C   UNL     1      -2.828   2.448  -1.480  1.00  0.00     0.118 C 
BRANCH   2   3
ATOM      3  N   UNL     1      -2.631   1.043  -1.776  1.00  0.00    -0.351 N 
ATOM      4  C   UNL     1      -2.094  -0.006  -1.094  1.00  0.00     0.281 C 
ATOM      5  O   UNL     1      -2.379  -1.109  -1.583  1.00  0.00    -0.268 OA
ATOM      6  H   UNL     1      -2.958   0.791  -2.670  1.00  0.00     0.163 HD
BRANCH   4   7
ATOM      7  C   UNL     1      -1.303   0.109   0.276  1.00  0.00     0.176 C 
ATOM      8  C   UNL     1      -0.620  -1.264   0.566  1.00  0.00     0.079 C 
ATOM      9  C   UNL     1      -0.302   1.271   0.399  1.00  0.00     0.111 C 
ATOM     10  C   UNL     1       0.823  -1.270   1.075  1.00  0.00     0.010 C 
ATOM     11  C   UNL     1       1.101   0.992  -0.144  1.00  0.00     0.125 C 
ATOM     12  C   UNL     1       1.760  -0.169   0.581  1.00  0.00     0.032 C 
BRANCH   7  13
ATOM     13  N   UNL     1      -2.354   0.306   1.318  1.00  0.00    -0.345 N 
ATOM     14  H   UNL     1      -3.035  -0.452   1.262  1.00  0.00     0.345 HD
ATOM     15  H   UNL     1      -2.824   1.197   1.162  1.00  0.00     0.345 HD
ATOM     16  H   UNL     1      -1.922   0.306   2.242  1.00  0.00     0.345 HD
ENDBRANCH   7  13
BRANCH  11  17
ATOM     17  O   UNL     1       1.010   1.050  -1.552  1.00  0.00    -0.375 OA
BRANCH  17  18
ATOM     18  C   UNL     1       1.480   0.137  -2.556  1.00  0.00     0.118 C 
ATOM     19  C   UNL     1       1.564  -1.387  -2.398  1.00  0.00     0.032 C 
ATOM     20  C   UNL     1       0.369  -0.075  -3.615  1.00  0.00     0.032 C 
ATOM     21  C   UNL     1       0.370  -1.573  -3.331  1.00  0.00     0.005 C 
ENDBRANCH  17  18
ENDBRANCH  11  17
ENDBRANCH   4   7
ENDBRANCH   2   3
ENDBRANCH   1   2
BRANCH   1  22
ATOM     22  C   UNL     1      -1.873   3.346  -3.724  1.00  0.00     0.118 C 
BRANCH  22  23
ATOM     23  N   UNL     1      -3.162   3.663  -4.318  1.00  0.00    -0.352 N 
ATOM     24  C   UNL     1      -3.619   4.780  -4.965  1.00  0.00     0.251 C 
ATOM     25  H   UNL     1      -3.828   2.942  -4.240  1.00  0.00     0.163 HD
ATOM     26  O   UNL     1      -4.825   4.842  -5.240  1.00  0.00    -0.269 OA
BRANCH  24  27
ATOM     27  C   UNL     1      -2.739   5.918  -5.320  1.00  0.00     0.039 A 
ATOM     28  C   UNL     1      -3.254   7.215  -5.203  1.00  0.00     0.014 A 
ATOM     29  C   UNL     1      -1.453   5.741  -5.835  1.00  0.00     0.014 A 
ATOM     30  C   UNL     1      -2.467   8.323  -5.537  1.00  0.00     0.010 A 
ATOM     31  C   UNL     1      -0.641   6.849  -6.098  1.00  0.00     0.010 A 
ATOM     32  C   UNL     1      -1.137   8.154  -5.953  1.00  0.00    -0.014 A 
BRANCH  32  33
ATOM     33  C   UNL     1      -0.260   9.326  -6.236  1.00  0.00     0.031 A 
ATOM     34  C   UNL     1       0.296   9.551  -7.619  1.00  0.00     0.074 A 
ATOM     35  C   UNL     1       0.082  10.162  -5.235  1.00  0.00     0.049 A 
ATOM     36  N   UNL     1       1.141  10.461  -8.033  1.00  0.00    -0.248 NA
ATOM     37  C   UNL     1      -0.139   8.618  -8.671  1.00  0.00     0.031 C 
ATOM     38  C   UNL     1      -0.360  10.040  -3.844  1.00  0.00     0.029 A 
ATOM     39  N   UNL     1       0.892  11.272  -5.226  1.00  0.00    -0.354 N 
ATOM     40  C   UNL     1       1.347  10.207  -9.384  1.00  0.00     0.074 A 
ATOM     41  C   UNL     1       0.577   9.025  -9.710  1.00  0.00     0.031 C 
ATOM     42  C   UNL     1       0.174  11.037  -3.121  1.00  0.00     0.029 A 
ATOM     43  C   UNL     1       1.031  11.846  -3.983  1.00  0.00     0.049 A 
ATOM     44  H   UNL     1       1.331  11.624  -6.033  1.00  0.00     0.167 HD
ATOM     45  C   UNL     1       2.090  10.905 -10.278  1.00  0.00     0.037 A 
ATOM     46  C   UNL     1       1.777  12.892  -3.575  1.00  0.00     0.037 A 
ATOM     47  C   UNL     1       2.841  12.091  -9.955  1.00  0.00     0.049 A 
ATOM     48  C   UNL     1       2.612  13.639  -4.582  1.00  0.00     0.074 A 
ATOM     49  C   UNL     1       3.594  12.889 -10.800  1.00  0.00     0.029 A 
ATOM     50  N   UNL     1       2.939  12.651  -8.689  1.00  0.00    -0.354 N 
ATOM     51  N   UNL     1       2.754  13.411  -5.866  1.00  0.00    -0.248 NA
ATOM     52  C   UNL     1       3.381  14.790  -4.088  1.00  0.00     0.031 C 
ATOM     53  C   UNL     1       4.183  13.903 -10.038  1.00  0.00     0.029 A 
ATOM     54  C   UNL     1       3.752  13.773  -8.728  1.00  0.00     0.049 A 
ATOM     55  H   UNL     1       2.495  12.303  -7.882  1.00  0.00     0.167 HD
ATOM     56  C   UNL     1       3.601  14.409  -6.338  1.00  0.00     0.074 A 
ATOM     57  C   UNL     1       3.931  15.247  -5.205  1.00  0.00     0.031 C 
ATOM     58  C   UNL     1       4.062  14.612  -7.597  1.00  0.00     0.037 A 
BRANCH  45  59
ATOM     59  C   UNL     1       2.126  10.410 -11.700  1.00  0.00     0.058 A 
ATOM     60  C   UNL     1       1.003  10.499 -12.539  1.00  0.00     0.135 A 
ATOM     61  C   UNL     1       3.311   9.893 -12.249  1.00  0.00     0.135 A 
ATOM     62  F   UNL     1      -0.160  10.974 -12.065  1.00  0.00    -0.206 F 
ATOM     63  C   UNL     1       1.046  10.068 -13.861  1.00  0.00     0.059 A 
ATOM     64  C   UNL     1       3.385   9.484 -13.578  1.00  0.00     0.059 A 
ATOM     65  F   UNL     1       4.416   9.787 -11.495  1.00  0.00    -0.206 F 
ATOM     66  C   UNL     1       2.243   9.564 -14.373  1.00  0.00     0.060 A 
BRANCH  66  67
ATOM     67  S   UNL     1       2.285   9.022 -16.094  1.00  0.00     0.124 S 
ATOM     68  O   UNL     1       1.487   7.799 -16.033  1.00  0.00    -0.237 OA
ATOM     69  O   UNL     1       1.662  10.148 -16.789  1.00  0.00    -0.237 OA
ATOM     70  O   UNL     1       3.703   8.833 -16.360  1.00  0.00    -0.744 OA
ENDBRANCH  66  67
ENDBRANCH  45  59
BRANCH  46  71
ATOM     71  C   UNL     1       1.772  13.299  -2.143  1.00  0.00     0.058 A 
ATOM     72  C   UNL     1       1.198  14.513  -1.734  1.00  0.00     0.135 A 
ATOM     73  C   UNL     1       2.345  12.485  -1.153  1.00  0.00     0.135 A 
ATOM     74  F   UNL     1       0.643  15.331  -2.642  1.00  0.00    -0.206 F 
ATOM     75  C   UNL     1       1.214  14.917  -0.403  1.00  0.00     0.059 A 
ATOM     76  C   UNL     1       2.347  12.853   0.189  1.00  0.00     0.059 A 
ATOM     77  F   UNL     1       2.893  11.306  -1.486  1.00  0.00    -0.206 F 
ATOM     78  C   UNL     1       1.791  14.078   0.552  1.00  0.00     0.060 A 
BRANCH  78  79
ATOM     79  S   UNL     1       1.777  14.594   2.283  1.00  0.00     0.124 S 
ATOM     80  O   UNL     1       2.775  15.659   2.279  1.00  0.00    -0.237 OA
ATOM     81  O   UNL     1       0.391  15.019   2.464  1.00  0.00    -0.237 OA
ATOM     82  O   UNL     1       2.150  13.380   2.998  1.00  0.00    -0.744 OA
ENDBRANCH  78  79
ENDBRANCH  46  71
BRANCH  58  83
ATOM     83  C   UNL     1       4.934  15.815  -7.836  1.00  0.00     0.058 A 
ATOM     84  C   UNL     1       6.255  15.880  -7.368  1.00  0.00     0.135 A 
ATOM     85  C   UNL     1       4.455  16.895  -8.597  1.00  0.00     0.135 A 
ATOM     86  F   UNL     1       6.761  14.879  -6.630  1.00  0.00    -0.206 F 
ATOM     87  C   UNL     1       7.065  16.982  -7.627  1.00  0.00     0.059 A 
ATOM     88  C   UNL     1       5.256  17.994  -8.893  1.00  0.00     0.059 A 
ATOM     89  F   UNL     1       3.202  16.881  -9.077  1.00  0.00    -0.206 F 
ATOM     90  C   UNL     1       6.557  18.033  -8.394  1.00  0.00     0.060 A 
BRANCH  90  91
ATOM     91  S   UNL     1       7.632  19.437  -8.756  1.00  0.00     0.124 S 
ATOM     92  O   UNL     1       7.687  20.107  -7.461  1.00  0.00    -0.237 OA
ATOM     93  O   UNL     1       8.864  18.785  -9.186  1.00  0.00    -0.237 OA
ATOM     94  O   UNL     1       6.912  20.156  -9.804  1.00  0.00    -0.744 OA
ENDBRANCH  90  91
ENDBRANCH  58  83
ENDBRANCH  32  33
ENDBRANCH  24  27
ENDBRANCH  22  23
ENDBRANCH   1  22
TORSDOF 16
