REMARK SMILES Cc1cccc2c(C(=O)NCCCNC(=O)c3ccc(-c4c5nc(c(-c6c(F)cc(S(=O)(=O)[O-])cc6F)c6ccc([nH]6)c(-c6c(F)cc(S(=O)(=O)[O-])cc6F)c6nc(c(-c7c(F)cc(S(=O)(=O)[O-])cc7F)c7ccc4[nH]7)C=C6)C=C5)cc3)cc(=O)[nH]c12
REMARK SMILES IDX 14 1 15 2 16 3 13 5 12 6 11 7 10 8 8 9 9 10 7 12 1 13 2 14
REMARK SMILES IDX 3 15 87 16 4 17 6 18 86 19 5 20 84 21 83 23 85 24 17 25
REMARK SMILES IDX 18 26 82 27 19 28 81 29 20 30 21 31 22 32 75 33 23 34 80 35
REMARK SMILES IDX 74 36 76 37 24 38 79 39 73 40 72 41 25 43 59 44 38 45 58 46
REMARK SMILES IDX 39 47 42 48 57 49 77 50 40 51 41 52 56 54 78 55 43 56 26 57
REMARK SMILES IDX 27 58 36 59 28 60 29 61 35 62 37 63 30 64 31 65 32 66 33 67
REMARK SMILES IDX 34 68 60 69 61 70 70 71 62 72 63 73 69 74 71 75 64 76 65 77
REMARK SMILES IDX 66 78 67 79 68 80 44 81 45 82 54 83 46 84 47 85 53 86 55 87
REMARK SMILES IDX 48 88 49 89 50 90 51 91 52 92
REMARK H PARENT 14 4 10 11 86 22 76 42 42 53
REMARK Flexibility Score: inf
ROOT
ATOM      1  N   UNL     1      -1.319   4.734   9.479  1.00  0.00    -0.352 N 
ATOM      2  C   UNL     1      -1.705   5.781  10.282  1.00  0.00     0.251 C 
ATOM      3  O   UNL     1      -0.856   6.430  10.886  1.00  0.00    -0.269 OA
ATOM      4  H   UNL     1      -0.385   4.446   9.589  1.00  0.00     0.163 HD
ENDROOT
BRANCH   1   5
ATOM      5  C   UNL     1      -2.086   3.984   8.489  1.00  0.00     0.118 C 
BRANCH   5   6
ATOM      6  C   UNL     1      -1.518   4.141   7.080  1.00  0.00     0.042 C 
BRANCH   6   7
ATOM      7  C   UNL     1      -0.148   3.482   6.916  1.00  0.00     0.118 C 
BRANCH   7   8
ATOM      8  N   UNL     1      -0.279   2.035   6.928  1.00  0.00    -0.352 N 
ATOM      9  C   UNL     1      -0.449   1.070   5.985  1.00  0.00     0.252 C 
ATOM     10  O   UNL     1      -0.660  -0.053   6.449  1.00  0.00    -0.269 OA
ATOM     11  H   UNL     1      -0.234   1.663   7.838  1.00  0.00     0.163 HD
BRANCH   9  12
ATOM     12  C   UNL     1      -0.313   1.294   4.498  1.00  0.00     0.054 A 
ATOM     13  C   UNL     1       0.893  -0.206  -0.205  1.00  0.00     0.046 C 
ATOM     14  C   UNL     1       0.545  -0.507   1.227  1.00  0.00    -0.027 A 
ATOM     15  C   UNL     1       0.545  -1.845   1.638  1.00  0.00     0.005 A 
ATOM     16  C   UNL     1       0.258   0.494   2.179  1.00  0.00     0.052 A 
ATOM     17  C   UNL     1       0.264  -2.175   2.957  1.00  0.00     0.001 A 
ATOM     18  C   UNL     1      -0.001   0.185   3.535  1.00  0.00     0.011 A 
ATOM     19  N   UNL     1       0.184   1.830   1.769  1.00  0.00    -0.322 N 
ATOM     20  C   UNL     1       0.007  -1.172   3.893  1.00  0.00     0.011 A 
ATOM     21  C   UNL     1      -0.231   2.846   2.570  1.00  0.00     0.249 A 
ATOM     22  H   UNL     1       0.448   2.047   0.846  1.00  0.00     0.170 HD
ATOM     23  C   UNL     1      -0.539   2.508   3.970  1.00  0.00     0.086 A 
ATOM     24  O   UNL     1      -0.318   3.998   2.172  1.00  0.00    -0.270 OA
ENDBRANCH   9  12
ENDBRANCH   7   8
ENDBRANCH   6   7
ENDBRANCH   5   6
ENDBRANCH   1   5
BRANCH   2  25
ATOM     25  C   UNL     1      -3.136   6.129  10.399  1.00  0.00     0.039 A 
ATOM     26  C   UNL     1      -4.094   5.124  10.532  1.00  0.00     0.014 A 
ATOM     27  C   UNL     1      -3.524   7.471  10.365  1.00  0.00     0.014 A 
ATOM     28  C   UNL     1      -5.442   5.444  10.441  1.00  0.00     0.010 A 
ATOM     29  C   UNL     1      -4.883   7.797  10.377  1.00  0.00     0.010 A 
ATOM     30  C   UNL     1      -5.854   6.784  10.361  1.00  0.00    -0.014 A 
BRANCH  30  31
ATOM     31  C   UNL     1      -7.303   7.093  10.251  1.00  0.00     0.031 A 
ATOM     32  C   UNL     1      -7.853   7.772   9.024  1.00  0.00     0.074 A 
ATOM     33  C   UNL     1      -8.135   6.699  11.235  1.00  0.00     0.049 A 
ATOM     34  N   UNL     1      -9.089   8.098   8.747  1.00  0.00    -0.248 NA
ATOM     35  C   UNL     1      -6.889   8.136   7.973  1.00  0.00     0.031 C 
ATOM     36  C   UNL     1      -7.720   6.013  12.461  1.00  0.00     0.029 A 
ATOM     37  N   UNL     1      -9.498   6.787  11.350  1.00  0.00    -0.354 N 
ATOM     38  C   UNL     1      -9.052   8.716   7.501  1.00  0.00     0.074 A 
ATOM     39  C   UNL     1      -7.664   8.759   7.096  1.00  0.00     0.031 C 
ATOM     40  C   UNL     1      -8.808   5.685  13.171  1.00  0.00     0.029 A 
ATOM     41  C   UNL     1      -9.991   6.204  12.493  1.00  0.00     0.049 A 
ATOM     42  H   UNL     1     -10.069   7.226  10.679  1.00  0.00     0.167 HD
ATOM     43  C   UNL     1     -10.082   9.188   6.757  1.00  0.00     0.037 A 
ATOM     44  C   UNL     1     -11.252   6.107  12.956  1.00  0.00     0.037 A 
ATOM     45  C   UNL     1     -11.462   9.132   7.168  1.00  0.00     0.049 A 
ATOM     46  C   UNL     1     -12.370   6.698  12.148  1.00  0.00     0.074 A 
ATOM     47  C   UNL     1     -12.581   9.577   6.487  1.00  0.00     0.029 A 
ATOM     48  N   UNL     1     -11.912   8.602   8.371  1.00  0.00    -0.354 N 
ATOM     49  N   UNL     1     -12.316   7.283  10.975  1.00  0.00    -0.248 NA
ATOM     50  C   UNL     1     -13.716   6.629  12.729  1.00  0.00     0.031 C 
ATOM     51  C   UNL     1     -13.701   9.365   7.299  1.00  0.00     0.029 A 
ATOM     52  C   UNL     1     -13.289   8.734   8.463  1.00  0.00     0.049 A 
ATOM     53  H   UNL     1     -11.337   8.192   9.057  1.00  0.00     0.167 HD
ATOM     54  C   UNL     1     -13.623   7.644  10.670  1.00  0.00     0.074 A 
ATOM     55  C   UNL     1     -14.446   7.193  11.775  1.00  0.00     0.031 C 
ATOM     56  C   UNL     1     -14.095   8.291   9.575  1.00  0.00     0.037 A 
BRANCH  43  57
ATOM     57  C   UNL     1      -9.750   9.824   5.432  1.00  0.00     0.058 A 
ATOM     58  C   UNL     1      -9.271   9.071   4.348  1.00  0.00     0.135 A 
ATOM     59  C   UNL     1      -9.928  11.204   5.238  1.00  0.00     0.135 A 
ATOM     60  F   UNL     1      -9.068   7.750   4.478  1.00  0.00    -0.206 F 
ATOM     61  C   UNL     1      -8.940   9.668   3.135  1.00  0.00     0.059 A 
ATOM     62  C   UNL     1      -9.633  11.818   4.022  1.00  0.00     0.059 A 
ATOM     63  F   UNL     1     -10.386  11.975   6.237  1.00  0.00    -0.206 F 
ATOM     64  C   UNL     1      -9.121  11.044   2.983  1.00  0.00     0.060 A 
BRANCH  64  65
ATOM     65  S   UNL     1      -8.662  11.804   1.411  1.00  0.00     0.124 S 
ATOM     66  O   UNL     1      -7.207  11.691   1.448  1.00  0.00    -0.237 OA
ATOM     67  O   UNL     1      -9.338  10.948   0.443  1.00  0.00    -0.237 OA
ATOM     68  O   UNL     1      -9.188  13.161   1.521  1.00  0.00    -0.744 OA
ENDBRANCH  64  65
ENDBRANCH  43  57
BRANCH  44  69
ATOM     69  C   UNL     1     -11.501   5.407  14.243  1.00  0.00     0.058 A 
ATOM     70  C   UNL     1     -12.127   4.153  14.269  1.00  0.00     0.135 A 
ATOM     71  C   UNL     1     -11.041   5.935  15.460  1.00  0.00     0.135 A 
ATOM     72  F   UNL     1     -12.592   3.611  13.134  1.00  0.00    -0.206 F 
ATOM     73  C   UNL     1     -12.275   3.440  15.454  1.00  0.00     0.059 A 
ATOM     74  C   UNL     1     -11.153   5.229  16.653  1.00  0.00     0.059 A 
ATOM     75  F   UNL     1     -10.422   7.126  15.486  1.00  0.00    -0.206 F 
ATOM     76  C   UNL     1     -11.769   3.979  16.639  1.00  0.00     0.060 A 
BRANCH  76  77
ATOM     77  S   UNL     1     -11.877   2.995  18.149  1.00  0.00     0.124 S 
ATOM     78  O   UNL     1     -13.313   2.990  18.397  1.00  0.00    -0.237 OA
ATOM     79  O   UNL     1     -11.298   1.724  17.723  1.00  0.00    -0.237 OA
ATOM     80  O   UNL     1     -11.073   3.753  19.104  1.00  0.00    -0.744 OA
ENDBRANCH  76  77
ENDBRANCH  44  69
BRANCH  56  81
ATOM     81  C   UNL     1     -15.575   8.550   9.509  1.00  0.00     0.058 A 
ATOM     82  C   UNL     1     -16.188   9.518  10.320  1.00  0.00     0.135 A 
ATOM     83  C   UNL     1     -16.377   7.873   8.575  1.00  0.00     0.135 A 
ATOM     84  F   UNL     1     -15.470  10.187  11.235  1.00  0.00    -0.206 F 
ATOM     85  C   UNL     1     -17.547   9.795  10.218  1.00  0.00     0.059 A 
ATOM     86  C   UNL     1     -17.732   8.155   8.436  1.00  0.00     0.059 A 
ATOM     87  F   UNL     1     -15.839   6.944   7.769  1.00  0.00    -0.206 F 
ATOM     88  C   UNL     1     -18.310   9.113   9.268  1.00  0.00     0.060 A 
BRANCH  88  89
ATOM     89  S   UNL     1     -20.063   9.519   9.118  1.00  0.00     0.124 S 
ATOM     90  O   UNL     1     -20.597   8.982  10.366  1.00  0.00    -0.237 OA
ATOM     91  O   UNL     1     -20.036  10.974   9.015  1.00  0.00    -0.237 OA
ATOM     92  O   UNL     1     -20.474   8.816   7.907  1.00  0.00    -0.744 OA
ENDBRANCH  88  89
ENDBRANCH  56  81
ENDBRANCH  30  31
ENDBRANCH   2  25
TORSDOF 13
