REMARK SMILES CC(=O)c1ccc(N2CCN(c3ccc(C(=O)NCCCNC(=O)c4ccc(-c5c6nc(c(-c7c(F)cc(S(=O)(=O)[O-])cc7F)c7ccc([nH]7)c(-c7c(F)cc(S(=O)(=O)[O-])cc7F)c7nc(c(-c8c(F)cc(S(=O)(=O)[O-])cc8F)c8ccc5[nH]8)C=C7)C=C6)cc4)cc3NS(=O)(=O)c3ccc(C)cc3)CC2)cc1
REMARK SMILES IDX 20 1 19 2 18 3 16 4 17 5 15 7 12 8 13 9 92 10 14 11 91 12
REMARK SMILES IDX 11 13 8 14 9 15 105 16 10 17 104 18 7 19 4 20 5 21 107 22
REMARK SMILES IDX 6 23 106 24 2 25 1 26 3 27 93 28 94 30 95 31 96 32 97 33
REMARK SMILES IDX 98 34 103 35 99 36 102 37 100 38 101 39 21 40 22 41 23 42
REMARK SMILES IDX 24 44 25 45 26 46 90 47 27 48 89 49 28 50 29 51 30 52 83 53
REMARK SMILES IDX 31 54 88 55 82 56 84 57 32 58 87 59 81 60 80 61 33 63 67 64
REMARK SMILES IDX 46 65 66 66 47 67 50 68 65 69 85 70 48 71 49 72 64 74 86 75
REMARK SMILES IDX 51 76 34 77 35 78 44 79 36 80 37 81 43 82 45 83 38 84 39 85
REMARK SMILES IDX 40 86 41 87 42 88 68 89 69 90 78 91 70 92 71 93 77 94 79 95
REMARK SMILES IDX 72 96 73 97 74 98 75 99 76 100 52 101 53 102 62 103 54 104
REMARK SMILES IDX 55 105 61 106 63 107 56 108 57 109 58 110 59 111 60 112
REMARK H PARENT 18 6 93 29 22 43 84 62 50 73
REMARK Flexibility Score: inf
ROOT
ATOM      1  C   UNL     1       4.287  12.044  -8.491  1.00  0.00     0.042 C 
ENDROOT
BRANCH   1   2
ATOM      2  C   UNL     1       5.171  12.250  -6.505  1.00  0.00     0.118 C 
BRANCH   2   3
ATOM      3  N   UNL     1       5.133  13.408  -5.354  1.00  0.00    -0.352 N 
ATOM      4  C   UNL     1       5.283  13.262  -3.977  1.00  0.00     0.251 C 
ATOM      5  O   UNL     1       5.795  14.144  -3.297  1.00  0.00    -0.269 OA
ATOM      6  H   UNL     1       4.984  14.327  -5.675  1.00  0.00     0.163 HD
BRANCH   4   7
ATOM      7  C   UNL     1       4.808  12.015  -3.341  1.00  0.00     0.042 A 
ATOM      8  C   UNL     1       4.044   9.415  -2.690  1.00  0.00     0.061 A 
ATOM      9  C   UNL     1       5.062  10.059  -1.967  1.00  0.00     0.029 A 
ATOM     10  C   UNL     1       3.409  10.125  -3.718  1.00  0.00     0.073 A 
ATOM     11  C   UNL     1       5.494  11.342  -2.335  1.00  0.00     0.016 A 
ATOM     12  C   UNL     1       3.655  11.466  -3.861  1.00  0.00     0.042 A 
BRANCH   8  13
ATOM     13  N   UNL     1       3.582   8.170  -2.345  1.00  0.00    -0.366 N 
ATOM     14  N   UNL     1       2.169   5.763  -2.237  1.00  0.00    -0.368 N 
ATOM     15  C   UNL     1       1.451   7.001  -1.905  1.00  0.00     0.138 C 
ATOM     16  C   UNL     1       3.299   5.888  -3.181  1.00  0.00     0.138 C 
ATOM     17  C   UNL     1       2.461   8.057  -1.400  1.00  0.00     0.138 C 
ATOM     18  C   UNL     1       4.307   6.945  -2.676  1.00  0.00     0.138 C 
BRANCH  14  19
ATOM     19  C   UNL     1       1.653   4.524  -1.943  1.00  0.00     0.037 A 
ATOM     20  C   UNL     1       0.681   1.954  -1.312  1.00  0.00     0.017 A 
ATOM     21  C   UNL     1      -0.176   2.923  -1.843  1.00  0.00     0.014 A 
ATOM     22  C   UNL     1       2.022   2.268  -1.090  1.00  0.00     0.014 A 
ATOM     23  C   UNL     1       0.307   4.203  -2.137  1.00  0.00     0.026 A 
ATOM     24  C   UNL     1       2.496   3.538  -1.415  1.00  0.00     0.026 A 
BRANCH  20  25
ATOM     25  C   UNL     1       0.140   0.605  -1.002  1.00  0.00     0.159 C 
ATOM     26  C   UNL     1       0.804  -0.198   0.085  1.00  0.00     0.093 C 
ATOM     27  O   UNL     1      -0.846   0.185  -1.601  1.00  0.00    -0.295 OA
ENDBRANCH  20  25
ENDBRANCH  14  19
ENDBRANCH   8  13
BRANCH  10  28
ATOM     28  N   UNL     1       2.603   9.479  -4.726  1.00  0.00    -0.277 N 
ATOM     29  H   UNL     1       1.647   9.294  -4.583  1.00  0.00     0.180 HD
BRANCH  28  30
ATOM     30  S   UNL     1       3.398   9.045  -6.199  1.00  0.00     0.261 S 
ATOM     31  O   UNL     1       4.590   8.296  -5.853  1.00  0.00    -0.201 OA
ATOM     32  O   UNL     1       2.393   8.467  -7.061  1.00  0.00    -0.201 OA
BRANCH  30  33
ATOM     33  C   UNL     1       3.958  10.543  -7.001  1.00  0.00     0.087 A 
ATOM     34  C   UNL     1       5.624  10.566  -7.703  1.00  0.00     0.022 A 
ATOM     35  C   UNL     1       3.063  12.079  -6.747  1.00  0.00     0.022 A 
ATOM     36  C   UNL     1       6.360  12.130  -8.248  1.00  0.00     0.005 A 
ATOM     37  C   UNL     1       3.786  13.640  -7.266  1.00  0.00     0.005 A 
ATOM     38  C   UNL     1       5.468  13.680  -7.957  1.00  0.00    -0.051 A 
ATOM     39  C   UNL     1       6.115  15.008  -8.219  1.00  0.00     0.044 C 
ENDBRANCH  30  33
ENDBRANCH  28  30
ENDBRANCH  10  28
ENDBRANCH   4   7
ENDBRANCH   2   3
ENDBRANCH   1   2
BRANCH   1  40
ATOM     40  C   UNL     1       4.127  13.054  -9.872  1.00  0.00     0.118 C 
BRANCH  40  41
ATOM     41  N   UNL     1       5.240  13.050 -10.823  1.00  0.00    -0.352 N 
ATOM     42  C   UNL     1       5.242  13.522 -12.112  1.00  0.00     0.251 C 
ATOM     43  H   UNL     1       6.086  12.664 -10.501  1.00  0.00     0.163 HD
ATOM     44  O   UNL     1       6.224  13.396 -12.834  1.00  0.00    -0.269 OA
BRANCH  42  45
ATOM     45  C   UNL     1       4.005  14.136 -12.622  1.00  0.00     0.039 A 
ATOM     46  C   UNL     1       3.352  13.534 -13.698  1.00  0.00     0.014 A 
ATOM     47  C   UNL     1       3.461  15.250 -11.978  1.00  0.00     0.014 A 
ATOM     48  C   UNL     1       2.114  14.028 -14.104  1.00  0.00     0.010 A 
ATOM     49  C   UNL     1       2.199  15.699 -12.342  1.00  0.00     0.010 A 
ATOM     50  C   UNL     1       1.522  15.098 -13.415  1.00  0.00    -0.014 A 
BRANCH  50  51
ATOM     51  C   UNL     1       0.205  15.627 -13.836  1.00  0.00     0.031 A 
ATOM     52  C   UNL     1       0.122  17.002 -14.435  1.00  0.00     0.074 A 
ATOM     53  C   UNL     1      -0.901  14.884 -13.639  1.00  0.00     0.049 A 
ATOM     54  N   UNL     1      -0.926  17.654 -14.862  1.00  0.00    -0.248 NA
ATOM     55  C   UNL     1       1.383  17.758 -14.542  1.00  0.00     0.031 C 
ATOM     56  C   UNL     1      -0.932  13.565 -13.002  1.00  0.00     0.029 A 
ATOM     57  N   UNL     1      -2.214  15.133 -13.947  1.00  0.00    -0.354 N 
ATOM     58  C   UNL     1      -0.456  18.896 -15.271  1.00  0.00     0.074 A 
ATOM     59  C   UNL     1       0.961  18.930 -14.993  1.00  0.00     0.031 C 
ATOM     60  C   UNL     1      -2.197  13.113 -12.985  1.00  0.00     0.029 A 
ATOM     61  C   UNL     1      -3.067  14.115 -13.590  1.00  0.00     0.049 A 
ATOM     62  H   UNL     1      -2.517  15.962 -14.383  1.00  0.00     0.167 HD
ATOM     63  C   UNL     1      -1.145  19.905 -15.852  1.00  0.00     0.037 A 
ATOM     64  C   UNL     1      -4.402  14.008 -13.741  1.00  0.00     0.037 A 
ATOM     65  C   UNL     1      -2.549  19.834 -16.157  1.00  0.00     0.049 A 
ATOM     66  C   UNL     1      -5.137  15.125 -14.433  1.00  0.00     0.074 A 
ATOM     67  C   UNL     1      -3.336  20.760 -16.816  1.00  0.00     0.029 A 
ATOM     68  N   UNL     1      -3.374  18.770 -15.822  1.00  0.00    -0.354 N 
ATOM     69  N   UNL     1      -4.663  16.258 -14.899  1.00  0.00    -0.248 NA
ATOM     70  C   UNL     1      -6.581  14.949 -14.635  1.00  0.00     0.031 C 
ATOM     71  C   UNL     1      -4.646  20.273 -16.844  1.00  0.00     0.029 A 
ATOM     72  C   UNL     1      -4.667  19.024 -16.242  1.00  0.00     0.049 A 
ATOM     73  H   UNL     1      -3.082  17.954 -15.354  1.00  0.00     0.167 HD
ATOM     74  C   UNL     1      -5.745  16.920 -15.465  1.00  0.00     0.074 A 
ATOM     75  C   UNL     1      -6.895  16.053 -15.300  1.00  0.00     0.031 C 
ATOM     76  C   UNL     1      -5.789  18.135 -16.065  1.00  0.00     0.037 A 
BRANCH  63  77
ATOM     77  C   UNL     1      -0.391  21.159 -16.199  1.00  0.00     0.058 A 
ATOM     78  C   UNL     1       0.554  21.190 -17.238  1.00  0.00     0.135 A 
ATOM     79  C   UNL     1      -0.636  22.354 -15.504  1.00  0.00     0.135 A 
ATOM     80  F   UNL     1       0.842  20.072 -17.923  1.00  0.00    -0.206 F 
ATOM     81  C   UNL     1       1.248  22.352 -17.557  1.00  0.00     0.059 A 
ATOM     82  C   UNL     1       0.027  23.536 -15.824  1.00  0.00     0.059 A 
ATOM     83  F   UNL     1      -1.525  22.381 -14.498  1.00  0.00    -0.206 F 
ATOM     84  C   UNL     1       0.977  23.521 -16.844  1.00  0.00     0.060 A 
BRANCH  84  85
ATOM     85  S   UNL     1       1.876  25.025 -17.281  1.00  0.00     0.124 S 
ATOM     86  O   UNL     1       3.200  24.741 -16.736  1.00  0.00    -0.237 OA
ATOM     87  O   UNL     1       1.779  25.035 -18.737  1.00  0.00    -0.237 OA
ATOM     88  O   UNL     1       1.129  26.078 -16.599  1.00  0.00    -0.744 OA
ENDBRANCH  84  85
ENDBRANCH  63  77
BRANCH  64  89
ATOM     89  C   UNL     1      -5.115  12.796 -13.256  1.00  0.00     0.058 A 
ATOM     90  C   UNL     1      -5.656  11.863 -14.154  1.00  0.00     0.135 A 
ATOM     91  C   UNL     1      -5.258  12.537 -11.884  1.00  0.00     0.135 A 
ATOM     92  F   UNL     1      -5.547  12.065 -15.476  1.00  0.00    -0.206 F 
ATOM     93  C   UNL     1      -6.330  10.729 -13.711  1.00  0.00     0.059 A 
ATOM     94  C   UNL     1      -5.907  11.398 -11.416  1.00  0.00     0.059 A 
ATOM     95  F   UNL     1      -4.742  13.387 -10.982  1.00  0.00    -0.206 F 
ATOM     96  C   UNL     1      -6.452  10.505 -12.339  1.00  0.00     0.060 A 
BRANCH  96  97
ATOM     97  S   UNL     1      -7.296   9.012 -11.773  1.00  0.00     0.124 S 
ATOM     98  O   UNL     1      -8.691   9.345 -12.040  1.00  0.00    -0.237 OA
ATOM     99  O   UNL     1      -6.710   7.984 -12.627  1.00  0.00    -0.237 OA
ATOM    100  O   UNL     1      -6.924   8.931 -10.363  1.00  0.00    -0.744 OA
ENDBRANCH  96  97
ENDBRANCH  64  89
BRANCH  76 101
ATOM    101  C   UNL     1      -7.116  18.589 -16.601  1.00  0.00     0.058 A 
ATOM    102  C   UNL     1      -8.140  19.025 -15.747  1.00  0.00     0.135 A 
ATOM    103  C   UNL     1      -7.340  18.649 -17.986  1.00  0.00     0.135 A 
ATOM    104  F   UNL     1      -7.974  18.981 -14.416  1.00  0.00    -0.206 F 
ATOM    105  C   UNL     1      -9.351  19.489 -16.248  1.00  0.00     0.059 A 
ATOM    106  C   UNL     1      -8.533  19.134 -18.509  1.00  0.00     0.059 A 
ATOM    107  F   UNL     1      -6.386  18.254 -18.843  1.00  0.00    -0.206 F 
ATOM    108  C   UNL     1      -9.537  19.542 -17.631  1.00  0.00     0.060 A 
BRANCH 108 109
ATOM    109  S   UNL     1     -11.097  20.186 -18.268  1.00  0.00     0.124 S 
ATOM    110  O   UNL     1     -12.001  19.070 -18.011  1.00  0.00    -0.237 OA
ATOM    111  O   UNL     1     -11.306  21.373 -17.446  1.00  0.00    -0.237 OA
ATOM    112  O   UNL     1     -10.806  20.448 -19.675  1.00  0.00    -0.744 OA
ENDBRANCH 108 109
ENDBRANCH  76 101
ENDBRANCH  50  51
ENDBRANCH  42  45
ENDBRANCH  40  41
ENDBRANCH   1  40
TORSDOF 19
