REMARK SMILES C[C@H]1[C@H](C)CC[C@@]2(C(=O)NCCCNC(=O)c3ccc(-c4c5nc(c(-c6c(F)cc(S(=O)(=O)[O-])cc6F)c6ccc([nH]6)c(-c6c(F)cc(S(=O)(=O)[O-])cc6F)c6nc(c(-c7c(F)cc(S(=O)(=O)[O-])cc7F)c7ccc4[nH]7)C=C6)C=C5)cc3)CC[C@@]3(C)C(=CC[C@@H]4[C@@]5(C)CC[C@H](O)C(C)(C)[C@@H]5CC[C@]43C)[C@H]12
REMARK SMILES IDX 13 1 12 2 11 3 10 4 8 5 9 6 7 8 1 9 2 10 3 11 105 12 4 13
REMARK SMILES IDX 5 14 87 15 6 16 83 17 85 18 88 19 84 20 86 21 103 22 89 23
REMARK SMILES IDX 90 24 102 25 104 26 91 27 101 28 92 29 93 30 100 31 94 32
REMARK SMILES IDX 97 33 95 34 98 35 99 36 96 37 14 39 15 40 16 42 17 43 18 44
REMARK SMILES IDX 82 45 19 46 81 47 20 48 21 49 22 50 75 51 23 52 80 53 74 54
REMARK SMILES IDX 76 55 24 56 79 57 73 58 72 59 25 61 59 62 38 63 58 64 39 65
REMARK SMILES IDX 42 66 57 67 77 68 40 69 41 70 56 72 78 73 43 74 26 75 27 76
REMARK SMILES IDX 36 77 28 78 29 79 35 80 37 81 30 82 31 83 32 84 33 85 34 86
REMARK SMILES IDX 60 87 61 88 70 89 62 90 63 91 69 92 71 93 64 94 65 95 66 96
REMARK SMILES IDX 67 97 68 98 44 99 45 100 54 101 46 102 47 103 53 104 55 105
REMARK SMILES IDX 48 106 49 107 50 108 51 109 52 110
REMARK H PARENT 10 7 96 38 14 41 76 60 42 71
REMARK Flexibility Score: inf
ROOT
ATOM      1  C   UNL     1      -2.046  -1.153   0.359  1.00  0.00     0.118 C 
ENDROOT
BRANCH   1   2
ATOM      2  C   UNL     1      -2.272  -1.036   1.867  1.00  0.00     0.042 C 
BRANCH   2   3
ATOM      3  C   UNL     1      -1.342  -0.023   2.531  1.00  0.00     0.117 C 
BRANCH   3   4
ATOM      4  N   UNL     1      -1.581   1.350   2.126  1.00  0.00    -0.356 N 
ATOM      5  C   UNL     1      -0.862   2.498   2.251  1.00  0.00     0.226 C 
ATOM      6  O   UNL     1      -1.564   3.518   2.198  1.00  0.00    -0.274 OA
ATOM      7  H   UNL     1      -2.442   1.476   1.665  1.00  0.00     0.163 HD
BRANCH   5   8
ATOM      8  C   UNL     1       0.703   2.605   2.400  1.00  0.00     0.056 C 
ATOM      9  C   UNL     1       2.527   0.375  -0.314  1.00  0.00     0.008 C 
ATOM     10  C   UNL     1       1.661   0.683   0.923  1.00  0.00    -0.003 C 
ATOM     11  C   UNL     1       2.309   0.037   2.189  1.00  0.00    -0.011 C 
ATOM     12  C   UNL     1       1.493   2.211   1.118  1.00  0.00     0.034 C 
ATOM     13  C   UNL     1       2.302  -1.502   2.141  1.00  0.00     0.008 C 
ATOM     14  C   UNL     1       1.713   0.461   3.542  1.00  0.00     0.005 C 
ATOM     15  C   UNL     1       0.891   3.067  -0.014  1.00  0.00    -0.063 C 
ATOM     16  C   UNL     1       1.195   1.884   3.670  1.00  0.00     0.018 C 
ATOM     17  C   UNL     1       1.055   4.131   2.638  1.00  0.00     0.018 C 
ATOM     18  C   UNL     1       1.241   4.580   0.035  1.00  0.00    -0.006 C 
ATOM     19  C   UNL     1      -0.083   2.583  -0.811  1.00  0.00    -0.027 C 
ATOM     20  C   UNL     1       0.842   5.099   1.458  1.00  0.00     0.013 C 
ATOM     21  C   UNL     1       2.774   4.772  -0.123  1.00  0.00     0.017 C 
ATOM     22  C   UNL     1       0.466   5.412  -1.138  1.00  0.00    -0.020 C 
ATOM     23  C   UNL     1      -1.054   3.437  -1.579  1.00  0.00     0.032 C 
ATOM     24  C   UNL     1      -1.028   4.915  -1.114  1.00  0.00     0.006 C 
ATOM     25  C   UNL     1       0.551   6.947  -0.923  1.00  0.00     0.008 C 
ATOM     26  C   UNL     1       1.131   5.142  -2.524  1.00  0.00     0.012 C 
ATOM     27  C   UNL     1      -2.167   5.845  -1.717  1.00  0.00    -0.025 C 
ATOM     28  C   UNL     1      -0.439   7.739  -1.782  1.00  0.00     0.005 C 
ATOM     29  C   UNL     1      -2.359   5.551  -3.218  1.00  0.00     0.012 C 
ATOM     30  C   UNL     1      -3.504   5.511  -0.976  1.00  0.00     0.010 C 
ATOM     31  C   UNL     1      -1.869   7.354  -1.385  1.00  0.00     0.003 C 
ATOM     32  C   UNL     1      -4.662   6.447  -1.319  1.00  0.00     0.033 C 
ATOM     33  C   UNL     1      -2.988   8.386  -1.795  1.00  0.00    -0.006 C 
ATOM     34  C   UNL     1      -4.324   7.928  -1.135  1.00  0.00     0.120 C 
ATOM     35  C   UNL     1      -3.137   8.601  -3.316  1.00  0.00     0.014 C 
ATOM     36  C   UNL     1      -2.653   9.791  -1.216  1.00  0.00     0.014 C 
BRANCH  34  37
ATOM     37  O   UNL     1      -5.422   8.720  -1.594  1.00  0.00    -0.393 OA
ATOM     38  H   UNL     1      -5.551   8.573  -2.544  1.00  0.00     0.210 HD
ENDBRANCH  34  37
ENDBRANCH   5   8
ENDBRANCH   3   4
ENDBRANCH   2   3
ENDBRANCH   1   2
BRANCH   1  39
ATOM     39  N   UNL     1      -1.000  -2.097  -0.032  1.00  0.00    -0.352 N 
ATOM     40  C   UNL     1      -0.982  -3.467  -0.169  1.00  0.00     0.251 C 
ATOM     41  H   UNL     1      -0.138  -1.669  -0.239  1.00  0.00     0.163 HD
ATOM     42  O   UNL     1       0.077  -4.017  -0.474  1.00  0.00    -0.269 OA
BRANCH  40  43
ATOM     43  C   UNL     1      -2.179  -4.296   0.110  1.00  0.00     0.039 A 
ATOM     44  C   UNL     1      -2.018  -5.533   0.748  1.00  0.00     0.014 A 
ATOM     45  C   UNL     1      -3.459  -3.881  -0.238  1.00  0.00     0.014 A 
ATOM     46  C   UNL     1      -3.140  -6.276   1.136  1.00  0.00     0.010 A 
ATOM     47  C   UNL     1      -4.571  -4.547   0.266  1.00  0.00     0.010 A 
ATOM     48  C   UNL     1      -4.431  -5.753   0.967  1.00  0.00    -0.014 A 
BRANCH  48  49
ATOM     49  C   UNL     1      -5.651  -6.422   1.504  1.00  0.00     0.031 A 
ATOM     50  C   UNL     1      -6.822  -6.704   0.594  1.00  0.00     0.074 A 
ATOM     51  C   UNL     1      -5.763  -6.656   2.829  1.00  0.00     0.049 A 
ATOM     52  N   UNL     1      -8.042  -7.067   0.898  1.00  0.00    -0.248 NA
ATOM     53  C   UNL     1      -6.609  -6.488  -0.847  1.00  0.00     0.031 C 
ATOM     54  C   UNL     1      -4.740  -6.363   3.837  1.00  0.00     0.029 A 
ATOM     55  N   UNL     1      -6.801  -7.179   3.563  1.00  0.00    -0.354 N 
ATOM     56  C   UNL     1      -8.750  -7.061  -0.300  1.00  0.00     0.074 A 
ATOM     57  C   UNL     1      -7.839  -6.604  -1.325  1.00  0.00     0.031 C 
ATOM     58  C   UNL     1      -5.184  -6.743   5.045  1.00  0.00     0.029 A 
ATOM     59  C   UNL     1      -6.541  -7.258   4.912  1.00  0.00     0.049 A 
ATOM     60  H   UNL     1      -7.651  -7.470   3.161  1.00  0.00     0.167 HD
ATOM     61  C   UNL     1     -10.032  -7.433  -0.533  1.00  0.00     0.037 A 
ATOM     62  C   UNL     1      -7.311  -7.690   5.930  1.00  0.00     0.037 A 
ATOM     63  C   UNL     1     -10.904  -7.976   0.475  1.00  0.00     0.049 A 
ATOM     64  C   UNL     1      -8.702  -8.182   5.635  1.00  0.00     0.074 A 
ATOM     65  C   UNL     1     -12.188  -8.470   0.330  1.00  0.00     0.029 A 
ATOM     66  N   UNL     1     -10.569  -8.121   1.814  1.00  0.00    -0.354 N 
ATOM     67  N   UNL     1      -9.339  -8.209   4.489  1.00  0.00    -0.248 NA
ATOM     68  C   UNL     1      -9.476  -8.709   6.767  1.00  0.00     0.031 C 
ATOM     69  C   UNL     1     -12.637  -8.896   1.585  1.00  0.00     0.029 A 
ATOM     70  C   UNL     1     -11.619  -8.700   2.504  1.00  0.00     0.049 A 
ATOM     71  H   UNL     1      -9.710  -7.851   2.213  1.00  0.00     0.167 HD
ATOM     72  C   UNL     1     -10.577  -8.781   4.756  1.00  0.00     0.074 A 
ATOM     73  C   UNL     1     -10.596  -9.095   6.171  1.00  0.00     0.031 C 
ATOM     74  C   UNL     1     -11.607  -9.024   3.909  1.00  0.00     0.037 A 
BRANCH  61  75
ATOM     75  C   UNL     1     -10.557  -7.294  -1.938  1.00  0.00     0.058 A 
ATOM     76  C   UNL     1     -10.083  -8.100  -2.986  1.00  0.00     0.135 A 
ATOM     77  C   UNL     1     -11.557  -6.355  -2.240  1.00  0.00     0.135 A 
ATOM     78  F   UNL     1      -9.119  -9.007  -2.759  1.00  0.00    -0.206 F 
ATOM     79  C   UNL     1     -10.545  -7.949  -4.289  1.00  0.00     0.059 A 
ATOM     80  C   UNL     1     -12.059  -6.209  -3.531  1.00  0.00     0.059 A 
ATOM     81  F   UNL     1     -12.053  -5.561  -1.278  1.00  0.00    -0.206 F 
ATOM     82  C   UNL     1     -11.530  -6.997  -4.553  1.00  0.00     0.060 A 
BRANCH  82  83
ATOM     83  S   UNL     1     -12.112  -6.806  -6.252  1.00  0.00     0.124 S 
ATOM     84  O   UNL     1     -10.996  -6.088  -6.860  1.00  0.00    -0.237 OA
ATOM     85  O   UNL     1     -12.283  -8.190  -6.682  1.00  0.00    -0.237 OA
ATOM     86  O   UNL     1     -13.346  -6.041  -6.104  1.00  0.00    -0.744 OA
ENDBRANCH  82  83
ENDBRANCH  61  75
BRANCH  62  87
ATOM     87  C   UNL     1      -6.769  -7.720   7.315  1.00  0.00     0.058 A 
ATOM     88  C   UNL     1      -6.444  -8.939   7.929  1.00  0.00     0.135 A 
ATOM     89  C   UNL     1      -6.545  -6.542   8.045  1.00  0.00     0.135 A 
ATOM     90  F   UNL     1      -6.643 -10.093   7.273  1.00  0.00    -0.206 F 
ATOM     91  C   UNL     1      -5.934  -8.994   9.222  1.00  0.00     0.059 A 
ATOM     92  C   UNL     1      -6.013  -6.570   9.332  1.00  0.00     0.059 A 
ATOM     93  F   UNL     1      -6.818  -5.348   7.496  1.00  0.00    -0.206 F 
ATOM     94  C   UNL     1      -5.721  -7.802   9.915  1.00  0.00     0.060 A 
BRANCH  94  95
ATOM     95  S   UNL     1      -5.011  -7.882  11.575  1.00  0.00     0.124 S 
ATOM     96  O   UNL     1      -6.146  -8.355  12.357  1.00  0.00    -0.237 OA
ATOM     97  O   UNL     1      -3.917  -8.832  11.396  1.00  0.00    -0.237 OA
ATOM     98  O   UNL     1      -4.597  -6.505  11.828  1.00  0.00    -0.744 OA
ENDBRANCH  94  95
ENDBRANCH  62  87
BRANCH  74  99
ATOM     99  C   UNL     1     -12.822  -9.701   4.475  1.00  0.00     0.058 A 
ATOM    100  C   UNL     1     -13.735  -9.017   5.290  1.00  0.00     0.135 A 
ATOM    101  C   UNL     1     -13.104 -11.037   4.146  1.00  0.00     0.135 A 
ATOM    102  F   UNL     1     -13.506  -7.741   5.638  1.00  0.00    -0.206 F 
ATOM    103  C   UNL     1     -14.879  -9.640   5.778  1.00  0.00     0.059 A 
ATOM    104  C   UNL     1     -14.254 -11.672   4.602  1.00  0.00     0.059 A 
ATOM    105  F   UNL     1     -12.266 -11.732   3.360  1.00  0.00    -0.206 F 
ATOM    106  C   UNL     1     -15.131 -10.968   5.426  1.00  0.00     0.060 A 
BRANCH 106 107
ATOM    107  S   UNL     1     -16.639 -11.753   6.031  1.00  0.00     0.124 S 
ATOM    108  O   UNL     1     -16.296 -12.012   7.426  1.00  0.00    -0.237 OA
ATOM    109  O   UNL     1     -17.643 -10.718   5.808  1.00  0.00    -0.237 OA
ATOM    110  O   UNL     1     -16.768 -12.936   5.185  1.00  0.00    -0.744 OA
ENDBRANCH 106 107
ENDBRANCH  74  99
ENDBRANCH  48  49
ENDBRANCH  40  43
ENDBRANCH   1  39
TORSDOF 14
