REMARK SMILES O=C(NCCCNC(=O)[C@H]1C[C@](F)(c2cccc(F)c2)C1)c1ccc(-c2c3nc(c(-c4c(F)cc(S(=O)(=O)[O-])cc4F)c4ccc([nH]4)c(-c4c(F)cc(S(=O)(=O)[O-])cc4F)c4nc(c(-c5c(F)cc(S(=O)(=O)[O-])cc5F)c5ccc2[nH]5)C=C4)C=C3)cc1
REMARK SMILES IDX 4 1 3 2 1 3 2 4 22 6 23 7 87 8 24 9 86 10 25 11 26 12 27 13
REMARK SMILES IDX 80 14 28 15 85 16 79 17 81 18 29 19 84 20 78 21 77 22 30 24
REMARK SMILES IDX 64 25 43 26 63 27 44 28 47 29 62 30 82 31 45 32 46 33 61 35
REMARK SMILES IDX 83 36 48 37 31 38 32 39 41 40 33 41 34 42 40 43 42 44 35 45
REMARK SMILES IDX 36 46 37 47 38 48 39 49 65 50 66 51 75 52 67 53 68 54 74 55
REMARK SMILES IDX 76 56 69 57 70 58 71 59 72 60 73 61 49 62 50 63 59 64 51 65
REMARK SMILES IDX 52 66 58 67 60 68 53 69 54 70 55 71 56 72 57 73 5 74 6 75
REMARK SMILES IDX 7 76 8 77 9 79 10 80 11 81 21 82 12 83 13 84 14 85 15 86
REMARK SMILES IDX 20 87 16 88 18 89 17 90 19 91
REMARK H PARENT 3 5 81 23 47 34 7 78
REMARK Flexibility Score: inf
ROOT
ATOM      1  C   UNL     1       4.315  -1.249   0.716  1.00  0.00     0.118 C 
ENDROOT
BRANCH   1   2
ATOM      2  N   UNL     1       2.917  -1.148   0.330  1.00  0.00    -0.352 N 
ATOM      3  O   UNL     1       0.991  -0.137  -0.215  1.00  0.00    -0.269 OA
ATOM      4  C   UNL     1       2.217  -0.084  -0.182  1.00  0.00     0.251 C 
ATOM      5  H   UNL     1       2.391  -1.970   0.456  1.00  0.00     0.163 HD
BRANCH   4   6
ATOM      6  C   UNL     1       2.920   1.117  -0.686  1.00  0.00     0.039 A 
ATOM      7  C   UNL     1       4.075   1.009  -1.468  1.00  0.00     0.014 A 
ATOM      8  C   UNL     1       2.366   2.376  -0.432  1.00  0.00     0.014 A 
ATOM      9  C   UNL     1       4.730   2.158  -1.907  1.00  0.00     0.010 A 
ATOM     10  C   UNL     1       2.987   3.524  -0.930  1.00  0.00     0.010 A 
ATOM     11  C   UNL     1       4.183   3.425  -1.657  1.00  0.00    -0.014 A 
BRANCH  11  12
ATOM     12  C   UNL     1       4.830   4.642  -2.209  1.00  0.00     0.031 A 
ATOM     13  C   UNL     1       5.435   5.669  -1.296  1.00  0.00     0.074 A 
ATOM     14  C   UNL     1       4.850   4.824  -3.544  1.00  0.00     0.049 A 
ATOM     15  N   UNL     1       5.977   6.821  -1.598  1.00  0.00    -0.248 NA
ATOM     16  C   UNL     1       5.425   5.367   0.143  1.00  0.00     0.031 C 
ATOM     17  C   UNL     1       4.298   3.890  -4.528  1.00  0.00     0.029 A 
ATOM     18  N   UNL     1       5.350   5.850  -4.304  1.00  0.00    -0.354 N 
ATOM     19  C   UNL     1       6.356   7.391  -0.389  1.00  0.00     0.074 A 
ATOM     20  C   UNL     1       5.962   6.467   0.654  1.00  0.00     0.031 C 
ATOM     21  C   UNL     1       4.511   4.374  -5.760  1.00  0.00     0.029 A 
ATOM     22  C   UNL     1       5.159   5.677  -5.654  1.00  0.00     0.049 A 
ATOM     23  H   UNL     1       5.802   6.636  -3.920  1.00  0.00     0.167 HD
ATOM     24  C   UNL     1       6.981   8.574  -0.173  1.00  0.00     0.037 A 
ATOM     25  C   UNL     1       5.449   6.485  -6.693  1.00  0.00     0.037 A 
ATOM     26  C   UNL     1       7.375   9.480  -1.221  1.00  0.00     0.049 A 
ATOM     27  C   UNL     1       6.103   7.810  -6.429  1.00  0.00     0.074 A 
ATOM     28  C   UNL     1       8.034  10.691  -1.107  1.00  0.00     0.029 A 
ATOM     29  N   UNL     1       7.142   9.278  -2.575  1.00  0.00    -0.354 N 
ATOM     30  N   UNL     1       6.465   8.330  -5.281  1.00  0.00    -0.248 NA
ATOM     31  C   UNL     1       6.380   8.662  -7.592  1.00  0.00     0.031 C 
ATOM     32  C   UNL     1       8.162  11.242  -2.386  1.00  0.00     0.029 A 
ATOM     33  C   UNL     1       7.626  10.352  -3.304  1.00  0.00     0.049 A 
ATOM     34  H   UNL     1       6.698   8.488  -2.960  1.00  0.00     0.167 HD
ATOM     35  C   UNL     1       7.031   9.562  -5.583  1.00  0.00     0.074 A 
ATOM     36  C   UNL     1       6.966   9.710  -7.023  1.00  0.00     0.031 C 
ATOM     37  C   UNL     1       7.559  10.482  -4.740  1.00  0.00     0.037 A 
BRANCH  24  38
ATOM     38  C   UNL     1       7.260   8.968   1.251  1.00  0.00     0.058 A 
ATOM     39  C   UNL     1       6.547  10.018   1.852  1.00  0.00     0.135 A 
ATOM     40  C   UNL     1       8.254   8.333   2.012  1.00  0.00     0.135 A 
ATOM     41  F   UNL     1       5.583  10.658   1.171  1.00  0.00    -0.206 F 
ATOM     42  C   UNL     1       6.810  10.425   3.156  1.00  0.00     0.059 A 
ATOM     43  C   UNL     1       8.518   8.708   3.327  1.00  0.00     0.059 A 
ATOM     44  F   UNL     1       8.952   7.310   1.493  1.00  0.00    -0.206 F 
ATOM     45  C   UNL     1       7.796   9.761   3.887  1.00  0.00     0.060 A 
BRANCH  45  46
ATOM     46  S   UNL     1       8.078  10.252   5.603  1.00  0.00     0.124 S 
ATOM     47  O   UNL     1       8.771  11.525   5.441  1.00  0.00    -0.237 OA
ATOM     48  O   UNL     1       6.718  10.329   6.128  1.00  0.00    -0.237 OA
ATOM     49  O   UNL     1       8.884   9.158   6.137  1.00  0.00    -0.744 OA
ENDBRANCH  45  46
ENDBRANCH  24  38
BRANCH  25  50
ATOM     50  C   UNL     1       5.123   6.032  -8.070  1.00  0.00     0.058 A 
ATOM     51  C   UNL     1       3.792   5.932  -8.505  1.00  0.00     0.135 A 
ATOM     52  C   UNL     1       6.132   5.595  -8.939  1.00  0.00     0.135 A 
ATOM     53  F   UNL     1       2.790   6.328  -7.704  1.00  0.00    -0.206 F 
ATOM     54  C   UNL     1       3.469   5.370  -9.735  1.00  0.00     0.059 A 
ATOM     55  C   UNL     1       5.835   5.050 -10.185  1.00  0.00     0.059 A 
ATOM     56  F   UNL     1       7.418   5.683  -8.570  1.00  0.00    -0.206 F 
ATOM     57  C   UNL     1       4.499   4.918 -10.562  1.00  0.00     0.060 A 
BRANCH  57  58
ATOM     58  S   UNL     1       4.057   4.130 -12.125  1.00  0.00     0.124 S 
ATOM     59  O   UNL     1       3.458   2.882 -11.663  1.00  0.00    -0.237 OA
ATOM     60  O   UNL     1       3.136   5.100 -12.708  1.00  0.00    -0.237 OA
ATOM     61  O   UNL     1       5.339   3.995 -12.809  1.00  0.00    -0.744 OA
ENDBRANCH  57  58
ENDBRANCH  25  50
BRANCH  37  62
ATOM     62  C   UNL     1       8.138  11.733  -5.339  1.00  0.00     0.058 A 
ATOM     63  C   UNL     1       9.527  11.931  -5.355  1.00  0.00     0.135 A 
ATOM     64  C   UNL     1       7.317  12.779  -5.785  1.00  0.00     0.135 A 
ATOM     65  F   UNL     1      10.355  10.960  -4.937  1.00  0.00    -0.206 F 
ATOM     66  C   UNL     1      10.083  13.139  -5.760  1.00  0.00     0.059 A 
ATOM     67  C   UNL     1       7.853  13.990  -6.216  1.00  0.00     0.059 A 
ATOM     68  F   UNL     1       5.983  12.631  -5.803  1.00  0.00    -0.206 F 
ATOM     69  C   UNL     1       9.237  14.168  -6.177  1.00  0.00     0.060 A 
BRANCH  69  70
ATOM     70  S   UNL     1       9.974  15.742  -6.664  1.00  0.00     0.124 S 
ATOM     71  O   UNL     1      10.433  16.266  -5.382  1.00  0.00    -0.237 OA
ATOM     72  O   UNL     1      11.021  15.319  -7.588  1.00  0.00    -0.237 OA
ATOM     73  O   UNL     1       8.861  16.463  -7.275  1.00  0.00    -0.744 OA
ENDBRANCH  69  70
ENDBRANCH  37  62
ENDBRANCH  11  12
ENDBRANCH   4   6
ENDBRANCH   1   2
BRANCH   1  74
ATOM     74  C   UNL     1       4.485  -1.467   2.216  1.00  0.00     0.042 C 
BRANCH  74  75
ATOM     75  C   UNL     1       3.960  -2.812   2.712  1.00  0.00     0.117 C 
BRANCH  75  76
ATOM     76  N   UNL     1       4.743  -3.924   2.207  1.00  0.00    -0.356 N 
ATOM     77  C   UNL     1       5.716  -4.690   2.796  1.00  0.00     0.223 C 
ATOM     78  H   UNL     1       4.539  -4.173   1.276  1.00  0.00     0.163 HD
ATOM     79  O   UNL     1       6.205  -5.578   2.081  1.00  0.00    -0.275 OA
BRANCH  77  80
ATOM     80  C   UNL     1       6.165  -4.494   4.252  1.00  0.00     0.085 C 
ATOM     81  C   UNL     1       5.180  -4.794   5.389  1.00  0.00     0.059 C 
ATOM     82  C   UNL     1       6.461  -3.124   4.866  1.00  0.00     0.059 C 
ATOM     83  C   UNL     1       5.497  -3.421   6.051  1.00  0.00     0.137 C 
ATOM     84  F   UNL     1       4.420  -2.593   6.088  1.00  0.00    -0.239 F 
BRANCH  83  85
ATOM     85  C   UNL     1       6.096  -3.437   7.530  1.00  0.00    -0.008 A 
ATOM     86  C   UNL     1       5.492  -4.191   8.562  1.00  0.00     0.007 A 
ATOM     87  C   UNL     1       7.218  -2.670   7.905  1.00  0.00     0.046 A 
ATOM     88  C   UNL     1       5.986  -4.201   9.872  1.00  0.00     0.003 A 
ATOM     89  C   UNL     1       7.714  -2.686   9.207  1.00  0.00     0.123 A 
ATOM     90  C   UNL     1       7.108  -3.448  10.193  1.00  0.00     0.039 A 
ATOM     91  F   UNL     1       8.791  -1.951   9.509  1.00  0.00    -0.207 F 
ENDBRANCH  83  85
ENDBRANCH  77  80
ENDBRANCH  75  76
ENDBRANCH  74  75
ENDBRANCH   1  74
TORSDOF 14
