REMARK SMILES Cn1nc(N2CCC(CC(=O)NCCCNC(=O)c3ccc(-c4c5nc(c(-c6c(F)cc(S(=O)(=O)[O-])cc6F)c6ccc([nH]6)c(-c6c(F)cc(S(=O)(=O)[O-])cc6F)c6nc(c(-c7c(F)cc(S(=O)(=O)[O-])cc7F)c7ccc4[nH]7)C=C6)C=C5)cc3)CC2)c(=O)n(C)c1=O
REMARK SMILES IDX 14 1 13 2 12 3 10 4 11 5 9 7 8 8 5 9 6 10 86 11 7 12 85 13
REMARK SMILES IDX 4 14 1 15 2 16 3 17 91 18 89 19 92 20 87 21 90 22 88 23
REMARK SMILES IDX 15 24 16 25 17 26 18 28 19 29 20 30 84 31 21 32 83 33 22 34
REMARK SMILES IDX 23 35 24 36 77 37 25 38 82 39 76 40 78 41 26 42 81 43 75 44
REMARK SMILES IDX 74 45 27 47 61 48 40 49 60 50 41 51 44 52 59 53 79 54 42 55
REMARK SMILES IDX 43 56 58 58 80 59 45 60 28 61 29 62 38 63 30 64 31 65 37 66
REMARK SMILES IDX 39 67 32 68 33 69 34 70 35 71 36 72 62 73 63 74 72 75 64 76
REMARK SMILES IDX 65 77 71 78 73 79 66 80 67 81 68 82 69 83 70 84 46 85 47 86
REMARK SMILES IDX 56 87 48 88 49 89 55 90 57 91 50 92 51 93 52 94 53 95 54 96
REMARK H PARENT 12 6 16 27 78 46 44 57
REMARK Flexibility Score: inf
ROOT
ATOM      1  C   UNL     1       2.951  -4.408   4.810  1.00  0.00     0.042 C 
ENDROOT
BRANCH   1   2
ATOM      2  C   UNL     1       4.413  -4.551   4.377  1.00  0.00     0.117 C 
BRANCH   2   3
ATOM      3  N   UNL     1       4.824  -5.940   4.204  1.00  0.00    -0.356 N 
ATOM      4  C   UNL     1       5.154  -6.654   3.090  1.00  0.00     0.220 C 
ATOM      5  O   UNL     1       5.488  -7.832   3.234  1.00  0.00    -0.275 OA
ATOM      6  H   UNL     1       4.872  -6.454   5.042  1.00  0.00     0.163 HD
BRANCH   4   7
ATOM      7  C   UNL     1       5.106  -6.030   1.706  1.00  0.00     0.103 C 
BRANCH   7   8
ATOM      8  C   UNL     1       3.792  -6.314   0.946  1.00  0.00     0.002 C 
ATOM      9  N   UNL     1       1.597  -5.005  -0.358  1.00  0.00    -0.351 N 
ATOM     10  C   UNL     1       1.309  -5.634   0.910  1.00  0.00     0.118 C 
ATOM     11  C   UNL     1       2.532  -5.714  -1.208  1.00  0.00     0.118 C 
ATOM     12  C   UNL     1       2.600  -5.715   1.703  1.00  0.00     0.025 C 
ATOM     13  C   UNL     1       3.887  -5.764  -0.495  1.00  0.00     0.025 C 
BRANCH   9  14
ATOM     14  C   UNL     1       0.961  -3.842  -0.746  1.00  0.00     0.215 A 
ATOM     15  C   UNL     1       1.077  -0.324  -0.045  1.00  0.00     0.180 C 
ATOM     16  N   UNL     1       0.616  -1.572  -0.632  1.00  0.00    -0.216 N 
ATOM     17  N   UNL     1       1.286  -2.696  -0.221  1.00  0.00    -0.145 NA
ATOM     18  C   UNL     1      -0.484  -1.562  -1.488  1.00  0.00     0.346 A 
ATOM     19  N   UNL     1      -0.880  -2.787  -1.986  1.00  0.00    -0.259 N 
ATOM     20  O   UNL     1      -1.051  -0.512  -1.801  1.00  0.00    -0.246 OA
ATOM     21  C   UNL     1      -0.156  -3.939  -1.782  1.00  0.00     0.299 A 
ATOM     22  C   UNL     1      -2.056  -2.881  -2.825  1.00  0.00     0.159 C 
ATOM     23  O   UNL     1      -0.341  -5.010  -2.355  1.00  0.00    -0.265 OA
ENDBRANCH   9  14
ENDBRANCH   7   8
ENDBRANCH   4   7
ENDBRANCH   2   3
ENDBRANCH   1   2
BRANCH   1  24
ATOM     24  C   UNL     1       2.653  -4.932   6.209  1.00  0.00     0.118 C 
BRANCH  24  25
ATOM     25  N   UNL     1       2.766  -3.881   7.204  1.00  0.00    -0.352 N 
ATOM     26  C   UNL     1       1.781  -3.165   7.842  1.00  0.00     0.251 C 
ATOM     27  H   UNL     1       3.687  -3.646   7.460  1.00  0.00     0.163 HD
ATOM     28  O   UNL     1       2.091  -2.127   8.424  1.00  0.00    -0.269 OA
BRANCH  26  29
ATOM     29  C   UNL     1       0.364  -3.612   7.839  1.00  0.00     0.039 A 
ATOM     30  C   UNL     1      -0.643  -2.642   7.776  1.00  0.00     0.014 A 
ATOM     31  C   UNL     1       0.011  -4.956   7.995  1.00  0.00     0.014 A 
ATOM     32  C   UNL     1      -1.990  -3.019   7.842  1.00  0.00     0.010 A 
ATOM     33  C   UNL     1      -1.334  -5.338   7.990  1.00  0.00     0.010 A 
ATOM     34  C   UNL     1      -2.350  -4.372   7.938  1.00  0.00    -0.014 A 
BRANCH  34  35
ATOM     35  C   UNL     1      -3.777  -4.783   8.047  1.00  0.00     0.031 A 
ATOM     36  C   UNL     1      -4.282  -5.427   9.314  1.00  0.00     0.074 A 
ATOM     37  C   UNL     1      -4.618  -4.598   7.009  1.00  0.00     0.049 A 
ATOM     38  N   UNL     1      -5.472  -5.901   9.583  1.00  0.00    -0.248 NA
ATOM     39  C   UNL     1      -3.319  -5.575  10.418  1.00  0.00     0.031 C 
ATOM     40  C   UNL     1      -4.253  -4.010   5.719  1.00  0.00     0.029 A 
ATOM     41  N   UNL     1      -5.953  -4.889   6.872  1.00  0.00    -0.354 N 
ATOM     42  C   UNL     1      -5.398  -6.408  10.876  1.00  0.00     0.074 A 
ATOM     43  C   UNL     1      -4.034  -6.230  11.322  1.00  0.00     0.031 C 
ATOM     44  C   UNL     1      -5.341  -3.962   4.933  1.00  0.00     0.029 A 
ATOM     45  C   UNL     1      -6.474  -4.545   5.646  1.00  0.00     0.049 A 
ATOM     46  H   UNL     1      -6.489  -5.305   7.586  1.00  0.00     0.167 HD
ATOM     47  C   UNL     1      -6.382  -6.947  11.635  1.00  0.00     0.037 A 
ATOM     48  C   UNL     1      -7.720  -4.686   5.151  1.00  0.00     0.037 A 
ATOM     49  C   UNL     1      -7.750  -7.087  11.209  1.00  0.00     0.049 A 
ATOM     50  C   UNL     1      -8.793  -5.298   6.012  1.00  0.00     0.074 A 
ATOM     51  C   UNL     1      -8.826  -7.580  11.927  1.00  0.00     0.029 A 
ATOM     52  N   UNL     1      -8.233  -6.725   9.962  1.00  0.00    -0.354 N 
ATOM     53  N   UNL     1      -8.708  -5.740   7.244  1.00  0.00    -0.248 NA
ATOM     54  C   UNL     1     -10.131  -5.432   5.417  1.00  0.00     0.031 C 
ATOM     55  C   UNL     1      -9.955  -7.545  11.102  1.00  0.00     0.029 A 
ATOM     56  C   UNL     1      -9.589  -6.995   9.884  1.00  0.00     0.049 A 
ATOM     57  H   UNL     1      -7.693  -6.333   9.238  1.00  0.00     0.167 HD
ATOM     58  C   UNL     1      -9.983  -6.184   7.577  1.00  0.00     0.074 A 
ATOM     59  C   UNL     1     -10.825  -5.944   6.424  1.00  0.00     0.031 C 
ATOM     60  C   UNL     1     -10.417  -6.742   8.733  1.00  0.00     0.037 A 
BRANCH  47  61
ATOM     61  C   UNL     1      -6.032  -7.405  13.023  1.00  0.00     0.058 A 
ATOM     62  C   UNL     1      -5.804  -6.486  14.058  1.00  0.00     0.135 A 
ATOM     63  C   UNL     1      -6.008  -8.773  13.343  1.00  0.00     0.135 A 
ATOM     64  F   UNL     1      -5.798  -5.168  13.803  1.00  0.00    -0.206 F 
ATOM     65  C   UNL     1      -5.558  -6.904  15.361  1.00  0.00     0.059 A 
ATOM     66  C   UNL     1      -5.787  -9.214  14.645  1.00  0.00     0.059 A 
ATOM     67  F   UNL     1      -6.218  -9.693  12.389  1.00  0.00    -0.206 F 
ATOM     68  C   UNL     1      -5.558  -8.271  15.646  1.00  0.00     0.060 A 
BRANCH  68  69
ATOM     69  S   UNL     1      -5.280  -8.792  17.352  1.00  0.00     0.124 S 
ATOM     70  O   UNL     1      -3.864  -8.486  17.524  1.00  0.00    -0.237 OA
ATOM     71  O   UNL     1      -6.207  -7.941  18.092  1.00  0.00    -0.237 OA
ATOM     72  O   UNL     1      -5.616 -10.213  17.334  1.00  0.00    -0.744 OA
ENDBRANCH  68  69
ENDBRANCH  47  61
BRANCH  48  73
ATOM     73  C   UNL     1      -8.032  -4.226   3.771  1.00  0.00     0.058 A 
ATOM     74  C   UNL     1      -8.840  -3.101   3.552  1.00  0.00     0.135 A 
ATOM     75  C   UNL     1      -7.538  -4.906   2.647  1.00  0.00     0.135 A 
ATOM     76  F   UNL     1      -9.343  -2.424   4.595  1.00  0.00    -0.206 F 
ATOM     77  C   UNL     1      -9.164  -2.675   2.268  1.00  0.00     0.059 A 
ATOM     78  C   UNL     1      -7.829  -4.486   1.353  1.00  0.00     0.059 A 
ATOM     79  F   UNL     1      -6.749  -5.980   2.803  1.00  0.00    -0.206 F 
ATOM     80  C   UNL     1      -8.654  -3.376   1.173  1.00  0.00     0.060 A 
BRANCH  80  81
ATOM     81  S   UNL     1      -9.051  -2.796  -0.490  1.00  0.00     0.124 S 
ATOM     82  O   UNL     1     -10.439  -3.220  -0.625  1.00  0.00    -0.237 OA
ATOM     83  O   UNL     1      -8.830  -1.357  -0.376  1.00  0.00    -0.237 OA
ATOM     84  O   UNL     1      -8.088  -3.504  -1.329  1.00  0.00    -0.744 OA
ENDBRANCH  80  81
ENDBRANCH  48  73
BRANCH  60  85
ATOM     85  C   UNL     1     -11.868  -7.118   8.826  1.00  0.00     0.058 A 
ATOM     86  C   UNL     1     -12.372  -8.254   8.175  1.00  0.00     0.135 A 
ATOM     87  C   UNL     1     -12.746  -6.379   9.636  1.00  0.00     0.135 A 
ATOM     88  F   UNL     1     -11.574  -8.989   7.385  1.00  0.00    -0.206 F 
ATOM     89  C   UNL     1     -13.700  -8.640   8.317  1.00  0.00     0.059 A 
ATOM     90  C   UNL     1     -14.072  -6.761   9.810  1.00  0.00     0.059 A 
ATOM     91  F   UNL     1     -12.309  -5.290  10.288  1.00  0.00    -0.206 F 
ATOM     92  C   UNL     1     -14.542  -7.890   9.141  1.00  0.00     0.060 A 
BRANCH  92  93
ATOM     93  S   UNL     1     -16.250  -8.435   9.355  1.00  0.00     0.124 S 
ATOM     94  O   UNL     1     -16.836  -8.079   8.067  1.00  0.00    -0.237 OA
ATOM     95  O   UNL     1     -16.093  -9.864   9.606  1.00  0.00    -0.237 OA
ATOM     96  O   UNL     1     -16.717  -7.652  10.495  1.00  0.00    -0.744 OA
ENDBRANCH  92  93
ENDBRANCH  60  85
ENDBRANCH  34  35
ENDBRANCH  26  29
ENDBRANCH  24  25
ENDBRANCH   1  24
TORSDOF 15
