REMARK SMILES Cc1ccc(F)cc1NS(=O)(=O)c1ccc(C(=O)NCCCNC(=O)c2ccc(-c3c4nc(c(-c5c(F)cc(S(=O)(=O)[O-])cc5F)c5ccc([nH]5)c(-c5c(F)cc(S(=O)(=O)[O-])cc5F)c5nc(c(-c6c(F)cc(S(=O)(=O)[O-])cc6F)c6ccc3[nH]6)C=C5)C=C4)cc2)cc1
REMARK SMILES IDX 21 1 20 2 19 3 17 4 18 5 16 7 13 8 14 9 93 10 15 11 92 12
REMARK SMILES IDX 10 13 11 14 12 15 9 16 8 18 1 19 2 20 3 21 4 22 7 23 5 24
REMARK SMILES IDX 6 25 22 26 23 27 24 28 25 30 26 31 27 32 91 33 28 34 90 35
REMARK SMILES IDX 29 36 30 37 31 38 84 39 32 40 89 41 83 42 85 43 33 44 88 45
REMARK SMILES IDX 82 46 81 47 34 49 68 50 47 51 67 52 48 53 51 54 66 55 86 56
REMARK SMILES IDX 49 57 50 58 65 60 87 61 52 62 35 63 36 64 45 65 37 66 38 67
REMARK SMILES IDX 44 68 46 69 39 70 40 71 41 72 42 73 43 74 69 75 70 76 79 77
REMARK SMILES IDX 71 78 72 79 78 80 80 81 73 82 74 83 75 84 76 85 77 86 53 87
REMARK SMILES IDX 54 88 63 89 55 90 56 91 62 92 64 93 57 94 58 95 59 96 60 97
REMARK SMILES IDX 61 98
REMARK H PARENT 19 6 9 17 23 29 85 48 51 59
REMARK Flexibility Score: inf
ROOT
ATOM      1  C   UNL     1      -6.265  -6.253   0.898  1.00  0.00     0.042 C 
ENDROOT
BRANCH   1   2
ATOM      2  C   UNL     1      -5.930  -5.381  -0.307  1.00  0.00     0.118 C 
BRANCH   2   3
ATOM      3  N   UNL     1      -6.088  -3.971  -0.002  1.00  0.00    -0.352 N 
ATOM      4  C   UNL     1      -5.146  -2.982   0.075  1.00  0.00     0.251 C 
ATOM      5  O   UNL     1      -5.499  -1.813   0.208  1.00  0.00    -0.269 OA
ATOM      6  H   UNL     1      -7.012  -3.683   0.176  1.00  0.00     0.163 HD
BRANCH   4   7
ATOM      7  C   UNL     1      -3.705  -3.288  -0.047  1.00  0.00     0.039 A 
ATOM      8  C   UNL     1      -0.938  -3.605  -0.183  1.00  0.00     0.087 A 
ATOM      9  C   UNL     1      -1.576  -2.697  -1.037  1.00  0.00     0.023 A 
ATOM     10  C   UNL     1      -1.688  -4.421   0.674  1.00  0.00     0.023 A 
ATOM     11  C   UNL     1      -2.954  -2.511  -0.936  1.00  0.00     0.015 A 
ATOM     12  C   UNL     1      -3.075  -4.253   0.749  1.00  0.00     0.015 A 
BRANCH   8  13
ATOM     13  S   UNL     1       0.831  -3.731  -0.218  1.00  0.00     0.261 S 
ATOM     14  O   UNL     1       1.244  -3.617  -1.604  1.00  0.00    -0.201 OA
ATOM     15  O   UNL     1       1.210  -4.896   0.553  1.00  0.00    -0.201 OA
BRANCH  13  16
ATOM     16  N   UNL     1       1.516  -2.393   0.604  1.00  0.00    -0.279 N 
ATOM     17  H   UNL     1       2.302  -2.538   1.180  1.00  0.00     0.180 HD
BRANCH  16  18
ATOM     18  C   UNL     1       0.976  -1.060   0.480  1.00  0.00     0.055 A 
ATOM     19  C   UNL     1       3.209  -0.021  -0.318  1.00  0.00     0.046 C 
ATOM     20  C   UNL     1       1.737   0.027  -0.003  1.00  0.00    -0.027 A 
ATOM     21  C   UNL     1       1.134   1.303  -0.089  1.00  0.00     0.008 A 
ATOM     22  C   UNL     1      -0.175   1.511   0.333  1.00  0.00     0.039 A 
ATOM     23  C   UNL     1      -0.291  -0.802   1.010  1.00  0.00     0.066 A 
ATOM     24  C   UNL     1      -0.867   0.458   0.902  1.00  0.00     0.125 A 
ATOM     25  F   UNL     1      -2.104   0.659   1.371  1.00  0.00    -0.207 F 
ENDBRANCH  16  18
ENDBRANCH  13  16
ENDBRANCH   8  13
ENDBRANCH   4   7
ENDBRANCH   2   3
ENDBRANCH   1   2
BRANCH   1  26
ATOM     26  C   UNL     1      -7.747  -6.248   1.259  1.00  0.00     0.118 C 
BRANCH  26  27
ATOM     27  N   UNL     1      -8.561  -6.855   0.216  1.00  0.00    -0.352 N 
ATOM     28  C   UNL     1      -9.401  -7.937   0.274  1.00  0.00     0.251 C 
ATOM     29  H   UNL     1      -8.500  -6.421  -0.665  1.00  0.00     0.163 HD
ATOM     30  O   UNL     1      -9.791  -8.447  -0.774  1.00  0.00    -0.269 OA
BRANCH  28  31
ATOM     31  C   UNL     1      -9.840  -8.486   1.575  1.00  0.00     0.039 A 
ATOM     32  C   UNL     1     -10.002  -9.869   1.700  1.00  0.00     0.014 A 
ATOM     33  C   UNL     1     -10.160  -7.647   2.647  1.00  0.00     0.014 A 
ATOM     34  C   UNL     1     -10.463 -10.408   2.903  1.00  0.00     0.010 A 
ATOM     35  C   UNL     1     -10.540  -8.191   3.871  1.00  0.00     0.010 A 
ATOM     36  C   UNL     1     -10.723  -9.574   4.003  1.00  0.00    -0.014 A 
BRANCH  36  37
ATOM     37  C   UNL     1     -11.228 -10.136   5.281  1.00  0.00     0.031 A 
ATOM     38  C   UNL     1     -12.602  -9.767   5.777  1.00  0.00     0.074 A 
ATOM     39  C   UNL     1     -10.438 -10.950   6.008  1.00  0.00     0.049 A 
ATOM     40  N   UNL     1     -13.213 -10.139   6.872  1.00  0.00    -0.248 NA
ATOM     41  C   UNL     1     -13.383  -8.837   4.945  1.00  0.00     0.031 C 
ATOM     42  C   UNL     1      -9.069 -11.335   5.656  1.00  0.00     0.029 A 
ATOM     43  N   UNL     1     -10.670 -11.600   7.193  1.00  0.00    -0.354 N 
ATOM     44  C   UNL     1     -14.438  -9.481   6.867  1.00  0.00     0.074 A 
ATOM     45  C   UNL     1     -14.460  -8.640   5.691  1.00  0.00     0.031 C 
ATOM     46  C   UNL     1      -8.595 -12.177   6.588  1.00  0.00     0.029 A 
ATOM     47  C   UNL     1      -9.611 -12.367   7.618  1.00  0.00     0.049 A 
ATOM     48  H   UNL     1     -11.515 -11.524   7.692  1.00  0.00     0.167 HD
ATOM     49  C   UNL     1     -15.462  -9.588   7.747  1.00  0.00     0.037 A 
ATOM     50  C   UNL     1      -9.478 -13.140   8.713  1.00  0.00     0.037 A 
ATOM     51  C   UNL     1     -15.440 -10.449   8.902  1.00  0.00     0.049 A 
ATOM     52  C   UNL     1     -10.638 -13.262   9.663  1.00  0.00     0.074 A 
ATOM     53  C   UNL     1     -16.441 -10.670   9.831  1.00  0.00     0.029 A 
ATOM     54  N   UNL     1     -14.361 -11.235   9.282  1.00  0.00    -0.354 N 
ATOM     55  N   UNL     1     -11.812 -12.677   9.612  1.00  0.00    -0.248 NA
ATOM     56  C   UNL     1     -10.463 -14.162  10.810  1.00  0.00     0.031 C 
ATOM     57  C   UNL     1     -15.953 -11.559  10.796  1.00  0.00     0.029 A 
ATOM     58  C   UNL     1     -14.668 -11.933  10.438  1.00  0.00     0.049 A 
ATOM     59  H   UNL     1     -13.504 -11.288   8.800  1.00  0.00     0.167 HD
ATOM     60  C   UNL     1     -12.527 -13.164  10.701  1.00  0.00     0.074 A 
ATOM     61  C   UNL     1     -11.656 -14.100  11.384  1.00  0.00     0.031 C 
ATOM     62  C   UNL     1     -13.790 -12.867  11.099  1.00  0.00     0.037 A 
BRANCH  49  63
ATOM     63  C   UNL     1     -16.693  -8.759   7.490  1.00  0.00     0.058 A 
ATOM     64  C   UNL     1     -17.550  -9.025   6.409  1.00  0.00     0.135 A 
ATOM     65  C   UNL     1     -17.037  -7.703   8.349  1.00  0.00     0.135 A 
ATOM     66  F   UNL     1     -17.263 -10.012   5.545  1.00  0.00    -0.206 F 
ATOM     67  C   UNL     1     -18.683  -8.254   6.169  1.00  0.00     0.059 A 
ATOM     68  C   UNL     1     -18.183  -6.938   8.146  1.00  0.00     0.059 A 
ATOM     69  F   UNL     1     -16.256  -7.403   9.399  1.00  0.00    -0.206 F 
ATOM     70  C   UNL     1     -18.991  -7.211   7.044  1.00  0.00     0.060 A 
BRANCH  70  71
ATOM     71  S   UNL     1     -20.467  -6.223   6.721  1.00  0.00     0.124 S 
ATOM     72  O   UNL     1     -20.043  -5.436   5.567  1.00  0.00    -0.237 OA
ATOM     73  O   UNL     1     -21.475  -7.244   6.455  1.00  0.00    -0.237 OA
ATOM     74  O   UNL     1     -20.651  -5.472   7.959  1.00  0.00    -0.744 OA
ENDBRANCH  70  71
ENDBRANCH  49  63
BRANCH  50  75
ATOM     75  C   UNL     1      -8.214 -13.888   8.944  1.00  0.00     0.058 A 
ATOM     76  C   UNL     1      -8.167 -15.284   8.819  1.00  0.00     0.135 A 
ATOM     77  C   UNL     1      -7.024 -13.222   9.280  1.00  0.00     0.135 A 
ATOM     78  F   UNL     1      -9.278 -15.966   8.502  1.00  0.00    -0.206 F 
ATOM     79  C   UNL     1      -6.993 -15.998   9.038  1.00  0.00     0.059 A 
ATOM     80  C   UNL     1      -5.832 -13.911   9.477  1.00  0.00     0.059 A 
ATOM     81  F   UNL     1      -7.011 -11.885   9.392  1.00  0.00    -0.206 F 
ATOM     82  C   UNL     1      -5.829 -15.301   9.365  1.00  0.00     0.060 A 
BRANCH  82  83
ATOM     83  S   UNL     1      -4.300 -16.232   9.603  1.00  0.00     0.124 S 
ATOM     84  O   UNL     1      -4.540 -16.865  10.895  1.00  0.00    -0.237 OA
ATOM     85  O   UNL     1      -4.299 -17.121   8.446  1.00  0.00    -0.237 OA
ATOM     86  O   UNL     1      -3.272 -15.196   9.589  1.00  0.00    -0.744 OA
ENDBRANCH  82  83
ENDBRANCH  50  75
BRANCH  62  87
ATOM     87  C   UNL     1     -14.320 -13.598  12.302  1.00  0.00     0.058 A 
ATOM     88  C   UNL     1     -13.851 -13.333  13.598  1.00  0.00     0.135 A 
ATOM     89  C   UNL     1     -15.329 -14.563  12.153  1.00  0.00     0.135 A 
ATOM     90  F   UNL     1     -12.885 -12.422  13.795  1.00  0.00    -0.206 F 
ATOM     91  C   UNL     1     -14.335 -14.030  14.701  1.00  0.00     0.059 A 
ATOM     92  C   UNL     1     -15.849 -15.250  13.245  1.00  0.00     0.059 A 
ATOM     93  F   UNL     1     -15.823 -14.845  10.937  1.00  0.00    -0.206 F 
ATOM     94  C   UNL     1     -15.331 -14.990  14.513  1.00  0.00     0.060 A 
BRANCH  94  95
ATOM     95  S   UNL     1     -15.952 -15.887  15.951  1.00  0.00     0.124 S 
ATOM     96  O   UNL     1     -14.856 -16.813  16.214  1.00  0.00    -0.237 OA
ATOM     97  O   UNL     1     -16.132 -14.821  16.932  1.00  0.00    -0.237 OA
ATOM     98  O   UNL     1     -17.186 -16.496  15.464  1.00  0.00    -0.744 OA
ENDBRANCH  94  95
ENDBRANCH  62  87
ENDBRANCH  36  37
ENDBRANCH  28  31
ENDBRANCH  26  27
ENDBRANCH   1  26
TORSDOF 16
