REMARK SMILES C[C@@H]([NH2+][C@H]1CCOC2(CCOCC2)C1)C(=O)NCCCNC(=O)c1ccc(-c2c3nc(c(-c4c(F)cc(S(=O)(=O)[O-])cc4F)c4ccc([nH]4)c(-c4c(F)cc(S(=O)(=O)[O-])cc4F)c4nc(c(-c5c(F)cc(S(=O)(=O)[O-])cc5F)c5ccc2[nH]5)C=C4)C=C3)cc1
REMARK SMILES IDX 19 1 18 2 17 3 15 4 16 5 2 7 1 8 3 9 4 12 5 13 14 14 6 15
REMARK SMILES IDX 8 16 7 17 9 18 13 19 10 20 12 21 11 22 20 23 21 24 22 25
REMARK SMILES IDX 23 27 24 28 25 29 89 30 26 31 88 32 27 33 28 34 29 35 82 36
REMARK SMILES IDX 30 37 87 38 81 39 83 40 31 41 86 42 80 43 79 44 32 46 66 47
REMARK SMILES IDX 45 48 65 49 46 50 49 51 64 52 84 53 47 54 48 55 63 57 85 58
REMARK SMILES IDX 50 59 33 60 34 61 43 62 35 63 36 64 42 65 44 66 37 67 38 68
REMARK SMILES IDX 39 69 40 70 41 71 67 72 68 73 77 74 69 75 70 76 76 77 78 78
REMARK SMILES IDX 71 79 72 80 73 81 74 82 75 83 51 84 52 85 61 86 53 87 54 88
REMARK SMILES IDX 60 89 62 90 55 91 56 92 57 93 58 94 59 95
REMARK H PARENT 17 6 3 10 3 11 21 26 83 45 49 56
REMARK Flexibility Score: inf
ROOT
ATOM      1  C   UNL     1      -3.817  -0.067   1.388  1.00  0.00     0.042 C 
ENDROOT
BRANCH   1   2
ATOM      2  C   UNL     1      -2.458   0.245   1.986  1.00  0.00     0.118 C 
BRANCH   2   3
ATOM      3  N   UNL     1      -1.592   0.946   1.054  1.00  0.00    -0.351 N 
ATOM      4  C   UNL     1      -0.916   2.118   1.205  1.00  0.00     0.277 C 
ATOM      5  O   UNL     1      -0.178   2.476   0.279  1.00  0.00    -0.268 OA
ATOM      6  H   UNL     1      -1.477   0.507   0.180  1.00  0.00     0.163 HD
BRANCH   4   7
ATOM      7  C   UNL     1      -1.038   2.978   2.480  1.00  0.00     0.269 C 
ATOM      8  C   UNL     1      -2.418   3.629   2.543  1.00  0.00     0.086 C 
BRANCH   7   9
ATOM      9  N   UNL     1      -0.746   2.222   3.723  1.00  0.00    -0.334 N 
ATOM     10  H   UNL     1      -1.484   1.530   3.860  1.00  0.00     0.347 HD
ATOM     11  H   UNL     1      -0.705   2.900   4.483  1.00  0.00     0.347 HD
BRANCH   9  12
ATOM     12  C   UNL     1       0.546   1.523   3.697  1.00  0.00     0.188 C 
ATOM     13  C   UNL     1       1.603   2.167   4.593  1.00  0.00     0.093 C 
ATOM     14  C   UNL     1       0.335   0.087   4.182  1.00  0.00     0.100 C 
ATOM     15  C   UNL     1       2.875   1.321   4.567  1.00  0.00     0.167 C 
ATOM     16  C   UNL     1       1.639  -0.722   4.125  1.00  0.00     0.078 C 
ATOM     17  O   UNL     1       2.636  -0.046   4.914  1.00  0.00    -0.374 OA
ATOM     18  C   UNL     1       2.115  -0.959   2.675  1.00  0.00     0.064 C 
ATOM     19  C   UNL     1       1.385  -2.096   4.777  1.00  0.00     0.064 C 
ATOM     20  C   UNL     1       3.279  -1.939   2.633  1.00  0.00     0.163 C 
ATOM     21  C   UNL     1       2.578  -3.026   4.607  1.00  0.00     0.163 C 
ATOM     22  O   UNL     1       2.908  -3.180   3.227  1.00  0.00    -0.381 OA
ENDBRANCH   9  12
ENDBRANCH   7   9
ENDBRANCH   4   7
ENDBRANCH   2   3
ENDBRANCH   1   2
BRANCH   1  23
ATOM     23  C   UNL     1      -3.750  -1.067   0.242  1.00  0.00     0.118 C 
BRANCH  23  24
ATOM     24  N   UNL     1      -3.257  -2.378   0.656  1.00  0.00    -0.352 N 
ATOM     25  C   UNL     1      -3.878  -3.603   0.605  1.00  0.00     0.251 C 
ATOM     26  H   UNL     1      -2.346  -2.386   1.028  1.00  0.00     0.163 HD
ATOM     27  O   UNL     1      -3.376  -4.572   1.166  1.00  0.00    -0.269 OA
BRANCH  25  28
ATOM     28  C   UNL     1      -5.163  -3.736  -0.109  1.00  0.00     0.039 A 
ATOM     29  C   UNL     1      -6.214  -4.428   0.497  1.00  0.00     0.014 A 
ATOM     30  C   UNL     1      -5.335  -3.145  -1.363  1.00  0.00     0.014 A 
ATOM     31  C   UNL     1      -7.468  -4.447  -0.117  1.00  0.00     0.010 A 
ATOM     32  C   UNL     1      -6.602  -3.086  -1.925  1.00  0.00     0.010 A 
ATOM     33  C   UNL     1      -7.682  -3.736  -1.308  1.00  0.00    -0.014 A 
BRANCH  33  34
ATOM     34  C   UNL     1      -9.022  -3.647  -1.939  1.00  0.00     0.031 A 
ATOM     35  C   UNL     1      -9.227  -4.189  -3.327  1.00  0.00     0.074 A 
ATOM     36  C   UNL     1     -10.016  -2.990  -1.309  1.00  0.00     0.049 A 
ATOM     37  N   UNL     1     -10.267  -4.080  -4.111  1.00  0.00    -0.248 NA
ATOM     38  C   UNL     1      -8.097  -4.920  -3.926  1.00  0.00     0.031 C 
ATOM     39  C   UNL     1      -9.921  -2.378   0.019  1.00  0.00     0.029 A 
ATOM     40  N   UNL     1     -11.298  -2.708  -1.711  1.00  0.00    -0.354 N 
ATOM     41  C   UNL     1      -9.908  -4.701  -5.301  1.00  0.00     0.074 A 
ATOM     42  C   UNL     1      -8.539  -5.142  -5.154  1.00  0.00     0.031 C 
ATOM     43  C   UNL     1     -11.097  -1.808   0.327  1.00  0.00     0.029 A 
ATOM     44  C   UNL     1     -12.015  -1.973  -0.796  1.00  0.00     0.049 A 
ATOM     45  H   UNL     1     -11.669  -3.004  -2.574  1.00  0.00     0.167 HD
ATOM     46  C   UNL     1     -10.661  -4.905  -6.408  1.00  0.00     0.037 A 
ATOM     47  C   UNL     1     -13.265  -1.475  -0.862  1.00  0.00     0.037 A 
ATOM     48  C   UNL     1     -12.035  -4.498  -6.529  1.00  0.00     0.049 A 
ATOM     49  C   UNL     1     -14.087  -1.725  -2.097  1.00  0.00     0.074 A 
ATOM     50  C   UNL     1     -12.907  -4.715  -7.580  1.00  0.00     0.029 A 
ATOM     51  N   UNL     1     -12.739  -3.793  -5.563  1.00  0.00    -0.354 N 
ATOM     52  N   UNL     1     -13.752  -2.364  -3.192  1.00  0.00    -0.248 NA
ATOM     53  C   UNL     1     -15.455  -1.189  -2.107  1.00  0.00     0.031 C 
ATOM     54  C   UNL     1     -14.128  -4.109  -7.266  1.00  0.00     0.029 A 
ATOM     55  C   UNL     1     -14.030  -3.553  -6.000  1.00  0.00     0.049 A 
ATOM     56  H   UNL     1     -12.374  -3.506  -4.695  1.00  0.00     0.167 HD
ATOM     57  C   UNL     1     -14.875  -2.332  -4.010  1.00  0.00     0.074 A 
ATOM     58  C   UNL     1     -15.902  -1.615  -3.281  1.00  0.00     0.031 C 
ATOM     59  C   UNL     1     -15.043  -2.852  -5.251  1.00  0.00     0.037 A 
BRANCH  46  60
ATOM     60  C   UNL     1     -10.016  -5.608  -7.570  1.00  0.00     0.058 A 
ATOM     61  C   UNL     1      -9.696  -6.974  -7.518  1.00  0.00     0.135 A 
ATOM     62  C   UNL     1      -9.738  -4.915  -8.759  1.00  0.00     0.135 A 
ATOM     63  F   UNL     1      -9.925  -7.681  -6.400  1.00  0.00    -0.206 F 
ATOM     64  C   UNL     1      -9.096  -7.622  -8.593  1.00  0.00     0.059 A 
ATOM     65  C   UNL     1      -9.164  -5.549  -9.857  1.00  0.00     0.059 A 
ATOM     66  F   UNL     1     -10.022  -3.607  -8.861  1.00  0.00    -0.206 F 
ATOM     67  C   UNL     1      -8.832  -6.900  -9.758  1.00  0.00     0.060 A 
BRANCH  67  68
ATOM     68  S   UNL     1      -8.056  -7.755 -11.145  1.00  0.00     0.124 S 
ATOM     69  O   UNL     1      -6.681  -7.886 -10.672  1.00  0.00    -0.237 OA
ATOM     70  O   UNL     1      -8.822  -8.996 -11.216  1.00  0.00    -0.237 OA
ATOM     71  O   UNL     1      -8.251  -6.838 -12.262  1.00  0.00    -0.744 OA
ENDBRANCH  67  68
ENDBRANCH  46  60
BRANCH  47  72
ATOM     72  C   UNL     1     -13.820  -0.710   0.286  1.00  0.00     0.058 A 
ATOM     73  C   UNL     1     -14.820  -1.261   1.101  1.00  0.00     0.135 A 
ATOM     74  C   UNL     1     -13.352   0.575   0.604  1.00  0.00     0.135 A 
ATOM     75  F   UNL     1     -15.304  -2.483   0.834  1.00  0.00    -0.206 F 
ATOM     76  C   UNL     1     -15.346  -0.562   2.182  1.00  0.00     0.059 A 
ATOM     77  C   UNL     1     -13.846   1.284   1.694  1.00  0.00     0.059 A 
ATOM     78  F   UNL     1     -12.383   1.139  -0.134  1.00  0.00    -0.206 F 
ATOM     79  C   UNL     1     -14.851   0.710   2.473  1.00  0.00     0.060 A 
BRANCH  79  80
ATOM     80  S   UNL     1     -15.504   1.588   3.910  1.00  0.00     0.124 S 
ATOM     81  O   UNL     1     -16.818   1.998   3.430  1.00  0.00    -0.237 OA
ATOM     82  O   UNL     1     -15.493   0.549   4.935  1.00  0.00    -0.237 OA
ATOM     83  O   UNL     1     -14.539   2.665   4.111  1.00  0.00    -0.744 OA
ENDBRANCH  79  80
ENDBRANCH  47  72
BRANCH  59  84
ATOM     84  C   UNL     1     -16.393  -2.704  -5.891  1.00  0.00     0.058 A 
ATOM     85  C   UNL     1     -16.822  -1.484  -6.432  1.00  0.00     0.135 A 
ATOM     86  C   UNL     1     -17.231  -3.822  -6.038  1.00  0.00     0.135 A 
ATOM     87  F   UNL     1     -16.061  -0.385  -6.309  1.00  0.00    -0.206 F 
ATOM     88  C   UNL     1     -18.041  -1.373  -7.094  1.00  0.00     0.059 A 
ATOM     89  C   UNL     1     -18.442  -3.740  -6.717  1.00  0.00     0.059 A 
ATOM     90  F   UNL     1     -16.861  -5.014  -5.545  1.00  0.00    -0.206 F 
ATOM     91  C   UNL     1     -18.841  -2.509  -7.237  1.00  0.00     0.060 A 
BRANCH  91  92
ATOM     92  S   UNL     1     -20.389  -2.366  -8.154  1.00  0.00     0.124 S 
ATOM     93  O   UNL     1     -21.235  -1.662  -7.196  1.00  0.00    -0.237 OA
ATOM     94  O   UNL     1     -19.987  -1.599  -9.329  1.00  0.00    -0.237 OA
ATOM     95  O   UNL     1     -20.758  -3.755  -8.416  1.00  0.00    -0.744 OA
ENDBRANCH  91  92
ENDBRANCH  59  84
ENDBRANCH  33  34
ENDBRANCH  25  28
ENDBRANCH  23  24
ENDBRANCH   1  23
TORSDOF 15
