REMARK SMILES C[N@H+]1CCO[C@H](CNc2nnc(SCC(=O)NCCCNC(=O)c3ccc(-c4c5nc(c(-c6c(F)cc(S(=O)(=O)[O-])cc6F)c6ccc([nH]6)c(-c6c(F)cc(S(=O)(=O)[O-])cc6F)c6nc(c(-c7c(F)cc(S(=O)(=O)[O-])cc7F)c7ccc4[nH]7)C=C6)C=C5)cc3)s2)C1
REMARK SMILES IDX 18 1 17 2 15 3 16 4 14 6 13 7 12 8 9 9 10 10 90 11 11 12
REMARK SMILES IDX 8 13 7 15 6 16 1 17 2 18 3 19 91 20 4 22 5 23 19 24 20 25
REMARK SMILES IDX 21 26 22 27 23 29 24 30 25 31 89 32 26 33 88 34 27 35 28 36
REMARK SMILES IDX 29 37 82 38 30 39 87 40 81 41 83 42 31 43 86 44 80 45 79 46
REMARK SMILES IDX 32 48 66 49 45 50 65 51 46 52 49 53 64 54 84 55 47 56 48 57
REMARK SMILES IDX 63 59 85 60 50 61 33 62 34 63 43 64 35 65 36 66 42 67 44 68
REMARK SMILES IDX 37 69 38 70 39 71 40 72 41 73 67 74 68 75 77 76 69 77 70 78
REMARK SMILES IDX 76 79 78 80 71 81 72 82 73 83 74 84 75 85 51 86 52 87 61 88
REMARK SMILES IDX 53 89 54 90 60 91 62 92 55 93 56 94 57 95 58 96 59 97
REMARK H PARENT 17 5 8 14 2 21 21 28 83 47 49 58
REMARK Flexibility Score: inf
ROOT
ATOM      1  C   UNL     1      -8.648   3.591   2.006  1.00  0.00     0.117 C 
ENDROOT
BRANCH   1   2
ATOM      2  N   UNL     1      -8.225   2.654   0.982  1.00  0.00    -0.355 N 
ATOM      3  C   UNL     1      -8.269   1.293   0.970  1.00  0.00     0.230 C 
ATOM      4  O   UNL     1      -7.909   0.719  -0.062  1.00  0.00    -0.274 OA
ATOM      5  H   UNL     1      -7.847   3.066   0.171  1.00  0.00     0.163 HD
BRANCH   3   6
ATOM      6  C   UNL     1      -8.830   0.508   2.140  1.00  0.00     0.177 C 
BRANCH   6   7
ATOM      7  S   UNL     1      -7.903   0.685   3.674  1.00  0.00    -0.084 SA
BRANCH   7   8
ATOM      8  C   UNL     1      -6.369  -0.113   3.414  1.00  0.00     0.176 A 
ATOM      9  C   UNL     1      -4.328  -1.193   2.794  1.00  0.00     0.206 A 
ATOM     10  N   UNL     1      -4.417  -0.972   4.089  1.00  0.00    -0.119 NA
ATOM     11  S   UNL     1      -5.726  -0.671   1.937  1.00  0.00    -0.069 S 
ATOM     12  N   UNL     1      -5.582  -0.326   4.445  1.00  0.00    -0.130 NA
BRANCH   9  13
ATOM     13  N   UNL     1      -3.266  -1.827   2.243  1.00  0.00    -0.357 N 
ATOM     14  H   UNL     1      -2.743  -2.434   2.815  1.00  0.00     0.163 HD
BRANCH  13  15
ATOM     15  C   UNL     1      -2.848  -1.668   0.857  1.00  0.00     0.153 C 
BRANCH  15  16
ATOM     16  C   UNL     1      -1.733  -0.614   0.677  1.00  0.00     0.192 C 
ATOM     17  C   UNL     1       1.284  -0.037   0.025  1.00  0.00     0.332 C 
ATOM     18  N   UNL     1       0.644  -0.025   1.336  1.00  0.00    -0.333 N 
ATOM     19  C   UNL     1       0.109   1.312   1.677  1.00  0.00     0.290 C 
ATOM     20  C   UNL     1      -0.450  -1.007   1.443  1.00  0.00     0.296 C 
ATOM     21  H   UNL     1       1.380  -0.277   1.996  1.00  0.00     0.348 HD
ATOM     22  C   UNL     1      -1.189   1.679   0.932  1.00  0.00     0.222 C 
ATOM     23  O   UNL     1      -2.207   0.680   1.091  1.00  0.00    -0.365 OA
ENDBRANCH  15  16
ENDBRANCH  13  15
ENDBRANCH   9  13
ENDBRANCH   7   8
ENDBRANCH   6   7
ENDBRANCH   3   6
ENDBRANCH   1   2
BRANCH   1  24
ATOM     24  C   UNL     1      -7.471   4.237   2.733  1.00  0.00     0.042 C 
BRANCH  24  25
ATOM     25  C   UNL     1      -6.551   5.071   1.843  1.00  0.00     0.118 C 
BRANCH  25  26
ATOM     26  N   UNL     1      -7.232   6.202   1.232  1.00  0.00    -0.352 N 
ATOM     27  C   UNL     1      -6.940   7.542   1.261  1.00  0.00     0.251 C 
ATOM     28  H   UNL     1      -8.034   5.967   0.713  1.00  0.00     0.163 HD
ATOM     29  O   UNL     1      -7.768   8.333   0.809  1.00  0.00    -0.269 OA
BRANCH  27  30
ATOM     30  C   UNL     1      -5.669   8.051   1.826  1.00  0.00     0.039 A 
ATOM     31  C   UNL     1      -5.691   9.263   2.524  1.00  0.00     0.014 A 
ATOM     32  C   UNL     1      -4.451   7.395   1.622  1.00  0.00     0.014 A 
ATOM     33  C   UNL     1      -4.507   9.794   3.045  1.00  0.00     0.010 A 
ATOM     34  C   UNL     1      -3.282   7.889   2.204  1.00  0.00     0.010 A 
ATOM     35  C   UNL     1      -3.294   9.102   2.907  1.00  0.00    -0.014 A 
BRANCH  35  36
ATOM     36  C   UNL     1      -2.034   9.657   3.468  1.00  0.00     0.031 A 
ATOM     37  C   UNL     1      -0.915  10.085   2.554  1.00  0.00     0.074 A 
ATOM     38  C   UNL     1      -1.885   9.758   4.803  1.00  0.00     0.049 A 
ATOM     39  N   UNL     1       0.253  10.592   2.857  1.00  0.00    -0.248 NA
ATOM     40  C   UNL     1      -1.129   9.895   1.111  1.00  0.00     0.031 C 
ATOM     41  C   UNL     1      -2.875   9.341   5.798  1.00  0.00     0.029 A 
ATOM     42  N   UNL     1      -0.846  10.248   5.555  1.00  0.00    -0.354 N 
ATOM     43  C   UNL     1       0.915  10.775   1.648  1.00  0.00     0.074 A 
ATOM     44  C   UNL     1       0.040  10.268   0.611  1.00  0.00     0.031 C 
ATOM     45  C   UNL     1      -2.413   9.629   7.026  1.00  0.00     0.029 A 
ATOM     46  C   UNL     1      -1.085  10.223   6.909  1.00  0.00     0.049 A 
ATOM     47  H   UNL     1      -0.009  10.585   5.162  1.00  0.00     0.167 HD
ATOM     48  C   UNL     1       2.127  11.336   1.416  1.00  0.00     0.037 A 
ATOM     49  C   UNL     1      -0.325  10.644   7.938  1.00  0.00     0.037 A 
ATOM     50  C   UNL     1       2.987  11.857   2.446  1.00  0.00     0.049 A 
ATOM     51  C   UNL     1       1.013  11.271   7.657  1.00  0.00     0.074 A 
ATOM     52  C   UNL     1       4.219  12.475   2.313  1.00  0.00     0.029 A 
ATOM     53  N   UNL     1       2.704  11.824   3.804  1.00  0.00    -0.354 N 
ATOM     54  N   UNL     1       1.603  11.478   6.503  1.00  0.00    -0.248 NA
ATOM     55  C   UNL     1       1.784  11.734   8.819  1.00  0.00     0.031 C 
ATOM     56  C   UNL     1       4.694  12.789   3.593  1.00  0.00     0.029 A 
ATOM     57  C   UNL     1       3.739  12.403   4.520  1.00  0.00     0.049 A 
ATOM     58  H   UNL     1       1.887  11.444   4.201  1.00  0.00     0.167 HD
ATOM     59  C   UNL     1       2.797  12.127   6.798  1.00  0.00     0.074 A 
ATOM     60  C   UNL     1       2.841  12.282   8.239  1.00  0.00     0.031 C 
ATOM     61  C   UNL     1       3.766  12.559   5.953  1.00  0.00     0.037 A 
BRANCH  48  62
ATOM     62  C   UNL     1       2.585  11.414  -0.016  1.00  0.00     0.058 A 
ATOM     63  C   UNL     1       1.972  12.279  -0.938  1.00  0.00     0.135 A 
ATOM     64  C   UNL     1       3.643  10.614  -0.476  1.00  0.00     0.135 A 
ATOM     65  F   UNL     1       0.947  13.057  -0.556  1.00  0.00    -0.206 F 
ATOM     66  C   UNL     1       2.359  12.313  -2.274  1.00  0.00     0.059 A 
ATOM     67  C   UNL     1       4.066  10.652  -1.802  1.00  0.00     0.059 A 
ATOM     68  F   UNL     1       4.268   9.771   0.362  1.00  0.00    -0.206 F 
ATOM     69  C   UNL     1       3.401  11.489  -2.699  1.00  0.00     0.060 A 
BRANCH  69  70
ATOM     70  S   UNL     1       3.873  11.513  -4.441  1.00  0.00     0.124 S 
ATOM     71  O   UNL     1       2.789  10.740  -5.044  1.00  0.00    -0.237 OA
ATOM     72  O   UNL     1       3.872  12.943  -4.747  1.00  0.00    -0.237 OA
ATOM     73  O   UNL     1       5.180  10.874  -4.450  1.00  0.00    -0.744 OA
ENDBRANCH  69  70
ENDBRANCH  48  62
BRANCH  49  74
ATOM     74  C   UNL     1      -0.839  10.541   9.329  1.00  0.00     0.058 A 
ATOM     75  C   UNL     1      -1.243  11.689  10.028  1.00  0.00     0.135 A 
ATOM     76  C   UNL     1      -0.954   9.304   9.979  1.00  0.00     0.135 A 
ATOM     77  F   UNL     1      -1.146  12.895   9.448  1.00  0.00    -0.206 F 
ATOM     78  C   UNL     1      -1.728  11.617  11.329  1.00  0.00     0.059 A 
ATOM     79  C   UNL     1      -1.458   9.204  11.273  1.00  0.00     0.059 A 
ATOM     80  F   UNL     1      -0.596   8.176   9.347  1.00  0.00    -0.206 F 
ATOM     81  C   UNL     1      -1.834  10.368  11.943  1.00  0.00     0.060 A 
BRANCH  81  82
ATOM     82  S   UNL     1      -2.515  10.280  13.613  1.00  0.00     0.124 S 
ATOM     83  O   UNL     1      -1.403  10.785  14.410  1.00  0.00    -0.237 OA
ATOM     84  O   UNL     1      -3.680  11.155  13.517  1.00  0.00    -0.237 OA
ATOM     85  O   UNL     1      -2.818   8.862  13.777  1.00  0.00    -0.744 OA
ENDBRANCH  81  82
ENDBRANCH  49  74
BRANCH  61  86
ATOM     86  C   UNL     1       4.933  13.284   6.564  1.00  0.00     0.058 A 
ATOM     87  C   UNL     1       5.917  12.612   7.307  1.00  0.00     0.135 A 
ATOM     88  C   UNL     1       5.076  14.670   6.389  1.00  0.00     0.135 A 
ATOM     89  F   UNL     1       5.825  11.288   7.507  1.00  0.00    -0.206 F 
ATOM     90  C   UNL     1       6.981  13.295   7.888  1.00  0.00     0.059 A 
ATOM     91  C   UNL     1       6.146  15.369   6.939  1.00  0.00     0.059 A 
ATOM     92  F   UNL     1       4.170  15.359   5.677  1.00  0.00    -0.206 F 
ATOM     93  C   UNL     1       7.083  14.675   7.703  1.00  0.00     0.060 A 
BRANCH  93  94
ATOM     94  S   UNL     1       8.469  15.553   8.457  1.00  0.00     0.124 S 
ATOM     95  O   UNL     1       8.040  15.638   9.849  1.00  0.00    -0.237 OA
ATOM     96  O   UNL     1       9.591  14.658   8.193  1.00  0.00    -0.237 OA
ATOM     97  O   UNL     1       8.502  16.819   7.730  1.00  0.00    -0.744 OA
ENDBRANCH  93  94
ENDBRANCH  61  86
ENDBRANCH  35  36
ENDBRANCH  27  30
ENDBRANCH  25  26
ENDBRANCH  24  25
ENDBRANCH   1  24
TORSDOF 18
