REMARK SMILES CC1(C)C(n2c(SCC(=O)NCCCNC(=O)c3ccc(-c4c5nc(c(-c6c(F)cc(S(=O)(=O)[O-])cc6F)c6ccc([nH]6)c(-c6c(F)cc(S(=O)(=O)[O-])cc6F)c6nc(c(-c7c(F)cc(S(=O)(=O)[O-])cc7F)c7ccc4[nH]7)C=C6)C=C5)cc3)nc3cnccc32)C1(C)C
REMARK SMILES IDX 13 1 12 2 11 3 9 4 10 5 8 7 7 8 6 9 5 10 90 11 84 12 85 13
REMARK SMILES IDX 89 14 86 15 88 16 87 17 4 18 1 19 2 20 3 21 91 22 92 23
REMARK SMILES IDX 93 24 14 25 15 26 16 27 17 29 18 30 19 31 83 32 20 33 82 34
REMARK SMILES IDX 21 35 22 36 23 37 76 38 24 39 81 40 75 41 77 42 25 43 80 44
REMARK SMILES IDX 74 45 73 46 26 48 60 49 39 50 59 51 40 52 43 53 58 54 78 55
REMARK SMILES IDX 41 56 42 57 57 59 79 60 44 61 27 62 28 63 37 64 29 65 30 66
REMARK SMILES IDX 36 67 38 68 31 69 32 70 33 71 34 72 35 73 61 74 62 75 71 76
REMARK SMILES IDX 63 77 64 78 70 79 72 80 65 81 66 82 67 83 68 84 69 85 45 86
REMARK SMILES IDX 46 87 55 88 47 89 48 90 54 91 56 92 49 93 50 94 51 95 52 96
REMARK SMILES IDX 53 97
REMARK H PARENT 11 6 15 28 77 47 43 58
REMARK Flexibility Score: inf
ROOT
ATOM      1  C   UNL     1       0.571   8.528  -1.621  1.00  0.00     0.042 C 
ENDROOT
BRANCH   1   2
ATOM      2  C   UNL     1       0.352   7.640  -2.842  1.00  0.00     0.117 C 
BRANCH   2   3
ATOM      3  N   UNL     1       1.113   6.413  -2.717  1.00  0.00    -0.355 N 
ATOM      4  C   UNL     1       0.719   5.237  -2.168  1.00  0.00     0.230 C 
ATOM      5  O   UNL     1       1.606   4.454  -1.809  1.00  0.00    -0.274 OA
ATOM      6  H   UNL     1       2.030   6.436  -3.075  1.00  0.00     0.163 HD
BRANCH   4   7
ATOM      7  C   UNL     1      -0.745   4.894  -2.116  1.00  0.00     0.178 C 
BRANCH   7   8
ATOM      8  S   UNL     1      -1.614   5.376  -0.651  1.00  0.00    -0.078 SA
BRANCH   8   9
ATOM      9  C   UNL     1      -0.933   4.689   0.778  1.00  0.00     0.169 A 
ATOM     10  N   UNL     1      -0.124   3.591   1.016  1.00  0.00    -0.315 N 
ATOM     11  C   UNL     1       0.282   3.673   2.344  1.00  0.00     0.072 A 
ATOM     12  N   UNL     1      -1.243   5.289   1.912  1.00  0.00    -0.221 NA
ATOM     13  C   UNL     1      -0.498   4.692   2.882  1.00  0.00     0.108 A 
ATOM     14  C   UNL     1       1.197   2.972   3.134  1.00  0.00     0.049 A 
ATOM     15  C   UNL     1      -0.413   4.982   4.247  1.00  0.00     0.141 A 
ATOM     16  C   UNL     1       1.223   3.341   4.476  1.00  0.00     0.113 A 
ATOM     17  N   UNL     1       0.449   4.296   5.040  1.00  0.00    -0.262 NA
BRANCH  10  18
ATOM     18  C   UNL     1       0.414   2.572   0.125  1.00  0.00     0.102 C 
ATOM     19  C   UNL     1       1.514   0.159   0.108  1.00  0.00     0.014 C 
ATOM     20  C   UNL     1       0.315   1.060   0.350  1.00  0.00    -0.007 C 
ATOM     21  C   UNL     1      -0.574   0.541   1.459  1.00  0.00     0.014 C 
ATOM     22  C   UNL     1      -0.296   1.716  -0.915  1.00  0.00    -0.007 C 
ATOM     23  C   UNL     1       0.433   1.532  -2.244  1.00  0.00     0.014 C 
ATOM     24  C   UNL     1      -1.804   1.655  -1.058  1.00  0.00     0.014 C 
ENDBRANCH  10  18
ENDBRANCH   8   9
ENDBRANCH   7   8
ENDBRANCH   4   7
ENDBRANCH   2   3
ENDBRANCH   1   2
BRANCH   1  25
ATOM     25  C   UNL     1       2.050   8.757  -1.290  1.00  0.00     0.118 C 
BRANCH  25  26
ATOM     26  N   UNL     1       2.860   9.183  -2.415  1.00  0.00    -0.352 N 
ATOM     27  C   UNL     1       3.030  10.363  -3.081  1.00  0.00     0.251 C 
ATOM     28  H   UNL     1       3.414   8.457  -2.782  1.00  0.00     0.163 HD
ATOM     29  O   UNL     1       3.849  10.351  -4.004  1.00  0.00    -0.269 OA
BRANCH  27  30
ATOM     30  C   UNL     1       2.255  11.601  -2.815  1.00  0.00     0.039 A 
ATOM     31  C   UNL     1       1.404  11.804  -1.728  1.00  0.00     0.014 A 
ATOM     32  C   UNL     1       2.377  12.618  -3.778  1.00  0.00     0.014 A 
ATOM     33  C   UNL     1       0.581  12.919  -1.680  1.00  0.00     0.010 A 
ATOM     34  C   UNL     1       1.595  13.760  -3.708  1.00  0.00     0.010 A 
ATOM     35  C   UNL     1       0.651  13.874  -2.693  1.00  0.00    -0.014 A 
BRANCH  35  36
ATOM     36  C   UNL     1      -0.225  15.034  -2.599  1.00  0.00     0.031 A 
ATOM     37  C   UNL     1      -0.038  15.862  -1.371  1.00  0.00     0.074 A 
ATOM     38  C   UNL     1      -1.056  15.385  -3.601  1.00  0.00     0.049 A 
ATOM     39  N   UNL     1      -0.903  16.127  -0.446  1.00  0.00    -0.248 NA
ATOM     40  C   UNL     1       1.321  16.338  -1.062  1.00  0.00     0.031 C 
ATOM     41  C   UNL     1      -1.169  14.801  -4.941  1.00  0.00     0.029 A 
ATOM     42  N   UNL     1      -1.926  16.427  -3.657  1.00  0.00    -0.354 N 
ATOM     43  C   UNL     1      -0.256  16.957   0.469  1.00  0.00     0.074 A 
ATOM     44  C   UNL     1       1.140  16.937   0.115  1.00  0.00     0.031 C 
ATOM     45  C   UNL     1      -1.864  15.643  -5.738  1.00  0.00     0.029 A 
ATOM     46  C   UNL     1      -2.356  16.750  -4.938  1.00  0.00     0.049 A 
ATOM     47  H   UNL     1      -2.226  16.914  -2.855  1.00  0.00     0.167 HD
ATOM     48  C   UNL     1      -0.942  17.739   1.350  1.00  0.00     0.037 A 
ATOM     49  C   UNL     1      -3.004  17.885  -5.308  1.00  0.00     0.037 A 
ATOM     50  C   UNL     1      -2.307  17.305   1.482  1.00  0.00     0.049 A 
ATOM     51  C   UNL     1      -3.614  18.455  -4.075  1.00  0.00     0.074 A 
ATOM     52  C   UNL     1      -2.908  16.150   1.943  1.00  0.00     0.029 A 
ATOM     53  N   UNL     1      -3.270  17.969   0.760  1.00  0.00    -0.354 N 
ATOM     54  N   UNL     1      -4.583  17.873  -3.418  1.00  0.00    -0.248 NA
ATOM     55  C   UNL     1      -2.816  19.395  -3.297  1.00  0.00     0.031 C 
ATOM     56  C   UNL     1      -4.012  15.939   1.069  1.00  0.00     0.029 A 
ATOM     57  C   UNL     1      -4.060  17.011   0.175  1.00  0.00     0.049 A 
ATOM     58  H   UNL     1      -3.374  18.944   0.679  1.00  0.00     0.167 HD
ATOM     59  C   UNL     1      -4.265  18.044  -2.078  1.00  0.00     0.074 A 
ATOM     60  C   UNL     1      -3.201  19.048  -2.065  1.00  0.00     0.031 C 
ATOM     61  C   UNL     1      -4.680  17.157  -1.124  1.00  0.00     0.037 A 
BRANCH  48  62
ATOM     62  C   UNL     1      -0.471  19.076   1.865  1.00  0.00     0.058 A 
ATOM     63  C   UNL     1      -1.170  19.709   2.915  1.00  0.00     0.135 A 
ATOM     64  C   UNL     1       0.459  19.886   1.177  1.00  0.00     0.135 A 
ATOM     65  F   UNL     1      -2.078  19.033   3.638  1.00  0.00    -0.206 F 
ATOM     66  C   UNL     1      -1.014  21.065   3.205  1.00  0.00     0.059 A 
ATOM     67  C   UNL     1       0.666  21.227   1.484  1.00  0.00     0.059 A 
ATOM     68  F   UNL     1       1.138  19.442   0.112  1.00  0.00    -0.206 F 
ATOM     69  C   UNL     1      -0.106  21.820   2.469  1.00  0.00     0.060 A 
BRANCH  69  70
ATOM     70  S   UNL     1      -0.001  23.596   2.750  1.00  0.00     0.124 S 
ATOM     71  O   UNL     1      -1.315  24.043   2.301  1.00  0.00    -0.237 OA
ATOM     72  O   UNL     1       0.241  23.661   4.188  1.00  0.00    -0.237 OA
ATOM     73  O   UNL     1       1.123  24.004   1.912  1.00  0.00    -0.744 OA
ENDBRANCH  69  70
ENDBRANCH  48  62
BRANCH  49  74
ATOM     74  C   UNL     1      -2.821  18.655  -6.570  1.00  0.00     0.058 A 
ATOM     75  C   UNL     1      -3.715  19.668  -6.961  1.00  0.00     0.135 A 
ATOM     76  C   UNL     1      -1.617  18.584  -7.303  1.00  0.00     0.135 A 
ATOM     77  F   UNL     1      -4.872  19.837  -6.303  1.00  0.00    -0.206 F 
ATOM     78  C   UNL     1      -3.421  20.569  -7.996  1.00  0.00     0.059 A 
ATOM     79  C   UNL     1      -1.307  19.460  -8.342  1.00  0.00     0.059 A 
ATOM     80  F   UNL     1      -0.656  17.708  -6.973  1.00  0.00    -0.206 F 
ATOM     81  C   UNL     1      -2.205  20.466  -8.671  1.00  0.00     0.060 A 
BRANCH  81  82
ATOM     82  S   UNL     1      -1.754  21.709  -9.907  1.00  0.00     0.124 S 
ATOM     83  O   UNL     1      -2.748  21.476 -10.949  1.00  0.00    -0.237 OA
ATOM     84  O   UNL     1      -1.895  22.952  -9.157  1.00  0.00    -0.237 OA
ATOM     85  O   UNL     1      -0.383  21.353 -10.264  1.00  0.00    -0.744 OA
ENDBRANCH  81  82
ENDBRANCH  49  74
BRANCH  61  86
ATOM     86  C   UNL     1      -5.673  16.090  -1.512  1.00  0.00     0.058 A 
ATOM     87  C   UNL     1      -5.403  15.064  -2.436  1.00  0.00     0.135 A 
ATOM     88  C   UNL     1      -6.864  15.987  -0.778  1.00  0.00     0.135 A 
ATOM     89  F   UNL     1      -4.239  15.021  -3.097  1.00  0.00    -0.206 F 
ATOM     90  C   UNL     1      -6.289  14.006  -2.646  1.00  0.00     0.059 A 
ATOM     91  C   UNL     1      -7.748  14.924  -0.947  1.00  0.00     0.059 A 
ATOM     92  F   UNL     1      -7.150  16.895   0.170  1.00  0.00    -0.206 F 
ATOM     93  C   UNL     1      -7.460  13.942  -1.892  1.00  0.00     0.060 A 
BRANCH  93  94
ATOM     94  S   UNL     1      -8.562  12.528  -2.106  1.00  0.00     0.124 S 
ATOM     95  O   UNL     1      -9.114  12.767  -3.435  1.00  0.00    -0.237 OA
ATOM     96  O   UNL     1      -7.650  11.394  -1.994  1.00  0.00    -0.237 OA
ATOM     97  O   UNL     1      -9.512  12.665  -1.003  1.00  0.00    -0.744 OA
ENDBRANCH  93  94
ENDBRANCH  61  86
ENDBRANCH  35  36
ENDBRANCH  27  30
ENDBRANCH  25  26
ENDBRANCH   1  25
TORSDOF 16
