REMARK SMILES Cc1cc(O[C@@H](C)C(=O)NCCCNC(=O)c2ccc(-c3c4nc(c(-c5c(F)cc(S(=O)(=O)[O-])cc5F)c5ccc([nH]5)c(-c5c(F)cc(S(=O)(=O)[O-])cc5F)c5nc(c(-c6c(F)cc(S(=O)(=O)[O-])cc6F)c6ccc3[nH]6)C=C5)C=C4)cc2)n(C)n1
REMARK SMILES IDX 12 1 11 2 10 3 8 4 9 5 6 7 7 8 5 9 4 10 1 11 2 12 3 13 85 14
REMARK SMILES IDX 83 15 84 16 13 17 14 18 15 19 16 21 17 22 18 23 82 24 19 25
REMARK SMILES IDX 81 26 20 27 21 28 22 29 75 30 23 31 80 32 74 33 76 34 24 35
REMARK SMILES IDX 79 36 73 37 72 38 25 40 59 41 38 42 58 43 39 44 42 45 57 46
REMARK SMILES IDX 77 47 40 48 41 49 56 51 78 52 43 53 26 54 27 55 36 56 28 57
REMARK SMILES IDX 29 58 35 59 37 60 30 61 31 62 32 63 33 64 34 65 60 66 61 67
REMARK SMILES IDX 70 68 62 69 63 70 69 71 71 72 64 73 65 74 66 75 67 76 68 77
REMARK SMILES IDX 44 78 45 79 54 80 46 81 47 82 53 83 55 84 48 85 49 86 50 87
REMARK SMILES IDX 51 88 52 89
REMARK H PARENT 10 6 14 20 76 39 42 50
REMARK Flexibility Score: inf
ROOT
ATOM      1  C   UNL     1      -1.562  -1.302  -1.889  1.00  0.00     0.042 C 
ENDROOT
BRANCH   1   2
ATOM      2  C   UNL     1      -1.698  -2.659  -1.211  1.00  0.00     0.118 C 
BRANCH   2   3
ATOM      3  N   UNL     1      -0.679  -3.578  -1.665  1.00  0.00    -0.353 N 
ATOM      4  C   UNL     1       0.543  -3.879  -1.153  1.00  0.00     0.260 C 
ATOM      5  O   UNL     1       1.242  -4.636  -1.842  1.00  0.00    -0.271 OA
ATOM      6  H   UNL     1      -0.910  -4.069  -2.486  1.00  0.00     0.163 HD
BRANCH   4   7
ATOM      7  C   UNL     1       1.050  -3.406   0.242  1.00  0.00     0.260 C 
ATOM      8  C   UNL     1       0.263  -4.017   1.399  1.00  0.00     0.064 C 
BRANCH   7   9
ATOM      9  O   UNL     1       1.554  -2.092   0.437  1.00  0.00    -0.465 OA
BRANCH   9  10
ATOM     10  C   UNL     1       0.768  -1.050   0.706  1.00  0.00     0.212 A 
ATOM     11  C   UNL     1      -2.118   1.148   1.220  1.00  0.00     0.069 C 
ATOM     12  C   UNL     1      -0.794   0.495   1.062  1.00  0.00     0.063 A 
ATOM     13  C   UNL     1      -0.444  -0.850   1.335  1.00  0.00     0.093 A 
ATOM     14  N   UNL     1       0.220   1.155   0.499  1.00  0.00    -0.175 NA
ATOM     15  N   UNL     1       1.184   0.223   0.374  1.00  0.00    -0.237 N 
ATOM     16  C   UNL     1       2.478   0.629  -0.118  1.00  0.00     0.178 C 
ENDBRANCH   9  10
ENDBRANCH   7   9
ENDBRANCH   4   7
ENDBRANCH   2   3
ENDBRANCH   1   2
BRANCH   1  17
ATOM     17  C   UNL     1      -2.626  -1.042  -2.940  1.00  0.00     0.118 C 
BRANCH  17  18
ATOM     18  N   UNL     1      -3.960  -0.917  -2.353  1.00  0.00    -0.352 N 
ATOM     19  C   UNL     1      -4.802   0.164  -2.239  1.00  0.00     0.251 C 
ATOM     20  H   UNL     1      -4.317  -1.752  -1.974  1.00  0.00     0.163 HD
ATOM     21  O   UNL     1      -5.785   0.074  -1.504  1.00  0.00    -0.269 OA
BRANCH  19  22
ATOM     22  C   UNL     1      -4.536   1.427  -2.966  1.00  0.00     0.039 A 
ATOM     23  C   UNL     1      -4.893   2.648  -2.382  1.00  0.00     0.014 A 
ATOM     24  C   UNL     1      -3.962   1.416  -4.236  1.00  0.00     0.014 A 
ATOM     25  C   UNL     1      -4.596   3.850  -3.035  1.00  0.00     0.010 A 
ATOM     26  C   UNL     1      -3.558   2.606  -4.825  1.00  0.00     0.010 A 
ATOM     27  C   UNL     1      -3.883   3.840  -4.242  1.00  0.00    -0.014 A 
BRANCH  27  28
ATOM     28  C   UNL     1      -3.488   5.078  -4.965  1.00  0.00     0.031 A 
ATOM     29  C   UNL     1      -3.938   5.263  -6.392  1.00  0.00     0.074 A 
ATOM     30  C   UNL     1      -2.631   5.953  -4.402  1.00  0.00     0.049 A 
ATOM     31  N   UNL     1      -3.512   6.108  -7.293  1.00  0.00    -0.248 NA
ATOM     32  C   UNL     1      -4.972   4.334  -6.884  1.00  0.00     0.031 C 
ATOM     33  C   UNL     1      -2.096   5.866  -3.041  1.00  0.00     0.029 A 
ATOM     34  N   UNL     1      -2.027   7.072  -4.921  1.00  0.00    -0.354 N 
ATOM     35  C   UNL     1      -4.184   5.779  -8.465  1.00  0.00     0.074 A 
ATOM     36  C   UNL     1      -5.013   4.632  -8.174  1.00  0.00     0.031 C 
ATOM     37  C   UNL     1      -1.250   6.889  -2.833  1.00  0.00     0.029 A 
ATOM     38  C   UNL     1      -1.135   7.669  -4.060  1.00  0.00     0.049 A 
ATOM     39  H   UNL     1      -2.215   7.415  -5.825  1.00  0.00     0.167 HD
ATOM     40  C   UNL     1      -4.127   6.392  -9.671  1.00  0.00     0.037 A 
ATOM     41  C   UNL     1      -0.295   8.707  -4.249  1.00  0.00     0.037 A 
ATOM     42  C   UNL     1      -3.345   7.572  -9.928  1.00  0.00     0.049 A 
ATOM     43  C   UNL     1      -0.266   9.387  -5.594  1.00  0.00     0.074 A 
ATOM     44  C   UNL     1      -3.273   8.316 -11.092  1.00  0.00     0.029 A 
ATOM     45  N   UNL     1      -2.513   8.185  -9.004  1.00  0.00    -0.354 N 
ATOM     46  N   UNL     1      -0.937   9.090  -6.681  1.00  0.00    -0.248 NA
ATOM     47  C   UNL     1       0.630  10.543  -5.741  1.00  0.00     0.031 C 
ATOM     48  C   UNL     1      -2.364   9.356 -10.886  1.00  0.00     0.029 A 
ATOM     49  C   UNL     1      -1.915   9.294  -9.575  1.00  0.00     0.049 A 
ATOM     50  H   UNL     1      -2.369   7.878  -8.080  1.00  0.00     0.167 HD
ATOM     51  C   UNL     1      -0.580  10.048  -7.624  1.00  0.00     0.074 A 
ATOM     52  C   UNL     1       0.371  10.931  -6.983  1.00  0.00     0.031 C 
ATOM     53  C   UNL     1      -1.006  10.188  -8.902  1.00  0.00     0.037 A 
BRANCH  40  54
ATOM     54  C   UNL     1      -4.935   5.814 -10.800  1.00  0.00     0.058 A 
ATOM     55  C   UNL     1      -6.337   5.879 -10.816  1.00  0.00     0.135 A 
ATOM     56  C   UNL     1      -4.295   5.240 -11.911  1.00  0.00     0.135 A 
ATOM     57  F   UNL     1      -7.002   6.401  -9.773  1.00  0.00    -0.206 F 
ATOM     58  C   UNL     1      -7.077   5.377 -11.881  1.00  0.00     0.059 A 
ATOM     59  C   UNL     1      -5.013   4.761 -13.003  1.00  0.00     0.059 A 
ATOM     60  F   UNL     1      -2.956   5.150 -11.949  1.00  0.00    -0.206 F 
ATOM     61  C   UNL     1      -6.406   4.824 -12.973  1.00  0.00     0.060 A 
BRANCH  61  62
ATOM     62  S   UNL     1      -7.382   4.206 -14.359  1.00  0.00     0.124 S 
ATOM     63  O   UNL     1      -7.966   2.997 -13.787  1.00  0.00    -0.237 OA
ATOM     64  O   UNL     1      -8.312   5.305 -14.600  1.00  0.00    -0.237 OA
ATOM     65  O   UNL     1      -6.388   3.988 -15.406  1.00  0.00    -0.744 OA
ENDBRANCH  61  62
ENDBRANCH  40  54
BRANCH  41  66
ATOM     66  C   UNL     1       0.586   9.172  -3.142  1.00  0.00     0.058 A 
ATOM     67  C   UNL     1       0.372  10.414  -2.526  1.00  0.00     0.135 A 
ATOM     68  C   UNL     1       1.658   8.392  -2.681  1.00  0.00     0.135 A 
ATOM     69  F   UNL     1      -0.637  11.199  -2.933  1.00  0.00    -0.206 F 
ATOM     70  C   UNL     1       1.206  10.882  -1.516  1.00  0.00     0.059 A 
ATOM     71  C   UNL     1       2.489   8.825  -1.651  1.00  0.00     0.059 A 
ATOM     72  F   UNL     1       1.897   7.188  -3.222  1.00  0.00    -0.206 F 
ATOM     73  C   UNL     1       2.264  10.080  -1.085  1.00  0.00     0.060 A 
BRANCH  73  74
ATOM     74  S   UNL     1       3.331  10.691   0.238  1.00  0.00     0.124 S 
ATOM     75  O   UNL     1       4.087  11.730  -0.452  1.00  0.00    -0.237 OA
ATOM     76  O   UNL     1       2.361  11.156   1.224  1.00  0.00    -0.237 OA
ATOM     77  O   UNL     1       4.093   9.509   0.628  1.00  0.00    -0.744 OA
ENDBRANCH  73  74
ENDBRANCH  41  66
BRANCH  53  78
ATOM     78  C   UNL     1      -0.524  11.377  -9.683  1.00  0.00     0.058 A 
ATOM     79  C   UNL     1       0.772  11.442 -10.214  1.00  0.00     0.135 A 
ATOM     80  C   UNL     1      -1.422  12.409 -10.006  1.00  0.00     0.135 A 
ATOM     81  F   UNL     1       1.668  10.484  -9.929  1.00  0.00    -0.206 F 
ATOM     82  C   UNL     1       1.161  12.489 -11.044  1.00  0.00     0.059 A 
ATOM     83  C   UNL     1      -1.062  13.450 -10.854  1.00  0.00     0.059 A 
ATOM     84  F   UNL     1      -2.676  12.387  -9.528  1.00  0.00    -0.206 F 
ATOM     85  C   UNL     1       0.233  13.481 -11.369  1.00  0.00     0.060 A 
BRANCH  85  86
ATOM     86  S   UNL     1       0.724  14.781 -12.520  1.00  0.00     0.124 S 
ATOM     87  O   UNL     1       1.626  15.579 -11.696  1.00  0.00    -0.237 OA
ATOM     88  O   UNL     1       1.353  14.023 -13.597  1.00  0.00    -0.237 OA
ATOM     89  O   UNL     1      -0.540  15.423 -12.869  1.00  0.00    -0.744 OA
ENDBRANCH  85  86
ENDBRANCH  53  78
ENDBRANCH  27  28
ENDBRANCH  19  22
ENDBRANCH  17  18
ENDBRANCH   1  17
TORSDOF 15
