REMARK SMILES CS(=O)(=O)CCSCc1cc(F)cc(/C=C/C(=O)NCCCNC(=O)c2ccc(-c3c4nc(c(-c5c(F)cc(S(=O)(=O)[O-])cc5F)c5ccc([nH]5)c(-c5c(F)cc(S(=O)(=O)[O-])cc5F)c5nc(c(-c6c(F)cc(S(=O)(=O)[O-])cc6F)c6ccc3[nH]6)C=C5)C=C4)cc2)c1
REMARK SMILES IDX 17 1 18 2 19 3 16 5 15 6 14 7 9 8 10 9 92 10 11 11 12 12
REMARK SMILES IDX 13 13 8 14 7 15 6 16 5 17 2 18 1 19 3 20 4 21 20 22 21 23
REMARK SMILES IDX 22 24 23 25 24 26 25 28 26 29 27 30 91 31 28 32 90 33 29 34
REMARK SMILES IDX 30 35 31 36 84 37 32 38 89 39 83 40 85 41 33 42 88 43 82 44
REMARK SMILES IDX 81 45 34 47 68 48 47 49 67 50 48 51 51 52 66 53 86 54 49 55
REMARK SMILES IDX 50 56 65 58 87 59 52 60 35 61 36 62 45 63 37 64 38 65 44 66
REMARK SMILES IDX 46 67 39 68 40 69 41 70 42 71 43 72 69 73 70 74 79 75 71 76
REMARK SMILES IDX 72 77 78 78 80 79 73 80 74 81 75 82 76 83 77 84 53 85 54 86
REMARK SMILES IDX 63 87 55 88 56 89 62 90 64 91 57 92 58 93 59 94 60 95 61 96
REMARK H PARENT 19 4 23 27 85 46 51 57
REMARK Flexibility Score: inf
ROOT
ATOM      1  C   UNL     1      -6.090   4.682  -1.166  1.00  0.00     0.244 C 
ATOM      2  O   UNL     1      -7.317   4.724  -1.236  1.00  0.00    -0.270 OA
ATOM      3  N   UNL     1      -5.387   5.837  -1.040  1.00  0.00    -0.352 N 
ATOM      4  H   UNL     1      -5.932   6.654  -1.104  1.00  0.00     0.163 HD
ENDROOT
BRANCH   1   5
ATOM      5  C   UNL     1      -5.418   3.366  -1.127  1.00  0.00     0.072 C 
ATOM      6  C   UNL     1      -4.275   3.079  -1.765  1.00  0.00     0.014 C 
BRANCH   6   7
ATOM      7  C   UNL     1      -3.598   1.779  -1.741  1.00  0.00    -0.022 A 
ATOM      8  C   UNL     1      -1.476   0.550  -1.929  1.00  0.00    -0.035 A 
ATOM      9  C   UNL     1      -2.200  -0.634  -1.768  1.00  0.00     0.043 A 
ATOM     10  C   UNL     1      -2.203   1.754  -1.922  1.00  0.00     0.013 A 
ATOM     11  C   UNL     1      -3.579  -0.615  -1.595  1.00  0.00     0.124 A 
ATOM     12  F   UNL     1      -4.231  -1.771  -1.414  1.00  0.00    -0.207 F 
ATOM     13  C   UNL     1      -4.283   0.576  -1.575  1.00  0.00     0.047 A 
BRANCH   8  14
ATOM     14  C   UNL     1       0.032   0.612  -1.902  1.00  0.00     0.105 C 
BRANCH  14  15
ATOM     15  S   UNL     1       0.993  -0.337  -3.108  1.00  0.00    -0.156 SA
BRANCH  15  16
ATOM     16  C   UNL     1       0.906  -2.071  -2.541  1.00  0.00     0.086 C 
BRANCH  16  17
ATOM     17  C   UNL     1       1.779  -2.531  -1.385  1.00  0.00     0.147 C 
BRANCH  17  18
ATOM     18  S   UNL     1       1.216  -2.156   0.260  1.00  0.00     0.148 S 
ATOM     19  C   UNL     1       2.140  -0.706   0.723  1.00  0.00     0.158 C 
ATOM     20  O   UNL     1       1.661  -3.230   1.133  1.00  0.00    -0.229 OA
ATOM     21  O   UNL     1      -0.186  -1.809   0.217  1.00  0.00    -0.229 OA
ENDBRANCH  17  18
ENDBRANCH  16  17
ENDBRANCH  15  16
ENDBRANCH  14  15
ENDBRANCH   8  14
ENDBRANCH   6   7
ENDBRANCH   1   5
BRANCH   3  22
ATOM     22  C   UNL     1      -3.970   6.075  -0.825  1.00  0.00     0.118 C 
BRANCH  22  23
ATOM     23  C   UNL     1      -3.292   6.590  -2.093  1.00  0.00     0.042 C 
BRANCH  23  24
ATOM     24  C   UNL     1      -3.713   8.007  -2.465  1.00  0.00     0.118 C 
BRANCH  24  25
ATOM     25  N   UNL     1      -3.285   8.981  -1.468  1.00  0.00    -0.352 N 
ATOM     26  C   UNL     1      -2.476  10.079  -1.616  1.00  0.00     0.251 C 
ATOM     27  H   UNL     1      -3.627   8.829  -0.558  1.00  0.00     0.163 HD
ATOM     28  O   UNL     1      -2.023  10.641  -0.623  1.00  0.00    -0.269 OA
BRANCH  26  29
ATOM     29  C   UNL     1      -2.150  10.571  -2.969  1.00  0.00     0.039 A 
ATOM     30  C   UNL     1      -0.839  10.954  -3.260  1.00  0.00     0.014 A 
ATOM     31  C   UNL     1      -3.144  10.653  -3.948  1.00  0.00     0.014 A 
ATOM     32  C   UNL     1      -0.511  11.356  -4.556  1.00  0.00     0.010 A 
ATOM     33  C   UNL     1      -2.799  10.974  -5.255  1.00  0.00     0.010 A 
ATOM     34  C   UNL     1      -1.480  11.329  -5.572  1.00  0.00    -0.014 A 
BRANCH  34  35
ATOM     35  C   UNL     1      -1.147  11.662  -6.979  1.00  0.00     0.031 A 
ATOM     36  C   UNL     1      -1.815  12.830  -7.649  1.00  0.00     0.074 A 
ATOM     37  C   UNL     1      -0.315  10.861  -7.673  1.00  0.00     0.049 A 
ATOM     38  N   UNL     1      -1.762  13.204  -8.900  1.00  0.00    -0.248 NA
ATOM     39  C   UNL     1      -2.680  13.675  -6.807  1.00  0.00     0.031 C 
ATOM     40  C   UNL     1       0.367   9.681  -7.135  1.00  0.00     0.029 A 
ATOM     41  N   UNL     1       0.090  10.906  -8.984  1.00  0.00    -0.354 N 
ATOM     42  C   UNL     1      -2.592  14.314  -8.999  1.00  0.00     0.074 A 
ATOM     43  C   UNL     1      -3.181  14.521  -7.695  1.00  0.00     0.031 C 
ATOM     44  C   UNL     1       1.121   9.130  -8.098  1.00  0.00     0.029 A 
ATOM     45  C   UNL     1       0.938   9.882  -9.336  1.00  0.00     0.049 A 
ATOM     46  H   UNL     1      -0.200  11.605  -9.613  1.00  0.00     0.167 HD
ATOM     47  C   UNL     1      -2.819  15.104 -10.074  1.00  0.00     0.037 A 
ATOM     48  C   UNL     1       1.492   9.572 -10.525  1.00  0.00     0.037 A 
ATOM     49  C   UNL     1      -2.206  14.899 -11.360  1.00  0.00     0.049 A 
ATOM     50  C   UNL     1       1.196  10.443 -11.716  1.00  0.00     0.074 A 
ATOM     51  C   UNL     1      -2.334  15.670 -12.502  1.00  0.00     0.029 A 
ATOM     52  N   UNL     1      -1.352  13.852 -11.676  1.00  0.00    -0.354 N 
ATOM     53  N   UNL     1       0.444  11.517 -11.782  1.00  0.00    -0.248 NA
ATOM     54  C   UNL     1       1.815  10.064 -12.993  1.00  0.00     0.031 C 
ATOM     55  C   UNL     1      -1.601  15.059 -13.523  1.00  0.00     0.029 A 
ATOM     56  C   UNL     1      -0.966  13.942 -13.002  1.00  0.00     0.049 A 
ATOM     57  H   UNL     1      -1.063  13.150 -11.049  1.00  0.00     0.167 HD
ATOM     58  C   UNL     1       0.522  11.957 -13.098  1.00  0.00     0.074 A 
ATOM     59  C   UNL     1       1.399  11.038 -13.794  1.00  0.00     0.031 C 
ATOM     60  C   UNL     1      -0.079  13.025 -13.677  1.00  0.00     0.037 A 
BRANCH  47  61
ATOM     61  C   UNL     1      -3.753  16.271  -9.910  1.00  0.00     0.058 A 
ATOM     62  C   UNL     1      -4.983  16.304 -10.587  1.00  0.00     0.135 A 
ATOM     63  C   UNL     1      -3.402  17.391  -9.139  1.00  0.00     0.135 A 
ATOM     64  F   UNL     1      -5.374  15.258 -11.333  1.00  0.00    -0.206 F 
ATOM     65  C   UNL     1      -5.822  17.412 -10.520  1.00  0.00     0.059 A 
ATOM     66  C   UNL     1      -4.239  18.498  -9.033  1.00  0.00     0.059 A 
ATOM     67  F   UNL     1      -2.247  17.404  -8.454  1.00  0.00    -0.206 F 
ATOM     68  C   UNL     1      -5.440  18.505  -9.741  1.00  0.00     0.060 A 
BRANCH  68  69
ATOM     69  S   UNL     1      -6.551  19.925  -9.647  1.00  0.00     0.124 S 
ATOM     70  O   UNL     1      -6.473  20.458 -11.002  1.00  0.00    -0.237 OA
ATOM     71  O   UNL     1      -7.816  19.297  -9.280  1.00  0.00    -0.237 OA
ATOM     72  O   UNL     1      -5.949  20.756  -8.608  1.00  0.00    -0.744 OA
ENDBRANCH  68  69
ENDBRANCH  47  61
BRANCH  48  73
ATOM     73  C   UNL     1       2.401   8.399 -10.633  1.00  0.00     0.058 A 
ATOM     74  C   UNL     1       1.927   7.087 -10.488  1.00  0.00     0.135 A 
ATOM     75  C   UNL     1       3.778   8.575 -10.838  1.00  0.00     0.135 A 
ATOM     76  F   UNL     1       0.620   6.862 -10.278  1.00  0.00    -0.206 F 
ATOM     77  C   UNL     1       2.786   5.993 -10.511  1.00  0.00     0.059 A 
ATOM     78  C   UNL     1       4.655   7.495 -10.893  1.00  0.00     0.059 A 
ATOM     79  F   UNL     1       4.279   9.810 -10.993  1.00  0.00    -0.206 F 
ATOM     80  C   UNL     1       4.151   6.209 -10.709  1.00  0.00     0.060 A 
BRANCH  80  81
ATOM     81  S   UNL     1       5.251   4.777 -10.712  1.00  0.00     0.124 S 
ATOM     82  O   UNL     1       5.163   4.339  -9.322  1.00  0.00    -0.237 OA
ATOM     83  O   UNL     1       4.616   3.906 -11.695  1.00  0.00    -0.237 OA
ATOM     84  O   UNL     1       6.537   5.340 -11.111  1.00  0.00    -0.744 OA
ENDBRANCH  80  81
ENDBRANCH  48  73
BRANCH  60  85
ATOM     85  C   UNL     1       0.198  13.293 -15.130  1.00  0.00     0.058 A 
ATOM     86  C   UNL     1       0.937  14.425 -15.512  1.00  0.00     0.135 A 
ATOM     87  C   UNL     1      -0.370  12.506 -16.143  1.00  0.00     0.135 A 
ATOM     88  F   UNL     1       1.497  15.214 -14.582  1.00  0.00    -0.206 F 
ATOM     89  C   UNL     1       1.069  14.789 -16.847  1.00  0.00     0.059 A 
ATOM     90  C   UNL     1      -0.225  12.835 -17.488  1.00  0.00     0.059 A 
ATOM     91  F   UNL     1      -1.074  11.406 -15.830  1.00  0.00    -0.206 F 
ATOM     92  C   UNL     1       0.477  13.992 -17.828  1.00  0.00     0.060 A 
BRANCH  92  93
ATOM     93  S   UNL     1       0.632  14.500 -19.553  1.00  0.00     0.124 S 
ATOM     94  O   UNL     1      -0.167  15.720 -19.580  1.00  0.00    -0.237 OA
ATOM     95  O   UNL     1       2.074  14.681 -19.689  1.00  0.00    -0.237 OA
ATOM     96  O   UNL     1       0.077  13.369 -20.291  1.00  0.00    -0.744 OA
ENDBRANCH  92  93
ENDBRANCH  60  85
ENDBRANCH  34  35
ENDBRANCH  26  29
ENDBRANCH  24  25
ENDBRANCH  23  24
ENDBRANCH  22  23
ENDBRANCH   3  22
TORSDOF 19
