REMARK SMILES CCOc1cccc(-c2ccc([C@@H](C)C(=O)NCCCNC(=O)c3ccc(-c4c5nc(c(-c6c(F)cc(S(=O)(=O)[O-])cc6F)c6ccc([nH]6)c(-c6c(F)cc(S(=O)(=O)[O-])cc6F)c6nc(c(-c7c(F)cc(S(=O)(=O)[O-])cc7F)c7ccc4[nH]7)C=C6)C=C5)cc3)cc2F)c1
REMARK SMILES IDX 18 1 17 2 15 3 16 4 13 6 14 7 12 8 9 9 10 10 91 11 11 12
REMARK SMILES IDX 90 13 92 14 8 15 4 16 5 17 93 18 6 19 7 20 3 21 2 22 1 23
REMARK SMILES IDX 19 24 20 25 21 26 22 27 23 29 24 30 25 31 89 32 26 33 88 34
REMARK SMILES IDX 27 35 28 36 29 37 82 38 30 39 87 40 81 41 83 42 31 43 86 44
REMARK SMILES IDX 80 45 79 46 32 48 66 49 45 50 65 51 46 52 49 53 64 54 84 55
REMARK SMILES IDX 47 56 48 57 63 59 85 60 50 61 33 62 34 63 43 64 35 65 36 66
REMARK SMILES IDX 42 67 44 68 37 69 38 70 39 71 40 72 41 73 67 74 68 75 77 76
REMARK SMILES IDX 69 77 70 78 76 79 78 80 71 81 72 82 73 83 74 84 75 85 51 86
REMARK SMILES IDX 52 87 61 88 53 89 54 90 60 91 62 92 55 93 56 94 57 95 58 96
REMARK SMILES IDX 59 97
REMARK H PARENT 17 5 21 28 83 47 49 58
REMARK Flexibility Score: inf
ROOT
ATOM      1  C   UNL     1       9.672  -0.778   1.843  1.00  0.00     0.117 C 
ENDROOT
BRANCH   1   2
ATOM      2  N   UNL     1       8.933  -1.693   2.689  1.00  0.00    -0.356 N 
ATOM      3  C   UNL     1       8.213  -2.813   2.408  1.00  0.00     0.227 C 
ATOM      4  O   UNL     1       7.646  -3.350   3.368  1.00  0.00    -0.274 OA
ATOM      5  H   UNL     1       8.957  -1.462   3.646  1.00  0.00     0.163 HD
BRANCH   3   6
ATOM      6  C   UNL     1       8.091  -3.432   1.008  1.00  0.00     0.105 C 
ATOM      7  C   UNL     1       9.420  -3.854   0.383  1.00  0.00     0.023 C 
BRANCH   6   8
ATOM      8  C   UNL     1       7.143  -2.688   0.083  1.00  0.00    -0.033 A 
ATOM      9  C   UNL     1       5.246  -1.236  -1.516  1.00  0.00     0.018 A 
ATOM     10  C   UNL     1       6.605  -0.883  -1.467  1.00  0.00     0.012 A 
ATOM     11  C   UNL     1       4.883  -2.373  -0.773  1.00  0.00     0.131 A 
ATOM     12  C   UNL     1       7.538  -1.615  -0.718  1.00  0.00     0.005 A 
ATOM     13  C   UNL     1       5.796  -3.067   0.028  1.00  0.00     0.044 A 
ATOM     14  F   UNL     1       3.628  -2.848  -0.804  1.00  0.00    -0.206 F 
BRANCH   9  15
ATOM     15  C   UNL     1       4.268  -0.417  -2.281  1.00  0.00    -0.012 A 
ATOM     16  C   UNL     1       2.004   0.470  -2.574  1.00  0.00     0.119 A 
ATOM     17  C   UNL     1       2.403   1.208  -3.680  1.00  0.00     0.046 A 
ATOM     18  C   UNL     1       2.919  -0.338  -1.895  1.00  0.00     0.055 A 
ATOM     19  C   UNL     1       3.730   1.150  -4.093  1.00  0.00     0.004 A 
ATOM     20  C   UNL     1       4.646   0.343  -3.406  1.00  0.00     0.009 A 
BRANCH  16  21
ATOM     21  O   UNL     1       0.680   0.457  -2.233  1.00  0.00    -0.494 OA
BRANCH  21  22
ATOM     22  C   UNL     1       0.406   1.197  -1.037  1.00  0.00     0.226 C 
ATOM     23  C   UNL     1       0.418   0.295   0.188  1.00  0.00     0.049 C 
ENDBRANCH  21  22
ENDBRANCH  16  21
ENDBRANCH   9  15
ENDBRANCH   6   8
ENDBRANCH   3   6
ENDBRANCH   1   2
BRANCH   1  24
ATOM     24  C   UNL     1       8.873   0.480   1.511  1.00  0.00     0.042 C 
BRANCH  24  25
ATOM     25  C   UNL     1       8.924   1.547   2.596  1.00  0.00     0.118 C 
BRANCH  25  26
ATOM     26  N   UNL     1      10.244   2.152   2.708  1.00  0.00    -0.352 N 
ATOM     27  C   UNL     1      10.656   3.447   2.504  1.00  0.00     0.251 C 
ATOM     28  H   UNL     1      10.960   1.530   2.973  1.00  0.00     0.163 HD
ATOM     29  O   UNL     1      11.860   3.680   2.436  1.00  0.00    -0.269 OA
BRANCH  27  30
ATOM     30  C   UNL     1       9.680   4.552   2.359  1.00  0.00     0.039 A 
ATOM     31  C   UNL     1       9.973   5.596   1.475  1.00  0.00     0.014 A 
ATOM     32  C   UNL     1       8.511   4.603   3.122  1.00  0.00     0.014 A 
ATOM     33  C   UNL     1       9.075   6.656   1.320  1.00  0.00     0.010 A 
ATOM     34  C   UNL     1       7.577   5.614   2.905  1.00  0.00     0.010 A 
ATOM     35  C   UNL     1       7.854   6.659   2.013  1.00  0.00    -0.014 A 
BRANCH  35  36
ATOM     36  C   UNL     1       6.862   7.751   1.829  1.00  0.00     0.031 A 
ATOM     37  C   UNL     1       6.482   8.633   2.988  1.00  0.00     0.074 A 
ATOM     38  C   UNL     1       6.253   7.904   0.636  1.00  0.00     0.049 A 
ATOM     39  N   UNL     1       5.586   9.586   3.043  1.00  0.00    -0.248 NA
ATOM     40  C   UNL     1       7.179   8.392   4.261  1.00  0.00     0.031 C 
ATOM     41  C   UNL     1       6.496   7.078  -0.548  1.00  0.00     0.029 A 
ATOM     42  N   UNL     1       5.296   8.797   0.226  1.00  0.00    -0.354 N 
ATOM     43  C   UNL     1       5.599  10.043   4.356  1.00  0.00     0.074 A 
ATOM     44  C   UNL     1       6.551   9.226   5.077  1.00  0.00     0.031 C 
ATOM     45  C   UNL     1       5.723   7.514  -1.555  1.00  0.00     0.029 A 
ATOM     46  C   UNL     1       4.904   8.625  -1.080  1.00  0.00     0.049 A 
ATOM     47  H   UNL     1       4.925   9.496   0.812  1.00  0.00     0.167 HD
ATOM     48  C   UNL     1       4.900  11.065   4.907  1.00  0.00     0.037 A 
ATOM     49  C   UNL     1       3.982   9.280  -1.812  1.00  0.00     0.037 A 
ATOM     50  C   UNL     1       3.971  11.889   4.177  1.00  0.00     0.049 A 
ATOM     51  C   UNL     1       3.225  10.419  -1.188  1.00  0.00     0.074 A 
ATOM     52  C   UNL     1       3.257  12.986   4.623  1.00  0.00     0.029 A 
ATOM     53  N   UNL     1       3.623  11.701   2.846  1.00  0.00    -0.354 N 
ATOM     54  N   UNL     1       3.297  10.881   0.038  1.00  0.00    -0.248 NA
ATOM     55  C   UNL     1       2.269  11.132  -2.045  1.00  0.00     0.031 C 
ATOM     56  C   UNL     1       2.446  13.437   3.576  1.00  0.00     0.029 A 
ATOM     57  C   UNL     1       2.690  12.650   2.461  1.00  0.00     0.049 A 
ATOM     58  H   UNL     1       3.986  10.997   2.261  1.00  0.00     0.167 HD
ATOM     59  C   UNL     1       2.412  11.952   0.094  1.00  0.00     0.074 A 
ATOM     60  C   UNL     1       1.826  12.076  -1.226  1.00  0.00     0.031 C 
ATOM     61  C   UNL     1       2.114  12.760   1.142  1.00  0.00     0.037 A 
BRANCH  48  62
ATOM     62  C   UNL     1       5.116  11.343   6.371  1.00  0.00     0.058 A 
ATOM     63  C   UNL     1       6.331  11.856   6.854  1.00  0.00     0.135 A 
ATOM     64  C   UNL     1       4.096  11.097   7.304  1.00  0.00     0.135 A 
ATOM     65  F   UNL     1       7.346  12.099   6.009  1.00  0.00    -0.206 F 
ATOM     66  C   UNL     1       6.544  12.068   8.212  1.00  0.00     0.059 A 
ATOM     67  C   UNL     1       4.276  11.332   8.665  1.00  0.00     0.059 A 
ATOM     68  F   UNL     1       2.911  10.611   6.899  1.00  0.00    -0.206 F 
ATOM     69  C   UNL     1       5.512  11.796   9.111  1.00  0.00     0.060 A 
BRANCH  69  70
ATOM     70  S   UNL     1       5.813  12.051  10.873  1.00  0.00     0.124 S 
ATOM     71  O   UNL     1       6.667  10.910  11.188  1.00  0.00    -0.237 OA
ATOM     72  O   UNL     1       6.466  13.355  10.895  1.00  0.00    -0.237 OA
ATOM     73  O   UNL     1       4.475  12.013  11.455  1.00  0.00    -0.744 OA
ENDBRANCH  69  70
ENDBRANCH  48  62
BRANCH  49  74
ATOM     74  C   UNL     1       3.754   8.884  -3.227  1.00  0.00     0.058 A 
ATOM     75  C   UNL     1       4.203   9.691  -4.282  1.00  0.00     0.135 A 
ATOM     76  C   UNL     1       3.132   7.668  -3.550  1.00  0.00     0.135 A 
ATOM     77  F   UNL     1       4.797  10.865  -4.022  1.00  0.00    -0.206 F 
ATOM     78  C   UNL     1       4.046   9.307  -5.610  1.00  0.00     0.059 A 
ATOM     79  C   UNL     1       2.985   7.251  -4.870  1.00  0.00     0.059 A 
ATOM     80  F   UNL     1       2.700   6.853  -2.576  1.00  0.00    -0.206 F 
ATOM     81  C   UNL     1       3.443   8.080  -5.893  1.00  0.00     0.060 A 
BRANCH  81  82
ATOM     82  S   UNL     1       3.325   7.550  -7.616  1.00  0.00     0.124 S 
ATOM     83  O   UNL     1       2.264   8.416  -8.118  1.00  0.00    -0.237 OA
ATOM     84  O   UNL     1       4.668   7.828  -8.115  1.00  0.00    -0.237 OA
ATOM     85  O   UNL     1       2.987   6.133  -7.508  1.00  0.00    -0.744 OA
ENDBRANCH  81  82
ENDBRANCH  49  74
BRANCH  61  86
ATOM     86  C   UNL     1       1.127  13.868   0.902  1.00  0.00     0.058 A 
ATOM     87  C   UNL     1      -0.245  13.615   0.752  1.00  0.00     0.135 A 
ATOM     88  C   UNL     1       1.554  15.206   0.875  1.00  0.00     0.135 A 
ATOM     89  F   UNL     1      -0.704  12.353   0.763  1.00  0.00    -0.206 F 
ATOM     90  C   UNL     1      -1.158  14.647   0.562  1.00  0.00     0.059 A 
ATOM     91  C   UNL     1       0.656  16.256   0.713  1.00  0.00     0.059 A 
ATOM     92  F   UNL     1       2.855  15.504   1.023  1.00  0.00    -0.206 F 
ATOM     93  C   UNL     1      -0.697  15.966   0.546  1.00  0.00     0.060 A 
BRANCH  93  94
ATOM     94  S   UNL     1      -1.896  17.299   0.335  1.00  0.00     0.124 S 
ATOM     95  O   UNL     1      -2.214  17.185  -1.085  1.00  0.00    -0.237 OA
ATOM     96  O   UNL     1      -2.960  16.912   1.255  1.00  0.00    -0.237 OA
ATOM     97  O   UNL     1      -1.148  18.492   0.718  1.00  0.00    -0.744 OA
ENDBRANCH  93  94
ENDBRANCH  61  86
ENDBRANCH  35  36
ENDBRANCH  27  30
ENDBRANCH  25  26
ENDBRANCH  24  25
ENDBRANCH   1  24
TORSDOF 17
