REMARK SMILES Cc1ncc(CC(=O)N2CCC(Cc3cccc(C(=O)NCCCNC(=O)c4ccc(-c5c6nc(c(-c7c(F)cc(S(=O)(=O)[O-])cc7F)c7ccc([nH]7)c(-c7c(F)cc(S(=O)(=O)[O-])cc7F)c7nc(c(-c8c(F)cc(S(=O)(=O)[O-])cc8F)c8ccc5[nH]8)C=C7)C=C6)cc4)c3)CC2)c(=O)[nH]1
REMARK SMILES IDX 22 1 21 2 19 3 20 4 18 6 14 7 15 8 94 9 16 10 17 11 13 12
REMARK SMILES IDX 12 13 7 14 8 15 9 16 10 17 96 18 11 19 95 20 6 21 5 22 1 23
REMARK SMILES IDX 2 24 3 25 99 26 4 27 97 28 98 30 23 31 24 32 25 33 26 34
REMARK SMILES IDX 27 36 28 37 29 38 93 39 30 40 92 41 31 42 32 43 33 44 86 45
REMARK SMILES IDX 34 46 91 47 85 48 87 49 35 50 90 51 84 52 83 53 36 55 70 56
REMARK SMILES IDX 49 57 69 58 50 59 53 60 68 61 88 62 51 63 52 64 67 66 89 67
REMARK SMILES IDX 54 68 37 69 38 70 47 71 39 72 40 73 46 74 48 75 41 76 42 77
REMARK SMILES IDX 43 78 44 79 45 80 71 81 72 82 81 83 73 84 74 85 80 86 82 87
REMARK SMILES IDX 75 88 76 89 77 90 78 91 79 92 55 93 56 94 65 95 57 96 58 97
REMARK SMILES IDX 64 98 66 99 59 100 60 101 61 102 62 103 63 104
REMARK H PARENT 21 5 99 29 25 35 87 54 53 65
REMARK Flexibility Score: inf
ROOT
ATOM      1  C   UNL     1       0.042   3.523   8.584  1.00  0.00     0.118 C 
ENDROOT
BRANCH   1   2
ATOM      2  N   UNL     1       0.767   3.443   9.840  1.00  0.00    -0.352 N 
ATOM      3  C   UNL     1       1.813   2.692  10.310  1.00  0.00     0.251 C 
ATOM      4  O   UNL     1       2.220   2.983  11.439  1.00  0.00    -0.269 OA
ATOM      5  H   UNL     1       0.427   4.078  10.511  1.00  0.00     0.163 HD
BRANCH   3   6
ATOM      6  C   UNL     1       2.495   1.588   9.568  1.00  0.00     0.040 A 
ATOM      7  C   UNL     1       2.842   0.113   7.638  1.00  0.00    -0.047 A 
ATOM      8  C   UNL     1       3.936  -0.473   8.278  1.00  0.00     0.004 A 
ATOM      9  C   UNL     1       2.101   1.090   8.328  1.00  0.00     0.017 A 
ATOM     10  C   UNL     1       4.309  -0.047   9.553  1.00  0.00     0.001 A 
ATOM     11  C   UNL     1       3.609   0.990  10.180  1.00  0.00     0.014 A 
BRANCH   7  12
ATOM     12  C   UNL     1       2.405  -0.329   6.256  1.00  0.00     0.039 C 
BRANCH  12  13
ATOM     13  C   UNL     1       2.122   0.837   5.279  1.00  0.00    -0.003 C 
ATOM     14  C   UNL     1       2.969   1.959   1.455  1.00  0.00     0.227 C 
ATOM     15  O   UNL     1       4.205   1.987   1.381  1.00  0.00    -0.275 OA
ATOM     16  N   UNL     1       2.334   2.112   2.683  1.00  0.00    -0.342 N 
ATOM     17  C   UNL     1       3.114   2.633   3.803  1.00  0.00     0.120 C 
ATOM     18  C   UNL     1       1.064   1.515   3.087  1.00  0.00     0.120 C 
ATOM     19  C   UNL     1       3.416   1.538   4.824  1.00  0.00     0.025 C 
ATOM     20  C   UNL     1       1.324   0.354   4.055  1.00  0.00     0.025 C 
BRANCH  14  21
ATOM     21  C   UNL     1       2.167   2.040   0.145  1.00  0.00     0.143 C 
BRANCH  21  22
ATOM     22  C   UNL     1       0.976   1.171  -0.045  1.00  0.00     0.045 A 
ATOM     23  C   UNL     1      -2.426  -1.337  -0.116  1.00  0.00     0.087 C 
ATOM     24  C   UNL     1      -1.245  -0.413  -0.145  1.00  0.00     0.105 A 
ATOM     25  N   UNL     1      -1.402   0.866  -0.260  1.00  0.00    -0.243 NA
ATOM     26  N   UNL     1      -0.022  -1.011  -0.030  1.00  0.00    -0.311 N 
ATOM     27  C   UNL     1      -0.271   1.634  -0.211  1.00  0.00     0.123 A 
ATOM     28  C   UNL     1       1.145  -0.298  -0.003  1.00  0.00     0.254 A 
ATOM     29  H   UNL     1       0.021  -1.992   0.036  1.00  0.00     0.171 HD
ATOM     30  O   UNL     1       2.238  -0.830   0.079  1.00  0.00    -0.269 OA
ENDBRANCH  21  22
ENDBRANCH  14  21
ENDBRANCH  12  13
ENDBRANCH   7  12
ENDBRANCH   3   6
ENDBRANCH   1   2
BRANCH   1  31
ATOM     31  C   UNL     1      -1.255   2.714   8.621  1.00  0.00     0.042 C 
BRANCH  31  32
ATOM     32  C   UNL     1      -2.405   3.478   9.279  1.00  0.00     0.118 C 
BRANCH  32  33
ATOM     33  N   UNL     1      -2.745   4.690   8.536  1.00  0.00    -0.352 N 
ATOM     34  C   UNL     1      -3.874   5.029   7.835  1.00  0.00     0.251 C 
ATOM     35  H   UNL     1      -2.045   5.381   8.540  1.00  0.00     0.163 HD
ATOM     36  O   UNL     1      -3.829   5.971   7.049  1.00  0.00    -0.269 OA
BRANCH  34  37
ATOM     37  C   UNL     1      -5.132   4.278   8.024  1.00  0.00     0.039 A 
ATOM     38  C   UNL     1      -5.979   4.078   6.930  1.00  0.00     0.014 A 
ATOM     39  C   UNL     1      -5.502   3.818   9.289  1.00  0.00     0.014 A 
ATOM     40  C   UNL     1      -7.167   3.364   7.097  1.00  0.00     0.010 A 
ATOM     41  C   UNL     1      -6.633   3.026   9.433  1.00  0.00     0.010 A 
ATOM     42  C   UNL     1      -7.486   2.803   8.344  1.00  0.00    -0.014 A 
BRANCH  42  43
ATOM     43  C   UNL     1      -8.712   1.992   8.543  1.00  0.00     0.031 A 
ATOM     44  C   UNL     1      -9.762   2.445   9.521  1.00  0.00     0.074 A 
ATOM     45  C   UNL     1      -8.838   0.812   7.906  1.00  0.00     0.049 A 
ATOM     46  N   UNL     1     -10.860   1.840   9.896  1.00  0.00    -0.248 NA
ATOM     47  C   UNL     1      -9.528   3.733  10.194  1.00  0.00     0.031 C 
ATOM     48  C   UNL     1      -7.864   0.248   6.969  1.00  0.00     0.029 A 
ATOM     49  N   UNL     1      -9.835  -0.128   7.953  1.00  0.00    -0.354 N 
ATOM     50  C   UNL     1     -11.433   2.662  10.860  1.00  0.00     0.074 A 
ATOM     51  C   UNL     1     -10.526   3.770  11.062  1.00  0.00     0.031 C 
ATOM     52  C   UNL     1      -8.331  -0.918   6.498  1.00  0.00     0.029 A 
ATOM     53  C   UNL     1      -9.613  -1.208   7.133  1.00  0.00     0.049 A 
ATOM     54  H   UNL     1     -10.634  -0.038   8.521  1.00  0.00     0.167 HD
ATOM     55  C   UNL     1     -12.620   2.520  11.499  1.00  0.00     0.037 A 
ATOM     56  C   UNL     1     -10.361  -2.307   6.916  1.00  0.00     0.037 A 
ATOM     57  C   UNL     1     -13.520   1.420  11.276  1.00  0.00     0.049 A 
ATOM     58  C   UNL     1     -11.665  -2.455   7.647  1.00  0.00     0.074 A 
ATOM     59  C   UNL     1     -14.771   1.203  11.824  1.00  0.00     0.029 A 
ATOM     60  N   UNL     1     -13.259   0.343  10.438  1.00  0.00    -0.354 N 
ATOM     61  N   UNL     1     -12.224  -1.640   8.510  1.00  0.00    -0.248 NA
ATOM     62  C   UNL     1     -12.441  -3.671   7.374  1.00  0.00     0.031 C 
ATOM     63  C   UNL     1     -15.244  -0.029  11.357  1.00  0.00     0.029 A 
ATOM     64  C   UNL     1     -14.313  -0.554  10.473  1.00  0.00     0.049 A 
ATOM     65  H   UNL     1     -12.443   0.234   9.897  1.00  0.00     0.167 HD
ATOM     66  C   UNL     1     -13.434  -2.229   8.861  1.00  0.00     0.074 A 
ATOM     67  C   UNL     1     -13.525  -3.466   8.111  1.00  0.00     0.031 C 
ATOM     68  C   UNL     1     -14.386  -1.783   9.719  1.00  0.00     0.037 A 
BRANCH  55  69
ATOM     69  C   UNL     1     -12.991   3.581  12.502  1.00  0.00     0.058 A 
ATOM     70  C   UNL     1     -13.259   4.906  12.115  1.00  0.00     0.135 A 
ATOM     71  C   UNL     1     -13.050   3.281  13.872  1.00  0.00     0.135 A 
ATOM     72  F   UNL     1     -13.207   5.256  10.819  1.00  0.00    -0.206 F 
ATOM     73  C   UNL     1     -13.506   5.904  13.051  1.00  0.00     0.059 A 
ATOM     74  C   UNL     1     -13.331   4.257  14.825  1.00  0.00     0.059 A 
ATOM     75  F   UNL     1     -12.810   2.032  14.302  1.00  0.00    -0.206 F 
ATOM     76  C   UNL     1     -13.528   5.572  14.406  1.00  0.00     0.060 A 
BRANCH  76  77
ATOM     77  S   UNL     1     -13.794   6.887  15.613  1.00  0.00     0.124 S 
ATOM     78  O   UNL     1     -12.505   7.572  15.583  1.00  0.00    -0.237 OA
ATOM     79  O   UNL     1     -14.915   7.622  15.034  1.00  0.00    -0.237 OA
ATOM     80  O   UNL     1     -14.092   6.163  16.845  1.00  0.00    -0.744 OA
ENDBRANCH  76  77
ENDBRANCH  55  69
BRANCH  56  81
ATOM     81  C   UNL     1      -9.915  -3.313   5.916  1.00  0.00     0.058 A 
ATOM     82  C   UNL     1     -10.570  -3.426   4.681  1.00  0.00     0.135 A 
ATOM     83  C   UNL     1      -8.800  -4.135   6.144  1.00  0.00     0.135 A 
ATOM     84  F   UNL     1     -11.644  -2.665   4.420  1.00  0.00    -0.206 F 
ATOM     85  C   UNL     1     -10.136  -4.315   3.704  1.00  0.00     0.059 A 
ATOM     86  C   UNL     1      -8.333  -5.016   5.173  1.00  0.00     0.059 A 
ATOM     87  F   UNL     1      -8.128  -4.052   7.303  1.00  0.00    -0.206 F 
ATOM     88  C   UNL     1      -9.008  -5.099   3.956  1.00  0.00     0.060 A 
BRANCH  88  89
ATOM     89  S   UNL     1      -8.401  -6.182   2.644  1.00  0.00     0.124 S 
ATOM     90  O   UNL     1      -9.430  -7.214   2.612  1.00  0.00    -0.237 OA
ATOM     91  O   UNL     1      -8.363  -5.279   1.498  1.00  0.00    -0.237 OA
ATOM     92  O   UNL     1      -7.094  -6.607   3.138  1.00  0.00    -0.744 OA
ENDBRANCH  88  89
ENDBRANCH  56  81
BRANCH  68  93
ATOM     93  C   UNL     1     -15.626  -2.620   9.870  1.00  0.00     0.058 A 
ATOM     94  C   UNL     1     -15.612  -3.847  10.552  1.00  0.00     0.135 A 
ATOM     95  C   UNL     1     -16.855  -2.162   9.369  1.00  0.00     0.135 A 
ATOM     96  F   UNL     1     -14.462  -4.335  11.043  1.00  0.00    -0.206 F 
ATOM     97  C   UNL     1     -16.770  -4.601  10.712  1.00  0.00     0.059 A 
ATOM     98  C   UNL     1     -18.030  -2.885   9.543  1.00  0.00     0.059 A 
ATOM     99  F   UNL     1     -16.925  -0.990   8.716  1.00  0.00    -0.206 F 
ATOM    100  C   UNL     1     -17.975  -4.109  10.207  1.00  0.00     0.060 A 
BRANCH 100 101
ATOM    101  S   UNL     1     -19.477  -5.080  10.453  1.00  0.00     0.124 S 
ATOM    102  O   UNL     1     -19.275  -6.177   9.512  1.00  0.00    -0.237 OA
ATOM    103  O   UNL     1     -19.391  -5.434  11.867  1.00  0.00    -0.237 OA
ATOM    104  O   UNL     1     -20.546  -4.147  10.110  1.00  0.00    -0.744 OA
ENDBRANCH 100 101
ENDBRANCH  68  93
ENDBRANCH  42  43
ENDBRANCH  34  37
ENDBRANCH  32  33
ENDBRANCH  31  32
ENDBRANCH   1  31
TORSDOF 17
