REMARK SMILES Cc1oc2cc3c(cc2c1C)[C@H](C)[C@@H](CC(=O)N[C@H](CC1=c2ccccc2=NC1)C(=O)NCCCNC(=O)c1ccc(-c2c4nc(c(-c5c(F)cc(S(=O)(=O)[O-])cc5F)c5ccc([nH]5)c(-c5c(F)cc(S(=O)(=O)[O-])cc5F)c5nc(c(-c6c(F)cc(S(=O)(=O)[O-])cc6F)c6ccc2[nH]6)C=C5)C=C4)cc1)C(=O)O3
REMARK SMILES IDX 34 1 33 2 32 3 30 4 31 5 19 7 18 8 16 9 17 10 15 12 14 13
REMARK SMILES IDX 1 14 2 15 3 16 10 17 4 18 9 19 11 20 5 21 8 22 6 23 7 24
REMARK SMILES IDX 107 25 12 26 105 27 13 28 106 29 20 30 21 31 22 32 29 33
REMARK SMILES IDX 23 34 27 35 28 36 24 37 26 38 25 39 35 40 36 41 37 42 38 44
REMARK SMILES IDX 39 45 40 46 104 47 41 48 103 49 42 50 43 51 44 52 97 53
REMARK SMILES IDX 45 54 102 55 96 56 98 57 46 58 101 59 95 60 94 61 47 63
REMARK SMILES IDX 81 64 60 65 80 66 61 67 64 68 79 69 99 70 62 71 63 72 78 74
REMARK SMILES IDX 100 75 65 76 48 77 49 78 58 79 50 80 51 81 57 82 59 83 52 84
REMARK SMILES IDX 53 85 54 86 55 87 56 88 82 89 83 90 92 91 84 92 85 93 91 94
REMARK SMILES IDX 93 95 86 96 87 97 88 98 89 99 90 100 66 101 67 102 76 103
REMARK SMILES IDX 68 104 69 105 75 106 77 107 70 108 71 109 72 110 73 111
REMARK SMILES IDX 74 112
REMARK H PARENT 32 6 18 11 36 43 98 62 64 73
REMARK Flexibility Score: inf
ROOT
ATOM      1  C   UNL     1      -6.266 -11.148  -5.083  1.00  0.00     0.042 C 
ENDROOT
BRANCH   1   2
ATOM      2  C   UNL     1      -5.281 -10.210  -4.410  1.00  0.00     0.117 C 
BRANCH   2   3
ATOM      3  N   UNL     1      -4.641 -10.814  -3.250  1.00  0.00    -0.354 N 
ATOM      4  C   UNL     1      -3.673 -10.290  -2.440  1.00  0.00     0.242 C 
ATOM      5  O   UNL     1      -3.137 -11.033  -1.616  1.00  0.00    -0.273 OA
ATOM      6  H   UNL     1      -4.946 -11.721  -3.018  1.00  0.00     0.163 HD
BRANCH   4   7
ATOM      7  C   UNL     1      -3.141  -8.879  -2.674  1.00  0.00     0.175 C 
BRANCH   7   8
ATOM      8  N   UNL     1      -4.203  -7.903  -3.040  1.00  0.00    -0.344 N 
ATOM      9  C   UNL     1      -5.281  -7.354  -2.405  1.00  0.00     0.221 C 
ATOM     10  O   UNL     1      -5.902  -6.487  -3.034  1.00  0.00    -0.275 OA
ATOM     11  H   UNL     1      -4.104  -7.572  -3.962  1.00  0.00     0.164 HD
BRANCH   9  12
ATOM     12  C   UNL     1      -5.796  -7.735  -1.009  1.00  0.00     0.116 C 
BRANCH  12  13
ATOM     13  C   UNL     1      -6.409  -9.143  -0.890  1.00  0.00     0.116 C 
ATOM     14  C   UNL     1     -10.329 -16.556   0.087  1.00  0.00     0.088 C 
ATOM     15  C   UNL     1      -9.866 -15.154   0.004  1.00  0.00     0.105 A 
ATOM     16  O   UNL     1      -8.602 -14.998  -0.464  1.00  0.00    -0.461 OA
ATOM     17  C   UNL     1     -10.402 -13.925   0.365  1.00  0.00    -0.002 A 
ATOM     18  C   UNL     1      -8.311 -13.678  -0.400  1.00  0.00     0.138 A 
ATOM     19  C   UNL     1      -9.413 -12.942   0.017  1.00  0.00     0.024 A 
ATOM     20  C   UNL     1     -11.695 -13.694   1.054  1.00  0.00     0.049 C 
ATOM     21  C   UNL     1      -7.059 -13.144  -0.637  1.00  0.00     0.095 A 
ATOM     22  C   UNL     1      -9.295 -11.524   0.065  1.00  0.00     0.020 A 
ATOM     23  C   UNL     1      -6.953 -11.771  -0.433  1.00  0.00     0.138 A 
ATOM     24  C   UNL     1      -8.048 -10.916  -0.211  1.00  0.00    -0.001 A 
ATOM     25  O   UNL     1      -5.629 -11.323  -0.318  1.00  0.00    -0.426 OA
ATOM     26  C   UNL     1      -7.804  -9.389  -0.231  1.00  0.00     0.035 C 
ATOM     27  C   UNL     1      -5.490  -9.984  -0.039  1.00  0.00     0.315 C 
ATOM     28  C   UNL     1      -8.932  -8.649  -0.962  1.00  0.00     0.014 C 
ATOM     29  O   UNL     1      -4.709  -9.552   0.798  1.00  0.00    -0.251 OA
ENDBRANCH  12  13
ENDBRANCH   9  12
ENDBRANCH   7   8
BRANCH   7  30
ATOM     30  C   UNL     1      -2.006  -9.119  -3.769  1.00  0.00     0.068 C 
BRANCH  30  31
ATOM     31  C   UNL     1      -1.536  -7.871  -4.435  1.00  0.00    -0.037 C 
ATOM     32  C   UNL     1      -1.700  -7.461  -5.692  1.00  0.00     0.001 A 
ATOM     33  C   UNL     1      -1.070  -6.709  -3.626  1.00  0.00     0.174 C 
ATOM     34  C   UNL     1      -1.839  -7.982  -7.014  1.00  0.00     0.010 A 
ATOM     35  C   UNL     1      -2.122  -6.071  -5.380  1.00  0.00     0.065 A 
ATOM     36  N   UNL     1      -1.815  -5.584  -4.211  1.00  0.00    -0.280 NA
ATOM     37  C   UNL     1      -2.402  -7.199  -7.952  1.00  0.00     0.001 A 
ATOM     38  C   UNL     1      -3.022  -5.438  -6.366  1.00  0.00     0.028 A 
ATOM     39  C   UNL     1      -3.136  -6.002  -7.579  1.00  0.00     0.002 A 
ENDBRANCH  30  31
ENDBRANCH   7  30
ENDBRANCH   4   7
ENDBRANCH   2   3
ENDBRANCH   1   2
BRANCH   1  40
ATOM     40  C   UNL     1      -7.442 -11.470  -4.157  1.00  0.00     0.118 C 
BRANCH  40  41
ATOM     41  N   UNL     1      -8.734 -11.511  -4.815  1.00  0.00    -0.352 N 
ATOM     42  C   UNL     1      -9.200 -12.400  -5.760  1.00  0.00     0.251 C 
ATOM     43  H   UNL     1      -9.367 -10.805  -4.549  1.00  0.00     0.163 HD
ATOM     44  O   UNL     1     -10.313 -12.315  -6.215  1.00  0.00    -0.269 OA
BRANCH  42  45
ATOM     45  C   UNL     1      -8.243 -13.410  -6.249  1.00  0.00     0.039 A 
ATOM     46  C   UNL     1      -7.720 -14.364  -5.373  1.00  0.00     0.014 A 
ATOM     47  C   UNL     1      -7.772 -13.276  -7.556  1.00  0.00     0.014 A 
ATOM     48  C   UNL     1      -6.637 -15.129  -5.782  1.00  0.00     0.010 A 
ATOM     49  C   UNL     1      -6.705 -14.062  -7.971  1.00  0.00     0.010 A 
ATOM     50  C   UNL     1      -6.119 -14.966  -7.074  1.00  0.00    -0.014 A 
BRANCH  50  51
ATOM     51  C   UNL     1      -4.975 -15.807  -7.447  1.00  0.00     0.031 A 
ATOM     52  C   UNL     1      -5.243 -16.719  -8.597  1.00  0.00     0.074 A 
ATOM     53  C   UNL     1      -3.711 -15.361  -7.297  1.00  0.00     0.049 A 
ATOM     54  N   UNL     1      -5.253 -16.304  -9.830  1.00  0.00    -0.248 NA
ATOM     55  C   UNL     1      -5.781 -18.066  -8.418  1.00  0.00     0.031 C 
ATOM     56  C   UNL     1      -3.305 -13.954  -7.424  1.00  0.00     0.029 A 
ATOM     57  N   UNL     1      -2.528 -16.056  -7.266  1.00  0.00    -0.354 N 
ATOM     58  C   UNL     1      -5.843 -17.297 -10.588  1.00  0.00     0.074 A 
ATOM     59  C   UNL     1      -6.144 -18.375  -9.672  1.00  0.00     0.031 C 
ATOM     60  C   UNL     1      -1.978 -13.911  -7.660  1.00  0.00     0.029 A 
ATOM     61  C   UNL     1      -1.425 -15.254  -7.539  1.00  0.00     0.049 A 
ATOM     62  H   UNL     1      -2.467 -17.020  -7.071  1.00  0.00     0.167 HD
ATOM     63  C   UNL     1      -6.061 -17.170 -11.921  1.00  0.00     0.037 A 
ATOM     64  C   UNL     1      -0.271 -15.703  -8.104  1.00  0.00     0.037 A 
ATOM     65  C   UNL     1      -5.590 -15.953 -12.515  1.00  0.00     0.049 A 
ATOM     66  C   UNL     1      -0.713 -15.812  -9.546  1.00  0.00     0.074 A 
ATOM     67  C   UNL     1      -6.100 -14.706 -12.803  1.00  0.00     0.029 A 
ATOM     68  N   UNL     1      -4.263 -15.884 -12.873  1.00  0.00    -0.354 N 
ATOM     69  N   UNL     1      -0.816 -14.822 -10.397  1.00  0.00    -0.248 NA
ATOM     70  C   UNL     1      -1.427 -17.028  -9.948  1.00  0.00     0.031 C 
ATOM     71  C   UNL     1      -4.966 -13.840 -12.893  1.00  0.00     0.029 A 
ATOM     72  C   UNL     1      -3.841 -14.608 -12.596  1.00  0.00     0.049 A 
ATOM     73  H   UNL     1      -3.721 -16.612 -13.255  1.00  0.00     0.167 HD
ATOM     74  C   UNL     1      -1.837 -15.195 -11.277  1.00  0.00     0.074 A 
ATOM     75  C   UNL     1      -2.135 -16.578 -10.973  1.00  0.00     0.031 C 
ATOM     76  C   UNL     1      -2.528 -14.317 -12.061  1.00  0.00     0.037 A 
BRANCH  63  77
ATOM     77  C   UNL     1      -6.598 -18.234 -12.790  1.00  0.00     0.058 A 
ATOM     78  C   UNL     1      -5.700 -18.932 -13.610  1.00  0.00     0.135 A 
ATOM     79  C   UNL     1      -7.969 -18.413 -12.998  1.00  0.00     0.135 A 
ATOM     80  F   UNL     1      -4.376 -18.783 -13.435  1.00  0.00    -0.206 F 
ATOM     81  C   UNL     1      -6.143 -19.729 -14.654  1.00  0.00     0.059 A 
ATOM     82  C   UNL     1      -8.439 -19.215 -14.036  1.00  0.00     0.059 A 
ATOM     83  F   UNL     1      -8.861 -17.763 -12.234  1.00  0.00    -0.206 F 
ATOM     84  C   UNL     1      -7.515 -19.839 -14.879  1.00  0.00     0.060 A 
BRANCH  84  85
ATOM     85  S   UNL     1      -8.059 -20.762 -16.331  1.00  0.00     0.124 S 
ATOM     86  O   UNL     1      -7.551 -19.932 -17.418  1.00  0.00    -0.237 OA
ATOM     87  O   UNL     1      -7.388 -22.045 -16.143  1.00  0.00    -0.237 OA
ATOM     88  O   UNL     1      -9.512 -20.792 -16.190  1.00  0.00    -0.744 OA
ENDBRANCH  84  85
ENDBRANCH  63  77
BRANCH  64  89
ATOM     89  C   UNL     1       0.366 -16.806  -7.310  1.00  0.00     0.058 A 
ATOM     90  C   UNL     1       0.583 -16.571  -5.932  1.00  0.00     0.135 A 
ATOM     91  C   UNL     1       0.687 -18.088  -7.773  1.00  0.00     0.135 A 
ATOM     92  F   UNL     1       0.443 -15.334  -5.426  1.00  0.00    -0.206 F 
ATOM     93  C   UNL     1       0.886 -17.593  -5.040  1.00  0.00     0.059 A 
ATOM     94  C   UNL     1       0.972 -19.137  -6.896  1.00  0.00     0.059 A 
ATOM     95  F   UNL     1       0.690 -18.372  -9.082  1.00  0.00    -0.206 F 
ATOM     96  C   UNL     1       1.015 -18.888  -5.527  1.00  0.00     0.060 A 
BRANCH  96  97
ATOM     97  S   UNL     1       1.147 -20.237  -4.337  1.00  0.00     0.124 S 
ATOM     98  O   UNL     1       2.382 -19.906  -3.636  1.00  0.00    -0.237 OA
ATOM     99  O   UNL     1      -0.085 -20.074  -3.571  1.00  0.00    -0.237 OA
ATOM    100  O   UNL     1       1.200 -21.427  -5.181  1.00  0.00    -0.744 OA
ENDBRANCH  96  97
ENDBRANCH  64  89
BRANCH  76 101
ATOM    101  C   UNL     1      -1.989 -12.929 -12.130  1.00  0.00     0.058 A 
ATOM    102  C   UNL     1      -0.825 -12.662 -12.864  1.00  0.00     0.135 A 
ATOM    103  C   UNL     1      -2.654 -11.844 -11.537  1.00  0.00     0.135 A 
ATOM    104  F   UNL     1      -0.156 -13.663 -13.460  1.00  0.00    -0.206 F 
ATOM    105  C   UNL     1      -0.356 -11.364 -13.034  1.00  0.00     0.059 A 
ATOM    106  C   UNL     1      -2.217 -10.535 -11.715  1.00  0.00     0.059 A 
ATOM    107  F   UNL     1      -3.761 -12.035 -10.800  1.00  0.00    -0.206 F 
ATOM    108  C   UNL     1      -1.068 -10.305 -12.468  1.00  0.00     0.060 A 
BRANCH 108 109
ATOM    109  S   UNL     1      -0.511  -8.617 -12.780  1.00  0.00     0.124 S 
ATOM    110  O   UNL     1       0.706  -8.548 -11.978  1.00  0.00    -0.237 OA
ATOM    111  O   UNL     1      -0.321  -8.612 -14.227  1.00  0.00    -0.237 OA
ATOM    112  O   UNL     1      -1.621  -7.798 -12.297  1.00  0.00    -0.744 OA
ENDBRANCH 108 109
ENDBRANCH  76 101
ENDBRANCH  50  51
ENDBRANCH  42  45
ENDBRANCH  40  41
ENDBRANCH   1  40
TORSDOF 18
