REMARK SMILES CC(C)(C)OC(=O)N1C[C@@H](COCc2ccccc2)O[C@@H](C(=O)NCCCNC(=O)c2ccc(-c3c4nc(c(-c5c(F)cc(S(=O)(=O)[O-])cc5F)c5ccc([nH]5)c(-c5c(F)cc(S(=O)(=O)[O-])cc5F)c5nc(c(-c6c(F)cc(S(=O)(=O)[O-])cc6F)c6ccc3[nH]6)C=C5)C=C4)cc2)C1
REMARK SMILES IDX 25 1 24 2 22 3 23 4 21 6 8 7 9 8 97 9 10 10 20 11 6 12 7 13
REMARK SMILES IDX 5 14 2 15 1 16 3 17 4 18 11 19 12 20 13 21 14 22 15 23 19 24
REMARK SMILES IDX 16 25 18 26 17 27 26 28 27 29 28 30 29 31 30 33 31 34 32 35
REMARK SMILES IDX 96 36 33 37 95 38 34 39 35 40 36 41 89 42 37 43 94 44 88 45
REMARK SMILES IDX 90 46 38 47 93 48 87 49 86 50 39 52 73 53 52 54 72 55 53 56
REMARK SMILES IDX 56 57 71 58 91 59 54 60 55 61 70 63 92 64 57 65 40 66 41 67
REMARK SMILES IDX 50 68 42 69 43 70 49 71 51 72 44 73 45 74 46 75 47 76 48 77
REMARK SMILES IDX 74 78 75 79 84 80 76 81 77 82 83 83 85 84 78 85 79 86 80 87
REMARK SMILES IDX 81 88 82 89 58 90 59 91 68 92 60 93 61 94 67 95 69 96 62 97
REMARK SMILES IDX 63 98 64 99 65 100 66 101
REMARK H PARENT 24 5 28 32 90 51 56 62
REMARK Flexibility Score: inf
ROOT
ATOM      1  C   UNL     1       1.226  -8.883   2.017  1.00  0.00     0.117 C 
ENDROOT
BRANCH   1   2
ATOM      2  N   UNL     1       0.019  -9.023   1.223  1.00  0.00    -0.354 N 
ATOM      3  C   UNL     1      -0.466  -8.211   0.237  1.00  0.00     0.251 C 
ATOM      4  O   UNL     1      -1.507  -8.551  -0.333  1.00  0.00    -0.272 OA
ATOM      5  H   UNL     1      -0.528  -9.816   1.424  1.00  0.00     0.163 HD
BRANCH   3   6
ATOM      6  C   UNL     1       0.237  -6.895  -0.123  1.00  0.00     0.227 C 
ATOM      7  N   UNL     1       0.848  -4.685   0.813  1.00  0.00    -0.302 N 
ATOM      8  C   UNL     1       2.223  -4.888   0.356  1.00  0.00     0.157 C 
ATOM      9  C   UNL     1       0.081  -5.901   1.039  1.00  0.00     0.165 C 
ATOM     10  C   UNL     1       2.272  -5.876  -0.825  1.00  0.00     0.164 C 
ATOM     11  O   UNL     1       1.607  -7.109  -0.513  1.00  0.00    -0.359 OA
BRANCH   7  12
ATOM     12  C   UNL     1       0.358  -3.492   1.298  1.00  0.00     0.410 C 
ATOM     13  O   UNL     1      -0.617  -3.430   2.042  1.00  0.00    -0.224 OA
BRANCH  12  14
ATOM     14  O   UNL     1       1.022  -2.418   0.808  1.00  0.00    -0.444 OA
BRANCH  14  15
ATOM     15  C   UNL     1       0.586  -1.069   1.135  1.00  0.00     0.106 C 
ATOM     16  C   UNL     1       1.300  -0.167   0.117  1.00  0.00     0.056 C 
ATOM     17  C   UNL     1       1.054  -0.709   2.546  1.00  0.00     0.056 C 
ATOM     18  C   UNL     1      -0.927  -0.853   0.969  1.00  0.00     0.056 C 
ENDBRANCH  14  15
ENDBRANCH  12  14
ENDBRANCH   7  12
BRANCH  10  19
ATOM     19  C   UNL     1       3.717  -6.073  -1.358  1.00  0.00     0.194 C 
BRANCH  19  20
ATOM     20  O   UNL     1       4.565  -7.163  -1.012  1.00  0.00    -0.374 OA
BRANCH  20  21
ATOM     21  C   UNL     1       4.425  -7.862   0.209  1.00  0.00     0.195 C 
BRANCH  21  22
ATOM     22  C   UNL     1       5.255  -7.367   1.371  1.00  0.00    -0.022 A 
ATOM     23  C   UNL     1       5.711  -8.300   2.321  1.00  0.00     0.006 A 
ATOM     24  C   UNL     1       5.500  -6.011   1.605  1.00  0.00     0.006 A 
ATOM     25  C   UNL     1       6.390  -7.885   3.468  1.00  0.00     0.000 A 
ATOM     26  C   UNL     1       6.164  -5.593   2.762  1.00  0.00     0.000 A 
ATOM     27  C   UNL     1       6.608  -6.529   3.693  1.00  0.00     0.000 A 
ENDBRANCH  21  22
ENDBRANCH  20  21
ENDBRANCH  19  20
ENDBRANCH  10  19
ENDBRANCH   3   6
ENDBRANCH   1   2
BRANCH   1  28
ATOM     28  C   UNL     1       0.948  -8.756   3.508  1.00  0.00     0.042 C 
BRANCH  28  29
ATOM     29  C   UNL     1       0.321  -9.990   4.135  1.00  0.00     0.118 C 
BRANCH  29  30
ATOM     30  N   UNL     1       1.191 -11.155   4.079  1.00  0.00    -0.352 N 
ATOM     31  C   UNL     1       1.647 -11.964   5.091  1.00  0.00     0.251 C 
ATOM     32  H   UNL     1       1.501 -11.400   3.177  1.00  0.00     0.163 HD
ATOM     33  O   UNL     1       2.516 -12.797   4.847  1.00  0.00    -0.269 OA
BRANCH  31  34
ATOM     34  C   UNL     1       1.119 -11.820   6.467  1.00  0.00     0.039 A 
ATOM     35  C   UNL     1       2.007 -11.929   7.542  1.00  0.00     0.014 A 
ATOM     36  C   UNL     1      -0.239 -11.597   6.707  1.00  0.00     0.014 A 
ATOM     37  C   UNL     1       1.543 -11.748   8.847  1.00  0.00     0.010 A 
ATOM     38  C   UNL     1      -0.683 -11.331   8.000  1.00  0.00     0.010 A 
ATOM     39  C   UNL     1       0.201 -11.411   9.085  1.00  0.00    -0.014 A 
BRANCH  39  40
ATOM     40  C   UNL     1      -0.298 -11.147  10.459  1.00  0.00     0.031 A 
ATOM     41  C   UNL     1      -1.357 -12.030  11.063  1.00  0.00     0.074 A 
ATOM     42  C   UNL     1       0.157 -10.076  11.139  1.00  0.00     0.049 A 
ATOM     43  N   UNL     1      -1.965 -11.921  12.216  1.00  0.00    -0.248 NA
ATOM     44  C   UNL     1      -1.815 -13.169  10.251  1.00  0.00     0.031 C 
ATOM     45  C   UNL     1       1.141  -9.112  10.641  1.00  0.00     0.029 A 
ATOM     46  N   UNL     1      -0.156  -9.611  12.392  1.00  0.00    -0.354 N 
ATOM     47  C   UNL     1      -2.886 -12.961  12.260  1.00  0.00     0.074 A 
ATOM     48  C   UNL     1      -2.794 -13.660  10.997  1.00  0.00     0.031 C 
ATOM     49  C   UNL     1       1.369  -8.186  11.587  1.00  0.00     0.029 A 
ATOM     50  C   UNL     1       0.524  -8.468  12.743  1.00  0.00     0.049 A 
ATOM     51  H   UNL     1      -0.806 -10.054  12.983  1.00  0.00     0.167 HD
ATOM     52  C   UNL     1      -3.716 -13.317  13.270  1.00  0.00     0.037 A 
ATOM     53  C   UNL     1       0.471  -7.730  13.868  1.00  0.00     0.037 A 
ATOM     54  C   UNL     1      -3.779 -12.639  14.539  1.00  0.00     0.049 A 
ATOM     55  C   UNL     1      -0.441  -8.158  14.985  1.00  0.00     0.074 A 
ATOM     56  C   UNL     1      -4.542 -12.960  15.649  1.00  0.00     0.029 A 
ATOM     57  N   UNL     1      -3.050 -11.507  14.868  1.00  0.00    -0.354 N 
ATOM     58  N   UNL     1      -1.261  -9.180  15.032  1.00  0.00    -0.248 NA
ATOM     59  C   UNL     1      -0.428  -7.339  16.204  1.00  0.00     0.031 C 
ATOM     60  C   UNL     1      -4.297 -12.001  16.638  1.00  0.00     0.029 A 
ATOM     61  C   UNL     1      -3.353 -11.107  16.160  1.00  0.00     0.049 A 
ATOM     62  H   UNL     1      -2.410 -11.053  14.272  1.00  0.00     0.167 HD
ATOM     63  C   UNL     1      -1.845  -9.141  16.293  1.00  0.00     0.074 A 
ATOM     64  C   UNL     1      -1.274  -8.001  16.982  1.00  0.00     0.031 C 
ATOM     65  C   UNL     1      -2.770  -9.973  16.832  1.00  0.00     0.037 A 
BRANCH  52  66
ATOM     66  C   UNL     1      -4.615 -14.502  13.045  1.00  0.00     0.058 A 
ATOM     67  C   UNL     1      -4.107 -15.810  12.990  1.00  0.00     0.135 A 
ATOM     68  C   UNL     1      -6.002 -14.332  12.910  1.00  0.00     0.135 A 
ATOM     69  F   UNL     1      -2.787 -16.027  13.097  1.00  0.00    -0.206 F 
ATOM     70  C   UNL     1      -4.938 -16.905  12.777  1.00  0.00     0.059 A 
ATOM     71  C   UNL     1      -6.856 -15.416  12.723  1.00  0.00     0.059 A 
ATOM     72  F   UNL     1      -6.541 -13.104  12.956  1.00  0.00    -0.206 F 
ATOM     73  C   UNL     1      -6.311 -16.697  12.642  1.00  0.00     0.060 A 
BRANCH  73  74
ATOM     74  S   UNL     1      -7.377 -18.128  12.366  1.00  0.00     0.124 S 
ATOM     75  O   UNL     1      -7.093 -18.435  10.967  1.00  0.00    -0.237 OA
ATOM     76  O   UNL     1      -6.870 -19.089  13.340  1.00  0.00    -0.237 OA
ATOM     77  O   UNL     1      -8.715 -17.612  12.636  1.00  0.00    -0.744 OA
ENDBRANCH  73  74
ENDBRANCH  52  66
BRANCH  53  78
ATOM     78  C   UNL     1       1.333  -6.526  14.006  1.00  0.00     0.058 A 
ATOM     79  C   UNL     1       2.439  -6.529  14.867  1.00  0.00     0.135 A 
ATOM     80  C   UNL     1       1.080  -5.359  13.269  1.00  0.00     0.135 A 
ATOM     81  F   UNL     1       2.718  -7.620  15.597  1.00  0.00    -0.206 F 
ATOM     82  C   UNL     1       3.258  -5.413  15.005  1.00  0.00     0.059 A 
ATOM     83  C   UNL     1       1.897  -4.238  13.372  1.00  0.00     0.059 A 
ATOM     84  F   UNL     1       0.043  -5.313  12.417  1.00  0.00    -0.206 F 
ATOM     85  C   UNL     1       2.980  -4.272  14.251  1.00  0.00     0.060 A 
BRANCH  85  86
ATOM     86  S   UNL     1       4.080  -2.847  14.396  1.00  0.00     0.124 S 
ATOM     87  O   UNL     1       3.683  -2.299  15.687  1.00  0.00    -0.237 OA
ATOM     88  O   UNL     1       5.399  -3.470  14.344  1.00  0.00    -0.237 OA
ATOM     89  O   UNL     1       3.733  -2.037  13.231  1.00  0.00    -0.744 OA
ENDBRANCH  85  86
ENDBRANCH  53  78
BRANCH  65  90
ATOM     90  C   UNL     1      -3.198  -9.703  18.247  1.00  0.00     0.058 A 
ATOM     91  C   UNL     1      -4.045  -8.630  18.567  1.00  0.00     0.135 A 
ATOM     92  C   UNL     1      -2.791 -10.553  19.287  1.00  0.00     0.135 A 
ATOM     93  F   UNL     1      -4.457  -7.785  17.609  1.00  0.00    -0.206 F 
ATOM     94  C   UNL     1      -4.453  -8.394  19.876  1.00  0.00     0.059 A 
ATOM     95  C   UNL     1      -3.207 -10.350  20.599  1.00  0.00     0.059 A 
ATOM     96  F   UNL     1      -1.990 -11.599  19.032  1.00  0.00    -0.206 F 
ATOM     97  C   UNL     1      -4.028  -9.260  20.886  1.00  0.00     0.060 A 
BRANCH  97  98
ATOM     98  S   UNL     1      -4.585  -8.961  22.576  1.00  0.00     0.124 S 
ATOM     99  O   UNL     1      -3.740  -7.838  22.969  1.00  0.00    -0.237 OA
ATOM    100  O   UNL     1      -6.000  -8.655  22.392  1.00  0.00    -0.237 OA
ATOM    101  O   UNL     1      -4.306 -10.224  23.254  1.00  0.00    -0.744 OA
ENDBRANCH  97  98
ENDBRANCH  65  90
ENDBRANCH  39  40
ENDBRANCH  31  34
ENDBRANCH  29  30
ENDBRANCH  28  29
ENDBRANCH   1  28
TORSDOF 20
