REMARK SMILES N#Cc1ccc(/C=C/C(=O)N[C@H]2C=C[C@H](C(=O)NCCCNC(=O)c3ccc(-c4c5nc(c(-c6c(F)cc(S(=O)(=O)[O-])cc6F)c6ccc([nH]6)c(-c6c(F)cc(S(=O)(=O)[O-])cc6F)c6nc(c(-c7c(F)cc(S(=O)(=O)[O-])cc7F)c7ccc4[nH]7)C=C6)C=C5)cc3)C2)cc1
REMARK SMILES IDX 19 1 18 2 16 3 17 4 15 6 12 7 13 8 91 9 14 10 11 11 9 12
REMARK SMILES IDX 10 13 8 15 7 16 6 17 3 18 4 19 93 20 5 21 92 22 2 23 1 24
REMARK SMILES IDX 20 25 21 26 22 27 23 28 24 30 25 31 26 32 90 33 27 34 89 35
REMARK SMILES IDX 28 36 29 37 30 38 83 39 31 40 88 41 82 42 84 43 32 44 87 45
REMARK SMILES IDX 81 46 80 47 33 49 67 50 46 51 66 52 47 53 50 54 65 55 85 56
REMARK SMILES IDX 48 57 49 58 64 60 86 61 51 62 34 63 35 64 44 65 36 66 37 67
REMARK SMILES IDX 43 68 45 69 38 70 39 71 40 72 41 73 42 74 68 75 69 76 78 77
REMARK SMILES IDX 70 78 71 79 77 80 79 81 72 82 73 83 74 84 75 85 76 86 52 87
REMARK SMILES IDX 53 88 62 89 54 90 55 91 61 92 63 93 56 94 57 95 58 96 59 97
REMARK SMILES IDX 60 98
REMARK H PARENT 18 5 11 14 22 29 84 48 50 59
REMARK Flexibility Score: inf
ROOT
ATOM      1  C   UNL     1       4.231  -6.066   2.315  1.00  0.00     0.117 C 
ENDROOT
BRANCH   1   2
ATOM      2  N   UNL     1       3.527  -4.882   1.885  1.00  0.00    -0.356 N 
ATOM      3  C   UNL     1       3.980  -3.610   1.767  1.00  0.00     0.227 C 
ATOM      4  O   UNL     1       3.150  -2.760   1.441  1.00  0.00    -0.274 OA
ATOM      5  H   UNL     1       2.582  -5.017   1.644  1.00  0.00     0.163 HD
BRANCH   3   6
ATOM      6  C   UNL     1       5.443  -3.261   2.074  1.00  0.00     0.103 C 
ATOM      7  C   UNL     1       6.021  -1.550   0.479  1.00  0.00     0.106 C 
ATOM      8  C   UNL     1       6.876  -2.745   0.248  1.00  0.00    -0.006 C 
ATOM      9  C   UNL     1       5.635  -1.744   1.946  1.00  0.00     0.047 C 
ATOM     10  C   UNL     1       6.461  -3.735   1.058  1.00  0.00    -0.016 C 
BRANCH   7  11
ATOM     11  N   UNL     1       6.621  -0.273   0.240  1.00  0.00    -0.346 N 
ATOM     12  C   UNL     1       6.012   0.947   0.126  1.00  0.00     0.244 C 
ATOM     13  O   UNL     1       6.730   1.949   0.081  1.00  0.00    -0.270 OA
ATOM     14  H   UNL     1       7.601  -0.271   0.146  1.00  0.00     0.164 HD
BRANCH  12  15
ATOM     15  C   UNL     1       4.520   1.160   0.057  1.00  0.00     0.072 C 
ATOM     16  C   UNL     1       3.536   0.253  -0.030  1.00  0.00     0.014 C 
BRANCH  16  17
ATOM     17  C   UNL     1       2.071   0.364  -0.109  1.00  0.00    -0.025 A 
ATOM     18  C   UNL     1      -0.745   0.289  -0.103  1.00  0.00     0.052 A 
ATOM     19  C   UNL     1      -0.059   1.508   0.000  1.00  0.00     0.020 A 
ATOM     20  C   UNL     1      -0.027  -0.894  -0.237  1.00  0.00     0.020 A 
ATOM     21  C   UNL     1       1.345   1.546   0.003  1.00  0.00     0.009 A 
ATOM     22  C   UNL     1       1.363  -0.848  -0.254  1.00  0.00     0.009 A 
BRANCH  18  23
ATOM     23  C   UNL     1      -2.177   0.242  -0.070  1.00  0.00     0.099 C 
ATOM     24  N   UNL     1      -3.334   0.192  -0.052  1.00  0.00    -0.192 NA
ENDBRANCH  18  23
ENDBRANCH  16  17
ENDBRANCH  12  15
ENDBRANCH   7  11
ENDBRANCH   3   6
ENDBRANCH   1   2
BRANCH   1  25
ATOM     25  C   UNL     1       3.785  -6.515   3.697  1.00  0.00     0.042 C 
BRANCH  25  26
ATOM     26  C   UNL     1       2.307  -6.880   3.793  1.00  0.00     0.118 C 
BRANCH  26  27
ATOM     27  N   UNL     1       1.934  -7.960   2.892  1.00  0.00    -0.352 N 
ATOM     28  C   UNL     1       1.440  -9.213   3.158  1.00  0.00     0.251 C 
ATOM     29  H   UNL     1       2.056  -7.760   1.935  1.00  0.00     0.163 HD
ATOM     30  O   UNL     1       1.390 -10.035   2.246  1.00  0.00    -0.269 OA
BRANCH  28  31
ATOM     31  C   UNL     1       0.986  -9.582   4.517  1.00  0.00     0.039 A 
ATOM     32  C   UNL     1       1.216 -10.884   4.969  1.00  0.00     0.014 A 
ATOM     33  C   UNL     1       0.293  -8.680   5.329  1.00  0.00     0.014 A 
ATOM     34  C   UNL     1       0.783 -11.265   6.240  1.00  0.00     0.010 A 
ATOM     35  C   UNL     1      -0.042  -9.029   6.635  1.00  0.00     0.010 A 
ATOM     36  C   UNL     1       0.170 -10.335   7.097  1.00  0.00    -0.014 A 
BRANCH  36  37
ATOM     37  C   UNL     1      -0.290 -10.737   8.453  1.00  0.00     0.031 A 
ATOM     38  C   UNL     1      -1.750 -10.659   8.817  1.00  0.00     0.074 A 
ATOM     39  C   UNL     1       0.608 -11.162   9.364  1.00  0.00     0.049 A 
ATOM     40  N   UNL     1      -2.340 -10.980   9.941  1.00  0.00    -0.248 NA
ATOM     41  C   UNL     1      -2.666 -10.126   7.795  1.00  0.00     0.031 C 
ATOM     42  C   UNL     1       2.055 -11.231   9.154  1.00  0.00     0.029 A 
ATOM     43  N   UNL     1       0.437 -11.618  10.647  1.00  0.00    -0.354 N 
ATOM     44  C   UNL     1      -3.688 -10.691   9.758  1.00  0.00     0.074 A 
ATOM     45  C   UNL     1      -3.816 -10.091   8.450  1.00  0.00     0.031 C 
ATOM     46  C   UNL     1       2.636 -11.734  10.255  1.00  0.00     0.029 A 
ATOM     47  C   UNL     1       1.610 -11.982  11.264  1.00  0.00     0.049 A 
ATOM     48  H   UNL     1      -0.443 -11.678  11.084  1.00  0.00     0.167 HD
ATOM     49  C   UNL     1      -4.732 -10.935  10.588  1.00  0.00     0.037 A 
ATOM     50  C   UNL     1       1.839 -12.458  12.504  1.00  0.00     0.037 A 
ATOM     51  C   UNL     1      -4.596 -11.529  11.894  1.00  0.00     0.049 A 
ATOM     52  C   UNL     1       0.671 -12.704  13.419  1.00  0.00     0.074 A 
ATOM     53  C   UNL     1      -5.590 -11.843  12.805  1.00  0.00     0.029 A 
ATOM     54  N   UNL     1      -3.391 -11.889  12.482  1.00  0.00    -0.354 N 
ATOM     55  N   UNL     1      -0.605 -12.478  13.209  1.00  0.00    -0.248 NA
ATOM     56  C   UNL     1       0.971 -13.288  14.732  1.00  0.00     0.031 C 
ATOM     57  C   UNL     1      -4.982 -12.331  13.966  1.00  0.00     0.029 A 
ATOM     58  C   UNL     1      -3.615 -12.402  13.750  1.00  0.00     0.049 A 
ATOM     59  H   UNL     1      -2.507 -11.794  12.060  1.00  0.00     0.167 HD
ATOM     60  C   UNL     1      -1.264 -12.926  14.350  1.00  0.00     0.074 A 
ATOM     61  C   UNL     1      -0.244 -13.446  15.238  1.00  0.00     0.031 C 
ATOM     62  C   UNL     1      -2.592 -12.916  14.631  1.00  0.00     0.037 A 
BRANCH  49  63
ATOM     63  C   UNL     1      -6.107 -10.551  10.104  1.00  0.00     0.058 A 
ATOM     64  C   UNL     1      -6.710 -11.185   9.003  1.00  0.00     0.135 A 
ATOM     65  C   UNL     1      -6.838  -9.539  10.749  1.00  0.00     0.135 A 
ATOM     66  F   UNL     1      -6.058 -12.151   8.337  1.00  0.00    -0.206 F 
ATOM     67  C   UNL     1      -7.960 -10.798   8.531  1.00  0.00     0.059 A 
ATOM     68  C   UNL     1      -8.108  -9.163  10.318  1.00  0.00     0.059 A 
ATOM     69  F   UNL     1      -6.318  -8.898  11.807  1.00  0.00    -0.206 F 
ATOM     70  C   UNL     1      -8.651  -9.784   9.195  1.00  0.00     0.060 A 
BRANCH  70  71
ATOM     71  S   UNL     1     -10.264  -9.283   8.558  1.00  0.00     0.124 S 
ATOM     72  O   UNL     1      -9.892  -8.621   7.311  1.00  0.00    -0.237 OA
ATOM     73  O   UNL     1     -10.951 -10.563   8.416  1.00  0.00    -0.237 OA
ATOM     74  O   UNL     1     -10.786  -8.406   9.602  1.00  0.00    -0.744 OA
ENDBRANCH  70  71
ENDBRANCH  49  63
BRANCH  50  75
ATOM     75  C   UNL     1       3.233 -12.749  12.934  1.00  0.00     0.058 A 
ATOM     76  C   UNL     1       3.678 -14.064  13.142  1.00  0.00     0.135 A 
ATOM     77  C   UNL     1       4.162 -11.712  13.114  1.00  0.00     0.135 A 
ATOM     78  F   UNL     1       2.828 -15.091  12.991  1.00  0.00    -0.206 F 
ATOM     79  C   UNL     1       4.988 -14.340  13.521  1.00  0.00     0.059 A 
ATOM     80  C   UNL     1       5.485 -11.964  13.461  1.00  0.00     0.059 A 
ATOM     81  F   UNL     1       3.794 -10.437  12.913  1.00  0.00    -0.206 F 
ATOM     82  C   UNL     1       5.887 -13.282  13.668  1.00  0.00     0.060 A 
BRANCH  82  83
ATOM     83  S   UNL     1       7.604 -13.656  14.084  1.00  0.00     0.124 S 
ATOM     84  O   UNL     1       7.480 -14.120  15.461  1.00  0.00    -0.237 OA
ATOM     85  O   UNL     1       7.941 -14.673  13.094  1.00  0.00    -0.237 OA
ATOM     86  O   UNL     1       8.280 -12.373  13.909  1.00  0.00    -0.744 OA
ENDBRANCH  82  83
ENDBRANCH  50  75
BRANCH  62  87
ATOM     87  C   UNL     1      -3.030 -13.541  15.932  1.00  0.00     0.058 A 
ATOM     88  C   UNL     1      -2.709 -12.984  17.180  1.00  0.00     0.135 A 
ATOM     89  C   UNL     1      -3.800 -14.717  15.923  1.00  0.00     0.135 A 
ATOM     90  F   UNL     1      -1.977 -11.861  17.253  1.00  0.00    -0.206 F 
ATOM     91  C   UNL     1      -3.086 -13.600  18.371  1.00  0.00     0.059 A 
ATOM     92  C   UNL     1      -4.224 -15.326  17.099  1.00  0.00     0.059 A 
ATOM     93  F   UNL     1      -4.152 -15.287  14.759  1.00  0.00    -0.206 F 
ATOM     94  C   UNL     1      -3.841 -14.773  18.319  1.00  0.00     0.060 A 
BRANCH  94  95
ATOM     95  S   UNL     1      -4.313 -15.568  19.869  1.00  0.00     0.124 S 
ATOM     96  O   UNL     1      -3.033 -16.095  20.331  1.00  0.00    -0.237 OA
ATOM     97  O   UNL     1      -4.855 -14.452  20.638  1.00  0.00    -0.237 OA
ATOM     98  O   UNL     1      -5.291 -16.570  19.454  1.00  0.00    -0.744 OA
ENDBRANCH  94  95
ENDBRANCH  62  87
ENDBRANCH  36  37
ENDBRANCH  28  31
ENDBRANCH  26  27
ENDBRANCH  25  26
ENDBRANCH   1  25
TORSDOF 17
