REMARK SMILES O=C(CCCC(=O)Nc1nc2n(n1)[C@@H](c1ccc(Cl)cc1)C[C@@H](c1ccc(Cl)cc1)N2)NCCCNC(=O)c1ccc(-c2c3nc(c(-c4c(F)cc(S(=O)(=O)[O-])cc4F)c4ccc([nH]4)c(-c4c(F)cc(S(=O)(=O)[O-])cc4F)c4nc(c(-c5c(F)cc(S(=O)(=O)[O-])cc5F)c5ccc2[nH]5)C=C4)C=C3)cc1
REMARK SMILES IDX 33 1 32 2 1 3 2 4 3 6 4 7 5 8 6 9 7 10 8 11 9 13 10 14 13 15
REMARK SMILES IDX 11 16 12 17 31 18 14 19 23 20 22 22 15 23 16 24 21 25 17 26
REMARK SMILES IDX 20 27 18 28 19 29 24 30 25 31 30 32 26 33 29 34 27 35 28 36
REMARK SMILES IDX 34 37 35 38 36 39 37 40 38 42 39 43 40 44 104 45 41 46
REMARK SMILES IDX 103 47 42 48 43 49 44 50 97 51 45 52 102 53 96 54 98 55
REMARK SMILES IDX 46 56 101 57 95 58 94 59 47 61 81 62 60 63 80 64 61 65 64 66
REMARK SMILES IDX 79 67 99 68 62 69 63 70 78 72 100 73 65 74 48 75 49 76 58 77
REMARK SMILES IDX 50 78 51 79 57 80 59 81 52 82 53 83 54 84 55 85 56 86 82 87
REMARK SMILES IDX 83 88 92 89 84 90 85 91 91 92 93 93 86 94 87 95 88 96 89 97
REMARK SMILES IDX 90 98 66 99 67 100 76 101 68 102 69 103 75 104 77 105 70 106
REMARK SMILES IDX 71 107 72 108 73 109 74 110
REMARK H PARENT 32 5 8 12 31 21 36 41 98 60 64 71
REMARK Flexibility Score: inf
ROOT
ATOM      1  C   UNL     1       2.710   2.250   2.001  1.00  0.00     0.117 C 
ENDROOT
BRANCH   1   2
ATOM      2  N   UNL     1       2.858   1.522   0.754  1.00  0.00    -0.356 N 
ATOM      3  O   UNL     1       1.823   3.017  -0.620  1.00  0.00    -0.275 OA
ATOM      4  C   UNL     1       2.527   2.020  -0.479  1.00  0.00     0.220 C 
ATOM      5  H   UNL     1       3.221   0.608   0.797  1.00  0.00     0.163 HD
BRANCH   4   6
ATOM      6  C   UNL     1       3.048   1.236  -1.683  1.00  0.00     0.100 C 
BRANCH   6   7
ATOM      7  C   UNL     1       4.538   0.883  -1.717  1.00  0.00     0.020 C 
BRANCH   7   8
ATOM      8  C   UNL     1       5.265   0.297  -0.503  1.00  0.00     0.101 C 
BRANCH   8   9
ATOM      9  C   UNL     1       5.320  -1.195  -0.138  1.00  0.00     0.226 C 
ATOM     10  O   UNL     1       6.363  -1.802  -0.394  1.00  0.00    -0.275 OA
ATOM     11  N   UNL     1       4.435  -1.832   0.682  1.00  0.00    -0.293 N 
ATOM     12  H   UNL     1       4.838  -2.385   1.389  1.00  0.00     0.173 HD
BRANCH  11  13
ATOM     13  C   UNL     1       3.073  -1.811   0.661  1.00  0.00     0.250 A 
ATOM     14  N   UNL     1       2.427  -1.157  -0.321  1.00  0.00    -0.176 NA
ATOM     15  N   UNL     1       2.271  -2.425   1.549  1.00  0.00    -0.130 NA
ATOM     16  C   UNL     1       1.165  -1.338  -0.062  1.00  0.00     0.224 A 
ATOM     17  N   UNL     1       1.036  -2.069   1.095  1.00  0.00    -0.222 N 
ATOM     18  N   UNL     1       0.118  -0.842  -0.735  1.00  0.00    -0.347 N 
ATOM     19  C   UNL     1      -0.267  -2.476   1.679  1.00  0.00     0.144 C 
ATOM     20  C   UNL     1      -1.204  -0.854  -0.157  1.00  0.00     0.115 C 
ATOM     21  H   UNL     1       0.252  -0.466  -1.635  1.00  0.00     0.164 HD
ATOM     22  C   UNL     1      -1.369  -2.195   0.603  1.00  0.00     0.062 C 
BRANCH  19  23
ATOM     23  C   UNL     1      -0.627  -1.856   3.048  1.00  0.00    -0.023 A 
ATOM     24  C   UNL     1      -1.978  -1.737   3.447  1.00  0.00     0.007 A 
ATOM     25  C   UNL     1       0.331  -1.357   3.942  1.00  0.00     0.007 A 
ATOM     26  C   UNL     1      -2.359  -0.951   4.539  1.00  0.00     0.021 A 
ATOM     27  C   UNL     1      -0.044  -0.564   5.039  1.00  0.00     0.021 A 
ATOM     28  C   UNL     1      -1.388  -0.323   5.302  1.00  0.00     0.041 A 
ATOM     29  Cl  UNL     1      -1.852   0.752   6.559  1.00  0.00    -0.084 Cl
ENDBRANCH  19  23
BRANCH  20  30
ATOM     30  C   UNL     1      -1.463   0.460   0.579  1.00  0.00    -0.025 A 
ATOM     31  C   UNL     1      -0.608   0.935   1.581  1.00  0.00     0.007 A 
ATOM     32  C   UNL     1      -2.530   1.299   0.224  1.00  0.00     0.007 A 
ATOM     33  C   UNL     1      -0.837   2.127   2.272  1.00  0.00     0.021 A 
ATOM     34  C   UNL     1      -2.739   2.528   0.876  1.00  0.00     0.021 A 
ATOM     35  C   UNL     1      -1.900   2.929   1.910  1.00  0.00     0.041 A 
ATOM     36  Cl  UNL     1      -2.155   4.418   2.729  1.00  0.00    -0.084 Cl
ENDBRANCH  20  30
ENDBRANCH  11  13
ENDBRANCH   8   9
ENDBRANCH   7   8
ENDBRANCH   6   7
ENDBRANCH   4   6
ENDBRANCH   1   2
BRANCH   1  37
ATOM     37  C   UNL     1       2.510   1.312   3.195  1.00  0.00     0.042 C 
BRANCH  37  38
ATOM     38  C   UNL     1       3.803   0.946   3.881  1.00  0.00     0.118 C 
BRANCH  38  39
ATOM     39  N   UNL     1       4.320   1.966   4.796  1.00  0.00    -0.352 N 
ATOM     40  C   UNL     1       5.451   1.938   5.623  1.00  0.00     0.251 C 
ATOM     41  H   UNL     1       3.794   2.797   4.835  1.00  0.00     0.163 HD
ATOM     42  O   UNL     1       5.592   2.772   6.485  1.00  0.00    -0.269 OA
BRANCH  40  43
ATOM     43  C   UNL     1       6.456   0.855   5.444  1.00  0.00     0.039 A 
ATOM     44  C   UNL     1       7.454   0.519   6.358  1.00  0.00     0.014 A 
ATOM     45  C   UNL     1       6.426   0.154   4.266  1.00  0.00     0.014 A 
ATOM     46  C   UNL     1       8.392  -0.457   5.981  1.00  0.00     0.010 A 
ATOM     47  C   UNL     1       6.924  -1.099   4.231  1.00  0.00     0.010 A 
ATOM     48  C   UNL     1       8.138  -1.222   4.841  1.00  0.00    -0.014 A 
BRANCH  48  49
ATOM     49  C   UNL     1       9.025  -2.196   4.236  1.00  0.00     0.031 A 
ATOM     50  C   UNL     1       9.133  -3.462   4.974  1.00  0.00     0.074 A 
ATOM     51  C   UNL     1       9.439  -2.124   2.949  1.00  0.00     0.049 A 
ATOM     52  N   UNL     1      10.096  -3.828   5.745  1.00  0.00    -0.248 NA
ATOM     53  C   UNL     1       7.965  -4.351   5.000  1.00  0.00     0.031 C 
ATOM     54  C   UNL     1       9.076  -1.164   1.899  1.00  0.00     0.029 A 
ATOM     55  N   UNL     1      10.233  -3.004   2.283  1.00  0.00    -0.354 N 
ATOM     56  C   UNL     1       9.760  -5.101   6.181  1.00  0.00     0.074 A 
ATOM     57  C   UNL     1       8.356  -5.258   5.897  1.00  0.00     0.031 C 
ATOM     58  C   UNL     1       9.501  -1.624   0.698  1.00  0.00     0.029 A 
ATOM     59  C   UNL     1      10.289  -2.826   0.906  1.00  0.00     0.049 A 
ATOM     60  H   UNL     1      10.734  -3.716   2.743  1.00  0.00     0.167 HD
ATOM     61  C   UNL     1      10.718  -6.007   6.522  1.00  0.00     0.037 A 
ATOM     62  C   UNL     1      10.906  -3.651   0.019  1.00  0.00     0.037 A 
ATOM     63  C   UNL     1      12.026  -5.389   6.533  1.00  0.00     0.049 A 
ATOM     64  C   UNL     1      11.909  -4.436   0.795  1.00  0.00     0.074 A 
ATOM     65  C   UNL     1      12.589  -4.332   7.223  1.00  0.00     0.029 A 
ATOM     66  N   UNL     1      12.832  -5.586   5.432  1.00  0.00    -0.354 N 
ATOM     67  N   UNL     1      12.954  -3.907   1.378  1.00  0.00    -0.248 NA
ATOM     68  C   UNL     1      11.499  -5.729   1.325  1.00  0.00     0.031 C 
ATOM     69  C   UNL     1      13.394  -3.648   6.263  1.00  0.00     0.029 A 
ATOM     70  C   UNL     1      13.335  -4.361   5.063  1.00  0.00     0.049 A 
ATOM     71  H   UNL     1      13.014  -6.446   4.990  1.00  0.00     0.167 HD
ATOM     72  C   UNL     1      13.067  -4.572   2.593  1.00  0.00     0.074 A 
ATOM     73  C   UNL     1      12.210  -5.749   2.457  1.00  0.00     0.031 C 
ATOM     74  C   UNL     1      13.606  -3.964   3.693  1.00  0.00     0.037 A 
BRANCH  61  75
ATOM     75  C   UNL     1      10.543  -7.503   6.532  1.00  0.00     0.058 A 
ATOM     76  C   UNL     1      11.534  -8.298   7.145  1.00  0.00     0.135 A 
ATOM     77  C   UNL     1       9.579  -8.206   5.778  1.00  0.00     0.135 A 
ATOM     78  F   UNL     1      12.499  -7.735   7.890  1.00  0.00    -0.206 F 
ATOM     79  C   UNL     1      11.606  -9.677   6.959  1.00  0.00     0.059 A 
ATOM     80  C   UNL     1       9.595  -9.589   5.632  1.00  0.00     0.059 A 
ATOM     81  F   UNL     1       8.634  -7.585   5.063  1.00  0.00    -0.206 F 
ATOM     82  C   UNL     1      10.640 -10.310   6.184  1.00  0.00     0.060 A 
BRANCH  82  83
ATOM     83  S   UNL     1      10.802 -12.068   5.834  1.00  0.00     0.124 S 
ATOM     84  O   UNL     1      11.937 -12.075   4.918  1.00  0.00    -0.237 OA
ATOM     85  O   UNL     1      11.046 -12.623   7.161  1.00  0.00    -0.237 OA
ATOM     86  O   UNL     1       9.512 -12.412   5.244  1.00  0.00    -0.744 OA
ENDBRANCH  82  83
ENDBRANCH  61  75
BRANCH  62  87
ATOM     87  C   UNL     1      10.457  -4.020  -1.353  1.00  0.00     0.058 A 
ATOM     88  C   UNL     1      11.273  -4.734  -2.245  1.00  0.00     0.135 A 
ATOM     89  C   UNL     1       9.102  -3.918  -1.722  1.00  0.00     0.135 A 
ATOM     90  F   UNL     1      12.571  -4.925  -1.964  1.00  0.00    -0.206 F 
ATOM     91  C   UNL     1      10.765  -5.340  -3.404  1.00  0.00     0.059 A 
ATOM     92  C   UNL     1       8.575  -4.478  -2.884  1.00  0.00     0.059 A 
ATOM     93  F   UNL     1       8.214  -3.374  -0.887  1.00  0.00    -0.206 F 
ATOM     94  C   UNL     1       9.408  -5.219  -3.707  1.00  0.00     0.060 A 
BRANCH  94  95
ATOM     95  S   UNL     1       8.702  -6.163  -5.079  1.00  0.00     0.124 S 
ATOM     96  O   UNL     1       9.261  -5.478  -6.240  1.00  0.00    -0.237 OA
ATOM     97  O   UNL     1       9.213  -7.506  -4.824  1.00  0.00    -0.237 OA
ATOM     98  O   UNL     1       7.261  -6.008  -4.898  1.00  0.00    -0.744 OA
ENDBRANCH  94  95
ENDBRANCH  62  87
BRANCH  74  99
ATOM     99  C   UNL     1      14.325  -2.646   3.504  1.00  0.00     0.058 A 
ATOM    100  C   UNL     1      13.705  -1.464   3.060  1.00  0.00     0.135 A 
ATOM    101  C   UNL     1      15.650  -2.530   3.954  1.00  0.00     0.135 A 
ATOM    102  F   UNL     1      12.413  -1.450   2.717  1.00  0.00    -0.206 F 
ATOM    103  C   UNL     1      14.375  -0.239   3.023  1.00  0.00     0.059 A 
ATOM    104  C   UNL     1      16.329  -1.312   3.957  1.00  0.00     0.059 A 
ATOM    105  F   UNL     1      16.285  -3.603   4.454  1.00  0.00    -0.206 F 
ATOM    106  C   UNL     1      15.689  -0.171   3.478  1.00  0.00     0.060 A 
BRANCH 106 107
ATOM    107  S   UNL     1      16.520   1.432   3.516  1.00  0.00     0.124 S 
ATOM    108  O   UNL     1      16.808   1.662   2.105  1.00  0.00    -0.237 OA
ATOM    109  O   UNL     1      15.508   2.304   4.107  1.00  0.00    -0.237 OA
ATOM    110  O   UNL     1      17.688   1.189   4.360  1.00  0.00    -0.744 OA
ENDBRANCH 106 107
ENDBRANCH  74  99
ENDBRANCH  48  49
ENDBRANCH  40  43
ENDBRANCH  38  39
ENDBRANCH  37  38
ENDBRANCH   1  37
TORSDOF 19
