REMARK SMILES [NH3+][C@]1(C(=O)NCCCNC(=O)c2ccc(-c3c4nc(c(-c5c(F)cc(S(=O)(=O)[O-])cc5F)c5ccc([nH]5)c(-c5c(F)cc(S(=O)(=O)[O-])cc5F)c5nc(c(-c6c(F)cc(S(=O)(=O)[O-])cc6F)c6ccc3[nH]6)C=C5)C=C4)cc2)CC[C@H](Oc2ccccc2[N+](=O)[O-])C1
REMARK SMILES IDX 7 1 6 2 5 3 3 4 4 5 2 7 78 8 91 9 79 10 80 11 1 12 81 16
REMARK SMILES IDX 82 17 83 18 87 19 84 20 86 21 85 22 88 23 89 24 90 25 8 26
REMARK SMILES IDX 9 27 10 28 11 30 12 31 13 32 77 33 14 34 76 35 15 36 16 37
REMARK SMILES IDX 17 38 70 39 18 40 75 41 69 42 71 43 19 44 74 45 68 46 67 47
REMARK SMILES IDX 20 49 54 50 33 51 53 52 34 53 37 54 52 55 72 56 35 57 36 58
REMARK SMILES IDX 51 60 73 61 38 62 21 63 22 64 31 65 23 66 24 67 30 68 32 69
REMARK SMILES IDX 25 70 26 71 27 72 28 73 29 74 55 75 56 76 65 77 57 78 58 79
REMARK SMILES IDX 64 80 66 81 59 82 60 83 61 84 62 85 63 86 39 87 40 88 49 89
REMARK SMILES IDX 41 90 42 91 48 92 50 93 43 94 44 95 45 96 46 97 47 98
REMARK H PARENT 5 6 1 13 1 14 1 15 9 29 71 48 37 59
REMARK Flexibility Score: inf
ROOT
ATOM      1  C   UNL     1       3.447  -2.551   0.777  1.00  0.00     0.042 C 
ENDROOT
BRANCH   1   2
ATOM      2  C   UNL     1       3.470  -1.034   0.623  1.00  0.00     0.118 C 
BRANCH   2   3
ATOM      3  N   UNL     1       2.366  -0.555  -0.182  1.00  0.00    -0.351 N 
ATOM      4  C   UNL     1       1.169   0.013   0.082  1.00  0.00     0.281 C 
ATOM      5  O   UNL     1       0.477   0.251  -0.922  1.00  0.00    -0.268 OA
ATOM      6  H   UNL     1       2.524  -0.671  -1.147  1.00  0.00     0.163 HD
BRANCH   4   7
ATOM      7  C   UNL     1       0.619   0.417   1.481  1.00  0.00     0.177 C 
ATOM      8  C   UNL     1       1.174  -0.157   2.782  1.00  0.00     0.083 C 
ATOM      9  C   UNL     1       0.766   1.948   1.664  1.00  0.00     0.124 C 
ATOM     10  C   UNL     1       0.733   0.856   3.830  1.00  0.00     0.052 C 
ATOM     11  C   UNL     1       1.071   2.189   3.153  1.00  0.00     0.180 C 
BRANCH   7  12
ATOM     12  N   UNL     1      -0.837   0.083   1.482  1.00  0.00    -0.345 N 
ATOM     13  H   UNL     1      -1.242   0.333   2.385  1.00  0.00     0.345 HD
ATOM     14  H   UNL     1      -0.957  -0.917   1.321  1.00  0.00     0.345 HD
ATOM     15  H   UNL     1      -1.306   0.606   0.743  1.00  0.00     0.345 HD
ENDBRANCH   7  12
BRANCH  11  16
ATOM     16  O   UNL     1       0.318   3.311   3.614  1.00  0.00    -0.483 OA
BRANCH  16  17
ATOM     17  C   UNL     1       0.284   3.546   4.960  1.00  0.00     0.197 A 
ATOM     18  C   UNL     1       1.397   3.294   5.777  1.00  0.00     0.054 A 
ATOM     19  C   UNL     1      -0.874   4.080   5.549  1.00  0.00     0.310 A 
ATOM     20  C   UNL     1       1.336   3.494   7.158  1.00  0.00     0.004 A 
ATOM     21  C   UNL     1      -0.927   4.288   6.941  1.00  0.00     0.090 A 
ATOM     22  C   UNL     1       0.173   3.982   7.742  1.00  0.00     0.007 A 
BRANCH  19  23
ATOM     23  N   UNL     1      -2.067   4.440   4.760  1.00  0.00     0.066 N 
ATOM     24  O   UNL     1      -2.942   5.106   5.338  1.00  0.00    -0.258 OA
ATOM     25  O   UNL     1      -2.157   4.075   3.582  1.00  0.00    -0.258 OA
ENDBRANCH  19  23
ENDBRANCH  16  17
ENDBRANCH  11  16
ENDBRANCH   4   7
ENDBRANCH   2   3
ENDBRANCH   1   2
BRANCH   1  26
ATOM     26  C   UNL     1       3.909  -3.275  -0.486  1.00  0.00     0.118 C 
BRANCH  26  27
ATOM     27  N   UNL     1       5.288  -2.940  -0.833  1.00  0.00    -0.352 N 
ATOM     28  C   UNL     1       6.432  -3.698  -0.786  1.00  0.00     0.251 C 
ATOM     29  H   UNL     1       5.419  -2.018  -1.154  1.00  0.00     0.163 HD
ATOM     30  O   UNL     1       7.524  -3.142  -0.840  1.00  0.00    -0.269 OA
BRANCH  28  31
ATOM     31  C   UNL     1       6.347  -5.168  -0.675  1.00  0.00     0.039 A 
ATOM     32  C   UNL     1       7.283  -5.851   0.105  1.00  0.00     0.014 A 
ATOM     33  C   UNL     1       5.365  -5.876  -1.371  1.00  0.00     0.014 A 
ATOM     34  C   UNL     1       7.190  -7.238   0.237  1.00  0.00     0.010 A 
ATOM     35  C   UNL     1       5.213  -7.239  -1.159  1.00  0.00     0.010 A 
ATOM     36  C   UNL     1       6.131  -7.938  -0.362  1.00  0.00    -0.014 A 
BRANCH  36  37
ATOM     37  C   UNL     1       5.964  -9.402  -0.184  1.00  0.00     0.031 A 
ATOM     38  C   UNL     1       5.997 -10.313  -1.383  1.00  0.00     0.074 A 
ATOM     39  C   UNL     1       5.701  -9.897   1.042  1.00  0.00     0.049 A 
ATOM     40  N   UNL     1       5.774 -11.600  -1.448  1.00  0.00    -0.248 NA
ATOM     41  C   UNL     1       6.284  -9.690  -2.686  1.00  0.00     0.031 C 
ATOM     42  C   UNL     1       5.589  -9.104   2.268  1.00  0.00     0.029 A 
ATOM     43  N   UNL     1       5.467 -11.183   1.458  1.00  0.00    -0.354 N 
ATOM     44  C   UNL     1       5.874 -11.934  -2.794  1.00  0.00     0.074 A 
ATOM     45  C   UNL     1       6.116 -10.706  -3.518  1.00  0.00     0.031 C 
ATOM     46  C   UNL     1       5.334  -9.922   3.301  1.00  0.00     0.029 A 
ATOM     47  C   UNL     1       5.220 -11.290   2.807  1.00  0.00     0.049 A 
ATOM     48  H   UNL     1       5.476 -11.956   0.849  1.00  0.00     0.167 HD
ATOM     49  C   UNL     1       5.798 -13.157  -3.370  1.00  0.00     0.037 A 
ATOM     50  C   UNL     1       4.925 -12.369   3.558  1.00  0.00     0.037 A 
ATOM     51  C   UNL     1       5.588 -14.376  -2.635  1.00  0.00     0.049 A 
ATOM     52  C   UNL     1       4.851 -13.718   2.896  1.00  0.00     0.074 A 
ATOM     53  C   UNL     1       5.556 -15.674  -3.112  1.00  0.00     0.029 A 
ATOM     54  N   UNL     1       5.372 -14.448  -1.266  1.00  0.00    -0.354 N 
ATOM     55  N   UNL     1       5.013 -14.025   1.630  1.00  0.00    -0.248 NA
ATOM     56  C   UNL     1       4.561 -14.868   3.762  1.00  0.00     0.031 C 
ATOM     57  C   UNL     1       5.274 -16.526  -2.040  1.00  0.00     0.029 A 
ATOM     58  C   UNL     1       5.186 -15.766  -0.884  1.00  0.00     0.049 A 
ATOM     59  H   UNL     1       5.354 -13.675  -0.655  1.00  0.00     0.167 HD
ATOM     60  C   UNL     1       4.877 -15.406   1.553  1.00  0.00     0.074 A 
ATOM     61  C   UNL     1       4.629 -15.875   2.901  1.00  0.00     0.031 C 
ATOM     62  C   UNL     1       4.952 -16.214   0.467  1.00  0.00     0.037 A 
BRANCH  49  63
ATOM     63  C   UNL     1       5.952 -13.237  -4.865  1.00  0.00     0.058 A 
ATOM     64  C   UNL     1       7.178 -12.971  -5.498  1.00  0.00     0.135 A 
ATOM     65  C   UNL     1       4.870 -13.617  -5.676  1.00  0.00     0.135 A 
ATOM     66  F   UNL     1       8.242 -12.587  -4.775  1.00  0.00    -0.206 F 
ATOM     67  C   UNL     1       7.317 -13.047  -6.880  1.00  0.00     0.059 A 
ATOM     68  C   UNL     1       4.994 -13.731  -7.058  1.00  0.00     0.059 A 
ATOM     69  F   UNL     1       3.674 -13.883  -5.127  1.00  0.00    -0.206 F 
ATOM     70  C   UNL     1       6.219 -13.429  -7.652  1.00  0.00     0.060 A 
BRANCH  70  71
ATOM     71  S   UNL     1       6.420 -13.530  -9.442  1.00  0.00     0.124 S 
ATOM     72  O   UNL     1       6.504 -12.119  -9.805  1.00  0.00    -0.237 OA
ATOM     73  O   UNL     1       7.658 -14.292  -9.574  1.00  0.00    -0.237 OA
ATOM     74  O   UNL     1       5.212 -14.220  -9.883  1.00  0.00    -0.744 OA
ENDBRANCH  70  71
ENDBRANCH  49  63
BRANCH  50  75
ATOM     75  C   UNL     1       4.704 -12.218   5.021  1.00  0.00     0.058 A 
ATOM     76  C   UNL     1       5.630 -12.722   5.946  1.00  0.00     0.135 A 
ATOM     77  C   UNL     1       3.575 -11.553   5.525  1.00  0.00     0.135 A 
ATOM     78  F   UNL     1       6.723 -13.369   5.515  1.00  0.00    -0.206 F 
ATOM     79  C   UNL     1       5.438 -12.590   7.317  1.00  0.00     0.059 A 
ATOM     80  C   UNL     1       3.374 -11.383   6.891  1.00  0.00     0.059 A 
ATOM     81  F   UNL     1       2.668 -11.033   4.682  1.00  0.00    -0.206 F 
ATOM     82  C   UNL     1       4.307 -11.915   7.780  1.00  0.00     0.060 A 
BRANCH  82  83
ATOM     83  S   UNL     1       4.092 -11.707   9.562  1.00  0.00     0.124 S 
ATOM     84  O   UNL     1       3.747 -13.062   9.976  1.00  0.00    -0.237 OA
ATOM     85  O   UNL     1       5.408 -11.227   9.974  1.00  0.00    -0.237 OA
ATOM     86  O   UNL     1       3.017 -10.724   9.657  1.00  0.00    -0.744 OA
ENDBRANCH  82  83
ENDBRANCH  50  75
BRANCH  62  87
ATOM     87  C   UNL     1       4.808 -17.694   0.691  1.00  0.00     0.058 A 
ATOM     88  C   UNL     1       3.573 -18.278   1.012  1.00  0.00     0.135 A 
ATOM     89  C   UNL     1       5.913 -18.545   0.524  1.00  0.00     0.135 A 
ATOM     90  F   UNL     1       2.487 -17.509   1.189  1.00  0.00    -0.206 F 
ATOM     91  C   UNL     1       3.443 -19.652   1.181  1.00  0.00     0.059 A 
ATOM     92  C   UNL     1       5.799 -19.924   0.658  1.00  0.00     0.059 A 
ATOM     93  F   UNL     1       7.115 -18.038   0.207  1.00  0.00    -0.206 F 
ATOM     94  C   UNL     1       4.562 -20.468   0.998  1.00  0.00     0.060 A 
BRANCH  94  95
ATOM     95  S   UNL     1       4.370 -22.253   1.183  1.00  0.00     0.124 S 
ATOM     96  O   UNL     1       4.229 -22.385   2.629  1.00  0.00    -0.237 OA
ATOM     97  O   UNL     1       3.166 -22.519   0.401  1.00  0.00    -0.237 OA
ATOM     98  O   UNL     1       5.606 -22.788   0.620  1.00  0.00    -0.744 OA
ENDBRANCH  94  95
ENDBRANCH  62  87
ENDBRANCH  36  37
ENDBRANCH  28  31
ENDBRANCH  26  27
ENDBRANCH   1  26
TORSDOF 17
