REMARK SMILES Cc1ccccc1CCNc1ccc(C(=O)NCCCNC(=O)c2ccc(-c3c4nc(c(-c5c(F)cc(S(=O)(=O)[O-])cc5F)c5ccc([nH]5)c(-c5c(F)cc(S(=O)(=O)[O-])cc5F)c5nc(c(-c6c(F)cc(S(=O)(=O)[O-])cc6F)c6ccc3[nH]6)C=C5)C=C4)cc2)cc1N
REMARK SMILES IDX 18 1 17 2 15 3 16 4 14 6 11 7 12 8 91 9 13 10 90 11 10 12
REMARK SMILES IDX 9 14 8 15 7 16 1 17 2 18 3 19 4 20 6 21 5 22 92 23 19 26
REMARK SMILES IDX 20 27 21 28 22 29 23 31 24 32 25 33 89 34 26 35 88 36 27 37
REMARK SMILES IDX 28 38 29 39 82 40 30 41 87 42 81 43 83 44 31 45 86 46 80 47
REMARK SMILES IDX 79 48 32 50 66 51 45 52 65 53 46 54 49 55 64 56 84 57 47 58
REMARK SMILES IDX 48 59 63 61 85 62 50 63 33 64 34 65 43 66 35 67 36 68 42 69
REMARK SMILES IDX 44 70 37 71 38 72 39 73 40 74 41 75 67 76 68 77 77 78 69 79
REMARK SMILES IDX 70 80 76 81 78 82 71 83 72 84 73 85 74 86 75 87 51 88 52 89
REMARK SMILES IDX 61 90 53 91 54 92 60 93 62 94 55 95 56 96 57 97 58 98 59 99
REMARK H PARENT 17 5 10 13 92 24 92 25 21 30 83 49 49 60
REMARK Flexibility Score: inf
ROOT
ATOM      1  C   UNL     1      -0.943   9.961  -2.786  1.00  0.00     0.118 C 
ENDROOT
BRANCH   1   2
ATOM      2  N   UNL     1      -2.057   9.879  -1.858  1.00  0.00    -0.352 N 
ATOM      3  C   UNL     1      -2.607   8.844  -1.149  1.00  0.00     0.251 C 
ATOM      4  O   UNL     1      -3.556   9.111  -0.407  1.00  0.00    -0.269 OA
ATOM      5  H   UNL     1      -2.507  10.742  -1.708  1.00  0.00     0.163 HD
BRANCH   3   6
ATOM      6  C   UNL     1      -2.132   7.423  -1.211  1.00  0.00     0.041 A 
ATOM      7  C   UNL     1      -1.332   4.702  -1.116  1.00  0.00     0.057 A 
ATOM      8  C   UNL     1      -0.714   5.598  -1.977  1.00  0.00     0.029 A 
ATOM      9  C   UNL     1      -2.395   5.163  -0.313  1.00  0.00     0.056 A 
ATOM     10  C   UNL     1      -1.093   6.939  -2.003  1.00  0.00     0.016 A 
ATOM     11  C   UNL     1      -2.802   6.500  -0.393  1.00  0.00     0.041 A 
BRANCH   7  12
ATOM     12  N   UNL     1      -0.927   3.378  -1.063  1.00  0.00    -0.383 N 
ATOM     13  H   UNL     1      -1.608   2.667  -1.040  1.00  0.00     0.160 HD
BRANCH  12  14
ATOM     14  C   UNL     1       0.484   3.011  -1.042  1.00  0.00     0.117 C 
BRANCH  14  15
ATOM     15  C   UNL     1       0.823   2.261   0.258  1.00  0.00     0.057 C 
BRANCH  15  16
ATOM     16  C   UNL     1       0.287   0.842   0.262  1.00  0.00    -0.043 A 
ATOM     17  C   UNL     1       2.570  -0.282  -0.132  1.00  0.00     0.044 C 
ATOM     18  C   UNL     1       1.073  -0.299   0.016  1.00  0.00    -0.048 A 
ATOM     19  C   UNL     1       0.441  -1.556  -0.051  1.00  0.00     0.004 A 
ATOM     20  C   UNL     1      -0.939  -1.687   0.106  1.00  0.00     0.000 A 
ATOM     21  C   UNL     1      -1.096   0.676   0.468  1.00  0.00     0.004 A 
ATOM     22  C   UNL     1      -1.710  -0.567   0.372  1.00  0.00     0.000 A 
ENDBRANCH  15  16
ENDBRANCH  14  15
ENDBRANCH  12  14
ENDBRANCH   7  12
BRANCH   9  23
ATOM     23  N   UNL     1      -3.113   4.270   0.489  1.00  0.00    -0.397 N 
ATOM     24  H   UNL     1      -2.832   3.329   0.550  1.00  0.00     0.156 HD
ATOM     25  H   UNL     1      -3.900   4.583   0.991  1.00  0.00     0.156 HD
ENDBRANCH   9  23
ENDBRANCH   3   6
ENDBRANCH   1   2
BRANCH   1  26
ATOM     26  C   UNL     1      -1.291   9.334  -4.141  1.00  0.00     0.042 C 
BRANCH  26  27
ATOM     27  C   UNL     1      -1.586  10.378  -5.190  1.00  0.00     0.118 C 
BRANCH  27  28
ATOM     28  N   UNL     1      -0.367  11.005  -5.684  1.00  0.00    -0.352 N 
ATOM     29  C   UNL     1      -0.397  12.374  -5.796  1.00  0.00     0.251 C 
ATOM     30  H   UNL     1       0.430  10.479  -5.922  1.00  0.00     0.163 HD
ATOM     31  O   UNL     1      -0.331  13.059  -4.777  1.00  0.00    -0.269 OA
BRANCH  29  32
ATOM     32  C   UNL     1      -0.874  12.954  -7.111  1.00  0.00     0.039 A 
ATOM     33  C   UNL     1      -0.709  14.344  -7.084  1.00  0.00     0.014 A 
ATOM     34  C   UNL     1      -2.142  12.449  -7.403  1.00  0.00     0.014 A 
ATOM     35  C   UNL     1      -1.764  15.093  -6.594  1.00  0.00     0.010 A 
ATOM     36  C   UNL     1      -3.195  13.139  -6.850  1.00  0.00     0.010 A 
ATOM     37  C   UNL     1      -2.952  14.416  -6.333  1.00  0.00    -0.014 A 
BRANCH  37  38
ATOM     38  C   UNL     1      -3.998  14.962  -5.499  1.00  0.00     0.031 A 
ATOM     39  C   UNL     1      -5.060  15.701  -6.189  1.00  0.00     0.074 A 
ATOM     40  C   UNL     1      -3.961  14.742  -4.167  1.00  0.00     0.049 A 
ATOM     41  N   UNL     1      -5.881  16.522  -5.643  1.00  0.00    -0.248 NA
ATOM     42  C   UNL     1      -5.192  15.627  -7.642  1.00  0.00     0.031 C 
ATOM     43  C   UNL     1      -5.006  15.019  -3.189  1.00  0.00     0.029 A 
ATOM     44  N   UNL     1      -2.837  14.435  -3.387  1.00  0.00    -0.354 N 
ATOM     45  C   UNL     1      -6.809  16.873  -6.602  1.00  0.00     0.074 A 
ATOM     46  C   UNL     1      -6.261  16.394  -7.841  1.00  0.00     0.031 C 
ATOM     47  C   UNL     1      -4.426  15.186  -1.988  1.00  0.00     0.029 A 
ATOM     48  C   UNL     1      -2.984  15.180  -2.209  1.00  0.00     0.049 A 
ATOM     49  H   UNL     1      -2.101  13.824  -3.618  1.00  0.00     0.167 HD
ATOM     50  C   UNL     1      -8.000  17.390  -6.188  1.00  0.00     0.037 A 
ATOM     51  C   UNL     1      -2.151  16.207  -1.866  1.00  0.00     0.037 A 
ATOM     52  C   UNL     1      -7.890  17.777  -4.776  1.00  0.00     0.049 A 
ATOM     53  C   UNL     1      -2.915  17.520  -1.761  1.00  0.00     0.074 A 
ATOM     54  C   UNL     1      -8.220  17.125  -3.598  1.00  0.00     0.029 A 
ATOM     55  N   UNL     1      -6.995  18.789  -4.424  1.00  0.00    -0.354 N 
ATOM     56  N   UNL     1      -4.019  17.790  -2.411  1.00  0.00    -0.248 NA
ATOM     57  C   UNL     1      -2.514  18.603  -0.867  1.00  0.00     0.031 C 
ATOM     58  C   UNL     1      -7.399  17.657  -2.564  1.00  0.00     0.029 A 
ATOM     59  C   UNL     1      -6.611  18.665  -3.099  1.00  0.00     0.049 A 
ATOM     60  H   UNL     1      -6.679  19.494  -5.034  1.00  0.00     0.167 HD
ATOM     61  C   UNL     1      -4.486  19.024  -2.029  1.00  0.00     0.074 A 
ATOM     62  C   UNL     1      -3.506  19.490  -1.062  1.00  0.00     0.031 C 
ATOM     63  C   UNL     1      -5.642  19.581  -2.507  1.00  0.00     0.037 A 
BRANCH  50  64
ATOM     64  C   UNL     1      -9.307  17.222  -6.956  1.00  0.00     0.058 A 
ATOM     65  C   UNL     1     -10.543  17.277  -6.274  1.00  0.00     0.135 A 
ATOM     66  C   UNL     1      -9.429  16.892  -8.325  1.00  0.00     0.135 A 
ATOM     67  F   UNL     1     -10.610  17.634  -4.984  1.00  0.00    -0.206 F 
ATOM     68  C   UNL     1     -11.769  16.954  -6.874  1.00  0.00     0.059 A 
ATOM     69  C   UNL     1     -10.632  16.530  -8.937  1.00  0.00     0.059 A 
ATOM     70  F   UNL     1      -8.400  16.939  -9.171  1.00  0.00    -0.206 F 
ATOM     71  C   UNL     1     -11.801  16.556  -8.204  1.00  0.00     0.060 A 
BRANCH  71  72
ATOM     72  S   UNL     1     -13.369  16.111  -8.971  1.00  0.00     0.124 S 
ATOM     73  O   UNL     1     -13.809  14.992  -8.144  1.00  0.00    -0.237 OA
ATOM     74  O   UNL     1     -14.136  17.345  -8.835  1.00  0.00    -0.237 OA
ATOM     75  O   UNL     1     -12.995  15.760 -10.339  1.00  0.00    -0.744 OA
ENDBRANCH  71  72
ENDBRANCH  50  64
BRANCH  51  76
ATOM     76  C   UNL     1      -0.731  16.046  -2.307  1.00  0.00     0.058 A 
ATOM     77  C   UNL     1       0.035  15.009  -1.733  1.00  0.00     0.135 A 
ATOM     78  C   UNL     1      -0.237  16.614  -3.489  1.00  0.00     0.135 A 
ATOM     79  F   UNL     1      -0.370  14.437  -0.587  1.00  0.00    -0.206 F 
ATOM     80  C   UNL     1       1.160  14.473  -2.365  1.00  0.00     0.059 A 
ATOM     81  C   UNL     1       0.892  16.094  -4.139  1.00  0.00     0.059 A 
ATOM     82  F   UNL     1      -0.913  17.602  -4.094  1.00  0.00    -0.206 F 
ATOM     83  C   UNL     1       1.556  14.990  -3.596  1.00  0.00     0.060 A 
BRANCH  83  84
ATOM     84  S   UNL     1       2.790  14.076  -4.576  1.00  0.00     0.124 S 
ATOM     85  O   UNL     1       4.042  14.607  -4.047  1.00  0.00    -0.237 OA
ATOM     86  O   UNL     1       2.533  12.671  -4.258  1.00  0.00    -0.237 OA
ATOM     87  O   UNL     1       2.487  14.457  -5.954  1.00  0.00    -0.744 OA
ENDBRANCH  83  84
ENDBRANCH  51  76
BRANCH  63  88
ATOM     88  C   UNL     1      -6.016  21.043  -2.365  1.00  0.00     0.058 A 
ATOM     89  C   UNL     1      -5.071  22.081  -2.272  1.00  0.00     0.135 A 
ATOM     90  C   UNL     1      -7.364  21.461  -2.483  1.00  0.00     0.135 A 
ATOM     91  F   UNL     1      -3.754  21.831  -2.283  1.00  0.00    -0.206 F 
ATOM     92  C   UNL     1      -5.437  23.427  -2.212  1.00  0.00     0.059 A 
ATOM     93  C   UNL     1      -7.746  22.801  -2.491  1.00  0.00     0.059 A 
ATOM     94  F   UNL     1      -8.364  20.576  -2.615  1.00  0.00    -0.206 F 
ATOM     95  C   UNL     1      -6.778  23.778  -2.321  1.00  0.00     0.060 A 
BRANCH  95  96
ATOM     96  S   UNL     1      -7.247  25.517  -2.295  1.00  0.00     0.124 S 
ATOM     97  O   UNL     1      -7.415  25.750  -0.866  1.00  0.00    -0.237 OA
ATOM     98  O   UNL     1      -6.098  26.172  -2.911  1.00  0.00    -0.237 OA
ATOM     99  O   UNL     1      -8.473  25.544  -3.091  1.00  0.00    -0.744 OA
ENDBRANCH  95  96
ENDBRANCH  63  88
ENDBRANCH  37  38
ENDBRANCH  29  32
ENDBRANCH  27  28
ENDBRANCH  26  27
ENDBRANCH   1  26
TORSDOF 18
