REMARK SMILES C[C@H](Nc1nccc(-c2cc(C(=O)NCCCNC(=O)c3ccc(-c4c5nc(c(-c6c(F)cc(S(=O)(=O)[O-])cc6F)c6ccc([nH]6)c(-c6c(F)cc(S(=O)(=O)[O-])cc6F)c6nc(c(-c7c(F)cc(S(=O)(=O)[O-])cc7F)c7ccc4[nH]7)C=C6)C=C5)cc3)ccn2)n1)c1cn2ccsc2n1
REMARK SMILES IDX 15 1 14 2 12 3 13 4 11 6 9 7 10 8 89 9 88 10 87 11 8 12 4 13
REMARK SMILES IDX 5 14 90 15 6 16 7 17 3 18 2 20 1 21 91 22 92 23 98 24 93 25
REMARK SMILES IDX 97 26 94 27 96 28 95 29 16 30 17 31 18 32 19 33 20 35 21 36
REMARK SMILES IDX 22 37 86 38 23 39 85 40 24 41 25 42 26 43 79 44 27 45 84 46
REMARK SMILES IDX 78 47 80 48 28 49 83 50 77 51 76 52 29 54 63 55 42 56 62 57
REMARK SMILES IDX 43 58 46 59 61 60 81 61 44 62 45 63 60 65 82 66 47 67 30 68
REMARK SMILES IDX 31 69 40 70 32 71 33 72 39 73 41 74 34 75 35 76 36 77 37 78
REMARK SMILES IDX 38 79 64 80 65 81 74 82 66 83 67 84 73 85 75 86 68 87 69 88
REMARK SMILES IDX 70 89 71 90 72 91 48 92 49 93 58 94 50 95 51 96 57 97 59 98
REMARK SMILES IDX 52 99 53 100 54 101 55 102 56 103
REMARK H PARENT 14 5 3 19 18 34 80 53 46 64
REMARK Flexibility Score: inf
ROOT
ATOM      1  C   UNL     1       6.585  -5.032   0.249  1.00  0.00     0.118 C 
ENDROOT
BRANCH   1   2
ATOM      2  N   UNL     1       7.257  -5.533  -0.913  1.00  0.00    -0.352 N 
ATOM      3  C   UNL     1       7.262  -5.032  -2.215  1.00  0.00     0.251 C 
ATOM      4  O   UNL     1       7.906  -5.615  -3.089  1.00  0.00    -0.269 OA
ATOM      5  H   UNL     1       7.793  -6.347  -0.772  1.00  0.00     0.163 HD
BRANCH   3   6
ATOM      6  C   UNL     1       6.504  -3.766  -2.589  1.00  0.00     0.043 A 
ATOM      7  C   UNL     1       5.054  -1.845  -2.020  1.00  0.00     0.090 A 
ATOM      8  C   UNL     1       5.735  -2.997  -1.728  1.00  0.00     0.044 A 
ATOM      9  N   UNL     1       5.088  -1.379  -3.257  1.00  0.00    -0.255 NA
ATOM     10  C   UNL     1       5.805  -2.104  -4.153  1.00  0.00     0.112 A 
ATOM     11  C   UNL     1       6.528  -3.268  -3.877  1.00  0.00     0.034 A 
BRANCH   7  12
ATOM     12  C   UNL     1       4.387  -1.131  -0.905  1.00  0.00     0.094 A 
ATOM     13  C   UNL     1       2.471  -0.243   0.009  1.00  0.00     0.223 A 
ATOM     14  N   UNL     1       3.095   0.238   1.084  1.00  0.00    -0.222 NA
ATOM     15  N   UNL     1       3.065  -0.962  -0.967  1.00  0.00    -0.211 NA
ATOM     16  C   UNL     1       4.402  -0.026   1.165  1.00  0.00     0.117 A 
ATOM     17  C   UNL     1       5.097  -0.717   0.206  1.00  0.00     0.051 A 
BRANCH  13  18
ATOM     18  N   UNL     1       1.113  -0.155  -0.030  1.00  0.00    -0.346 N 
ATOM     19  H   UNL     1       0.606   0.675   0.120  1.00  0.00     0.164 HD
BRANCH  18  20
ATOM     20  C   UNL     1       0.509  -1.433  -0.319  1.00  0.00     0.130 C 
ATOM     21  C   UNL     1       1.001  -2.479   0.708  1.00  0.00     0.038 C 
BRANCH  20  22
ATOM     22  C   UNL     1      -0.973  -1.474  -0.337  1.00  0.00     0.082 A 
ATOM     23  C   UNL     1      -1.756  -2.615  -0.341  1.00  0.00     0.119 A 
ATOM     24  N   UNL     1      -1.734  -0.334  -0.328  1.00  0.00    -0.222 NA
ATOM     25  N   UNL     1      -3.013  -2.166  -0.313  1.00  0.00    -0.297 N 
ATOM     26  C   UNL     1      -2.934  -0.821  -0.311  1.00  0.00     0.193 A 
ATOM     27  C   UNL     1      -4.232  -2.771  -0.305  1.00  0.00     0.104 A 
ATOM     28  S   UNL     1      -4.441  -0.092  -0.303  1.00  0.00    -0.105 S 
ATOM     29  C   UNL     1      -5.240  -1.895  -0.294  1.00  0.00     0.087 A 
ENDBRANCH  20  22
ENDBRANCH  18  20
ENDBRANCH  13  18
ENDBRANCH   7  12
ENDBRANCH   3   6
ENDBRANCH   1   2
BRANCH   1  30
ATOM     30  C   UNL     1       5.433  -5.829   0.746  1.00  0.00     0.042 C 
BRANCH  30  31
ATOM     31  C   UNL     1       6.086  -7.014   1.347  1.00  0.00     0.118 C 
BRANCH  31  32
ATOM     32  N   UNL     1       6.959  -6.659   2.454  1.00  0.00    -0.352 N 
ATOM     33  C   UNL     1       6.777  -7.069   3.761  1.00  0.00     0.251 C 
ATOM     34  H   UNL     1       7.735  -6.086   2.258  1.00  0.00     0.163 HD
ATOM     35  O   UNL     1       7.533  -6.719   4.662  1.00  0.00    -0.269 OA
BRANCH  33  36
ATOM     36  C   UNL     1       5.641  -7.982   4.077  1.00  0.00     0.039 A 
ATOM     37  C   UNL     1       4.869  -7.786   5.209  1.00  0.00     0.014 A 
ATOM     38  C   UNL     1       5.389  -9.108   3.292  1.00  0.00     0.014 A 
ATOM     39  C   UNL     1       3.981  -8.789   5.608  1.00  0.00     0.010 A 
ATOM     40  C   UNL     1       4.377 -10.004   3.602  1.00  0.00     0.010 A 
ATOM     41  C   UNL     1       3.635  -9.837   4.758  1.00  0.00    -0.014 A 
BRANCH  41  42
ATOM     42  C   UNL     1       2.484 -10.711   5.065  1.00  0.00     0.031 A 
ATOM     43  C   UNL     1       2.684 -12.173   5.234  1.00  0.00     0.074 A 
ATOM     44  C   UNL     1       1.242 -10.188   5.165  1.00  0.00     0.049 A 
ATOM     45  N   UNL     1       1.769 -13.055   5.511  1.00  0.00    -0.248 NA
ATOM     46  C   UNL     1       4.040 -12.728   5.092  1.00  0.00     0.031 C 
ATOM     47  C   UNL     1       0.948  -8.765   5.014  1.00  0.00     0.029 A 
ATOM     48  N   UNL     1       0.011 -10.756   5.405  1.00  0.00    -0.354 N 
ATOM     49  C   UNL     1       2.429 -14.262   5.599  1.00  0.00     0.074 A 
ATOM     50  C   UNL     1       3.829 -14.020   5.313  1.00  0.00     0.031 C 
ATOM     51  C   UNL     1      -0.364  -8.564   5.174  1.00  0.00     0.029 A 
ATOM     52  C   UNL     1      -1.018  -9.843   5.418  1.00  0.00     0.049 A 
ATOM     53  H   UNL     1      -0.119 -11.720   5.553  1.00  0.00     0.167 HD
ATOM     54  C   UNL     1       1.879 -15.454   5.907  1.00  0.00     0.037 A 
ATOM     55  C   UNL     1      -2.345  -9.976   5.606  1.00  0.00     0.037 A 
ATOM     56  C   UNL     1       0.492 -15.670   6.136  1.00  0.00     0.049 A 
ATOM     57  C   UNL     1      -2.934 -11.324   5.844  1.00  0.00     0.074 A 
ATOM     58  C   UNL     1      -0.094 -16.881   6.444  1.00  0.00     0.029 A 
ATOM     59  N   UNL     1      -0.503 -14.717   6.091  1.00  0.00    -0.354 N 
ATOM     60  N   UNL     1      -2.273 -12.443   5.947  1.00  0.00    -0.248 NA
ATOM     61  C   UNL     1      -4.394 -11.466   5.988  1.00  0.00     0.031 C 
ATOM     62  C   UNL     1      -1.447 -16.682   6.559  1.00  0.00     0.029 A 
ATOM     63  C   UNL     1      -1.704 -15.342   6.351  1.00  0.00     0.049 A 
ATOM     64  H   UNL     1      -0.379 -13.758   5.906  1.00  0.00     0.167 HD
ATOM     65  C   UNL     1      -3.219 -13.414   6.196  1.00  0.00     0.074 A 
ATOM     66  C   UNL     1      -4.517 -12.768   6.222  1.00  0.00     0.031 C 
ATOM     67  C   UNL     1      -2.987 -14.729   6.384  1.00  0.00     0.037 A 
BRANCH  54  68
ATOM     68  C   UNL     1       2.767 -16.644   5.978  1.00  0.00     0.058 A 
ATOM     69  C   UNL     1       3.816 -16.737   6.878  1.00  0.00     0.135 A 
ATOM     70  C   UNL     1       2.570 -17.721   5.110  1.00  0.00     0.135 A 
ATOM     71  F   UNL     1       3.929 -15.829   7.864  1.00  0.00    -0.206 F 
ATOM     72  C   UNL     1       4.770 -17.752   6.746  1.00  0.00     0.059 A 
ATOM     73  C   UNL     1       3.438 -18.811   5.071  1.00  0.00     0.059 A 
ATOM     74  F   UNL     1       1.484 -17.748   4.320  1.00  0.00    -0.206 F 
ATOM     75  C   UNL     1       4.539 -18.849   5.912  1.00  0.00     0.060 A 
BRANCH  75  76
ATOM     76  S   UNL     1       5.629 -20.363   6.001  1.00  0.00     0.124 S 
ATOM     77  O   UNL     1       6.939 -19.836   5.635  1.00  0.00    -0.237 OA
ATOM     78  O   UNL     1       5.506 -20.777   7.396  1.00  0.00    -0.237 OA
ATOM     79  O   UNL     1       5.045 -21.291   5.034  1.00  0.00    -0.744 OA
ENDBRANCH  75  76
ENDBRANCH  54  68
BRANCH  55  80
ATOM     80  C   UNL     1      -3.225  -8.796   5.548  1.00  0.00     0.058 A 
ATOM     81  C   UNL     1      -4.045  -8.424   6.606  1.00  0.00     0.135 A 
ATOM     82  C   UNL     1      -3.325  -8.060   4.370  1.00  0.00     0.135 A 
ATOM     83  F   UNL     1      -3.872  -8.993   7.811  1.00  0.00    -0.206 F 
ATOM     84  C   UNL     1      -5.047  -7.462   6.422  1.00  0.00     0.059 A 
ATOM     85  C   UNL     1      -4.223  -7.006   4.227  1.00  0.00     0.059 A 
ATOM     86  F   UNL     1      -2.477  -8.319   3.363  1.00  0.00    -0.206 F 
ATOM     87  C   UNL     1      -5.077  -6.674   5.269  1.00  0.00     0.060 A 
BRANCH  87  88
ATOM     88  S   UNL     1      -6.167  -5.159   5.171  1.00  0.00     0.124 S 
ATOM     89  O   UNL     1      -7.505  -5.716   5.321  1.00  0.00    -0.237 OA
ATOM     90  O   UNL     1      -5.705  -4.352   6.297  1.00  0.00    -0.237 OA
ATOM     91  O   UNL     1      -5.874  -4.589   3.854  1.00  0.00    -0.744 OA
ENDBRANCH  87  88
ENDBRANCH  55  80
BRANCH  67  92
ATOM     92  C   UNL     1      -4.144 -15.613   6.685  1.00  0.00     0.058 A 
ATOM     93  C   UNL     1      -5.199 -15.773   5.802  1.00  0.00     0.135 A 
ATOM     94  C   UNL     1      -4.209 -16.309   7.896  1.00  0.00     0.135 A 
ATOM     95  F   UNL     1      -5.098 -15.289   4.552  1.00  0.00    -0.206 F 
ATOM     96  C   UNL     1      -6.376 -16.404   6.219  1.00  0.00     0.059 A 
ATOM     97  C   UNL     1      -5.322 -17.066   8.257  1.00  0.00     0.059 A 
ATOM     98  F   UNL     1      -3.150 -16.310   8.722  1.00  0.00    -0.206 F 
ATOM     99  C   UNL     1      -6.414 -17.141   7.406  1.00  0.00     0.060 A 
BRANCH  99 100
ATOM    100  S   UNL     1      -7.852 -18.270   7.781  1.00  0.00     0.124 S 
ATOM    101  O   UNL     1      -8.981 -17.347   7.835  1.00  0.00    -0.237 OA
ATOM    102  O   UNL     1      -7.864 -19.181   6.640  1.00  0.00    -0.237 OA
ATOM    103  O   UNL     1      -7.503 -18.895   9.057  1.00  0.00    -0.744 OA
ENDBRANCH  99 100
ENDBRANCH  67  92
ENDBRANCH  41  42
ENDBRANCH  33  36
ENDBRANCH  31  32
ENDBRANCH  30  31
ENDBRANCH   1  30
TORSDOF 17
