REMARK SMILES CN(C(=O)C[C@H]1SC(=O)N(c2cccc(O)c2)C1=O)c1ccccc1C(=O)NCCCNC(=O)c1ccc(-c2c3nc(c(-c4c(F)cc(S(=O)(=O)[O-])cc4F)c4ccc([nH]4)c(-c4c(F)cc(S(=O)(=O)[O-])cc4F)c4nc(c(-c5c(F)cc(S(=O)(=O)[O-])cc5F)c5ccc2[nH]5)C=C4)C=C3)cc1
REMARK SMILES IDX 26 1 27 2 28 3 25 5 20 6 21 7 22 8 24 9 23 10 2 11 1 12 3 13
REMARK SMILES IDX 4 14 5 15 6 16 7 17 18 18 8 19 10 20 19 21 9 22 11 23 12 24
REMARK SMILES IDX 17 25 13 26 15 27 14 28 16 29 29 31 30 32 31 33 32 34 33 35
REMARK SMILES IDX 34 37 35 38 36 39 100 40 37 41 99 42 38 43 39 44 40 45 93 46
REMARK SMILES IDX 41 47 98 48 92 49 94 50 42 51 97 52 91 53 90 54 43 56 77 57
REMARK SMILES IDX 56 58 76 59 57 60 60 61 75 62 95 63 58 64 59 65 74 67 96 68
REMARK SMILES IDX 61 69 44 70 45 71 54 72 46 73 47 74 53 75 55 76 48 77 49 78
REMARK SMILES IDX 50 79 51 80 52 81 78 82 79 83 88 84 80 85 81 86 87 87 89 88
REMARK SMILES IDX 82 89 83 90 84 91 85 92 86 93 62 94 63 95 72 96 64 97 65 98
REMARK SMILES IDX 71 99 73 100 66 101 67 102 68 103 69 104 70 105
REMARK H PARENT 28 4 16 30 32 36 94 55 60 66
REMARK Flexibility Score: inf
ROOT
ATOM      1  C   UNL     1      -0.363  -6.466  -1.474  1.00  0.00     0.253 C 
ATOM      2  O   UNL     1      -0.561  -7.663  -1.700  1.00  0.00    -0.269 OA
ATOM      3  N   UNL     1      -0.825  -5.979  -0.280  1.00  0.00    -0.352 N 
ATOM      4  H   UNL     1      -1.358  -6.621   0.242  1.00  0.00     0.163 HD
ENDROOT
BRANCH   1   5
ATOM      5  C   UNL     1       0.263  -5.641  -2.549  1.00  0.00     0.063 A 
ATOM      6  C   UNL     1       1.264  -4.651  -2.437  1.00  0.00     0.056 A 
ATOM      7  C   UNL     1       1.709  -4.013  -3.617  1.00  0.00     0.027 A 
ATOM      8  C   UNL     1       1.229  -4.378  -4.878  1.00  0.00     0.002 A 
ATOM      9  C   UNL     1      -0.223  -5.978  -3.837  1.00  0.00     0.016 A 
ATOM     10  C   UNL     1       0.265  -5.368  -4.991  1.00  0.00     0.001 A 
BRANCH   6  11
ATOM     11  N   UNL     1       2.038  -4.378  -1.248  1.00  0.00    -0.315 N 
ATOM     12  C   UNL     1       2.858  -5.505  -0.812  1.00  0.00     0.153 C 
BRANCH  11  13
ATOM     13  C   UNL     1       2.116  -3.068  -0.758  1.00  0.00     0.228 C 
ATOM     14  O   UNL     1       1.412  -2.162  -1.219  1.00  0.00    -0.274 OA
BRANCH  13  15
ATOM     15  C   UNL     1       3.024  -2.728   0.435  1.00  0.00     0.125 C 
BRANCH  15  16
ATOM     16  C   UNL     1       2.348  -2.958   1.788  1.00  0.00     0.156 C 
ATOM     17  S   UNL     1       2.516  -4.655   2.406  1.00  0.00    -0.050 SA
ATOM     18  C   UNL     1       2.833  -2.114   2.978  1.00  0.00     0.248 C 
ATOM     19  C   UNL     1       2.356  -4.147   4.071  1.00  0.00     0.293 C 
ATOM     20  N   UNL     1       2.583  -2.796   4.172  1.00  0.00    -0.240 N 
ATOM     21  O   UNL     1       3.268  -0.975   2.859  1.00  0.00    -0.273 OA
ATOM     22  O   UNL     1       2.163  -4.969   4.951  1.00  0.00    -0.261 OA
BRANCH  20  23
ATOM     23  C   UNL     1       2.575  -2.172   5.451  1.00  0.00     0.056 A 
ATOM     24  C   UNL     1       3.655  -1.415   5.911  1.00  0.00     0.027 A 
ATOM     25  C   UNL     1       1.460  -2.326   6.290  1.00  0.00     0.073 A 
ATOM     26  C   UNL     1       3.619  -0.851   7.195  1.00  0.00     0.006 A 
ATOM     27  C   UNL     1       1.381  -1.652   7.503  1.00  0.00     0.117 A 
ATOM     28  C   UNL     1       2.469  -0.942   7.983  1.00  0.00     0.046 A 
BRANCH  27  29
ATOM     29  O   UNL     1       0.200  -1.700   8.181  1.00  0.00    -0.508 OA
ATOM     30  H   UNL     1       0.113  -1.256   9.002  1.00  0.00     0.293 HD
ENDBRANCH  27  29
ENDBRANCH  20  23
ENDBRANCH  15  16
ENDBRANCH  13  15
ENDBRANCH  11  13
ENDBRANCH   6  11
ENDBRANCH   1   5
BRANCH   3  31
ATOM     31  C   UNL     1      -0.666  -4.690   0.348  1.00  0.00     0.118 C 
BRANCH  31  32
ATOM     32  C   UNL     1      -1.932  -4.050   0.898  1.00  0.00     0.042 C 
BRANCH  32  33
ATOM     33  C   UNL     1      -2.669  -4.849   1.962  1.00  0.00     0.118 C 
BRANCH  33  34
ATOM     34  N   UNL     1      -1.916  -5.072   3.174  1.00  0.00    -0.352 N 
ATOM     35  C   UNL     1      -1.732  -4.229   4.230  1.00  0.00     0.251 C 
ATOM     36  H   UNL     1      -1.477  -5.950   3.247  1.00  0.00     0.163 HD
ATOM     37  O   UNL     1      -1.190  -4.639   5.251  1.00  0.00    -0.269 OA
BRANCH  35  38
ATOM     38  C   UNL     1      -2.075  -2.801   4.139  1.00  0.00     0.039 A 
ATOM     39  C   UNL     1      -1.000  -1.918   4.077  1.00  0.00     0.014 A 
ATOM     40  C   UNL     1      -3.352  -2.327   4.413  1.00  0.00     0.014 A 
ATOM     41  C   UNL     1      -1.150  -0.599   4.490  1.00  0.00     0.010 A 
ATOM     42  C   UNL     1      -3.522  -0.965   4.699  1.00  0.00     0.010 A 
ATOM     43  C   UNL     1      -2.409  -0.106   4.840  1.00  0.00    -0.014 A 
BRANCH  43  44
ATOM     44  C   UNL     1      -2.563   1.209   5.538  1.00  0.00     0.031 A 
ATOM     45  C   UNL     1      -3.334   1.238   6.837  1.00  0.00     0.074 A 
ATOM     46  C   UNL     1      -1.996   2.355   5.107  1.00  0.00     0.049 A 
ATOM     47  N   UNL     1      -3.971   2.226   7.407  1.00  0.00    -0.248 NA
ATOM     48  C   UNL     1      -3.424  -0.035   7.574  1.00  0.00     0.031 C 
ATOM     49  C   UNL     1      -1.077   2.489   3.977  1.00  0.00     0.029 A 
ATOM     50  N   UNL     1      -2.110   3.639   5.588  1.00  0.00    -0.354 N 
ATOM     51  C   UNL     1      -4.646   1.666   8.488  1.00  0.00     0.074 A 
ATOM     52  C   UNL     1      -4.306   0.261   8.519  1.00  0.00     0.031 C 
ATOM     53  C   UNL     1      -0.675   3.766   3.882  1.00  0.00     0.029 A 
ATOM     54  C   UNL     1      -1.424   4.569   4.840  1.00  0.00     0.049 A 
ATOM     55  H   UNL     1      -2.632   3.871   6.390  1.00  0.00     0.167 HD
ATOM     56  C   UNL     1      -5.494   2.278   9.349  1.00  0.00     0.037 A 
ATOM     57  C   UNL     1      -1.463   5.917   4.859  1.00  0.00     0.037 A 
ATOM     58  C   UNL     1      -5.714   3.701   9.354  1.00  0.00     0.049 A 
ATOM     59  C   UNL     1      -2.426   6.593   5.798  1.00  0.00     0.074 A 
ATOM     60  C   UNL     1      -6.569   4.447  10.146  1.00  0.00     0.029 A 
ATOM     61  N   UNL     1      -5.029   4.601   8.548  1.00  0.00    -0.354 N 
ATOM     62  N   UNL     1      -3.233   6.052   6.681  1.00  0.00    -0.248 NA
ATOM     63  C   UNL     1      -2.523   8.056   5.710  1.00  0.00     0.031 C 
ATOM     64  C   UNL     1      -6.416   5.795   9.800  1.00  0.00     0.029 A 
ATOM     65  C   UNL     1      -5.436   5.893   8.825  1.00  0.00     0.049 A 
ATOM     66  H   UNL     1      -4.352   4.354   7.877  1.00  0.00     0.167 HD
ATOM     67  C   UNL     1      -3.935   7.107   7.253  1.00  0.00     0.074 A 
ATOM     68  C   UNL     1      -3.438   8.320   6.633  1.00  0.00     0.031 C 
ATOM     69  C   UNL     1      -4.911   7.079   8.195  1.00  0.00     0.037 A 
BRANCH  56  70
ATOM     70  C   UNL     1      -6.292   1.413  10.287  1.00  0.00     0.058 A 
ATOM     71  C   UNL     1      -5.724   0.749  11.385  1.00  0.00     0.135 A 
ATOM     72  C   UNL     1      -7.673   1.248  10.073  1.00  0.00     0.135 A 
ATOM     73  F   UNL     1      -4.408   0.851  11.629  1.00  0.00    -0.206 F 
ATOM     74  C   UNL     1      -6.486  -0.072  12.215  1.00  0.00     0.059 A 
ATOM     75  C   UNL     1      -8.459   0.456  10.905  1.00  0.00     0.059 A 
ATOM     76  F   UNL     1      -8.273   1.856   9.037  1.00  0.00    -0.206 F 
ATOM     77  C   UNL     1      -7.853  -0.216  11.964  1.00  0.00     0.060 A 
BRANCH  77  78
ATOM     78  S   UNL     1      -8.828  -1.291  13.038  1.00  0.00     0.124 S 
ATOM     79  O   UNL     1      -8.391  -2.614  12.601  1.00  0.00    -0.237 OA
ATOM     80  O   UNL     1      -8.388  -0.887  14.369  1.00  0.00    -0.237 OA
ATOM     81  O   UNL     1     -10.207  -0.946  12.706  1.00  0.00    -0.744 OA
ENDBRANCH  77  78
ENDBRANCH  56  70
BRANCH  57  82
ATOM     82  C   UNL     1      -0.647   6.702   3.888  1.00  0.00     0.058 A 
ATOM     83  C   UNL     1       0.403   7.527   4.317  1.00  0.00     0.135 A 
ATOM     84  C   UNL     1      -0.880   6.620   2.504  1.00  0.00     0.135 A 
ATOM     85  F   UNL     1       0.655   7.663   5.628  1.00  0.00    -0.206 F 
ATOM     86  C   UNL     1       1.197   8.230   3.414  1.00  0.00     0.059 A 
ATOM     87  C   UNL     1      -0.079   7.284   1.581  1.00  0.00     0.059 A 
ATOM     88  F   UNL     1      -1.873   5.848   2.034  1.00  0.00    -0.206 F 
ATOM     89  C   UNL     1       0.955   8.093   2.046  1.00  0.00     0.060 A 
BRANCH  89  90
ATOM     90  S   UNL     1       2.041   8.938   0.875  1.00  0.00     0.124 S 
ATOM     91  O   UNL     1       1.563  10.312   0.971  1.00  0.00    -0.237 OA
ATOM     92  O   UNL     1       3.363   8.681   1.438  1.00  0.00    -0.237 OA
ATOM     93  O   UNL     1       1.764   8.259  -0.388  1.00  0.00    -0.744 OA
ENDBRANCH  89  90
ENDBRANCH  57  82
BRANCH  69  94
ATOM     94  C   UNL     1      -5.473   8.399   8.636  1.00  0.00     0.058 A 
ATOM     95  C   UNL     1      -6.374   9.118   7.837  1.00  0.00     0.135 A 
ATOM     96  C   UNL     1      -5.142   8.922   9.896  1.00  0.00     0.135 A 
ATOM     97  F   UNL     1      -6.714   8.661   6.622  1.00  0.00    -0.206 F 
ATOM     98  C   UNL     1      -6.915  10.325   8.265  1.00  0.00     0.059 A 
ATOM     99  C   UNL     1      -5.689  10.115  10.354  1.00  0.00     0.059 A 
ATOM    100  F   UNL     1      -4.292   8.264  10.699  1.00  0.00    -0.206 F 
ATOM    101  C   UNL     1      -6.567  10.815   9.526  1.00  0.00     0.060 A 
BRANCH 101 102
ATOM    102  S   UNL     1      -7.299  12.367  10.085  1.00  0.00     0.124 S 
ATOM    103  O   UNL     1      -6.545  13.344   9.308  1.00  0.00    -0.237 OA
ATOM    104  O   UNL     1      -8.701  12.205   9.711  1.00  0.00    -0.237 OA
ATOM    105  O   UNL     1      -7.037  12.368  11.521  1.00  0.00    -0.744 OA
ENDBRANCH 101 102
ENDBRANCH  69  94
ENDBRANCH  43  44
ENDBRANCH  35  38
ENDBRANCH  33  34
ENDBRANCH  32  33
ENDBRANCH  31  32
ENDBRANCH   3  31
TORSDOF 19
