REMARK SMILES O=C(COc1ccccc1NC(=O)c1ccc([N+](=O)[O-])cc1)NCCCNC(=O)c1ccc(-c2c3nc(c(-c4c(F)cc(S(=O)(=O)[O-])cc4F)c4ccc([nH]4)c(-c4c(F)cc(S(=O)(=O)[O-])cc4F)c4nc(c(-c5c(F)cc(S(=O)(=O)[O-])cc5F)c5ccc2[nH]5)C=C4)C=C3)cc1
REMARK SMILES IDX 24 1 23 2 1 3 2 4 3 6 4 7 5 8 6 9 10 10 7 11 9 12 8 13 11 14
REMARK SMILES IDX 12 15 13 17 14 18 15 19 22 20 16 21 21 22 17 23 18 24 19 25
REMARK SMILES IDX 20 26 25 27 26 28 27 29 28 30 29 32 30 33 31 34 95 35 32 36
REMARK SMILES IDX 94 37 33 38 34 39 35 40 88 41 36 42 93 43 87 44 89 45 37 46
REMARK SMILES IDX 92 47 86 48 85 49 38 51 72 52 51 53 71 54 52 55 55 56 70 57
REMARK SMILES IDX 90 58 53 59 54 60 69 62 91 63 56 64 39 65 40 66 49 67 41 68
REMARK SMILES IDX 42 69 48 70 50 71 43 72 44 73 45 74 46 75 47 76 73 77 74 78
REMARK SMILES IDX 83 79 75 80 76 81 82 82 84 83 77 84 78 85 79 86 80 87 81 88
REMARK SMILES IDX 57 89 58 90 67 91 59 92 60 93 66 94 68 95 61 96 62 97 63 98
REMARK SMILES IDX 64 99 65 100
REMARK H PARENT 23 5 11 16 27 31 89 50 55 61
REMARK Flexibility Score: inf
ROOT
ATOM      1  C   UNL     1       2.125   0.085   2.304  1.00  0.00     0.117 C 
ENDROOT
BRANCH   1   2
ATOM      2  N   UNL     1       2.841  -0.027   1.048  1.00  0.00    -0.353 N 
ATOM      3  O   UNL     1       1.397  -1.458  -0.046  1.00  0.00    -0.271 OA
ATOM      4  C   UNL     1       2.331  -0.667  -0.070  1.00  0.00     0.257 C 
ATOM      5  H   UNL     1       3.739   0.373   0.986  1.00  0.00     0.163 HD
BRANCH   4   6
ATOM      6  C   UNL     1       2.992  -0.209  -1.377  1.00  0.00     0.329 C 
BRANCH   6   7
ATOM      7  O   UNL     1       3.772   0.968  -1.135  1.00  0.00    -0.482 OA
BRANCH   7   8
ATOM      8  C   UNL     1       3.328   2.097  -1.782  1.00  0.00     0.143 A 
ATOM      9  C   UNL     1       4.029   2.460  -2.936  1.00  0.00     0.049 A 
ATOM     10  C   UNL     1       2.372   2.965  -1.207  1.00  0.00     0.084 A 
ATOM     11  C   UNL     1       3.804   3.701  -3.525  1.00  0.00     0.004 A 
ATOM     12  C   UNL     1       2.232   4.236  -1.765  1.00  0.00     0.030 A 
ATOM     13  C   UNL     1       2.927   4.597  -2.924  1.00  0.00     0.002 A 
BRANCH  10  14
ATOM     14  N   UNL     1       1.631   2.503  -0.102  1.00  0.00    -0.319 N 
ATOM     15  C   UNL     1       0.561   2.950   0.632  1.00  0.00     0.255 C 
ATOM     16  H   UNL     1       1.967   1.639   0.229  1.00  0.00     0.170 HD
ATOM     17  O   UNL     1       0.154   2.295   1.588  1.00  0.00    -0.269 OA
BRANCH  15  18
ATOM     18  C   UNL     1      -0.133   4.211   0.364  1.00  0.00     0.040 A 
ATOM     19  C   UNL     1      -0.147   5.162   1.393  1.00  0.00     0.021 A 
ATOM     20  C   UNL     1      -0.803   4.442  -0.841  1.00  0.00     0.021 A 
ATOM     21  C   UNL     1      -0.751   6.399   1.184  1.00  0.00     0.086 A 
ATOM     22  C   UNL     1      -1.391   5.689  -1.064  1.00  0.00     0.086 A 
ATOM     23  C   UNL     1      -1.344   6.668  -0.057  1.00  0.00     0.269 A 
BRANCH  23  24
ATOM     24  N   UNL     1      -1.895   8.002  -0.316  1.00  0.00     0.062 N 
ATOM     25  O   UNL     1      -2.035   8.767   0.648  1.00  0.00    -0.258 OA
ATOM     26  O   UNL     1      -2.167   8.290  -1.490  1.00  0.00    -0.258 OA
ENDBRANCH  23  24
ENDBRANCH  15  18
ENDBRANCH  10  14
ENDBRANCH   7   8
ENDBRANCH   6   7
ENDBRANCH   4   6
ENDBRANCH   1   2
BRANCH   1  27
ATOM     27  C   UNL     1       2.660  -0.776   3.429  1.00  0.00     0.042 C 
BRANCH  27  28
ATOM     28  C   UNL     1       4.127  -0.556   3.774  1.00  0.00     0.118 C 
BRANCH  28  29
ATOM     29  N   UNL     1       4.464   0.800   4.193  1.00  0.00    -0.352 N 
ATOM     30  C   UNL     1       5.190   1.245   5.276  1.00  0.00     0.251 C 
ATOM     31  H   UNL     1       4.117   1.511   3.607  1.00  0.00     0.163 HD
ATOM     32  O   UNL     1       5.323   2.455   5.448  1.00  0.00    -0.269 OA
BRANCH  30  33
ATOM     33  C   UNL     1       5.763   0.292   6.257  1.00  0.00     0.039 A 
ATOM     34  C   UNL     1       5.687   0.607   7.618  1.00  0.00     0.014 A 
ATOM     35  C   UNL     1       6.352  -0.910   5.862  1.00  0.00     0.014 A 
ATOM     36  C   UNL     1       6.109  -0.323   8.574  1.00  0.00     0.010 A 
ATOM     37  C   UNL     1       6.675  -1.875   6.814  1.00  0.00     0.010 A 
ATOM     38  C   UNL     1       6.555  -1.596   8.182  1.00  0.00    -0.014 A 
BRANCH  38  39
ATOM     39  C   UNL     1       6.878  -2.643   9.190  1.00  0.00     0.031 A 
ATOM     40  C   UNL     1       8.263  -3.231   9.272  1.00  0.00     0.074 A 
ATOM     41  C   UNL     1       5.903  -3.113   9.995  1.00  0.00     0.049 A 
ATOM     42  N   UNL     1       8.718  -4.165  10.068  1.00  0.00    -0.248 NA
ATOM     43  C   UNL     1       9.259  -2.730   8.311  1.00  0.00     0.031 C 
ATOM     44  C   UNL     1       4.499  -2.694   9.960  1.00  0.00     0.029 A 
ATOM     45  N   UNL     1       5.942  -4.049  10.999  1.00  0.00    -0.354 N 
ATOM     46  C   UNL     1      10.040  -4.376   9.693  1.00  0.00     0.074 A 
ATOM     47  C   UNL     1      10.297  -3.514   8.560  1.00  0.00     0.031 C 
ATOM     48  C   UNL     1       3.822  -3.339  10.924  1.00  0.00     0.029 A 
ATOM     49  C   UNL     1       4.733  -4.235  11.628  1.00  0.00     0.049 A 
ATOM     50  H   UNL     1       6.758  -4.540  11.245  1.00  0.00     0.167 HD
ATOM     51  C   UNL     1      10.965  -5.190  10.257  1.00  0.00     0.037 A 
ATOM     52  C   UNL     1       4.397  -5.028  12.664  1.00  0.00     0.037 A 
ATOM     53  C   UNL     1      10.720  -6.017  11.410  1.00  0.00     0.049 A 
ATOM     54  C   UNL     1       5.458  -5.870  13.317  1.00  0.00     0.074 A 
ATOM     55  C   UNL     1      11.610  -6.827  12.095  1.00  0.00     0.029 A 
ATOM     56  N   UNL     1       9.498  -6.133  12.054  1.00  0.00    -0.354 N 
ATOM     57  N   UNL     1       6.721  -6.003  12.992  1.00  0.00    -0.248 NA
ATOM     58  C   UNL     1       5.051  -6.655  14.490  1.00  0.00     0.031 C 
ATOM     59  C   UNL     1      10.918  -7.452  13.140  1.00  0.00     0.029 A 
ATOM     60  C   UNL     1       9.607  -7.003  13.127  1.00  0.00     0.049 A 
ATOM     61  H   UNL     1       8.673  -5.667  11.788  1.00  0.00     0.167 HD
ATOM     62  C   UNL     1       7.266  -6.868  13.934  1.00  0.00     0.074 A 
ATOM     63  C   UNL     1       6.199  -7.212  14.851  1.00  0.00     0.031 C 
ATOM     64  C   UNL     1       8.536  -7.335  14.031  1.00  0.00     0.037 A 
BRANCH  51  65
ATOM     65  C   UNL     1      12.338  -5.208   9.641  1.00  0.00     0.058 A 
ATOM     66  C   UNL     1      13.208  -4.112   9.756  1.00  0.00     0.135 A 
ATOM     67  C   UNL     1      12.798  -6.338   8.946  1.00  0.00     0.135 A 
ATOM     68  F   UNL     1      12.813  -2.999  10.396  1.00  0.00    -0.206 F 
ATOM     69  C   UNL     1      14.472  -4.120   9.175  1.00  0.00     0.059 A 
ATOM     70  C   UNL     1      14.069  -6.379   8.379  1.00  0.00     0.059 A 
ATOM     71  F   UNL     1      12.008  -7.414   8.806  1.00  0.00    -0.206 F 
ATOM     72  C   UNL     1      14.892  -5.258   8.484  1.00  0.00     0.060 A 
BRANCH  72  73
ATOM     73  S   UNL     1      16.533  -5.254   7.731  1.00  0.00     0.124 S 
ATOM     74  O   UNL     1      16.310  -4.417   6.556  1.00  0.00    -0.237 OA
ATOM     75  O   UNL     1      17.359  -4.664   8.780  1.00  0.00    -0.237 OA
ATOM     76  O   UNL     1      16.784  -6.665   7.459  1.00  0.00    -0.744 OA
ENDBRANCH  72  73
ENDBRANCH  51  65
BRANCH  52  77
ATOM     77  C   UNL     1       3.005  -5.019  13.185  1.00  0.00     0.058 A 
ATOM     78  C   UNL     1       2.701  -4.401  14.408  1.00  0.00     0.135 A 
ATOM     79  C   UNL     1       1.953  -5.610  12.471  1.00  0.00     0.135 A 
ATOM     80  F   UNL     1       3.676  -3.826  15.128  1.00  0.00    -0.206 F 
ATOM     81  C   UNL     1       1.406  -4.384  14.914  1.00  0.00     0.059 A 
ATOM     82  C   UNL     1       0.645  -5.587  12.946  1.00  0.00     0.059 A 
ATOM     83  F   UNL     1       2.189  -6.197  11.287  1.00  0.00    -0.206 F 
ATOM     84  C   UNL     1       0.383  -4.980  14.175  1.00  0.00     0.060 A 
BRANCH  84  85
ATOM     85  S   UNL     1      -1.304  -4.910  14.815  1.00  0.00     0.124 S 
ATOM     86  O   UNL     1      -1.266  -5.930  15.856  1.00  0.00    -0.237 OA
ATOM     87  O   UNL     1      -1.402  -3.529  15.277  1.00  0.00    -0.237 OA
ATOM     88  O   UNL     1      -2.118  -5.229  13.646  1.00  0.00    -0.744 OA
ENDBRANCH  84  85
ENDBRANCH  52  77
BRANCH  64  89
ATOM     89  C   UNL     1       8.841  -8.242  15.190  1.00  0.00     0.058 A 
ATOM     90  C   UNL     1       8.374  -9.566  15.232  1.00  0.00     0.135 A 
ATOM     91  C   UNL     1       9.612  -7.782  16.269  1.00  0.00     0.135 A 
ATOM     92  F   UNL     1       7.630 -10.052  14.226  1.00  0.00    -0.206 F 
ATOM     93  C   UNL     1       8.625 -10.389  16.325  1.00  0.00     0.059 A 
ATOM     94  C   UNL     1       9.896  -8.596  17.360  1.00  0.00     0.059 A 
ATOM     95  F   UNL     1      10.093  -6.529  16.271  1.00  0.00    -0.206 F 
ATOM     96  C   UNL     1       9.380  -9.892  17.389  1.00  0.00     0.060 A 
BRANCH  96  97
ATOM     97  S   UNL     1       9.695 -10.961  18.809  1.00  0.00     0.124 S 
ATOM     98  O   UNL     1       8.429 -10.870  19.529  1.00  0.00    -0.237 OA
ATOM     99  O   UNL     1       9.976 -12.248  18.180  1.00  0.00    -0.237 OA
ATOM    100  O   UNL     1      10.837 -10.328  19.461  1.00  0.00    -0.744 OA
ENDBRANCH  96  97
ENDBRANCH  64  89
ENDBRANCH  38  39
ENDBRANCH  30  33
ENDBRANCH  28  29
ENDBRANCH  27  28
ENDBRANCH   1  27
TORSDOF 18
