REMARK SMILES C[C@@H]1CC(=O)N(CC(C)(C)C(=O)NCCCNC(=O)c2ccc(-c3c4nc(c(-c5c(F)cc(S(=O)(=O)[O-])cc5F)c5ccc([nH]5)c(-c5c(F)cc(S(=O)(=O)[O-])cc5F)c5nc(c(-c6c(F)cc(S(=O)(=O)[O-])cc6F)c6ccc3[nH]6)C=C5)C=C4)cc2)C1
REMARK SMILES IDX 15 1 14 2 13 3 11 4 12 5 8 7 9 8 10 9 7 10 6 11 1 12 2 13
REMARK SMILES IDX 3 14 86 15 4 16 5 17 16 18 17 19 18 20 19 22 20 23 21 24
REMARK SMILES IDX 85 25 22 26 84 27 23 28 24 29 25 30 78 31 26 32 83 33 77 34
REMARK SMILES IDX 79 35 27 36 82 37 76 38 75 39 28 41 62 42 41 43 61 44 42 45
REMARK SMILES IDX 45 46 60 47 80 48 43 49 44 50 59 52 81 53 46 54 29 55 30 56
REMARK SMILES IDX 39 57 31 58 32 59 38 60 40 61 33 62 34 63 35 64 36 65 37 66
REMARK SMILES IDX 63 67 64 68 73 69 65 70 66 71 72 72 74 73 67 74 68 75 69 76
REMARK SMILES IDX 70 77 71 78 47 79 48 80 57 81 49 82 50 83 56 84 58 85 51 86
REMARK SMILES IDX 52 87 53 88 54 89 55 90
REMARK H PARENT 13 6 17 21 79 40 45 51
REMARK Flexibility Score: inf
ROOT
ATOM      1  C   UNL     1       2.386  -3.073  -7.710  1.00  0.00     0.042 C 
ENDROOT
BRANCH   1   2
ATOM      2  C   UNL     1       2.305  -2.886  -6.203  1.00  0.00     0.117 C 
BRANCH   2   3
ATOM      3  N   UNL     1       1.651  -1.643  -5.849  1.00  0.00    -0.356 N 
ATOM      4  C   UNL     1       0.487  -1.352  -5.215  1.00  0.00     0.227 C 
ATOM      5  O   UNL     1       0.212  -0.150  -5.189  1.00  0.00    -0.274 OA
ATOM      6  H   UNL     1       2.156  -0.844  -6.125  1.00  0.00     0.163 HD
BRANCH   4   7
ATOM      7  C   UNL     1      -0.432  -2.432  -4.604  1.00  0.00     0.061 C 
ATOM      8  C   UNL     1       0.341  -3.415  -3.706  1.00  0.00     0.023 C 
ATOM      9  C   UNL     1      -1.104  -3.212  -5.751  1.00  0.00     0.023 C 
BRANCH   7  10
ATOM     10  C   UNL     1      -1.579  -1.756  -3.774  1.00  0.00     0.135 C 
BRANCH  10  11
ATOM     11  N   UNL     1      -1.159  -0.816  -2.738  1.00  0.00    -0.341 N 
ATOM     12  C   UNL     1       0.967   0.190   0.096  1.00  0.00     0.010 C 
ATOM     13  C   UNL     1       0.396   0.080  -1.306  1.00  0.00     0.015 C 
ATOM     14  C   UNL     1      -0.573   1.201  -1.700  1.00  0.00     0.105 C 
ATOM     15  C   UNL     1      -0.455  -1.158  -1.530  1.00  0.00     0.123 C 
ATOM     16  C   UNL     1      -1.391   0.558  -2.798  1.00  0.00     0.222 C 
ATOM     17  O   UNL     1      -2.151   1.152  -3.550  1.00  0.00    -0.275 OA
ENDBRANCH  10  11
ENDBRANCH   7  10
ENDBRANCH   4   7
ENDBRANCH   2   3
ENDBRANCH   1   2
BRANCH   1  18
ATOM     18  C   UNL     1       3.256  -2.039  -8.412  1.00  0.00     0.118 C 
BRANCH  18  19
ATOM     19  N   UNL     1       4.652  -2.105  -7.995  1.00  0.00    -0.352 N 
ATOM     20  C   UNL     1       5.769  -2.479  -8.703  1.00  0.00     0.251 C 
ATOM     21  H   UNL     1       4.820  -1.842  -7.061  1.00  0.00     0.163 HD
ATOM     22  O   UNL     1       6.826  -2.674  -8.110  1.00  0.00    -0.269 OA
BRANCH  20  23
ATOM     23  C   UNL     1       5.690  -2.665 -10.167  1.00  0.00     0.039 A 
ATOM     24  C   UNL     1       6.326  -3.764 -10.751  1.00  0.00     0.014 A 
ATOM     25  C   UNL     1       4.986  -1.760 -10.963  1.00  0.00     0.014 A 
ATOM     26  C   UNL     1       6.185  -3.996 -12.121  1.00  0.00     0.010 A 
ATOM     27  C   UNL     1       4.766  -2.045 -12.306  1.00  0.00     0.010 A 
ATOM     28  C   UNL     1       5.365  -3.165 -12.901  1.00  0.00    -0.014 A 
BRANCH  28  29
ATOM     29  C   UNL     1       5.113  -3.443 -14.339  1.00  0.00     0.031 A 
ATOM     30  C   UNL     1       5.510  -2.430 -15.381  1.00  0.00     0.074 A 
ATOM     31  C   UNL     1       4.449  -4.560 -14.697  1.00  0.00     0.049 A 
ATOM     32  N   UNL     1       5.276  -2.435 -16.667  1.00  0.00    -0.248 NA
ATOM     33  C   UNL     1       6.238  -1.240 -14.909  1.00  0.00     0.031 C 
ATOM     34  C   UNL     1       3.966  -5.591 -13.775  1.00  0.00     0.029 A 
ATOM     35  N   UNL     1       4.045  -5.008 -15.931  1.00  0.00    -0.354 N 
ATOM     36  C   UNL     1       5.805  -1.244 -17.153  1.00  0.00     0.074 A 
ATOM     37  C   UNL     1       6.327  -0.519 -16.016  1.00  0.00     0.031 C 
ATOM     38  C   UNL     1       3.347  -6.555 -14.475  1.00  0.00     0.029 A 
ATOM     39  C   UNL     1       3.343  -6.191 -15.888  1.00  0.00     0.049 A 
ATOM     40  H   UNL     1       4.239  -4.527 -16.768  1.00  0.00     0.167 HD
ATOM     41  C   UNL     1       5.867  -0.806 -18.433  1.00  0.00     0.037 A 
ATOM     42  C   UNL     1       2.746  -6.893 -16.871  1.00  0.00     0.037 A 
ATOM     43  C   UNL     1       5.371  -1.551 -19.561  1.00  0.00     0.049 A 
ATOM     44  C   UNL     1       2.829  -6.385 -18.286  1.00  0.00     0.074 A 
ATOM     45  C   UNL     1       5.453  -1.229 -20.904  1.00  0.00     0.029 A 
ATOM     46  N   UNL     1       4.695  -2.760 -19.479  1.00  0.00    -0.354 N 
ATOM     47  N   UNL     1       3.401  -5.293 -18.737  1.00  0.00    -0.248 NA
ATOM     48  C   UNL     1       2.190  -7.202 -19.327  1.00  0.00     0.031 C 
ATOM     49  C   UNL     1       4.776  -2.213 -21.630  1.00  0.00     0.029 A 
ATOM     50  C   UNL     1       4.329  -3.182 -20.746  1.00  0.00     0.049 A 
ATOM     51  H   UNL     1       4.505  -3.245 -18.644  1.00  0.00     0.167 HD
ATOM     52  C   UNL     1       3.217  -5.309 -20.115  1.00  0.00     0.074 A 
ATOM     53  C   UNL     1       2.491  -6.523 -20.425  1.00  0.00     0.031 C 
ATOM     54  C   UNL     1       3.616  -4.401 -21.040  1.00  0.00     0.037 A 
BRANCH  41  55
ATOM     55  C   UNL     1       6.492   0.539 -18.687  1.00  0.00     0.058 A 
ATOM     56  C   UNL     1       7.868   0.761 -18.520  1.00  0.00     0.135 A 
ATOM     57  C   UNL     1       5.710   1.609 -19.154  1.00  0.00     0.135 A 
ATOM     58  F   UNL     1       8.661  -0.221 -18.061  1.00  0.00    -0.206 F 
ATOM     59  C   UNL     1       8.443   2.000 -18.782  1.00  0.00     0.059 A 
ATOM     60  C   UNL     1       6.269   2.848 -19.452  1.00  0.00     0.059 A 
ATOM     61  F   UNL     1       4.388   1.454 -19.331  1.00  0.00    -0.206 F 
ATOM     62  C   UNL     1       7.635   3.038 -19.251  1.00  0.00     0.060 A 
BRANCH  62  63
ATOM     63  S   UNL     1       8.402   4.633 -19.604  1.00  0.00     0.124 S 
ATOM     64  O   UNL     1       8.700   5.116 -18.259  1.00  0.00    -0.237 OA
ATOM     65  O   UNL     1       9.557   4.250 -20.410  1.00  0.00    -0.237 OA
ATOM     66  O   UNL     1       7.359   5.364 -20.316  1.00  0.00    -0.744 OA
ENDBRANCH  62  63
ENDBRANCH  41  55
BRANCH  42  67
ATOM     67  C   UNL     1       2.023  -8.155 -16.553  1.00  0.00     0.058 A 
ATOM     68  C   UNL     1       2.514  -9.399 -16.977  1.00  0.00     0.135 A 
ATOM     69  C   UNL     1       0.829  -8.143 -15.814  1.00  0.00     0.135 A 
ATOM     70  F   UNL     1       3.648  -9.464 -17.691  1.00  0.00    -0.206 F 
ATOM     71  C   UNL     1       1.839 -10.583 -16.698  1.00  0.00     0.059 A 
ATOM     72  C   UNL     1       0.152  -9.317 -15.497  1.00  0.00     0.059 A 
ATOM     73  F   UNL     1       0.324  -6.982 -15.368  1.00  0.00    -0.206 F 
ATOM     74  C   UNL     1       0.659 -10.532 -15.955  1.00  0.00     0.060 A 
BRANCH  74  75
ATOM     75  S   UNL     1      -0.186 -12.079 -15.563  1.00  0.00     0.124 S 
ATOM     76  O   UNL     1      -0.732 -12.453 -16.862  1.00  0.00    -0.237 OA
ATOM     77  O   UNL     1       0.908 -12.908 -15.067  1.00  0.00    -0.237 OA
ATOM     78  O   UNL     1      -1.166 -11.681 -14.556  1.00  0.00    -0.744 OA
ENDBRANCH  74  75
ENDBRANCH  42  67
BRANCH  54  79
ATOM     79  C   UNL     1       3.317  -4.698 -22.484  1.00  0.00     0.058 A 
ATOM     80  C   UNL     1       2.017  -4.616 -23.004  1.00  0.00     0.135 A 
ATOM     81  C   UNL     1       4.362  -4.998 -23.375  1.00  0.00     0.135 A 
ATOM     82  F   UNL     1       0.981  -4.341 -22.195  1.00  0.00    -0.206 F 
ATOM     83  C   UNL     1       1.759  -4.838 -24.353  1.00  0.00     0.059 A 
ATOM     84  C   UNL     1       4.131  -5.193 -24.733  1.00  0.00     0.059 A 
ATOM     85  F   UNL     1       5.626  -5.080 -22.931  1.00  0.00    -0.206 F 
ATOM     86  C   UNL     1       2.824  -5.119 -25.211  1.00  0.00     0.060 A 
BRANCH  86  87
ATOM     87  S   UNL     1       2.481  -5.355 -26.968  1.00  0.00     0.124 S 
ATOM     88  O   UNL     1       1.822  -6.657 -26.967  1.00  0.00    -0.237 OA
ATOM     89  O   UNL     1       1.627  -4.212 -27.274  1.00  0.00    -0.237 OA
ATOM     90  O   UNL     1       3.806  -5.323 -27.581  1.00  0.00    -0.744 OA
ENDBRANCH  86  87
ENDBRANCH  54  79
ENDBRANCH  28  29
ENDBRANCH  20  23
ENDBRANCH  18  19
ENDBRANCH   1  18
TORSDOF 15
