REMARK SMILES Cc1cccc(N2C(=O)/C(=C/c3ccc(C(=O)NCCCNC(=O)c4ccc(-c5c6nc(c(-c7c(F)cc(S(=O)(=O)[O-])cc7F)c7ccc([nH]7)c(-c7c(F)cc(S(=O)(=O)[O-])cc7F)c7nc(c(-c8c(F)cc(S(=O)(=O)[O-])cc8F)c8ccc5[nH]8)C=C7)C=C6)cc4)cc3)c3ccccc3C2=O)c1
REMARK SMILES IDX 20 1 19 2 18 3 16 4 17 5 15 7 12 8 13 9 92 10 14 11 91 12
REMARK SMILES IDX 11 13 7 14 8 15 99 16 9 17 10 18 98 19 100 20 93 21 97 22
REMARK SMILES IDX 94 23 96 24 95 25 6 26 1 27 2 28 3 29 101 30 4 31 5 32 21 33
REMARK SMILES IDX 22 34 23 35 24 37 25 38 26 39 90 40 27 41 89 42 28 43 29 44
REMARK SMILES IDX 30 45 83 46 31 47 88 48 82 49 84 50 32 51 87 52 81 53 80 54
REMARK SMILES IDX 33 56 67 57 46 58 66 59 47 60 50 61 65 62 85 63 48 64 49 65
REMARK SMILES IDX 64 67 86 68 51 69 34 70 35 71 44 72 36 73 37 74 43 75 45 76
REMARK SMILES IDX 38 77 39 78 40 79 41 80 42 81 68 82 69 83 78 84 70 85 71 86
REMARK SMILES IDX 77 87 79 88 72 89 73 90 74 91 75 92 76 93 52 94 53 95 62 96
REMARK SMILES IDX 54 97 55 98 61 99 63 100 56 101 57 102 58 103 59 104 60 105
REMARK H PARENT 18 6 22 36 84 55 50 66
REMARK Flexibility Score: inf
ROOT
ATOM      1  C   UNL     1      -6.809   9.237   1.763  1.00  0.00     0.042 C 
ENDROOT
BRANCH   1   2
ATOM      2  C   UNL     1      -5.974   9.252   0.363  1.00  0.00     0.118 C 
BRANCH   2   3
ATOM      3  N   UNL     1      -5.265  10.448  -0.159  1.00  0.00    -0.352 N 
ATOM      4  C   UNL     1      -4.217  10.623  -1.066  1.00  0.00     0.251 C 
ATOM      5  O   UNL     1      -3.849  11.730  -1.455  1.00  0.00    -0.269 OA
ATOM      6  H   UNL     1      -5.605  11.295   0.211  1.00  0.00     0.163 HD
BRANCH   4   7
ATOM      7  C   UNL     1      -3.409   9.458  -1.504  1.00  0.00     0.039 A 
ATOM      8  C   UNL     1      -1.948   7.110  -1.392  1.00  0.00    -0.025 A 
ATOM      9  C   UNL     1      -1.270   8.332  -1.361  1.00  0.00     0.009 A 
ATOM     10  C   UNL     1      -3.301   7.079  -1.748  1.00  0.00     0.009 A 
ATOM     11  C   UNL     1      -2.008   9.518  -1.413  1.00  0.00     0.014 A 
ATOM     12  C   UNL     1      -4.025   8.260  -1.840  1.00  0.00     0.014 A 
BRANCH   8  13
ATOM     13  C   UNL     1      -1.270   5.878  -0.989  1.00  0.00     0.022 C 
ATOM     14  N   UNL     1      -1.617   2.615   0.385  1.00  0.00    -0.242 N 
ATOM     15  C   UNL     1      -0.864   3.768   0.069  1.00  0.00     0.265 C 
ATOM     16  C   UNL     1      -2.975   2.714   0.766  1.00  0.00     0.265 C 
ATOM     17  O   UNL     1       0.329   3.826  -0.228  1.00  0.00    -0.268 OA
ATOM     18  C   UNL     1      -1.650   5.045   0.009  1.00  0.00     0.049 C 
ATOM     19  C   UNL     1      -3.445   4.018   1.290  1.00  0.00     0.048 A 
ATOM     20  O   UNL     1      -3.828   1.829   0.738  1.00  0.00    -0.268 OA
ATOM     21  C   UNL     1      -2.773   5.186   0.941  1.00  0.00    -0.000 A 
ATOM     22  C   UNL     1      -4.555   4.053   2.153  1.00  0.00     0.014 A 
ATOM     23  C   UNL     1      -3.174   6.389   1.540  1.00  0.00     0.010 A 
ATOM     24  C   UNL     1      -4.967   5.259   2.712  1.00  0.00     0.001 A 
ATOM     25  C   UNL     1      -4.264   6.423   2.418  1.00  0.00     0.001 A 
BRANCH  14  26
ATOM     26  C   UNL     1      -0.995   1.293   0.244  1.00  0.00     0.053 A 
ATOM     27  C   UNL     1       2.528  -0.212  -0.006  1.00  0.00     0.044 C 
ATOM     28  C   UNL     1       1.032  -0.118   0.048  1.00  0.00    -0.049 A 
ATOM     29  C   UNL     1       0.250  -1.262  -0.061  1.00  0.00     0.003 A 
ATOM     30  C   UNL     1       0.405   1.130   0.226  1.00  0.00     0.030 A 
ATOM     31  C   UNL     1      -1.133  -1.150  -0.013  1.00  0.00     0.002 A 
ATOM     32  C   UNL     1      -1.740   0.107   0.129  1.00  0.00     0.027 A 
ENDBRANCH  14  26
ENDBRANCH   8  13
ENDBRANCH   4   7
ENDBRANCH   2   3
ENDBRANCH   1   2
BRANCH   1  33
ATOM     33  C   UNL     1      -8.260   9.896   1.759  1.00  0.00     0.118 C 
BRANCH  33  34
ATOM     34  N   UNL     1      -9.318  10.055   2.957  1.00  0.00    -0.352 N 
ATOM     35  C   UNL     1     -10.131  10.995   3.744  1.00  0.00     0.251 C 
ATOM     36  H   UNL     1      -9.495   9.152   3.309  1.00  0.00     0.163 HD
ATOM     37  O   UNL     1     -11.277  10.542   3.948  1.00  0.00    -0.269 OA
BRANCH  35  38
ATOM     38  C   UNL     1      -9.967  12.471   4.337  1.00  0.00     0.039 A 
ATOM     39  C   UNL     1     -10.932  13.501   4.112  1.00  0.00     0.014 A 
ATOM     40  C   UNL     1      -8.911  12.937   5.093  1.00  0.00     0.014 A 
ATOM     41  C   UNL     1     -10.501  14.861   3.915  1.00  0.00     0.010 A 
ATOM     42  C   UNL     1      -8.497  14.292   4.968  1.00  0.00     0.010 A 
ATOM     43  C   UNL     1      -9.163  15.191   4.127  1.00  0.00    -0.014 A 
BRANCH  43  44
ATOM     44  C   UNL     1      -8.414  16.311   3.437  1.00  0.00     0.031 A 
ATOM     45  C   UNL     1      -8.074  17.526   4.168  1.00  0.00     0.074 A 
ATOM     46  C   UNL     1      -7.876  16.334   2.179  1.00  0.00     0.049 A 
ATOM     47  N   UNL     1      -8.453  18.716   3.832  1.00  0.00    -0.248 NA
ATOM     48  C   UNL     1      -7.170  17.469   5.308  1.00  0.00     0.031 C 
ATOM     49  C   UNL     1      -7.063  17.331   1.457  1.00  0.00     0.029 A 
ATOM     50  N   UNL     1      -7.941  15.357   1.204  1.00  0.00    -0.354 N 
ATOM     51  C   UNL     1      -7.607  19.566   4.511  1.00  0.00     0.074 A 
ATOM     52  C   UNL     1      -6.995  18.769   5.556  1.00  0.00     0.031 C 
ATOM     53  C   UNL     1      -7.112  17.078   0.127  1.00  0.00     0.029 A 
ATOM     54  C   UNL     1      -7.963  15.923  -0.066  1.00  0.00     0.049 A 
ATOM     55  H   UNL     1      -7.967  14.390   1.385  1.00  0.00     0.167 HD
ATOM     56  C   UNL     1      -7.203  20.756   3.978  1.00  0.00     0.037 A 
ATOM     57  C   UNL     1      -9.085  15.773  -0.837  1.00  0.00     0.037 A 
ATOM     58  C   UNL     1      -7.518  20.836   2.551  1.00  0.00     0.049 A 
ATOM     59  C   UNL     1      -9.793  17.082  -0.990  1.00  0.00     0.074 A 
ATOM     60  C   UNL     1      -6.711  20.709   1.428  1.00  0.00     0.029 A 
ATOM     61  N   UNL     1      -8.827  20.734   2.096  1.00  0.00    -0.354 N 
ATOM     62  N   UNL     1      -9.499  18.117  -0.263  1.00  0.00    -0.248 NA
ATOM     63  C   UNL     1     -10.864  17.354  -1.938  1.00  0.00     0.031 C 
ATOM     64  C   UNL     1      -7.539  20.509   0.301  1.00  0.00     0.029 A 
ATOM     65  C   UNL     1      -8.854  20.514   0.731  1.00  0.00     0.049 A 
ATOM     66  H   UNL     1      -9.626  20.809   2.667  1.00  0.00     0.167 HD
ATOM     67  C   UNL     1     -10.271  19.177  -0.620  1.00  0.00     0.074 A 
ATOM     68  C   UNL     1     -11.110  18.654  -1.682  1.00  0.00     0.031 C 
ATOM     69  C   UNL     1     -10.111  20.380   0.004  1.00  0.00     0.037 A 
BRANCH  56  70
ATOM     70  C   UNL     1      -6.200  21.656   4.675  1.00  0.00     0.058 A 
ATOM     71  C   UNL     1      -5.315  22.493   3.965  1.00  0.00     0.135 A 
ATOM     72  C   UNL     1      -6.113  21.760   6.081  1.00  0.00     0.135 A 
ATOM     73  F   UNL     1      -5.346  22.591   2.631  1.00  0.00    -0.206 F 
ATOM     74  C   UNL     1      -4.363  23.296   4.593  1.00  0.00     0.059 A 
ATOM     75  C   UNL     1      -5.138  22.521   6.732  1.00  0.00     0.059 A 
ATOM     76  F   UNL     1      -7.004  21.145   6.876  1.00  0.00    -0.206 F 
ATOM     77  C   UNL     1      -4.267  23.292   5.976  1.00  0.00     0.060 A 
BRANCH  77  78
ATOM     78  S   UNL     1      -3.038  24.354   6.755  1.00  0.00     0.124 S 
ATOM     79  O   UNL     1      -1.800  23.915   6.119  1.00  0.00    -0.237 OA
ATOM     80  O   UNL     1      -3.507  25.684   6.380  1.00  0.00    -0.237 OA
ATOM     81  O   UNL     1      -3.155  24.029   8.174  1.00  0.00    -0.744 OA
ENDBRANCH  77  78
ENDBRANCH  56  70
BRANCH  57  82
ATOM     82  C   UNL     1      -9.775  14.421  -0.728  1.00  0.00     0.058 A 
ATOM     83  C   UNL     1      -8.957  13.353  -1.123  1.00  0.00     0.135 A 
ATOM     84  C   UNL     1     -10.406  14.172   0.476  1.00  0.00     0.135 A 
ATOM     85  F   UNL     1      -8.742  13.120  -2.422  1.00  0.00    -0.206 F 
ATOM     86  C   UNL     1      -8.235  12.615  -0.187  1.00  0.00     0.059 A 
ATOM     87  C   UNL     1      -9.780  13.319   1.392  1.00  0.00     0.059 A 
ATOM     88  F   UNL     1     -11.537  14.810   0.817  1.00  0.00    -0.206 F 
ATOM     89  C   UNL     1      -8.513  12.811   1.155  1.00  0.00     0.060 A 
BRANCH  89  90
ATOM     90  S   UNL     1      -6.954  12.641   2.418  1.00  0.00     0.124 S 
ATOM     91  O   UNL     1      -5.949  12.152   1.490  1.00  0.00    -0.237 OA
ATOM     92  O   UNL     1      -6.625  13.986   2.880  1.00  0.00    -0.237 OA
ATOM     93  O   UNL     1      -7.285  11.698   3.456  1.00  0.00    -0.744 OA
ENDBRANCH  89  90
ENDBRANCH  57  82
BRANCH  69  94
ATOM     94  C   UNL     1     -11.010  21.578  -0.116  1.00  0.00     0.058 A 
ATOM     95  C   UNL     1     -12.348  21.525  -0.532  1.00  0.00     0.135 A 
ATOM     96  C   UNL     1     -10.553  22.853   0.307  1.00  0.00     0.135 A 
ATOM     97  F   UNL     1     -12.951  20.365  -0.825  1.00  0.00    -0.206 F 
ATOM     98  C   UNL     1     -13.144  22.664  -0.622  1.00  0.00     0.059 A 
ATOM     99  C   UNL     1     -11.353  23.987   0.296  1.00  0.00     0.059 A 
ATOM    100  F   UNL     1      -9.307  23.049   0.762  1.00  0.00    -0.206 F 
ATOM    101  C   UNL     1     -12.636  23.892  -0.210  1.00  0.00     0.060 A 
BRANCH 101 102
ATOM    102  S   UNL     1     -13.676  25.353  -0.305  1.00  0.00     0.124 S 
ATOM    103  O   UNL     1     -13.544  25.708  -1.715  1.00  0.00    -0.237 OA
ATOM    104  O   UNL     1     -14.982  24.838   0.097  1.00  0.00    -0.237 OA
ATOM    105  O   UNL     1     -13.056  26.275   0.640  1.00  0.00    -0.744 OA
ENDBRANCH 101 102
ENDBRANCH  69  94
ENDBRANCH  43  44
ENDBRANCH  35  38
ENDBRANCH  33  34
ENDBRANCH   1  33
TORSDOF 15
