REMARK SMILES O=C(NCCCNC(=O)c1ccc(-c2c3nc(c(-c4c(F)cc(S(=O)(=O)[O-])cc4F)c4ccc([nH]4)c(-c4c(F)cc(S(=O)(=O)[O-])cc4F)c4nc(c(-c5c(F)cc(S(=O)(=O)[O-])cc5F)c5ccc2[nH]5)C=C4)C=C3)cc1)C1=Cc2cc(Cl)cc(-c3ccc(O)cc3)c2O[C@@H]1C(F)(F)F
REMARK SMILES IDX 5 1 4 2 3 3 1 4 2 5 76 7 77 8 93 9 78 10 92 11 79 12 91 13
REMARK SMILES IDX 80 14 83 15 81 16 82 17 94 18 95 19 96 20 97 21 84 22 85 23
REMARK SMILES IDX 90 24 86 25 89 26 87 27 88 28 6 30 7 31 8 32 9 34 10 35
REMARK SMILES IDX 11 36 75 37 12 38 74 39 13 40 14 41 15 42 68 43 16 44 73 45
REMARK SMILES IDX 67 46 69 47 17 48 72 49 66 50 65 51 18 53 52 54 31 55 51 56
REMARK SMILES IDX 32 57 35 58 50 59 70 60 33 61 34 62 49 64 71 65 36 66 19 67
REMARK SMILES IDX 20 68 29 69 21 70 22 71 28 72 30 73 23 74 24 75 25 76 26 77
REMARK SMILES IDX 27 78 53 79 54 80 63 81 55 82 56 83 62 84 64 85 57 86 58 87
REMARK SMILES IDX 59 88 60 89 61 90 37 91 38 92 47 93 39 94 40 95 46 96 48 97
REMARK SMILES IDX 41 98 42 99 43 100 44 101 45 102
REMARK H PARENT 3 6 88 29 7 33 69 52 35 63
REMARK Flexibility Score: inf
ROOT
ATOM      1  C   UNL     1       4.034  -1.564  -2.561  1.00  0.00     0.042 C 
ENDROOT
BRANCH   1   2
ATOM      2  C   UNL     1       3.009  -0.649  -1.891  1.00  0.00     0.118 C 
BRANCH   2   3
ATOM      3  N   UNL     1       2.249  -1.319  -0.829  1.00  0.00    -0.352 N 
ATOM      4  O   UNL     1       1.372  -1.554   1.255  1.00  0.00    -0.270 OA
ATOM      5  C   UNL     1       2.240  -1.095   0.526  1.00  0.00     0.251 C 
ATOM      6  H   UNL     1       1.653  -2.041  -1.135  1.00  0.00     0.163 HD
BRANCH   5   7
ATOM      7  C   UNL     1       3.287  -0.211   1.055  1.00  0.00     0.067 C 
ATOM      8  C   UNL     1       4.556  -0.622   0.944  1.00  0.00     0.025 C 
ATOM      9  C   UNL     1       2.918   1.209   1.335  1.00  0.00     0.314 C 
ATOM     10  C   UNL     1       5.508   0.440   0.609  1.00  0.00     0.019 A 
ATOM     11  O   UNL     1       3.724   2.115   0.545  1.00  0.00    -0.475 OA
ATOM     12  C   UNL     1       6.812   0.073   0.271  1.00  0.00     0.032 A 
ATOM     13  C   UNL     1       5.004   1.705   0.235  1.00  0.00     0.135 A 
ATOM     14  C   UNL     1       7.571   0.920  -0.528  1.00  0.00     0.042 A 
ATOM     15  C   UNL     1       5.741   2.529  -0.631  1.00  0.00     0.026 A 
ATOM     16  Cl  UNL     1       9.121   0.408  -1.068  1.00  0.00    -0.084 Cl
ATOM     17  C   UNL     1       7.036   2.120  -0.999  1.00  0.00     0.033 A 
BRANCH   9  18
ATOM     18  C   UNL     1       2.968   1.546   2.835  1.00  0.00     0.429 C 
ATOM     19  F   UNL     1       2.549   2.817   3.065  1.00  0.00    -0.167 F 
ATOM     20  F   UNL     1       2.156   0.739   3.560  1.00  0.00    -0.167 F 
ATOM     21  F   UNL     1       4.211   1.439   3.359  1.00  0.00    -0.167 F 
ENDBRANCH   9  18
BRANCH  15  22
ATOM     22  C   UNL     1       5.129   3.669  -1.331  1.00  0.00    -0.014 A 
ATOM     23  C   UNL     1       4.274   3.441  -2.427  1.00  0.00     0.012 A 
ATOM     24  C   UNL     1       5.430   4.993  -0.991  1.00  0.00     0.012 A 
ATOM     25  C   UNL     1       3.788   4.493  -3.200  1.00  0.00     0.047 A 
ATOM     26  C   UNL     1       4.931   6.054  -1.755  1.00  0.00     0.047 A 
ATOM     27  C   UNL     1       4.133   5.791  -2.866  1.00  0.00     0.115 A 
BRANCH  27  28
ATOM     28  O   UNL     1       3.674   6.793  -3.668  1.00  0.00    -0.508 OA
ATOM     29  H   UNL     1       3.139   6.592  -4.410  1.00  0.00     0.293 HD
ENDBRANCH  27  28
ENDBRANCH  15  22
ENDBRANCH   5   7
ENDBRANCH   2   3
ENDBRANCH   1   2
BRANCH   1  30
ATOM     30  C   UNL     1       4.518  -1.041  -3.915  1.00  0.00     0.118 C 
BRANCH  30  31
ATOM     31  N   UNL     1       5.215   0.236  -3.885  1.00  0.00    -0.352 N 
ATOM     32  C   UNL     1       5.954   0.859  -4.876  1.00  0.00     0.251 C 
ATOM     33  H   UNL     1       5.153   0.728  -3.034  1.00  0.00     0.163 HD
ATOM     34  O   UNL     1       6.432   1.966  -4.668  1.00  0.00    -0.269 OA
BRANCH  32  35
ATOM     35  C   UNL     1       6.292   0.130  -6.126  1.00  0.00     0.039 A 
ATOM     36  C   UNL     1       7.627   0.158  -6.547  1.00  0.00     0.014 A 
ATOM     37  C   UNL     1       5.379  -0.695  -6.780  1.00  0.00     0.014 A 
ATOM     38  C   UNL     1       8.082  -0.783  -7.472  1.00  0.00     0.010 A 
ATOM     39  C   UNL     1       5.848  -1.693  -7.629  1.00  0.00     0.010 A 
ATOM     40  C   UNL     1       7.216  -1.790  -7.921  1.00  0.00    -0.014 A 
BRANCH  40  41
ATOM     41  C   UNL     1       7.736  -3.033  -8.549  1.00  0.00     0.031 A 
ATOM     42  C   UNL     1       7.280  -3.451  -9.915  1.00  0.00     0.074 A 
ATOM     43  C   UNL     1       8.513  -3.853  -7.809  1.00  0.00     0.049 A 
ATOM     44  N   UNL     1       7.495  -4.577 -10.545  1.00  0.00    -0.248 NA
ATOM     45  C   UNL     1       6.441  -2.497 -10.655  1.00  0.00     0.031 C 
ATOM     46  C   UNL     1       8.954  -3.593  -6.433  1.00  0.00     0.029 A 
ATOM     47  N   UNL     1       9.055  -5.082  -8.094  1.00  0.00    -0.354 N 
ATOM     48  C   UNL     1       6.797  -4.479 -11.742  1.00  0.00     0.074 A 
ATOM     49  C   UNL     1       6.120  -3.199 -11.732  1.00  0.00     0.031 C 
ATOM     50  C   UNL     1       9.718  -4.611  -6.009  1.00  0.00     0.029 A 
ATOM     51  C   UNL     1       9.784  -5.620  -7.057  1.00  0.00     0.049 A 
ATOM     52  H   UNL     1       8.933  -5.536  -8.959  1.00  0.00     0.167 HD
ATOM     53  C   UNL     1       6.740  -5.370 -12.761  1.00  0.00     0.037 A 
ATOM     54  C   UNL     1      10.422  -6.801  -6.955  1.00  0.00     0.037 A 
ATOM     55  C   UNL     1       7.449  -6.622 -12.776  1.00  0.00     0.049 A 
ATOM     56  C   UNL     1      10.374  -7.755  -8.113  1.00  0.00     0.074 A 
ATOM     57  C   UNL     1       7.521  -7.560 -13.792  1.00  0.00     0.029 A 
ATOM     58  N   UNL     1       8.214  -7.111 -11.726  1.00  0.00    -0.354 N 
ATOM     59  N   UNL     1       9.756  -7.618  -9.262  1.00  0.00    -0.248 NA
ATOM     60  C   UNL     1      11.099  -9.023  -7.963  1.00  0.00     0.031 C 
ATOM     61  C   UNL     1       8.312  -8.626 -13.347  1.00  0.00     0.029 A 
ATOM     62  C   UNL     1       8.752  -8.341 -12.064  1.00  0.00     0.049 A 
ATOM     63  H   UNL     1       8.353  -6.650 -10.867  1.00  0.00     0.167 HD
ATOM     64  C   UNL     1      10.022  -8.780  -9.975  1.00  0.00     0.074 A 
ATOM     65  C   UNL     1      10.873  -9.600  -9.136  1.00  0.00     0.031 C 
ATOM     66  C   UNL     1       9.594  -9.139 -11.209  1.00  0.00     0.037 A 
BRANCH  53  67
ATOM     67  C   UNL     1       5.893  -5.007 -13.947  1.00  0.00     0.058 A 
ATOM     68  C   UNL     1       6.291  -4.011 -14.852  1.00  0.00     0.135 A 
ATOM     69  C   UNL     1       4.676  -5.665 -14.188  1.00  0.00     0.135 A 
ATOM     70  F   UNL     1       7.438  -3.341 -14.658  1.00  0.00    -0.206 F 
ATOM     71  C   UNL     1       5.496  -3.654 -15.936  1.00  0.00     0.059 A 
ATOM     72  C   UNL     1       3.876  -5.339 -15.280  1.00  0.00     0.059 A 
ATOM     73  F   UNL     1       4.249  -6.625 -13.353  1.00  0.00    -0.206 F 
ATOM     74  C   UNL     1       4.286  -4.319 -16.137  1.00  0.00     0.060 A 
BRANCH  74  75
ATOM     75  S   UNL     1       3.255  -3.832 -17.536  1.00  0.00     0.124 S 
ATOM     76  O   UNL     1       2.661  -2.594 -17.041  1.00  0.00    -0.237 OA
ATOM     77  O   UNL     1       4.231  -3.680 -18.610  1.00  0.00    -0.237 OA
ATOM     78  O   UNL     1       2.334  -4.955 -17.685  1.00  0.00    -0.744 OA
ENDBRANCH  74  75
ENDBRANCH  53  67
BRANCH  54  79
ATOM     79  C   UNL     1      11.170  -7.141  -5.715  1.00  0.00     0.058 A 
ATOM     80  C   UNL     1      12.572  -7.131  -5.700  1.00  0.00     0.135 A 
ATOM     81  C   UNL     1      10.505  -7.466  -4.523  1.00  0.00     0.135 A 
ATOM     82  F   UNL     1      13.252  -6.830  -6.817  1.00  0.00    -0.206 F 
ATOM     83  C   UNL     1      13.291  -7.446  -4.552  1.00  0.00     0.059 A 
ATOM     84  C   UNL     1      11.202  -7.766  -3.356  1.00  0.00     0.059 A 
ATOM     85  F   UNL     1       9.163  -7.471  -4.481  1.00  0.00    -0.206 F 
ATOM     86  C   UNL     1      12.596  -7.763  -3.384  1.00  0.00     0.060 A 
BRANCH  86  87
ATOM     87  S   UNL     1      13.535  -8.126  -1.883  1.00  0.00     0.124 S 
ATOM     88  O   UNL     1      13.974  -9.493  -2.137  1.00  0.00    -0.237 OA
ATOM     89  O   UNL     1      14.578  -7.105  -1.915  1.00  0.00    -0.237 OA
ATOM     90  O   UNL     1      12.544  -7.965  -0.824  1.00  0.00    -0.744 OA
ENDBRANCH  86  87
ENDBRANCH  54  79
BRANCH  66  91
ATOM     91  C   UNL     1      10.043 -10.474 -11.725  1.00  0.00     0.058 A 
ATOM     92  C   UNL     1       9.445 -11.662 -11.280  1.00  0.00     0.135 A 
ATOM     93  C   UNL     1      11.038 -10.562 -12.711  1.00  0.00     0.135 A 
ATOM     94  F   UNL     1       8.498 -11.627 -10.329  1.00  0.00    -0.206 F 
ATOM     95  C   UNL     1       9.824 -12.898 -11.791  1.00  0.00     0.059 A 
ATOM     96  C   UNL     1      11.419 -11.785 -13.250  1.00  0.00     0.059 A 
ATOM     97  F   UNL     1      11.635  -9.450 -13.169  1.00  0.00    -0.206 F 
ATOM     98  C   UNL     1      10.810 -12.949 -12.778  1.00  0.00     0.060 A 
BRANCH  98  99
ATOM     99  S   UNL     1      11.258 -14.553 -13.475  1.00  0.00     0.124 S 
ATOM    100  O   UNL     1      12.111 -15.101 -12.426  1.00  0.00    -0.237 OA
ATOM    101  O   UNL     1       9.959 -15.199 -13.638  1.00  0.00    -0.237 OA
ATOM    102  O   UNL     1      11.935 -14.203 -14.720  1.00  0.00    -0.744 OA
ENDBRANCH  98  99
ENDBRANCH  66  91
ENDBRANCH  40  41
ENDBRANCH  32  35
ENDBRANCH  30  31
ENDBRANCH   1  30
TORSDOF 16
