REMARK SMILES Cc1ccc(C)c(S(=O)(=O)N[C@H](CC2=c3ccccc3=NC2)C(=O)NCCCNC(=O)c2ccc(-c3c4nc(c(-c5c(F)cc(S(=O)(=O)[O-])cc5F)c5ccc([nH]5)c(-c5c(F)cc(S(=O)(=O)[O-])cc5F)c5nc(c(-c6c(F)cc(S(=O)(=O)[O-])cc6F)c6ccc3[nH]6)C=C5)C=C4)cc2)c1
REMARK SMILES IDX 27 1 26 2 25 3 23 4 24 5 12 7 11 8 8 10 9 11 10 12 7 13 1 14
REMARK SMILES IDX 2 15 3 16 98 17 4 18 5 19 6 20 13 21 14 22 15 23 22 24 16 25
REMARK SMILES IDX 20 26 21 27 17 28 19 29 18 30 28 31 29 32 30 33 31 35 32 36
REMARK SMILES IDX 33 37 97 38 34 39 96 40 35 41 36 42 37 43 90 44 38 45 95 46
REMARK SMILES IDX 89 47 91 48 39 49 94 50 88 51 87 52 40 54 74 55 53 56 73 57
REMARK SMILES IDX 54 58 57 59 72 60 92 61 55 62 56 63 71 65 93 66 58 67 41 68
REMARK SMILES IDX 42 69 51 70 43 71 44 72 50 73 52 74 45 75 46 76 47 77 48 78
REMARK SMILES IDX 49 79 75 80 76 81 85 82 77 83 78 84 84 85 86 86 79 87 80 88
REMARK SMILES IDX 81 89 82 90 83 91 59 92 60 93 69 94 61 95 62 96 68 97 70 98
REMARK SMILES IDX 63 99 64 100 65 101 66 102 67 103
REMARK H PARENT 25 6 11 9 29 34 91 53 57 64
REMARK Flexibility Score: inf
ROOT
ATOM      1  C   UNL     1      -1.921   7.872  -1.759  1.00  0.00     0.042 C 
ENDROOT
BRANCH   1   2
ATOM      2  C   UNL     1      -1.129   6.785  -2.494  1.00  0.00     0.117 C 
BRANCH   2   3
ATOM      3  N   UNL     1       0.267   6.591  -2.123  1.00  0.00    -0.355 N 
ATOM      4  C   UNL     1       1.033   5.572  -1.635  1.00  0.00     0.238 C 
ATOM      5  O   UNL     1       2.236   5.823  -1.512  1.00  0.00    -0.273 OA
ATOM      6  H   UNL     1       0.796   7.409  -2.262  1.00  0.00     0.163 HD
BRANCH   4   7
ATOM      7  C   UNL     1       0.492   4.215  -1.178  1.00  0.00     0.163 C 
BRANCH   7   8
ATOM      8  N   UNL     1      -0.469   3.660  -2.172  1.00  0.00    -0.198 NA
ATOM      9  H   UNL     1      -1.213   3.213  -1.636  1.00  0.00     0.142 HD
BRANCH   8  10
ATOM     10  S   UNL     1       0.017   2.546  -3.328  1.00  0.00     0.241 S 
ATOM     11  O   UNL     1       1.452   2.651  -3.498  1.00  0.00    -0.207 OA
ATOM     12  O   UNL     1      -0.908   2.749  -4.414  1.00  0.00    -0.207 OA
BRANCH  10  13
ATOM     13  C   UNL     1      -0.366   0.966  -2.614  1.00  0.00     0.085 A 
ATOM     14  C   UNL     1      -1.727  -0.302   0.709  1.00  0.00     0.044 C 
ATOM     15  C   UNL     1      -1.170  -0.284  -0.683  1.00  0.00    -0.050 A 
ATOM     16  C   UNL     1      -0.839  -1.470  -1.339  1.00  0.00     0.004 A 
ATOM     17  C   UNL     1      -0.953   0.927  -1.340  1.00  0.00     0.025 A 
ATOM     18  C   UNL     1      -0.310  -1.440  -2.634  1.00  0.00     0.005 A 
ATOM     19  C   UNL     1      -0.070  -0.224  -3.297  1.00  0.00    -0.031 A 
ATOM     20  C   UNL     1       0.486  -0.287  -4.693  1.00  0.00     0.046 C 
ENDBRANCH  10  13
ENDBRANCH   8  10
ENDBRANCH   7   8
BRANCH   7  21
ATOM     21  C   UNL     1      -0.155   4.179   0.243  1.00  0.00     0.063 C 
BRANCH  21  22
ATOM     22  C   UNL     1       0.154   5.210   1.299  1.00  0.00    -0.037 C 
ATOM     23  C   UNL     1       0.628   5.073   2.541  1.00  0.00     0.001 A 
ATOM     24  C   UNL     1      -0.261   6.632   1.088  1.00  0.00     0.174 C 
ATOM     25  C   UNL     1       1.080   3.996   3.365  1.00  0.00     0.010 A 
ATOM     26  C   UNL     1       0.510   6.440   3.096  1.00  0.00     0.065 A 
ATOM     27  N   UNL     1      -0.026   7.355   2.349  1.00  0.00    -0.280 NA
ATOM     28  C   UNL     1       1.449   4.258   4.633  1.00  0.00     0.001 A 
ATOM     29  C   UNL     1       0.976   6.658   4.477  1.00  0.00     0.028 A 
ATOM     30  C   UNL     1       1.418   5.605   5.179  1.00  0.00     0.002 A 
ENDBRANCH  21  22
ENDBRANCH   7  21
ENDBRANCH   4   7
ENDBRANCH   2   3
ENDBRANCH   1   2
BRANCH   1  31
ATOM     31  C   UNL     1      -1.134   9.032  -1.181  1.00  0.00     0.118 C 
BRANCH  31  32
ATOM     32  N   UNL     1      -1.590  10.348  -1.593  1.00  0.00    -0.352 N 
ATOM     33  C   UNL     1      -1.011  11.560  -1.262  1.00  0.00     0.251 C 
ATOM     34  H   UNL     1      -2.391  10.381  -2.165  1.00  0.00     0.163 HD
ATOM     35  O   UNL     1      -1.471  12.611  -1.693  1.00  0.00    -0.269 OA
BRANCH  33  36
ATOM     36  C   UNL     1       0.244  11.541  -0.477  1.00  0.00     0.039 A 
ATOM     37  C   UNL     1       1.361  12.181  -1.018  1.00  0.00     0.014 A 
ATOM     38  C   UNL     1       0.361  10.742   0.664  1.00  0.00     0.014 A 
ATOM     39  C   UNL     1       2.618  11.886  -0.506  1.00  0.00     0.010 A 
ATOM     40  C   UNL     1       1.616  10.370   1.107  1.00  0.00     0.010 A 
ATOM     41  C   UNL     1       2.744  10.927   0.508  1.00  0.00    -0.014 A 
BRANCH  41  42
ATOM     42  C   UNL     1       4.059  10.666   1.071  1.00  0.00     0.031 A 
ATOM     43  C   UNL     1       4.390  11.519   2.235  1.00  0.00     0.074 A 
ATOM     44  C   UNL     1       4.868   9.647   0.730  1.00  0.00     0.049 A 
ATOM     45  N   UNL     1       5.154  12.561   2.267  1.00  0.00    -0.248 NA
ATOM     46  C   UNL     1       3.664  11.264   3.489  1.00  0.00     0.031 C 
ATOM     47  C   UNL     1       4.540   8.473  -0.078  1.00  0.00     0.029 A 
ATOM     48  N   UNL     1       6.152   9.410   1.133  1.00  0.00    -0.354 N 
ATOM     49  C   UNL     1       5.166  12.959   3.599  1.00  0.00     0.074 A 
ATOM     50  C   UNL     1       4.066  12.289   4.240  1.00  0.00     0.031 C 
ATOM     51  C   UNL     1       5.533   7.561   0.048  1.00  0.00     0.029 A 
ATOM     52  C   UNL     1       6.619   8.139   0.827  1.00  0.00     0.049 A 
ATOM     53  H   UNL     1       6.699  10.082   1.600  1.00  0.00     0.167 HD
ATOM     54  C   UNL     1       6.247  13.568   4.157  1.00  0.00     0.037 A 
ATOM     55  C   UNL     1       7.791   7.596   1.238  1.00  0.00     0.037 A 
ATOM     56  C   UNL     1       7.223  13.935   3.167  1.00  0.00     0.049 A 
ATOM     57  C   UNL     1       8.716   8.706   1.590  1.00  0.00     0.074 A 
ATOM     58  C   UNL     1       7.352  14.899   2.193  1.00  0.00     0.029 A 
ATOM     59  N   UNL     1       8.143  12.956   2.897  1.00  0.00    -0.354 N 
ATOM     60  N   UNL     1       9.185   9.569   0.731  1.00  0.00    -0.248 NA
ATOM     61  C   UNL     1       8.931   9.052   2.993  1.00  0.00     0.031 C 
ATOM     62  C   UNL     1       8.241  14.360   1.214  1.00  0.00     0.029 A 
ATOM     63  C   UNL     1       8.631  13.085   1.622  1.00  0.00     0.049 A 
ATOM     64  H   UNL     1       8.416  12.254   3.532  1.00  0.00     0.167 HD
ATOM     65  C   UNL     1       9.370  10.725   1.463  1.00  0.00     0.074 A 
ATOM     66  C   UNL     1       9.377  10.303   2.854  1.00  0.00     0.031 C 
ATOM     67  C   UNL     1       9.174  11.951   0.900  1.00  0.00     0.037 A 
BRANCH  54  68
ATOM     68  C   UNL     1       6.627  13.440   5.611  1.00  0.00     0.058 A 
ATOM     69  C   UNL     1       7.538  14.351   6.178  1.00  0.00     0.135 A 
ATOM     70  C   UNL     1       6.330  12.302   6.396  1.00  0.00     0.135 A 
ATOM     71  F   UNL     1       7.921  15.443   5.496  1.00  0.00    -0.206 F 
ATOM     72  C   UNL     1       8.124  14.138   7.427  1.00  0.00     0.059 A 
ATOM     73  C   UNL     1       6.850  12.104   7.669  1.00  0.00     0.059 A 
ATOM     74  F   UNL     1       5.602  11.283   5.923  1.00  0.00    -0.206 F 
ATOM     75  C   UNL     1       7.774  13.009   8.163  1.00  0.00     0.060 A 
BRANCH  75  76
ATOM     76  S   UNL     1       8.575  12.691   9.745  1.00  0.00     0.124 S 
ATOM     77  O   UNL     1       9.914  12.301   9.321  1.00  0.00    -0.237 OA
ATOM     78  O   UNL     1       8.464  13.986  10.410  1.00  0.00    -0.237 OA
ATOM     79  O   UNL     1       7.759  11.627  10.325  1.00  0.00    -0.744 OA
ENDBRANCH  75  76
ENDBRANCH  54  68
BRANCH  55  80
ATOM     80  C   UNL     1       8.089   6.187   1.602  1.00  0.00     0.058 A 
ATOM     81  C   UNL     1       9.416   5.762   1.800  1.00  0.00     0.135 A 
ATOM     82  C   UNL     1       7.082   5.319   2.066  1.00  0.00     0.135 A 
ATOM     83  F   UNL     1      10.441   6.529   1.396  1.00  0.00    -0.206 F 
ATOM     84  C   UNL     1       9.727   4.591   2.496  1.00  0.00     0.059 A 
ATOM     85  C   UNL     1       7.368   4.137   2.747  1.00  0.00     0.059 A 
ATOM     86  F   UNL     1       5.785   5.645   1.968  1.00  0.00    -0.206 F 
ATOM     87  C   UNL     1       8.693   3.800   2.994  1.00  0.00     0.060 A 
BRANCH  87  88
ATOM     88  S   UNL     1       9.088   2.417   4.088  1.00  0.00     0.124 S 
ATOM     89  O   UNL     1       9.753   1.490   3.180  1.00  0.00    -0.237 OA
ATOM     90  O   UNL     1       9.940   3.053   5.088  1.00  0.00    -0.237 OA
ATOM     91  O   UNL     1       7.780   1.985   4.574  1.00  0.00    -0.744 OA
ENDBRANCH  87  88
ENDBRANCH  55  80
BRANCH  67  92
ATOM     92  C   UNL     1       9.361  12.068  -0.584  1.00  0.00     0.058 A 
ATOM     93  C   UNL     1       8.545  11.452  -1.547  1.00  0.00     0.135 A 
ATOM     94  C   UNL     1      10.393  12.897  -1.050  1.00  0.00     0.135 A 
ATOM     95  F   UNL     1       7.486  10.715  -1.183  1.00  0.00    -0.206 F 
ATOM     96  C   UNL     1       8.776  11.618  -2.914  1.00  0.00     0.059 A 
ATOM     97  C   UNL     1      10.621  13.104  -2.406  1.00  0.00     0.059 A 
ATOM     98  F   UNL     1      11.179  13.549  -0.176  1.00  0.00    -0.206 F 
ATOM     99  C   UNL     1       9.817  12.447  -3.334  1.00  0.00     0.060 A 
BRANCH  99 100
ATOM    100  S   UNL     1      10.075  12.710  -5.102  1.00  0.00     0.124 S 
ATOM    101  O   UNL     1      10.604  11.421  -5.532  1.00  0.00    -0.237 OA
ATOM    102  O   UNL     1       8.731  13.034  -5.573  1.00  0.00    -0.237 OA
ATOM    103  O   UNL     1      11.024  13.820  -5.147  1.00  0.00    -0.744 OA
ENDBRANCH  99 100
ENDBRANCH  67  92
ENDBRANCH  41  42
ENDBRANCH  33  36
ENDBRANCH  31  32
ENDBRANCH   1  31
TORSDOF 18
