REMARK SMILES O=C(COc1nc(Nc2ccc(Cl)cc2Cl)nc2c1C[N@H+](Cc1ccccc1)CC2)NCCCNC(=O)c1ccc(-c2c3nc(c(-c4c(F)cc(S(=O)(=O)[O-])cc4F)c4ccc([nH]4)c(-c4c(F)cc(S(=O)(=O)[O-])cc4F)c4nc(c(-c5c(F)cc(S(=O)(=O)[O-])cc5F)c5ccc2[nH]5)C=C4)C=C3)cc1
REMARK SMILES IDX 32 1 31 2 1 3 2 4 3 6 4 7 5 8 6 9 19 10 7 11 18 12 20 13
REMARK SMILES IDX 17 14 30 15 21 16 29 17 8 19 9 21 10 22 15 23 11 24 14 25
REMARK SMILES IDX 16 26 12 27 13 28 22 29 23 30 24 31 28 32 25 33 27 34 26 35
REMARK SMILES IDX 33 36 34 37 35 38 36 39 37 41 38 42 39 43 103 44 40 45
REMARK SMILES IDX 102 46 41 47 42 48 43 49 96 50 44 51 101 52 95 53 97 54
REMARK SMILES IDX 45 55 100 56 94 57 93 58 46 60 80 61 59 62 79 63 60 64 63 65
REMARK SMILES IDX 78 66 98 67 61 68 62 69 77 71 99 72 64 73 47 74 48 75 57 76
REMARK SMILES IDX 49 77 50 78 56 79 58 80 51 81 52 82 53 83 54 84 55 85 81 86
REMARK SMILES IDX 82 87 91 88 83 89 84 90 90 91 92 92 85 93 86 94 87 95 88 96
REMARK SMILES IDX 89 97 65 98 66 99 75 100 67 101 68 102 74 103 76 104 69 105
REMARK SMILES IDX 70 106 71 107 72 108 73 109
REMARK H PARENT 31 5 21 18 8 20 35 40 97 59 63 70
REMARK Flexibility Score: inf
ROOT
ATOM      1  C   UNL     1       2.084   1.105   2.100  1.00  0.00     0.117 C 
ENDROOT
BRANCH   1   2
ATOM      2  N   UNL     1       2.647   0.586   0.876  1.00  0.00    -0.353 N 
ATOM      3  O   UNL     1       0.835  -0.706   0.287  1.00  0.00    -0.271 OA
ATOM      4  C   UNL     1       1.935  -0.227   0.022  1.00  0.00     0.258 C 
ATOM      5  H   UNL     1       3.573   0.823   0.642  1.00  0.00     0.163 HD
BRANCH   4   6
ATOM      6  C   UNL     1       2.674  -0.567  -1.275  1.00  0.00     0.331 C 
BRANCH   6   7
ATOM      7  O   UNL     1       3.648   0.376  -1.716  1.00  0.00    -0.467 OA
BRANCH   7   8
ATOM      8  C   UNL     1       3.050   1.393  -2.429  1.00  0.00     0.228 A 
ATOM      9  N   UNL     1       2.110   2.107  -1.800  1.00  0.00    -0.177 NA
ATOM     10  C   UNL     1       3.521   1.674  -3.688  1.00  0.00     0.090 A 
ATOM     11  C   UNL     1       1.586   3.142  -2.471  1.00  0.00     0.230 A 
ATOM     12  C   UNL     1       2.928   2.755  -4.304  1.00  0.00     0.064 A 
ATOM     13  C   UNL     1       4.670   0.936  -4.294  1.00  0.00     0.307 C 
ATOM     14  N   UNL     1       1.943   3.477  -3.723  1.00  0.00    -0.217 NA
ATOM     15  C   UNL     1       3.348   3.140  -5.698  1.00  0.00     0.118 C 
ATOM     16  N   UNL     1       4.825   1.165  -5.737  1.00  0.00    -0.327 N 
ATOM     17  C   UNL     1       4.740   2.595  -6.055  1.00  0.00     0.269 C 
ATOM     18  H   UNL     1       4.041   0.719  -6.214  1.00  0.00     0.348 HD
BRANCH  11  19
ATOM     19  N   UNL     1       0.580   3.903  -1.887  1.00  0.00    -0.323 N 
ATOM     20  H   UNL     1       0.156   4.577  -2.466  1.00  0.00     0.170 HD
BRANCH  19  21
ATOM     21  C   UNL     1       0.098   3.826  -0.577  1.00  0.00     0.060 A 
ATOM     22  C   UNL     1      -1.216   3.378  -0.374  1.00  0.00     0.029 A 
ATOM     23  C   UNL     1       0.865   4.175   0.552  1.00  0.00     0.066 A 
ATOM     24  C   UNL     1      -1.730   3.223   0.916  1.00  0.00     0.023 A 
ATOM     25  C   UNL     1       0.342   4.049   1.843  1.00  0.00     0.043 A 
ATOM     26  Cl  UNL     1       2.472   4.803   0.400  1.00  0.00    -0.082 Cl
ATOM     27  C   UNL     1      -0.946   3.552   2.018  1.00  0.00     0.042 A 
ATOM     28  Cl  UNL     1      -1.566   3.328   3.606  1.00  0.00    -0.084 Cl
ENDBRANCH  19  21
ENDBRANCH  11  19
BRANCH  16  29
ATOM     29  C   UNL     1       6.022   0.502  -6.284  1.00  0.00     0.299 C 
BRANCH  29  30
ATOM     30  C   UNL     1       7.366   1.049  -5.845  1.00  0.00     0.006 A 
ATOM     31  C   UNL     1       8.060   1.961  -6.653  1.00  0.00     0.009 A 
ATOM     32  C   UNL     1       7.936   0.672  -4.618  1.00  0.00     0.009 A 
ATOM     33  C   UNL     1       9.274   2.506  -6.230  1.00  0.00     0.001 A 
ATOM     34  C   UNL     1       9.137   1.235  -4.185  1.00  0.00     0.001 A 
ATOM     35  C   UNL     1       9.805   2.154  -4.990  1.00  0.00     0.000 A 
ENDBRANCH  29  30
ENDBRANCH  16  29
ENDBRANCH   7   8
ENDBRANCH   6   7
ENDBRANCH   4   6
ENDBRANCH   1   2
BRANCH   1  36
ATOM     36  C   UNL     1       2.518   0.343   3.340  1.00  0.00     0.042 C 
BRANCH  36  37
ATOM     37  C   UNL     1       4.023   0.373   3.584  1.00  0.00     0.118 C 
BRANCH  37  38
ATOM     38  N   UNL     1       4.546   1.715   3.823  1.00  0.00    -0.352 N 
ATOM     39  C   UNL     1       5.103   2.269   4.951  1.00  0.00     0.251 C 
ATOM     40  H   UNL     1       4.491   2.322   3.050  1.00  0.00     0.163 HD
ATOM     41  O   UNL     1       5.353   3.473   4.975  1.00  0.00    -0.269 OA
BRANCH  39  42
ATOM     42  C   UNL     1       5.372   1.436   6.142  1.00  0.00     0.039 A 
ATOM     43  C   UNL     1       5.010   1.922   7.401  1.00  0.00     0.014 A 
ATOM     44  C   UNL     1       5.972   0.180   6.024  1.00  0.00     0.014 A 
ATOM     45  C   UNL     1       5.159   1.109   8.527  1.00  0.00     0.010 A 
ATOM     46  C   UNL     1       6.044  -0.660   7.132  1.00  0.00     0.010 A 
ATOM     47  C   UNL     1       5.630  -0.208   8.393  1.00  0.00    -0.014 A 
BRANCH  47  48
ATOM     48  C   UNL     1       5.675  -1.131   9.556  1.00  0.00     0.031 A 
ATOM     49  C   UNL     1       6.989  -1.673  10.046  1.00  0.00     0.074 A 
ATOM     50  C   UNL     1       4.523  -1.530  10.132  1.00  0.00     0.049 A 
ATOM     51  N   UNL     1       7.221  -2.534  11.003  1.00  0.00    -0.248 NA
ATOM     52  C   UNL     1       8.201  -1.206   9.353  1.00  0.00     0.031 C 
ATOM     53  C   UNL     1       3.180  -1.116   9.716  1.00  0.00     0.029 A 
ATOM     54  N   UNL     1       4.293  -2.375  11.190  1.00  0.00    -0.354 N 
ATOM     55  C   UNL     1       8.598  -2.718  11.022  1.00  0.00     0.074 A 
ATOM     56  C   UNL     1       9.146  -1.922   9.945  1.00  0.00     0.031 C 
ATOM     57  C   UNL     1       2.273  -1.676  10.532  1.00  0.00     0.029 A 
ATOM     58  C   UNL     1       2.962  -2.517  11.506  1.00  0.00     0.049 A 
ATOM     59  H   UNL     1       5.014  -2.836  11.677  1.00  0.00     0.167 HD
ATOM     60  C   UNL     1       9.341  -3.460  11.877  1.00  0.00     0.037 A 
ATOM     61  C   UNL     1       2.365  -3.240  12.473  1.00  0.00     0.037 A 
ATOM     62  C   UNL     1       8.796  -4.223  12.968  1.00  0.00     0.049 A 
ATOM     63  C   UNL     1       3.210  -4.057  13.409  1.00  0.00     0.074 A 
ATOM     64  C   UNL     1       9.472  -4.964  13.921  1.00  0.00     0.029 A 
ATOM     65  N   UNL     1       7.444  -4.337  13.256  1.00  0.00    -0.354 N 
ATOM     66  N   UNL     1       4.515  -4.182  13.440  1.00  0.00    -0.248 NA
ATOM     67  C   UNL     1       2.506  -4.833  14.439  1.00  0.00     0.031 C 
ATOM     68  C   UNL     1       8.527  -5.550  14.769  1.00  0.00     0.029 A 
ATOM     69  C   UNL     1       7.264  -5.148  14.364  1.00  0.00     0.049 A 
ATOM     70  H   UNL     1       6.719  -3.906  12.747  1.00  0.00     0.167 HD
ATOM     71  C   UNL     1       4.789  -5.036  14.502  1.00  0.00     0.074 A 
ATOM     72  C   UNL     1       3.516  -5.391  15.094  1.00  0.00     0.031 C 
ATOM     73  C   UNL     1       5.989  -5.486  14.944  1.00  0.00     0.037 A 
BRANCH  60  74
ATOM     74  C   UNL     1      10.830  -3.460  11.679  1.00  0.00     0.058 A 
ATOM     75  C   UNL     1      11.608  -2.337  12.002  1.00  0.00     0.135 A 
ATOM     76  C   UNL     1      11.491  -4.601  11.197  1.00  0.00     0.135 A 
ATOM     77  F   UNL     1      11.022  -1.216  12.452  1.00  0.00    -0.206 F 
ATOM     78  C   UNL     1      12.987  -2.334  11.828  1.00  0.00     0.059 A 
ATOM     79  C   UNL     1      12.874  -4.628  11.037  1.00  0.00     0.059 A 
ATOM     80  F   UNL     1      10.794  -5.700  10.872  1.00  0.00    -0.206 F 
ATOM     81  C   UNL     1      13.611  -3.485  11.343  1.00  0.00     0.060 A 
BRANCH  81  82
ATOM     82  S   UNL     1      15.403  -3.463  11.124  1.00  0.00     0.124 S 
ATOM     83  O   UNL     1      15.540  -2.625   9.937  1.00  0.00    -0.237 OA
ATOM     84  O   UNL     1      15.864  -2.871  12.375  1.00  0.00    -0.237 OA
ATOM     85  O   UNL     1      15.740  -4.871  10.939  1.00  0.00    -0.744 OA
ENDBRANCH  81  82
ENDBRANCH  60  74
BRANCH  61  86
ATOM     86  C   UNL     1       0.888  -3.187  12.628  1.00  0.00     0.058 A 
ATOM     87  C   UNL     1       0.307  -2.477  13.689  1.00  0.00     0.135 A 
ATOM     88  C   UNL     1       0.030  -3.812  11.710  1.00  0.00     0.135 A 
ATOM     89  F   UNL     1       1.088  -1.868  14.595  1.00  0.00    -0.206 F 
ATOM     90  C   UNL     1      -1.072  -2.391  13.840  1.00  0.00     0.059 A 
ATOM     91  C   UNL     1      -1.354  -3.725  11.829  1.00  0.00     0.059 A 
ATOM     92  F   UNL     1       0.538  -4.491  10.670  1.00  0.00    -0.206 F 
ATOM     93  C   UNL     1      -1.896  -3.016  12.902  1.00  0.00     0.060 A 
BRANCH  93  94
ATOM     94  S   UNL     1      -3.686  -2.849  13.076  1.00  0.00     0.124 S 
ATOM     95  O   UNL     1      -3.952  -3.720  14.215  1.00  0.00    -0.237 OA
ATOM     96  O   UNL     1      -3.838  -1.418  13.319  1.00  0.00    -0.237 OA
ATOM     97  O   UNL     1      -4.194  -3.317  11.790  1.00  0.00    -0.744 OA
ENDBRANCH  93  94
ENDBRANCH  61  86
BRANCH  73  98
ATOM     98  C   UNL     1       5.995  -6.404  16.131  1.00  0.00     0.058 A 
ATOM     99  C   UNL     1       5.658  -7.760  16.005  1.00  0.00     0.135 A 
ATOM    100  C   UNL     1       6.435  -5.947  17.383  1.00  0.00     0.135 A 
ATOM    101  F   UNL     1       5.224  -8.242  14.830  1.00  0.00    -0.206 F 
ATOM    102  C   UNL     1       5.760  -8.634  17.081  1.00  0.00     0.059 A 
ATOM    103  C   UNL     1       6.563  -6.807  18.469  1.00  0.00     0.059 A 
ATOM    104  F   UNL     1       6.774  -4.659  17.551  1.00  0.00    -0.206 F 
ATOM    105  C   UNL     1       6.222  -8.150  18.308  1.00  0.00     0.060 A 
BRANCH 105 106
ATOM    106  S   UNL     1       6.422  -9.313  19.674  1.00  0.00     0.124 S 
ATOM    107  O   UNL     1       5.036  -9.553  20.062  1.00  0.00    -0.237 OA
ATOM    108  O   UNL     1       7.104 -10.433  19.034  1.00  0.00    -0.237 OA
ATOM    109  O   UNL     1       7.225  -8.568  20.640  1.00  0.00    -0.744 OA
ENDBRANCH 105 106
ENDBRANCH  73  98
ENDBRANCH  47  48
ENDBRANCH  39  42
ENDBRANCH  37  38
ENDBRANCH  36  37
ENDBRANCH   1  36
TORSDOF 19
