REMARK SMILES Cc1c(C)c2c(c(C)c1O)CC[C@@](C)(C(=O)NCCCNC(=O)c1ccc(-c3c4nc(c(-c5c(F)cc(S(=O)(=O)[O-])cc5F)c5ccc([nH]5)c(-c5c(F)cc(S(=O)(=O)[O-])cc5F)c5nc(c(-c6c(F)cc(S(=O)(=O)[O-])cc6F)c6ccc3[nH]6)C=C5)C=C4)cc1)O2
REMARK SMILES IDX 20 1 19 2 18 3 17 4 15 5 16 6 13 8 1 9 2 10 3 11 9 12 4 13
REMARK SMILES IDX 5 14 7 15 6 16 90 17 8 18 11 19 12 20 14 21 10 22 21 24
REMARK SMILES IDX 22 25 23 27 24 28 25 29 89 30 26 31 88 32 27 33 28 34 29 35
REMARK SMILES IDX 82 36 30 37 87 38 81 39 83 40 31 41 86 42 80 43 79 44 32 46
REMARK SMILES IDX 66 47 45 48 65 49 46 50 49 51 64 52 84 53 47 54 48 55 63 57
REMARK SMILES IDX 85 58 50 59 33 60 34 61 43 62 35 63 36 64 42 65 44 66 37 67
REMARK SMILES IDX 38 68 39 69 40 70 41 71 67 72 68 73 77 74 69 75 70 76 76 77
REMARK SMILES IDX 78 78 71 79 72 80 73 81 74 82 75 83 51 84 52 85 61 86 53 87
REMARK SMILES IDX 54 88 60 89 62 90 55 91 56 92 57 93 58 94 59 95
REMARK H PARENT 17 7 10 23 21 26 83 45 49 56
REMARK Flexibility Score: inf
ROOT
ATOM      1  C   UNL     1       0.175  -9.970   4.975  1.00  0.00     0.118 C 
ENDROOT
BRANCH   1   2
ATOM      2  C   UNL     1       0.143  -8.464   5.175  1.00  0.00     0.042 C 
BRANCH   2   3
ATOM      3  C   UNL     1       1.356  -7.750   4.595  1.00  0.00     0.118 C 
BRANCH   3   4
ATOM      4  N   UNL     1       1.377  -7.774   3.138  1.00  0.00    -0.353 N 
ATOM      5  C   UNL     1       1.237  -6.777   2.207  1.00  0.00     0.263 C 
ATOM      6  O   UNL     1       1.317  -7.122   1.024  1.00  0.00    -0.270 OA
ATOM      7  H   UNL     1       1.518  -8.668   2.752  1.00  0.00     0.163 HD
BRANCH   5   8
ATOM      8  C   UNL     1       1.012  -5.300   2.634  1.00  0.00     0.184 C 
ATOM      9  C   UNL     1       0.986   0.141  -0.145  1.00  0.00     0.049 C 
ATOM     10  C   UNL     1       0.533  -0.874   0.873  1.00  0.00    -0.002 A 
ATOM     11  C   UNL     1       0.826  -2.245   0.664  1.00  0.00    -0.002 A 
ATOM     12  C   UNL     1      -0.116  -0.491   2.062  1.00  0.00     0.122 A 
ATOM     13  C   UNL     1       1.530  -2.691  -0.595  1.00  0.00     0.049 C 
ATOM     14  C   UNL     1       0.483  -3.181   1.657  1.00  0.00     0.127 A 
ATOM     15  C   UNL     1      -0.480  -1.422   3.045  1.00  0.00    -0.002 A 
ATOM     16  C   UNL     1      -0.194  -2.784   2.826  1.00  0.00     0.001 A 
ATOM     17  O   UNL     1       0.870  -4.488   1.443  1.00  0.00    -0.477 OA
ATOM     18  C   UNL     1      -1.161  -0.989   4.320  1.00  0.00     0.049 C 
ATOM     19  C   UNL     1      -0.561  -3.802   3.872  1.00  0.00     0.044 C 
ATOM     20  C   UNL     1      -0.321  -5.209   3.380  1.00  0.00     0.063 C 
ATOM     21  C   UNL     1       2.292  -4.819   3.348  1.00  0.00     0.067 C 
BRANCH  12  22
ATOM     22  O   UNL     1      -0.409   0.824   2.312  1.00  0.00    -0.507 OA
ATOM     23  H   UNL     1      -0.184   1.481   1.683  1.00  0.00     0.293 HD
ENDBRANCH  12  22
ENDBRANCH   5   8
ENDBRANCH   3   4
ENDBRANCH   2   3
ENDBRANCH   1   2
BRANCH   1  24
ATOM     24  N   UNL     1       1.269 -10.599   5.704  1.00  0.00    -0.352 N 
ATOM     25  C   UNL     1       1.246 -11.395   6.822  1.00  0.00     0.251 C 
ATOM     26  H   UNL     1       2.166 -10.425   5.338  1.00  0.00     0.163 HD
ATOM     27  O   UNL     1       2.298 -11.632   7.413  1.00  0.00    -0.269 OA
BRANCH  25  28
ATOM     28  C   UNL     1      -0.029 -11.952   7.323  1.00  0.00     0.039 A 
ATOM     29  C   UNL     1      -0.253 -12.001   8.701  1.00  0.00     0.014 A 
ATOM     30  C   UNL     1      -0.991 -12.451   6.442  1.00  0.00     0.014 A 
ATOM     31  C   UNL     1      -1.466 -12.492   9.188  1.00  0.00     0.010 A 
ATOM     32  C   UNL     1      -2.234 -12.848   6.921  1.00  0.00     0.010 A 
ATOM     33  C   UNL     1      -2.479 -12.889   8.300  1.00  0.00    -0.014 A 
BRANCH  33  34
ATOM     34  C   UNL     1      -3.791 -13.376   8.796  1.00  0.00     0.031 A 
ATOM     35  C   UNL     1      -4.223 -14.790   8.516  1.00  0.00     0.074 A 
ATOM     36  C   UNL     1      -4.613 -12.533   9.449  1.00  0.00     0.049 A 
ATOM     37  N   UNL     1      -5.343 -15.387   8.830  1.00  0.00    -0.248 NA
ATOM     38  C   UNL     1      -3.285 -15.635   7.759  1.00  0.00     0.031 C 
ATOM     39  C   UNL     1      -4.325 -11.126   9.735  1.00  0.00     0.029 A 
ATOM     40  N   UNL     1      -5.860 -12.732   9.986  1.00  0.00    -0.354 N 
ATOM     41  C   UNL     1      -5.250 -16.669   8.300  1.00  0.00     0.074 A 
ATOM     42  C   UNL     1      -3.991 -16.743   7.591  1.00  0.00     0.031 C 
ATOM     43  C   UNL     1      -5.350 -10.599  10.423  1.00  0.00     0.029 A 
ATOM     44  C   UNL     1      -6.384 -11.616  10.594  1.00  0.00     0.049 A 
ATOM     45  H   UNL     1      -6.334 -13.594   9.940  1.00  0.00     0.167 HD
ATOM     46  C   UNL     1      -6.119 -17.700   8.419  1.00  0.00     0.037 A 
ATOM     47  C   UNL     1      -7.564 -11.431  11.217  1.00  0.00     0.037 A 
ATOM     48  C   UNL     1      -7.358 -17.624   9.147  1.00  0.00     0.049 A 
ATOM     49  C   UNL     1      -8.521 -12.585  11.332  1.00  0.00     0.074 A 
ATOM     50  C   UNL     1      -8.277 -18.629   9.387  1.00  0.00     0.029 A 
ATOM     51  N   UNL     1      -7.855 -16.475   9.747  1.00  0.00    -0.354 N 
ATOM     52  N   UNL     1      -8.384 -13.812  10.890  1.00  0.00    -0.248 NA
ATOM     53  C   UNL     1      -9.787 -12.333  12.032  1.00  0.00     0.031 C 
ATOM     54  C   UNL     1      -9.355 -18.076  10.085  1.00  0.00     0.029 A 
ATOM     55  C   UNL     1      -9.085 -16.738  10.328  1.00  0.00     0.049 A 
ATOM     56  H   UNL     1      -7.401 -15.602   9.758  1.00  0.00     0.167 HD
ATOM     57  C   UNL     1      -9.542 -14.484  11.265  1.00  0.00     0.074 A 
ATOM     58  C   UNL     1     -10.360 -13.530  11.987  1.00  0.00     0.031 C 
ATOM     59  C   UNL     1      -9.894 -15.773  11.032  1.00  0.00     0.037 A 
BRANCH  46  60
ATOM     60  C   UNL     1      -5.756 -18.995   7.746  1.00  0.00     0.058 A 
ATOM     61  C   UNL     1      -4.690 -19.790   8.198  1.00  0.00     0.135 A 
ATOM     62  C   UNL     1      -6.492 -19.458   6.642  1.00  0.00     0.135 A 
ATOM     63  F   UNL     1      -3.943 -19.390   9.240  1.00  0.00    -0.206 F 
ATOM     64  C   UNL     1      -4.340 -20.974   7.558  1.00  0.00     0.059 A 
ATOM     65  C   UNL     1      -6.180 -20.655   6.005  1.00  0.00     0.059 A 
ATOM     66  F   UNL     1      -7.521 -18.739   6.167  1.00  0.00    -0.206 F 
ATOM     67  C   UNL     1      -5.090 -21.397   6.460  1.00  0.00     0.060 A 
BRANCH  67  68
ATOM     68  S   UNL     1      -4.612 -22.928   5.632  1.00  0.00     0.124 S 
ATOM     69  O   UNL     1      -3.364 -22.531   4.986  1.00  0.00    -0.237 OA
ATOM     70  O   UNL     1      -4.479 -23.857   6.749  1.00  0.00    -0.237 OA
ATOM     71  O   UNL     1      -5.728 -23.191   4.729  1.00  0.00    -0.744 OA
ENDBRANCH  67  68
ENDBRANCH  46  60
BRANCH  47  72
ATOM     72  C   UNL     1      -7.872 -10.102  11.808  1.00  0.00     0.058 A 
ATOM     73  C   UNL     1      -7.837  -9.908  13.196  1.00  0.00     0.135 A 
ATOM     74  C   UNL     1      -8.124  -8.984  10.997  1.00  0.00     0.135 A 
ATOM     75  F   UNL     1      -7.609 -10.947  14.013  1.00  0.00    -0.206 F 
ATOM     76  C   UNL     1      -8.025  -8.650  13.760  1.00  0.00     0.059 A 
ATOM     77  C   UNL     1      -8.294  -7.713  11.536  1.00  0.00     0.059 A 
ATOM     78  F   UNL     1      -8.154  -9.116   9.661  1.00  0.00    -0.206 F 
ATOM     79  C   UNL     1      -8.238  -7.555  12.920  1.00  0.00     0.060 A 
BRANCH  79  80
ATOM     80  S   UNL     1      -8.369  -5.913  13.660  1.00  0.00     0.124 S 
ATOM     81  O   UNL     1      -9.648  -6.002  14.354  1.00  0.00    -0.237 OA
ATOM     82  O   UNL     1      -7.182  -5.869  14.510  1.00  0.00    -0.237 OA
ATOM     83  O   UNL     1      -8.337  -5.019  12.506  1.00  0.00    -0.744 OA
ENDBRANCH  79  80
ENDBRANCH  47  72
BRANCH  59  84
ATOM     84  C   UNL     1     -11.226 -16.238  11.555  1.00  0.00     0.058 A 
ATOM     85  C   UNL     1     -12.428 -15.841  10.950  1.00  0.00     0.135 A 
ATOM     86  C   UNL     1     -11.296 -17.159  12.613  1.00  0.00     0.135 A 
ATOM     87  F   UNL     1     -12.417 -14.957   9.940  1.00  0.00    -0.206 F 
ATOM     88  C   UNL     1     -13.655 -16.332  11.383  1.00  0.00     0.059 A 
ATOM     89  C   UNL     1     -12.510 -17.684  13.044  1.00  0.00     0.059 A 
ATOM     90  F   UNL     1     -10.174 -17.579  13.219  1.00  0.00    -0.206 F 
ATOM     91  C   UNL     1     -13.685 -17.261  12.426  1.00  0.00     0.060 A 
BRANCH  91  92
ATOM     92  S   UNL     1     -15.282 -17.928  12.938  1.00  0.00     0.124 S 
ATOM     93  O   UNL     1     -15.893 -16.770  13.581  1.00  0.00    -0.237 OA
ATOM     94  O   UNL     1     -15.872 -18.333  11.666  1.00  0.00    -0.237 OA
ATOM     95  O   UNL     1     -14.922 -19.024  13.833  1.00  0.00    -0.744 OA
ENDBRANCH  91  92
ENDBRANCH  59  84
ENDBRANCH  33  34
ENDBRANCH  25  28
ENDBRANCH   1  24
TORSDOF 14
