REMARK SMILES O=C(NCCCNC(=O)[C@H](NC(=O)[C@H]1CC(=O)N(CC2CC2)C1)c1ccccc1C(F)(F)F)c1ccc(-c2c3nc(c(-c4c(F)cc(S(=O)(=O)[O-])cc4F)c4ccc([nH]4)c(-c4c(F)cc(S(=O)(=O)[O-])cc4F)c4nc(c(-c5c(F)cc(S(=O)(=O)[O-])cc5F)c5ccc2[nH]5)C=C4)C=C3)cc1
REMARK SMILES IDX 5 1 4 2 3 3 1 4 2 5 34 7 35 8 99 9 36 10 98 11 37 12 38 13
REMARK SMILES IDX 39 14 92 15 40 16 97 17 91 18 93 19 41 20 96 21 90 22 89 23
REMARK SMILES IDX 42 25 76 26 55 27 75 28 56 29 59 30 74 31 94 32 57 33 58 34
REMARK SMILES IDX 73 36 95 37 60 38 43 39 44 40 53 41 45 42 46 43 52 44 54 45
REMARK SMILES IDX 47 46 48 47 49 48 50 49 51 50 77 51 78 52 87 53 79 54 80 55
REMARK SMILES IDX 86 56 88 57 81 58 82 59 83 60 84 61 85 62 61 63 62 64 71 65
REMARK SMILES IDX 63 66 64 67 70 68 72 69 65 70 66 71 67 72 68 73 69 74 6 75
REMARK SMILES IDX 7 76 8 77 9 79 10 80 24 81 25 82 29 83 26 84 28 85 27 86
REMARK SMILES IDX 30 87 31 88 32 89 33 90 11 91 12 92 13 94 14 95 15 96 23 97
REMARK SMILES IDX 16 98 18 99 17 100 19 101 20 102 21 103 22 104
REMARK H PARENT 3 6 93 24 59 35 7 78 11 93
REMARK Flexibility Score: inf
ROOT
ATOM      1  C   UNL     1       2.682   9.416   6.615  1.00  0.00     0.042 C 
ENDROOT
BRANCH   1   2
ATOM      2  C   UNL     1       3.390   9.775   7.908  1.00  0.00     0.118 C 
BRANCH   2   3
ATOM      3  N   UNL     1       3.895  11.145   7.887  1.00  0.00    -0.352 N 
ATOM      4  O   UNL     1       4.010  13.309   8.503  1.00  0.00    -0.269 OA
ATOM      5  C   UNL     1       3.670  12.163   8.778  1.00  0.00     0.251 C 
ATOM      6  H   UNL     1       4.479  11.369   7.126  1.00  0.00     0.163 HD
BRANCH   5   7
ATOM      7  C   UNL     1       3.006  11.860  10.059  1.00  0.00     0.039 A 
ATOM      8  C   UNL     1       3.358  10.708  10.767  1.00  0.00     0.014 A 
ATOM      9  C   UNL     1       2.023  12.722  10.548  1.00  0.00     0.014 A 
ATOM     10  C   UNL     1       2.626  10.337  11.881  1.00  0.00     0.010 A 
ATOM     11  C   UNL     1       1.369  12.407  11.740  1.00  0.00     0.010 A 
ATOM     12  C   UNL     1       1.657  11.205  12.405  1.00  0.00    -0.014 A 
BRANCH  12  13
ATOM     13  C   UNL     1       1.054  10.885  13.720  1.00  0.00     0.031 A 
ATOM     14  C   UNL     1      -0.419  10.648  13.865  1.00  0.00     0.074 A 
ATOM     15  C   UNL     1       1.879  10.810  14.784  1.00  0.00     0.049 A 
ATOM     16  N   UNL     1      -1.102  10.397  14.951  1.00  0.00    -0.248 NA
ATOM     17  C   UNL     1      -1.236  10.708  12.642  1.00  0.00     0.031 C 
ATOM     18  C   UNL     1       3.329  11.036  14.742  1.00  0.00     0.029 A 
ATOM     19  N   UNL     1       1.631  10.520  16.099  1.00  0.00    -0.354 N 
ATOM     20  C   UNL     1      -2.429  10.297  14.553  1.00  0.00     0.074 A 
ATOM     21  C   UNL     1      -2.459  10.528  13.124  1.00  0.00     0.031 C 
ATOM     22  C   UNL     1       3.844  10.837  15.962  1.00  0.00     0.029 A 
ATOM     23  C   UNL     1       2.756  10.562  16.888  1.00  0.00     0.049 A 
ATOM     24  H   UNL     1       0.735  10.303  16.445  1.00  0.00     0.167 HD
ATOM     25  C   UNL     1      -3.515  10.037  15.319  1.00  0.00     0.037 A 
ATOM     26  C   UNL     1       2.894  10.439  18.220  1.00  0.00     0.037 A 
ATOM     27  C   UNL     1      -3.453   9.797  16.740  1.00  0.00     0.049 A 
ATOM     28  C   UNL     1       1.667  10.189  19.045  1.00  0.00     0.074 A 
ATOM     29  C   UNL     1      -4.487   9.471  17.601  1.00  0.00     0.029 A 
ATOM     30  N   UNL     1      -2.300   9.870  17.510  1.00  0.00    -0.354 N 
ATOM     31  N   UNL     1       0.425  10.047  18.647  1.00  0.00    -0.248 NA
ATOM     32  C   UNL     1       1.853  10.090  20.497  1.00  0.00     0.031 C 
ATOM     33  C   UNL     1      -3.971   9.412  18.899  1.00  0.00     0.029 A 
ATOM     34  C   UNL     1      -2.604   9.635  18.841  1.00  0.00     0.049 A 
ATOM     35  H   UNL     1      -1.400  10.061  17.162  1.00  0.00     0.167 HD
ATOM     36  C   UNL     1      -0.318   9.827  19.798  1.00  0.00     0.074 A 
ATOM     37  C   UNL     1       0.618   9.832  20.905  1.00  0.00     0.031 C 
ATOM     38  C   UNL     1      -1.655   9.642  19.928  1.00  0.00     0.037 A 
BRANCH  25  39
ATOM     39  C   UNL     1      -4.868  10.028  14.658  1.00  0.00     0.058 A 
ATOM     40  C   UNL     1      -5.265   9.005  13.783  1.00  0.00     0.135 A 
ATOM     41  C   UNL     1      -5.808  11.028  14.960  1.00  0.00     0.135 A 
ATOM     42  F   UNL     1      -4.404   8.031  13.447  1.00  0.00    -0.206 F 
ATOM     43  C   UNL     1      -6.538   8.981  13.220  1.00  0.00     0.059 A 
ATOM     44  C   UNL     1      -7.096  11.010  14.431  1.00  0.00     0.059 A 
ATOM     45  F   UNL     1      -5.483  12.033  15.790  1.00  0.00    -0.206 F 
ATOM     46  C   UNL     1      -7.448   9.986  13.554  1.00  0.00     0.060 A 
BRANCH  46  47
ATOM     47  S   UNL     1      -9.103   9.926  12.834  1.00  0.00     0.124 S 
ATOM     48  O   UNL     1      -8.826  10.254  11.439  1.00  0.00    -0.237 OA
ATOM     49  O   UNL     1      -9.505   8.548  13.093  1.00  0.00    -0.237 OA
ATOM     50  O   UNL     1      -9.838  10.942  13.581  1.00  0.00    -0.744 OA
ENDBRANCH  46  47
ENDBRANCH  25  39
BRANCH  26  51
ATOM     51  C   UNL     1       4.235  10.594  18.842  1.00  0.00     0.058 A 
ATOM     52  C   UNL     1       4.881   9.513  19.457  1.00  0.00     0.135 A 
ATOM     53  C   UNL     1       4.909  11.827  18.812  1.00  0.00     0.135 A 
ATOM     54  F   UNL     1       4.280   8.315  19.510  1.00  0.00    -0.206 F 
ATOM     55  C   UNL     1       6.136   9.652  20.039  1.00  0.00     0.059 A 
ATOM     56  C   UNL     1       6.178  11.982  19.356  1.00  0.00     0.059 A 
ATOM     57  F   UNL     1       4.345  12.889  18.215  1.00  0.00    -0.206 F 
ATOM     58  C   UNL     1       6.777  10.891  19.983  1.00  0.00     0.060 A 
BRANCH  58  59
ATOM     59  S   UNL     1       8.418  11.053  20.718  1.00  0.00     0.124 S 
ATOM     60  O   UNL     1       8.105  11.004  22.141  1.00  0.00    -0.237 OA
ATOM     61  O   UNL     1       9.111   9.889  20.175  1.00  0.00    -0.237 OA
ATOM     62  O   UNL     1       8.885  12.342  20.217  1.00  0.00    -0.744 OA
ENDBRANCH  58  59
ENDBRANCH  26  51
BRANCH  38  63
ATOM     63  C   UNL     1      -2.182   9.403  21.315  1.00  0.00     0.058 A 
ATOM     64  C   UNL     1      -2.247  10.433  22.266  1.00  0.00     0.135 A 
ATOM     65  C   UNL     1      -2.681   8.141  21.676  1.00  0.00     0.135 A 
ATOM     66  F   UNL     1      -1.769  11.653  21.976  1.00  0.00    -0.206 F 
ATOM     67  C   UNL     1      -2.777  10.216  23.533  1.00  0.00     0.059 A 
ATOM     68  C   UNL     1      -3.245   7.911  22.925  1.00  0.00     0.059 A 
ATOM     69  F   UNL     1      -2.645   7.124  20.800  1.00  0.00    -0.206 F 
ATOM     70  C   UNL     1      -3.282   8.954  23.850  1.00  0.00     0.060 A 
BRANCH  70  71
ATOM     71  S   UNL     1      -4.018   8.704  25.478  1.00  0.00     0.124 S 
ATOM     72  O   UNL     1      -2.842   8.728  26.341  1.00  0.00    -0.237 OA
ATOM     73  O   UNL     1      -4.913   9.851  25.593  1.00  0.00    -0.237 OA
ATOM     74  O   UNL     1      -4.681   7.409  25.357  1.00  0.00    -0.744 OA
ENDBRANCH  70  71
ENDBRANCH  38  63
ENDBRANCH  12  13
ENDBRANCH   5   7
ENDBRANCH   2   3
ENDBRANCH   1   2
BRANCH   1  75
ATOM     75  C   UNL     1       3.657   9.345   5.450  1.00  0.00     0.117 C 
BRANCH  75  76
ATOM     76  N   UNL     1       4.339   8.075   5.420  1.00  0.00    -0.354 N 
ATOM     77  C   UNL     1       4.077   6.998   4.620  1.00  0.00     0.247 C 
ATOM     78  H   UNL     1       5.086   7.971   6.052  1.00  0.00     0.163 HD
ATOM     79  O   UNL     1       4.822   6.024   4.748  1.00  0.00    -0.272 OA
BRANCH  77  80
ATOM     80  C   UNL     1       2.982   7.109   3.494  1.00  0.00     0.202 C 
BRANCH  80  81
ATOM     81  C   UNL     1       3.010   5.872   2.583  1.00  0.00    -0.004 A 
ATOM     82  C   UNL     1       4.184   5.727   1.801  1.00  0.00     0.007 A 
ATOM     83  C   UNL     1       2.028   4.858   2.482  1.00  0.00     0.061 A 
ATOM     84  C   UNL     1       4.362   4.677   0.904  1.00  0.00     0.000 A 
ATOM     85  C   UNL     1       2.216   3.818   1.538  1.00  0.00     0.013 A 
ATOM     86  C   UNL     1       3.365   3.730   0.756  1.00  0.00     0.001 A 
BRANCH  83  87
ATOM     87  C   UNL     1       0.763   4.794   3.313  1.00  0.00     0.416 C 
ATOM     88  F   UNL     1      -0.210   5.610   2.822  1.00  0.00    -0.166 F 
ATOM     89  F   UNL     1       0.209   3.546   3.346  1.00  0.00    -0.166 F 
ATOM     90  F   UNL     1       0.948   5.133   4.619  1.00  0.00    -0.166 F 
ENDBRANCH  83  87
ENDBRANCH  80  81
BRANCH  80  91
ATOM     91  N   UNL     1       1.671   7.446   4.043  1.00  0.00    -0.340 N 
ATOM     92  C   UNL     1       0.722   8.379   3.810  1.00  0.00     0.226 C 
ATOM     93  H   UNL     1       1.411   6.836   4.770  1.00  0.00     0.164 HD
ATOM     94  O   UNL     1      -0.194   8.401   4.643  1.00  0.00    -0.275 OA
BRANCH  92  95
ATOM     95  C   UNL     1       0.690   9.429   2.705  1.00  0.00     0.107 C 
ATOM     96  C   UNL     1       1.194  10.800   3.154  1.00  0.00     0.115 C 
ATOM     97  C   UNL     1       1.327   9.151   1.361  1.00  0.00     0.133 C 
ATOM     98  C   UNL     1       2.206  11.209   2.119  1.00  0.00     0.223 C 
ATOM     99  N   UNL     1       2.239  10.247   1.125  1.00  0.00    -0.342 N 
ATOM    100  O   UNL     1       2.840  12.247   2.145  1.00  0.00    -0.275 OA
BRANCH  99 101
ATOM    101  C   UNL     1       2.871  10.491  -0.164  1.00  0.00     0.123 C 
BRANCH 101 102
ATOM    102  C   UNL     1       4.147   9.750  -0.428  1.00  0.00     0.008 C 
ATOM    103  C   UNL     1       4.955   9.059   0.637  1.00  0.00     0.006 C 
ATOM    104  C   UNL     1       4.217   8.248  -0.397  1.00  0.00     0.006 C 
ENDBRANCH 101 102
ENDBRANCH  99 101
ENDBRANCH  92  95
ENDBRANCH  80  91
ENDBRANCH  77  80
ENDBRANCH  75  76
ENDBRANCH   1  75
TORSDOF 19
