REMARK SMILES CCOC(=O)C1=NN(c2ccc(Cl)cc2F)[C@@H](C(=O)NCCCNC(=O)c2ccc(-c3c4nc(c(-c5c(F)cc(S(=O)(=O)[O-])cc5F)c5ccc([nH]5)c(-c5c(F)cc(S(=O)(=O)[O-])cc5F)c5nc(c(-c6c(F)cc(S(=O)(=O)[O-])cc6F)c6ccc3[nH]6)C=C5)C=C4)cc2)C1
REMARK SMILES IDX 22 1 21 2 20 3 18 4 19 5 17 7 6 8 7 9 93 10 8 11 4 12 5 13
REMARK SMILES IDX 3 14 2 15 1 16 9 17 10 18 15 19 11 20 14 21 16 22 12 23
REMARK SMILES IDX 13 24 23 25 24 26 25 27 26 29 27 30 28 31 92 32 29 33 91 34
REMARK SMILES IDX 30 35 31 36 32 37 85 38 33 39 90 40 84 41 86 42 34 43 89 44
REMARK SMILES IDX 83 45 82 46 35 48 69 49 48 50 68 51 49 52 52 53 67 54 87 55
REMARK SMILES IDX 50 56 51 57 66 59 88 60 53 61 36 62 37 63 46 64 38 65 39 66
REMARK SMILES IDX 45 67 47 68 40 69 41 70 42 71 43 72 44 73 70 74 71 75 80 76
REMARK SMILES IDX 72 77 73 78 79 79 81 80 74 81 75 82 76 83 77 84 78 85 54 86
REMARK SMILES IDX 55 87 64 88 56 89 57 90 63 91 65 92 58 93 59 94 60 95 61 96
REMARK SMILES IDX 62 97
REMARK H PARENT 20 6 24 28 86 47 52 58
REMARK Flexibility Score: inf
ROOT
ATOM      1  C   UNL     1       0.613  -7.347   5.022  1.00  0.00     0.042 C 
ENDROOT
BRANCH   1   2
ATOM      2  C   UNL     1       0.804  -5.898   4.614  1.00  0.00     0.117 C 
BRANCH   2   3
ATOM      3  N   UNL     1       1.190  -5.037   5.717  1.00  0.00    -0.354 N 
ATOM      4  C   UNL     1       2.173  -4.092   5.817  1.00  0.00     0.245 C 
ATOM      5  O   UNL     1       2.223  -3.489   6.893  1.00  0.00    -0.273 OA
ATOM      6  H   UNL     1       0.653  -5.155   6.534  1.00  0.00     0.163 HD
BRANCH   4   7
ATOM      7  C   UNL     1       3.177  -3.868   4.662  1.00  0.00     0.203 C 
ATOM      8  C   UNL     1       3.038  -2.343   2.919  1.00  0.00     0.148 C 
ATOM      9  N   UNL     1       3.796  -1.737   3.775  1.00  0.00    -0.169 NA
ATOM     10  C   UNL     1       2.489  -3.663   3.317  1.00  0.00     0.103 C 
ATOM     11  N   UNL     1       3.915  -2.603   4.827  1.00  0.00    -0.249 N 
BRANCH   8  12
ATOM     12  C   UNL     1       2.682  -1.809   1.565  1.00  0.00     0.354 C 
ATOM     13  O   UNL     1       3.489  -1.698   0.663  1.00  0.00    -0.245 OA
BRANCH  12  14
ATOM     14  O   UNL     1       1.345  -1.628   1.526  1.00  0.00    -0.461 OA
BRANCH  14  15
ATOM     15  C   UNL     1       0.804  -1.320   0.235  1.00  0.00     0.230 C 
ATOM     16  C   UNL     1       0.985   0.150  -0.087  1.00  0.00     0.049 C 
ENDBRANCH  14  15
ENDBRANCH  12  14
ENDBRANCH   8  12
BRANCH  11  17
ATOM     17  C   UNL     1       4.784  -2.317   5.873  1.00  0.00     0.096 A 
ATOM     18  C   UNL     1       4.787  -1.035   6.445  1.00  0.00     0.032 A 
ATOM     19  C   UNL     1       5.671  -3.262   6.411  1.00  0.00     0.149 A 
ATOM     20  C   UNL     1       5.618  -0.721   7.524  1.00  0.00     0.023 A 
ATOM     21  C   UNL     1       6.533  -2.953   7.463  1.00  0.00     0.062 A 
ATOM     22  F   UNL     1       5.746  -4.495   5.884  1.00  0.00    -0.205 F 
ATOM     23  C   UNL     1       6.494  -1.681   8.022  1.00  0.00     0.044 A 
ATOM     24  Cl  UNL     1       7.536  -1.289   9.334  1.00  0.00    -0.084 Cl
ENDBRANCH  11  17
ENDBRANCH   4   7
ENDBRANCH   2   3
ENDBRANCH   1   2
BRANCH   1  25
ATOM     25  C   UNL     1      -0.435  -7.577   6.100  1.00  0.00     0.118 C 
BRANCH  25  26
ATOM     26  N   UNL     1      -1.782  -7.209   5.684  1.00  0.00    -0.352 N 
ATOM     27  C   UNL     1      -2.902  -7.990   5.515  1.00  0.00     0.251 C 
ATOM     28  H   UNL     1      -1.911  -6.251   5.494  1.00  0.00     0.163 HD
ATOM     29  O   UNL     1      -3.907  -7.499   5.007  1.00  0.00    -0.269 OA
BRANCH  27  30
ATOM     30  C   UNL     1      -2.889  -9.418   5.907  1.00  0.00     0.039 A 
ATOM     31  C   UNL     1      -3.484 -10.359   5.062  1.00  0.00     0.014 A 
ATOM     32  C   UNL     1      -2.288  -9.835   7.096  1.00  0.00     0.014 A 
ATOM     33  C   UNL     1      -3.398 -11.720   5.368  1.00  0.00     0.010 A 
ATOM     34  C   UNL     1      -2.113 -11.192   7.347  1.00  0.00     0.010 A 
ATOM     35  C   UNL     1      -2.670 -12.152   6.489  1.00  0.00    -0.014 A 
BRANCH  35  36
ATOM     36  C   UNL     1      -2.482 -13.596   6.790  1.00  0.00     0.031 A 
ATOM     37  C   UNL     1      -2.997 -14.169   8.084  1.00  0.00     0.074 A 
ATOM     38  C   UNL     1      -1.786 -14.374   5.937  1.00  0.00     0.049 A 
ATOM     39  N   UNL     1      -2.853 -15.376   8.569  1.00  0.00    -0.248 NA
ATOM     40  C   UNL     1      -3.744 -13.256   8.965  1.00  0.00     0.031 C 
ATOM     41  C   UNL     1      -1.191 -13.928   4.674  1.00  0.00     0.029 A 
ATOM     42  N   UNL     1      -1.450 -15.703   6.006  1.00  0.00    -0.354 N 
ATOM     43  C   UNL     1      -3.474 -15.361   9.813  1.00  0.00     0.074 A 
ATOM     44  C   UNL     1      -3.942 -14.010  10.035  1.00  0.00     0.031 C 
ATOM     45  C   UNL     1      -0.590 -14.969   4.077  1.00  0.00     0.029 A 
ATOM     46  C   UNL     1      -0.717 -16.146   4.930  1.00  0.00     0.049 A 
ATOM     47  H   UNL     1      -1.708 -16.285   6.757  1.00  0.00     0.167 HD
ATOM     48  C   UNL     1      -3.662 -16.384  10.681  1.00  0.00     0.037 A 
ATOM     49  C   UNL     1      -0.201 -17.362   4.662  1.00  0.00     0.037 A 
ATOM     50  C   UNL     1      -3.222 -17.733  10.441  1.00  0.00     0.049 A 
ATOM     51  C   UNL     1      -0.422 -18.484   5.641  1.00  0.00     0.074 A 
ATOM     52  C   UNL     1      -3.413 -18.854  11.230  1.00  0.00     0.029 A 
ATOM     53  N   UNL     1      -2.503 -18.146   9.328  1.00  0.00    -0.354 N 
ATOM     54  N   UNL     1      -1.062 -18.464   6.786  1.00  0.00    -0.248 NA
ATOM     55  C   UNL     1       0.145 -19.793   5.290  1.00  0.00     0.031 C 
ATOM     56  C   UNL     1      -2.774 -19.936  10.614  1.00  0.00     0.029 A 
ATOM     57  C   UNL     1      -2.228 -19.500   9.418  1.00  0.00     0.049 A 
ATOM     58  H   UNL     1      -2.229 -17.562   8.584  1.00  0.00     0.167 HD
ATOM     59  C   UNL     1      -1.002 -19.764   7.277  1.00  0.00     0.074 A 
ATOM     60  C   UNL     1      -0.271 -20.545   6.300  1.00  0.00     0.031 C 
ATOM     61  C   UNL     1      -1.508 -20.266   8.431  1.00  0.00     0.037 A 
BRANCH  48  62
ATOM     62  C   UNL     1      -4.384 -16.082  11.966  1.00  0.00     0.058 A 
ATOM     63  C   UNL     1      -5.754 -15.769  11.985  1.00  0.00     0.135 A 
ATOM     64  C   UNL     1      -3.708 -16.127  13.195  1.00  0.00     0.135 A 
ATOM     65  F   UNL     1      -6.447 -15.697  10.838  1.00  0.00    -0.206 F 
ATOM     66  C   UNL     1      -6.417 -15.476  13.172  1.00  0.00     0.059 A 
ATOM     67  C   UNL     1      -4.359 -15.867  14.398  1.00  0.00     0.059 A 
ATOM     68  F   UNL     1      -2.398 -16.421  13.236  1.00  0.00    -0.206 F 
ATOM     69  C   UNL     1      -5.710 -15.525  14.374  1.00  0.00     0.060 A 
BRANCH  69  70
ATOM     70  S   UNL     1      -6.585 -15.136  15.904  1.00  0.00     0.124 S 
ATOM     71  O   UNL     1      -6.735 -13.689  15.792  1.00  0.00    -0.237 OA
ATOM     72  O   UNL     1      -7.813 -15.912  15.767  1.00  0.00    -0.237 OA
ATOM     73  O   UNL     1      -5.670 -15.594  16.945  1.00  0.00    -0.744 OA
ENDBRANCH  69  70
ENDBRANCH  48  62
BRANCH  49  74
ATOM     74  C   UNL     1       0.550 -17.590   3.399  1.00  0.00     0.058 A 
ATOM     75  C   UNL     1       0.005 -18.374   2.371  1.00  0.00     0.135 A 
ATOM     76  C   UNL     1       1.816 -17.023   3.186  1.00  0.00     0.135 A 
ATOM     77  F   UNL     1      -1.200 -18.943   2.529  1.00  0.00    -0.206 F 
ATOM     78  C   UNL     1       0.693 -18.603   1.184  1.00  0.00     0.059 A 
ATOM     79  C   UNL     1       2.513 -17.216   1.997  1.00  0.00     0.059 A 
ATOM     80  F   UNL     1       2.374 -16.250   4.130  1.00  0.00    -0.206 F 
ATOM     81  C   UNL     1       1.947 -18.017   1.005  1.00  0.00     0.060 A 
BRANCH  81  82
ATOM     82  S   UNL     1       2.810 -18.278  -0.560  1.00  0.00     0.124 S 
ATOM     83  O   UNL     1       3.239 -19.665  -0.430  1.00  0.00    -0.237 OA
ATOM     84  O   UNL     1       1.755 -18.023  -1.537  1.00  0.00    -0.237 OA
ATOM     85  O   UNL     1       3.875 -17.280  -0.525  1.00  0.00    -0.744 OA
ENDBRANCH  81  82
ENDBRANCH  49  74
BRANCH  61  86
ATOM     86  C   UNL     1      -1.326 -21.737   8.685  1.00  0.00     0.058 A 
ATOM     87  C   UNL     1      -0.080 -22.278   9.036  1.00  0.00     0.135 A 
ATOM     88  C   UNL     1      -2.428 -22.607   8.628  1.00  0.00     0.135 A 
ATOM     89  F   UNL     1       1.005 -21.491   9.098  1.00  0.00    -0.206 F 
ATOM     90  C   UNL     1       0.072 -23.636   9.300  1.00  0.00     0.059 A 
ATOM     91  C   UNL     1      -2.304 -23.962   8.915  1.00  0.00     0.059 A 
ATOM     92  F   UNL     1      -3.644 -22.137   8.307  1.00  0.00    -0.206 F 
ATOM     93  C   UNL     1      -1.046 -24.469   9.239  1.00  0.00     0.060 A 
BRANCH  93  94
ATOM     94  S   UNL     1      -0.841 -26.222   9.619  1.00  0.00     0.124 S 
ATOM     95  O   UNL     1      -0.169 -26.706   8.418  1.00  0.00    -0.237 OA
ATOM     96  O   UNL     1      -0.028 -26.187  10.830  1.00  0.00    -0.237 OA
ATOM     97  O   UNL     1      -2.211 -26.692   9.804  1.00  0.00    -0.744 OA
ENDBRANCH  93  94
ENDBRANCH  61  86
ENDBRANCH  35  36
ENDBRANCH  27  30
ENDBRANCH  25  26
ENDBRANCH   1  25
TORSDOF 17
