REMARK SMILES C[C@@H](C(=O)NCCCNC(=O)c1ccc(-c2c3nc(c(-c4c(F)cc(S(=O)(=O)[O-])cc4F)c4ccc([nH]4)c(-c4c(F)cc(S(=O)(=O)[O-])cc4F)c4nc(c(-c5c(F)cc(S(=O)(=O)[O-])cc5F)c5ccc2[nH]5)C=C4)C=C3)cc1)c1ccc(-c2ccccc2)cc1
REMARK SMILES IDX 7 1 6 2 5 3 3 4 4 5 2 7 1 8 78 9 79 10 89 11 80 12 88 13
REMARK SMILES IDX 81 14 82 15 83 16 87 17 84 18 86 19 85 20 8 21 9 22 10 23
REMARK SMILES IDX 11 25 12 26 13 27 77 28 14 29 76 30 15 31 16 32 17 33 70 34
REMARK SMILES IDX 18 35 75 36 69 37 71 38 19 39 74 40 68 41 67 42 20 44 54 45
REMARK SMILES IDX 33 46 53 47 34 48 37 49 52 50 72 51 35 52 36 53 51 55 73 56
REMARK SMILES IDX 38 57 21 58 22 59 31 60 23 61 24 62 30 63 32 64 25 65 26 66
REMARK SMILES IDX 27 67 28 68 29 69 55 70 56 71 65 72 57 73 58 74 64 75 66 76
REMARK SMILES IDX 59 77 60 78 61 79 62 80 63 81 39 82 40 83 49 84 41 85 42 86
REMARK SMILES IDX 48 87 50 88 43 89 44 90 45 91 46 92 47 93
REMARK H PARENT 5 6 9 24 71 43 37 54
REMARK Flexibility Score: inf
ROOT
ATOM      1  C   UNL     1       4.283  -1.083   0.466  1.00  0.00     0.042 C 
ENDROOT
BRANCH   1   2
ATOM      2  C   UNL     1       3.328  -1.981  -0.323  1.00  0.00     0.117 C 
BRANCH   2   3
ATOM      3  N   UNL     1       2.267  -2.504   0.519  1.00  0.00    -0.356 N 
ATOM      4  C   UNL     1       0.967  -2.111   0.660  1.00  0.00     0.227 C 
ATOM      5  O   UNL     1       0.333  -2.639   1.577  1.00  0.00    -0.274 OA
ATOM      6  H   UNL     1       2.529  -3.269   1.080  1.00  0.00     0.163 HD
BRANCH   4   7
ATOM      7  C   UNL     1       0.351  -1.090  -0.318  1.00  0.00     0.105 C 
ATOM      8  C   UNL     1       0.894   0.309   0.001  1.00  0.00     0.023 C 
BRANCH   7   9
ATOM      9  C   UNL     1      -1.184  -1.144  -0.354  1.00  0.00    -0.036 A 
ATOM     10  C   UNL     1      -1.978   0.011  -0.291  1.00  0.00     0.005 A 
ATOM     11  C   UNL     1      -1.847  -2.377  -0.475  1.00  0.00     0.005 A 
ATOM     12  C   UNL     1      -3.373  -0.066  -0.295  1.00  0.00     0.009 A 
ATOM     13  C   UNL     1      -3.247  -2.455  -0.462  1.00  0.00     0.009 A 
ATOM     14  C   UNL     1      -4.031  -1.299  -0.362  1.00  0.00    -0.018 A 
BRANCH  14  15
ATOM     15  C   UNL     1      -5.496  -1.353  -0.290  1.00  0.00    -0.018 A 
ATOM     16  C   UNL     1      -6.288  -0.673  -1.229  1.00  0.00     0.009 A 
ATOM     17  C   UNL     1      -6.140  -2.028   0.759  1.00  0.00     0.009 A 
ATOM     18  C   UNL     1      -7.680  -0.655  -1.116  1.00  0.00     0.001 A 
ATOM     19  C   UNL     1      -7.532  -2.009   0.875  1.00  0.00     0.001 A 
ATOM     20  C   UNL     1      -8.301  -1.319  -0.060  1.00  0.00     0.000 A 
ENDBRANCH  14  15
ENDBRANCH   7   9
ENDBRANCH   4   7
ENDBRANCH   2   3
ENDBRANCH   1   2
BRANCH   1  21
ATOM     21  C   UNL     1       5.042  -1.791   1.583  1.00  0.00     0.118 C 
BRANCH  21  22
ATOM     22  N   UNL     1       5.995  -2.763   1.078  1.00  0.00    -0.352 N 
ATOM     23  C   UNL     1       7.336  -2.889   1.331  1.00  0.00     0.251 C 
ATOM     24  H   UNL     1       5.621  -3.432   0.460  1.00  0.00     0.163 HD
ATOM     25  O   UNL     1       7.997  -3.671   0.645  1.00  0.00    -0.269 OA
BRANCH  23  26
ATOM     26  C   UNL     1       7.999  -2.100   2.396  1.00  0.00     0.039 A 
ATOM     27  C   UNL     1       9.302  -1.642   2.171  1.00  0.00     0.014 A 
ATOM     28  C   UNL     1       7.387  -1.864   3.631  1.00  0.00     0.014 A 
ATOM     29  C   UNL     1       9.976  -0.932   3.169  1.00  0.00     0.010 A 
ATOM     30  C   UNL     1       8.032  -1.091   4.597  1.00  0.00     0.010 A 
ATOM     31  C   UNL     1       9.343  -0.640   4.387  1.00  0.00    -0.014 A 
BRANCH  31  32
ATOM     32  C   UNL     1      10.065   0.084   5.466  1.00  0.00     0.031 A 
ATOM     33  C   UNL     1      10.376  -0.612   6.766  1.00  0.00     0.074 A 
ATOM     34  C   UNL     1      10.417   1.372   5.292  1.00  0.00     0.049 A 
ATOM     35  N   UNL     1      10.974  -0.146   7.832  1.00  0.00    -0.248 NA
ATOM     36  C   UNL     1       9.931  -2.010   6.893  1.00  0.00     0.031 C 
ATOM     37  C   UNL     1      10.127   2.175   4.102  1.00  0.00     0.029 A 
ATOM     38  N   UNL     1      11.091   2.236   6.119  1.00  0.00    -0.354 N 
ATOM     39  C   UNL     1      10.967  -1.185   8.757  1.00  0.00     0.074 A 
ATOM     40  C   UNL     1      10.252  -2.285   8.148  1.00  0.00     0.031 C 
ATOM     41  C   UNL     1      10.635   3.407   4.269  1.00  0.00     0.029 A 
ATOM     42  C   UNL     1      11.267   3.489   5.582  1.00  0.00     0.049 A 
ATOM     43  H   UNL     1      11.418   1.981   7.011  1.00  0.00     0.167 HD
ATOM     44  C   UNL     1      11.528  -1.231   9.989  1.00  0.00     0.037 A 
ATOM     45  C   UNL     1      11.872   4.580   6.090  1.00  0.00     0.037 A 
ATOM     46  C   UNL     1      12.261  -0.143  10.583  1.00  0.00     0.049 A 
ATOM     47  C   UNL     1      12.524   4.496   7.443  1.00  0.00     0.074 A 
ATOM     48  C   UNL     1      12.897  -0.099  11.811  1.00  0.00     0.029 A 
ATOM     49  N   UNL     1      12.461   1.093   9.986  1.00  0.00    -0.354 N 
ATOM     50  N   UNL     1      12.551   3.489   8.284  1.00  0.00    -0.248 NA
ATOM     51  C   UNL     1      13.246   5.688   7.908  1.00  0.00     0.031 C 
ATOM     52  C   UNL     1      13.462   1.173  11.967  1.00  0.00     0.029 A 
ATOM     53  C   UNL     1      13.210   1.907  10.819  1.00  0.00     0.049 A 
ATOM     54  H   UNL     1      12.120   1.354   9.099  1.00  0.00     0.167 HD
ATOM     55  C   UNL     1      13.312   3.916   9.366  1.00  0.00     0.074 A 
ATOM     56  C   UNL     1      13.738   5.269   9.066  1.00  0.00     0.031 C 
ATOM     57  C   UNL     1      13.632   3.249  10.502  1.00  0.00     0.037 A 
BRANCH  44  58
ATOM     58  C   UNL     1      11.376  -2.509  10.768  1.00  0.00     0.058 A 
ATOM     59  C   UNL     1      12.045  -3.685  10.387  1.00  0.00     0.135 A 
ATOM     60  C   UNL     1      10.559  -2.564  11.909  1.00  0.00     0.135 A 
ATOM     61  F   UNL     1      12.827  -3.693   9.296  1.00  0.00    -0.206 F 
ATOM     62  C   UNL     1      11.876  -4.878  11.082  1.00  0.00     0.059 A 
ATOM     63  C   UNL     1      10.397  -3.740  12.636  1.00  0.00     0.059 A 
ATOM     64  F   UNL     1       9.898  -1.470  12.320  1.00  0.00    -0.206 F 
ATOM     65  C   UNL     1      11.044  -4.897  12.202  1.00  0.00     0.060 A 
BRANCH  65  66
ATOM     66  S   UNL     1      10.818  -6.456  13.084  1.00  0.00     0.124 S 
ATOM     67  O   UNL     1       9.916  -7.169  12.184  1.00  0.00    -0.237 OA
ATOM     68  O   UNL     1      12.180  -6.976  13.157  1.00  0.00    -0.237 OA
ATOM     69  O   UNL     1      10.238  -6.045  14.358  1.00  0.00    -0.744 OA
ENDBRANCH  65  66
ENDBRANCH  44  58
BRANCH  45  70
ATOM     70  C   UNL     1      11.921   5.833   5.291  1.00  0.00     0.058 A 
ATOM     71  C   UNL     1      13.114   6.261   4.689  1.00  0.00     0.135 A 
ATOM     72  C   UNL     1      10.770   6.608   5.086  1.00  0.00     0.135 A 
ATOM     73  F   UNL     1      14.242   5.555   4.861  1.00  0.00    -0.206 F 
ATOM     74  C   UNL     1      13.167   7.419   3.921  1.00  0.00     0.059 A 
ATOM     75  C   UNL     1      10.793   7.758   4.303  1.00  0.00     0.059 A 
ATOM     76  F   UNL     1       9.600   6.230   5.625  1.00  0.00    -0.206 F 
ATOM     77  C   UNL     1      11.999   8.159   3.730  1.00  0.00     0.060 A 
BRANCH  77  78
ATOM     78  S   UNL     1      12.062   9.624   2.675  1.00  0.00     0.124 S 
ATOM     79  O   UNL     1      12.729  10.584   3.546  1.00  0.00    -0.237 OA
ATOM     80  O   UNL     1      12.839   9.149   1.534  1.00  0.00    -0.237 OA
ATOM     81  O   UNL     1      10.656   9.895   2.395  1.00  0.00    -0.744 OA
ENDBRANCH  77  78
ENDBRANCH  45  70
BRANCH  57  82
ATOM     82  C   UNL     1      14.516   3.957  11.491  1.00  0.00     0.058 A 
ATOM     83  C   UNL     1      14.039   5.009  12.288  1.00  0.00     0.135 A 
ATOM     84  C   UNL     1      15.850   3.554  11.664  1.00  0.00     0.135 A 
ATOM     85  F   UNL     1      12.772   5.434  12.158  1.00  0.00    -0.206 F 
ATOM     86  C   UNL     1      14.862   5.658  13.202  1.00  0.00     0.059 A 
ATOM     87  C   UNL     1      16.684   4.172  12.590  1.00  0.00     0.059 A 
ATOM     88  F   UNL     1      16.352   2.545  10.935  1.00  0.00    -0.206 F 
ATOM     89  C   UNL     1      16.185   5.234  13.343  1.00  0.00     0.060 A 
BRANCH  89  90
ATOM     90  S   UNL     1      17.243   6.073  14.542  1.00  0.00     0.124 S 
ATOM     91  O   UNL     1      17.561   7.310  13.837  1.00  0.00    -0.237 OA
ATOM     92  O   UNL     1      16.361   6.212  15.698  1.00  0.00    -0.237 OA
ATOM     93  O   UNL     1      18.356   5.146  14.720  1.00  0.00    -0.744 OA
ENDBRANCH  89  90
ENDBRANCH  57  82
ENDBRANCH  31  32
ENDBRANCH  23  26
ENDBRANCH  21  22
ENDBRANCH   1  21
TORSDOF 15
