REMARK SMILES O=C(C[C@@H](C(=O)N(c1ccccc1)c1ccccc1)[NH+]1CCOCC1)NCCCNC(=O)c1ccc(-c2c3nc(c(-c4c(F)cc(S(=O)(=O)[O-])cc4F)c4ccc([nH]4)c(-c4c(F)cc(S(=O)(=O)[O-])cc4F)c4nc(c(-c5c(F)cc(S(=O)(=O)[O-])cc5F)c5ccc2[nH]5)C=C4)C=C3)cc1
REMARK SMILES IDX 28 1 27 2 26 3 1 4 2 5 3 7 4 8 5 9 6 10 7 11 8 12 9 13 13 14
REMARK SMILES IDX 10 15 12 16 11 17 14 18 15 19 19 20 16 21 18 22 17 23 20 24
REMARK SMILES IDX 21 25 25 26 22 28 24 29 23 30 29 31 30 32 31 33 32 35 33 36
REMARK SMILES IDX 34 37 98 38 35 39 97 40 36 41 37 42 38 43 91 44 39 45 96 46
REMARK SMILES IDX 90 47 92 48 40 49 95 50 89 51 88 52 41 54 75 55 54 56 74 57
REMARK SMILES IDX 55 58 58 59 73 60 93 61 56 62 57 63 72 65 94 66 59 67 42 68
REMARK SMILES IDX 43 69 52 70 44 71 45 72 51 73 53 74 46 75 47 76 48 77 49 78
REMARK SMILES IDX 50 79 76 80 77 81 86 82 78 83 79 84 85 85 87 86 80 87 81 88
REMARK SMILES IDX 82 89 83 90 84 91 60 92 61 93 70 94 62 95 63 96 69 97 71 98
REMARK SMILES IDX 64 99 65 100 66 101 67 102 68 103
REMARK H PARENT 26 6 20 27 30 34 92 53 58 64
REMARK Flexibility Score: inf
ROOT
ATOM      1  C   UNL     1       2.083   3.818  -0.377  1.00  0.00     0.042 C 
ENDROOT
BRANCH   1   2
ATOM      2  C   UNL     1       1.913   2.305  -0.420  1.00  0.00     0.117 C 
BRANCH   2   3
ATOM      3  N   UNL     1       2.823   1.532   0.417  1.00  0.00    -0.356 N 
ATOM      4  O   UNL     1       1.205   0.076   1.161  1.00  0.00    -0.275 OA
ATOM      5  C   UNL     1       2.390   0.385   1.059  1.00  0.00     0.226 C 
ATOM      6  H   UNL     1       3.755   1.829   0.527  1.00  0.00     0.163 HD
BRANCH   5   7
ATOM      7  C   UNL     1       3.478  -0.563   1.533  1.00  0.00     0.175 C 
BRANCH   7   8
ATOM      8  C   UNL     1       3.938  -1.500   0.389  1.00  0.00     0.284 C 
BRANCH   8   9
ATOM      9  C   UNL     1       4.668  -0.616  -0.633  1.00  0.00     0.290 C 
ATOM     10  O   UNL     1       5.659   0.011  -0.210  1.00  0.00    -0.267 OA
ATOM     11  N   UNL     1       4.269  -0.470  -1.976  1.00  0.00    -0.276 N 
BRANCH  11  12
ATOM     12  C   UNL     1       2.925  -0.432  -2.554  1.00  0.00     0.049 A 
ATOM     13  C   UNL     1       2.715   0.158  -3.826  1.00  0.00     0.027 A 
ATOM     14  C   UNL     1       1.749  -0.809  -1.891  1.00  0.00     0.027 A 
ATOM     15  C   UNL     1       1.436   0.461  -4.325  1.00  0.00     0.002 A 
ATOM     16  C   UNL     1       0.464  -0.515  -2.384  1.00  0.00     0.002 A 
ATOM     17  C   UNL     1       0.307   0.145  -3.589  1.00  0.00     0.000 A 
ENDBRANCH  11  12
BRANCH  11  18
ATOM     18  C   UNL     1       5.295   0.119  -2.796  1.00  0.00     0.049 A 
ATOM     19  C   UNL     1       5.599   1.480  -2.657  1.00  0.00     0.027 A 
ATOM     20  C   UNL     1       6.089  -0.682  -3.620  1.00  0.00     0.027 A 
ATOM     21  C   UNL     1       6.673   2.043  -3.339  1.00  0.00     0.002 A 
ATOM     22  C   UNL     1       7.178  -0.118  -4.292  1.00  0.00     0.002 A 
ATOM     23  C   UNL     1       7.467   1.242  -4.152  1.00  0.00     0.000 A 
ENDBRANCH  11  18
ENDBRANCH   8   9
BRANCH   8  24
ATOM     24  N   UNL     1       4.762  -2.604   1.004  1.00  0.00    -0.320 N 
ATOM     25  C   UNL     1       6.230  -2.575   0.831  1.00  0.00     0.291 C 
ATOM     26  C   UNL     1       4.287  -3.953   0.628  1.00  0.00     0.291 C 
ATOM     27  H   UNL     1       4.604  -2.399   1.990  1.00  0.00     0.348 HD
ATOM     28  C   UNL     1       6.724  -3.096  -0.533  1.00  0.00     0.221 C 
ATOM     29  C   UNL     1       4.769  -4.402  -0.758  1.00  0.00     0.221 C 
ATOM     30  O   UNL     1       6.200  -4.401  -0.826  1.00  0.00    -0.370 OA
ENDBRANCH   8  24
ENDBRANCH   7   8
ENDBRANCH   5   7
ENDBRANCH   2   3
ENDBRANCH   1   2
BRANCH   1  31
ATOM     31  C   UNL     1       3.346   4.348  -1.044  1.00  0.00     0.118 C 
BRANCH  31  32
ATOM     32  N   UNL     1       3.442   4.102  -2.478  1.00  0.00    -0.352 N 
ATOM     33  C   UNL     1       4.222   4.731  -3.426  1.00  0.00     0.251 C 
ATOM     34  H   UNL     1       2.865   3.381  -2.820  1.00  0.00     0.163 HD
ATOM     35  O   UNL     1       4.159   4.360  -4.597  1.00  0.00    -0.269 OA
BRANCH  33  36
ATOM     36  C   UNL     1       5.080   5.890  -3.065  1.00  0.00     0.039 A 
ATOM     37  C   UNL     1       5.154   6.963  -3.960  1.00  0.00     0.014 A 
ATOM     38  C   UNL     1       5.760   5.967  -1.849  1.00  0.00     0.014 A 
ATOM     39  C   UNL     1       5.783   8.150  -3.576  1.00  0.00     0.010 A 
ATOM     40  C   UNL     1       6.303   7.178  -1.428  1.00  0.00     0.010 A 
ATOM     41  C   UNL     1       6.292   8.293  -2.275  1.00  0.00    -0.014 A 
BRANCH  41  42
ATOM     42  C   UNL     1       6.728   9.618  -1.763  1.00  0.00     0.031 A 
ATOM     43  C   UNL     1       8.142   9.845  -1.306  1.00  0.00     0.074 A 
ATOM     44  C   UNL     1       5.808  10.595  -1.628  1.00  0.00     0.049 A 
ATOM     45  N   UNL     1       8.683  10.928  -0.810  1.00  0.00    -0.248 NA
ATOM     46  C   UNL     1       9.061   8.698  -1.383  1.00  0.00     0.031 C 
ATOM     47  C   UNL     1       4.381  10.464  -1.946  1.00  0.00     0.029 A 
ATOM     48  N   UNL     1       5.925  11.889  -1.186  1.00  0.00    -0.354 N 
ATOM     49  C   UNL     1       9.998  10.594  -0.510  1.00  0.00     0.074 A 
ATOM     50  C   UNL     1      10.157   9.190  -0.823  1.00  0.00     0.031 C 
ATOM     51  C   UNL     1       3.768  11.637  -1.726  1.00  0.00     0.029 A 
ATOM     52  C   UNL     1       4.745  12.596  -1.224  1.00  0.00     0.049 A 
ATOM     53  H   UNL     1       6.774  12.275  -0.870  1.00  0.00     0.167 HD
ATOM     54  C   UNL     1      10.990  11.391  -0.043  1.00  0.00     0.037 A 
ATOM     55  C   UNL     1       4.481  13.877  -0.902  1.00  0.00     0.037 A 
ATOM     56  C   UNL     1      10.826  12.792   0.246  1.00  0.00     0.049 A 
ATOM     57  C   UNL     1       5.608  14.755  -0.435  1.00  0.00     0.074 A 
ATOM     58  C   UNL     1      11.778  13.703   0.669  1.00  0.00     0.029 A 
ATOM     59  N   UNL     1       9.629  13.487   0.139  1.00  0.00    -0.354 N 
ATOM     60  N   UNL     1       6.867  14.442  -0.238  1.00  0.00    -0.248 NA
ATOM     61  C   UNL     1       5.286  16.162  -0.163  1.00  0.00     0.031 C 
ATOM     62  C   UNL     1      11.151  14.941   0.846  1.00  0.00     0.029 A 
ATOM     63  C   UNL     1       9.817  14.812   0.493  1.00  0.00     0.049 A 
ATOM     64  H   UNL     1       8.773  13.095  -0.147  1.00  0.00     0.167 HD
ATOM     65  C   UNL     1       7.494  15.620   0.151  1.00  0.00     0.074 A 
ATOM     66  C   UNL     1       6.477  16.652   0.152  1.00  0.00     0.031 C 
ATOM     67  C   UNL     1       8.794  15.828   0.475  1.00  0.00     0.037 A 
BRANCH  54  68
ATOM     68  C   UNL     1      12.342  10.765   0.167  1.00  0.00     0.058 A 
ATOM     69  C   UNL     1      13.137  10.360  -0.918  1.00  0.00     0.135 A 
ATOM     70  C   UNL     1      12.861  10.587   1.459  1.00  0.00     0.135 A 
ATOM     71  F   UNL     1      12.685  10.494  -2.175  1.00  0.00    -0.206 F 
ATOM     72  C   UNL     1      14.381   9.767  -0.729  1.00  0.00     0.059 A 
ATOM     73  C   UNL     1      14.116  10.021   1.671  1.00  0.00     0.059 A 
ATOM     74  F   UNL     1      12.146  10.958   2.532  1.00  0.00    -0.206 F 
ATOM     75  C   UNL     1      14.860   9.598   0.571  1.00  0.00     0.060 A 
BRANCH  75  76
ATOM     76  S   UNL     1      16.473   8.819   0.800  1.00  0.00     0.124 S 
ATOM     77  O   UNL     1      16.161   7.420   0.520  1.00  0.00    -0.237 OA
ATOM     78  O   UNL     1      17.293   9.496  -0.199  1.00  0.00    -0.237 OA
ATOM     79  O   UNL     1      16.803   9.123   2.189  1.00  0.00    -0.744 OA
ENDBRANCH  75  76
ENDBRANCH  54  68
BRANCH  55  80
ATOM     80  C   UNL     1       3.105  14.416  -1.067  1.00  0.00     0.058 A 
ATOM     81  C   UNL     1       2.806  15.319  -2.099  1.00  0.00     0.135 A 
ATOM     82  C   UNL     1       2.059  14.027  -0.217  1.00  0.00     0.135 A 
ATOM     83  F   UNL     1       3.773  15.721  -2.938  1.00  0.00    -0.206 F 
ATOM     84  C   UNL     1       1.525  15.833  -2.271  1.00  0.00     0.059 A 
ATOM     85  C   UNL     1       0.763  14.509  -0.383  1.00  0.00     0.059 A 
ATOM     86  F   UNL     1       2.287  13.148   0.772  1.00  0.00    -0.206 F 
ATOM     87  C   UNL     1       0.509  15.421  -1.407  1.00  0.00     0.060 A 
BRANCH  87  88
ATOM     88  S   UNL     1      -1.161  16.059  -1.667  1.00  0.00     0.124 S 
ATOM     89  O   UNL     1      -1.035  17.423  -1.165  1.00  0.00    -0.237 OA
ATOM     90  O   UNL     1      -1.322  15.921  -3.111  1.00  0.00    -0.237 OA
ATOM     91  O   UNL     1      -1.989  15.164  -0.864  1.00  0.00    -0.744 OA
ENDBRANCH  87  88
ENDBRANCH  55  80
BRANCH  67  92
ATOM     92  C   UNL     1       9.199  17.234   0.816  1.00  0.00     0.058 A 
ATOM     93  C   UNL     1       8.840  17.832   2.034  1.00  0.00     0.135 A 
ATOM     94  C   UNL     1       9.990  17.977  -0.074  1.00  0.00     0.135 A 
ATOM     95  F   UNL     1       8.079  17.165   2.916  1.00  0.00    -0.206 F 
ATOM     96  C   UNL     1       9.230  19.130   2.346  1.00  0.00     0.059 A 
ATOM     97  C   UNL     1      10.413  19.267   0.229  1.00  0.00     0.059 A 
ATOM     98  F   UNL     1      10.368  17.446  -1.248  1.00  0.00    -0.206 F 
ATOM     99  C   UNL     1      10.015  19.840   1.436  1.00  0.00     0.060 A 
BRANCH  99 100
ATOM    100  S   UNL     1      10.537  21.515   1.862  1.00  0.00     0.124 S 
ATOM    101  O   UNL     1       9.313  22.272   1.627  1.00  0.00    -0.237 OA
ATOM    102  O   UNL     1      10.938  21.374   3.259  1.00  0.00    -0.237 OA
ATOM    103  O   UNL     1      11.628  21.777   0.928  1.00  0.00    -0.744 OA
ENDBRANCH  99 100
ENDBRANCH  67  92
ENDBRANCH  41  42
ENDBRANCH  33  36
ENDBRANCH  31  32
ENDBRANCH   1  31
TORSDOF 18
