REMARK SMILES CS(=O)(=O)c1ccc(/C=C(/C(=O)NCCCNC(=O)c2ccc(-c3c4nc(c(-c5c(F)cc(S(=O)(=O)[O-])cc5F)c5ccc([nH]5)c(-c5c(F)cc(S(=O)(=O)[O-])cc5F)c5nc(c(-c6c(F)cc(S(=O)(=O)[O-])cc6F)c6ccc3[nH]6)C=C5)C=C4)cc2)c2ccc(-c3ccc(S(C)(=O)=O)cc3)cc2)cc1
REMARK SMILES IDX 15 1 14 2 13 3 11 4 12 5 10 7 9 8 8 9 5 10 6 11 103 12 7 13
REMARK SMILES IDX 102 14 2 15 1 16 3 17 4 18 86 19 87 20 101 21 88 22 100 23
REMARK SMILES IDX 89 24 90 25 91 26 99 27 92 28 98 29 93 30 94 31 95 32 96 33
REMARK SMILES IDX 97 34 16 35 17 36 18 37 19 39 20 40 21 41 85 42 22 43 84 44
REMARK SMILES IDX 23 45 24 46 25 47 78 48 26 49 83 50 77 51 79 52 27 53 82 54
REMARK SMILES IDX 76 55 75 56 28 58 62 59 41 60 61 61 42 62 45 63 60 64 80 65
REMARK SMILES IDX 43 66 44 67 59 69 81 70 46 71 29 72 30 73 39 74 31 75 32 76
REMARK SMILES IDX 38 77 40 78 33 79 34 80 35 81 36 82 37 83 63 84 64 85 73 86
REMARK SMILES IDX 65 87 66 88 72 89 74 90 67 91 68 92 69 93 70 94 71 95 47 96
REMARK SMILES IDX 48 97 57 98 49 99 50 100 56 101 58 102 51 103 52 104 53 105
REMARK SMILES IDX 54 106 55 107
REMARK H PARENT 13 6 17 38 79 57 45 68
REMARK Flexibility Score: inf
ROOT
ATOM      1  C   UNL     1       3.200  -6.925   6.757  1.00  0.00     0.042 C 
ENDROOT
BRANCH   1   2
ATOM      2  C   UNL     1       3.736  -7.118   5.337  1.00  0.00     0.118 C 
BRANCH   2   3
ATOM      3  N   UNL     1       2.944  -8.093   4.610  1.00  0.00    -0.352 N 
ATOM      4  C   UNL     1       1.981  -8.014   3.656  1.00  0.00     0.251 C 
ATOM      5  O   UNL     1       1.524  -9.092   3.265  1.00  0.00    -0.269 OA
ATOM      6  H   UNL     1       3.153  -9.021   4.865  1.00  0.00     0.163 HD
BRANCH   4   7
ATOM      7  C   UNL     1       1.526  -6.719   3.021  1.00  0.00     0.047 C 
ATOM      8  C   UNL     1       1.466  -5.557   3.713  1.00  0.00     0.022 C 
BRANCH   8   9
ATOM      9  C   UNL     1       1.121  -4.193   3.249  1.00  0.00    -0.025 A 
ATOM     10  C   UNL     1       0.676  -1.567   2.355  1.00  0.00     0.067 A 
ATOM     11  C   UNL     1      -0.180  -2.592   1.952  1.00  0.00     0.021 A 
ATOM     12  C   UNL     1       1.712  -1.822   3.253  1.00  0.00     0.021 A 
ATOM     13  C   UNL     1       0.034  -3.894   2.417  1.00  0.00     0.009 A 
ATOM     14  C   UNL     1       1.931  -3.133   3.692  1.00  0.00     0.009 A 
BRANCH  10  15
ATOM     15  S   UNL     1       0.419   0.080   1.739  1.00  0.00     0.175 S 
ATOM     16  C   UNL     1       1.152   0.032   0.124  1.00  0.00     0.163 C 
ATOM     17  O   UNL     1       1.201   0.989   2.549  1.00  0.00    -0.224 OA
ATOM     18  O   UNL     1      -1.013   0.264   1.575  1.00  0.00    -0.224 OA
ENDBRANCH  10  15
ENDBRANCH   8   9
BRANCH   7  19
ATOM     19  C   UNL     1       0.944  -6.814   1.658  1.00  0.00    -0.013 A 
ATOM     20  C   UNL     1      -0.267  -7.502   1.502  1.00  0.00     0.009 A 
ATOM     21  C   UNL     1       1.493  -6.160   0.550  1.00  0.00     0.009 A 
ATOM     22  C   UNL     1      -0.951  -7.480   0.287  1.00  0.00     0.009 A 
ATOM     23  C   UNL     1       0.791  -6.123  -0.665  1.00  0.00     0.009 A 
ATOM     24  C   UNL     1      -0.459  -6.752  -0.806  1.00  0.00    -0.018 A 
BRANCH  24  25
ATOM     25  C   UNL     1      -1.273  -6.610  -2.028  1.00  0.00    -0.018 A 
ATOM     26  C   UNL     1      -2.644  -6.297  -1.932  1.00  0.00     0.010 A 
ATOM     27  C   UNL     1      -0.722  -6.761  -3.311  1.00  0.00     0.010 A 
ATOM     28  C   UNL     1      -3.441  -6.150  -3.067  1.00  0.00     0.021 A 
ATOM     29  C   UNL     1      -1.512  -6.617  -4.458  1.00  0.00     0.021 A 
ATOM     30  C   UNL     1      -2.870  -6.324  -4.327  1.00  0.00     0.067 A 
BRANCH  30  31
ATOM     31  S   UNL     1      -3.893  -6.142  -5.765  1.00  0.00     0.175 S 
ATOM     32  C   UNL     1      -4.982  -7.540  -5.683  1.00  0.00     0.163 C 
ATOM     33  O   UNL     1      -4.681  -4.938  -5.582  1.00  0.00    -0.224 OA
ATOM     34  O   UNL     1      -3.051  -6.309  -6.935  1.00  0.00    -0.224 OA
ENDBRANCH  30  31
ENDBRANCH  24  25
ENDBRANCH   7  19
ENDBRANCH   4   7
ENDBRANCH   2   3
ENDBRANCH   1   2
BRANCH   1  35
ATOM     35  C   UNL     1       3.364  -8.155   7.654  1.00  0.00     0.118 C 
BRANCH  35  36
ATOM     36  N   UNL     1       4.760  -8.439   7.948  1.00  0.00    -0.352 N 
ATOM     37  C   UNL     1       5.405  -8.533   9.156  1.00  0.00     0.251 C 
ATOM     38  H   UNL     1       5.330  -8.587   7.159  1.00  0.00     0.163 HD
ATOM     39  O   UNL     1       6.633  -8.565   9.177  1.00  0.00    -0.269 OA
BRANCH  37  40
ATOM     40  C   UNL     1       4.644  -8.588  10.424  1.00  0.00     0.039 A 
ATOM     41  C   UNL     1       5.116  -7.863  11.523  1.00  0.00     0.014 A 
ATOM     42  C   UNL     1       3.506  -9.389  10.555  1.00  0.00     0.014 A 
ATOM     43  C   UNL     1       4.421  -7.902  12.735  1.00  0.00     0.010 A 
ATOM     44  C   UNL     1       2.782  -9.383  11.748  1.00  0.00     0.010 A 
ATOM     45  C   UNL     1       3.234  -8.642  12.851  1.00  0.00    -0.014 A 
BRANCH  45  46
ATOM     46  C   UNL     1       2.453  -8.653  14.115  1.00  0.00     0.031 A 
ATOM     47  C   UNL     1       2.311  -9.923  14.909  1.00  0.00     0.074 A 
ATOM     48  C   UNL     1       1.820  -7.532  14.515  1.00  0.00     0.049 A 
ATOM     49  N   UNL     1       1.605 -10.148  15.988  1.00  0.00    -0.248 NA
ATOM     50  C   UNL     1       3.038 -11.101  14.412  1.00  0.00     0.031 C 
ATOM     51  C   UNL     1       1.847  -6.249  13.809  1.00  0.00     0.029 A 
ATOM     52  N   UNL     1       1.019  -7.295  15.604  1.00  0.00    -0.354 N 
ATOM     53  C   UNL     1       1.787 -11.493  16.288  1.00  0.00     0.074 A 
ATOM     54  C   UNL     1       2.638 -12.043  15.254  1.00  0.00     0.031 C 
ATOM     55  C   UNL     1       1.108  -5.358  14.490  1.00  0.00     0.029 A 
ATOM     56  C   UNL     1       0.530  -6.012  15.660  1.00  0.00     0.049 A 
ATOM     57  H   UNL     1       0.814  -7.980  16.281  1.00  0.00     0.167 HD
ATOM     58  C   UNL     1       1.304 -12.201  17.338  1.00  0.00     0.037 A 
ATOM     59  C   UNL     1      -0.298  -5.429  16.548  1.00  0.00     0.037 A 
ATOM     60  C   UNL     1       0.482 -11.642  18.381  1.00  0.00     0.049 A 
ATOM     61  C   UNL     1      -0.810  -6.230  17.713  1.00  0.00     0.074 A 
ATOM     62  C   UNL     1      -0.010 -12.263  19.515  1.00  0.00     0.029 A 
ATOM     63  N   UNL     1       0.034 -10.330  18.418  1.00  0.00    -0.354 N 
ATOM     64  N   UNL     1      -0.586  -7.489  18.008  1.00  0.00    -0.248 NA
ATOM     65  C   UNL     1      -1.681  -5.533  18.669  1.00  0.00     0.031 C 
ATOM     66  C   UNL     1      -0.782 -11.335  20.223  1.00  0.00     0.029 A 
ATOM     67  C   UNL     1      -0.739 -10.125  19.549  1.00  0.00     0.049 A 
ATOM     68  H   UNL     1       0.236  -9.645  17.741  1.00  0.00     0.167 HD
ATOM     69  C   UNL     1      -1.269  -7.728  19.195  1.00  0.00     0.074 A 
ATOM     70  C   UNL     1      -1.905  -6.481  19.569  1.00  0.00     0.031 C 
ATOM     71  C   UNL     1      -1.360  -8.875  19.911  1.00  0.00     0.037 A 
BRANCH  58  72
ATOM     72  C   UNL     1       1.656 -13.661  17.412  1.00  0.00     0.058 A 
ATOM     73  C   UNL     1       2.955 -14.088  17.733  1.00  0.00     0.135 A 
ATOM     74  C   UNL     1       0.680 -14.645  17.187  1.00  0.00     0.135 A 
ATOM     75  F   UNL     1       3.929 -13.189  17.944  1.00  0.00    -0.206 F 
ATOM     76  C   UNL     1       3.282 -15.439  17.796  1.00  0.00     0.059 A 
ATOM     77  C   UNL     1       0.979 -16.002  17.269  1.00  0.00     0.059 A 
ATOM     78  F   UNL     1      -0.577 -14.292  16.879  1.00  0.00    -0.206 F 
ATOM     79  C   UNL     1       2.287 -16.389  17.557  1.00  0.00     0.060 A 
BRANCH  79  80
ATOM     80  S   UNL     1       2.727 -18.138  17.635  1.00  0.00     0.124 S 
ATOM     81  O   UNL     1       3.438 -18.314  16.372  1.00  0.00    -0.237 OA
ATOM     82  O   UNL     1       3.549 -18.203  18.839  1.00  0.00    -0.237 OA
ATOM     83  O   UNL     1       1.434 -18.809  17.726  1.00  0.00    -0.744 OA
ENDBRANCH  79  80
ENDBRANCH  58  72
BRANCH  59  84
ATOM     84  C   UNL     1      -0.675  -4.001  16.381  1.00  0.00     0.058 A 
ATOM     85  C   UNL     1      -0.150  -3.016  17.230  1.00  0.00     0.135 A 
ATOM     86  C   UNL     1      -1.546  -3.591  15.360  1.00  0.00     0.135 A 
ATOM     87  F   UNL     1       0.682  -3.362  18.224  1.00  0.00    -0.206 F 
ATOM     88  C   UNL     1      -0.485  -1.675  17.082  1.00  0.00     0.059 A 
ATOM     89  C   UNL     1      -1.879  -2.253  15.179  1.00  0.00     0.059 A 
ATOM     90  F   UNL     1      -2.060  -4.495  14.512  1.00  0.00    -0.206 F 
ATOM     91  C   UNL     1      -1.349  -1.302  16.051  1.00  0.00     0.060 A 
BRANCH  91  92
ATOM     92  S   UNL     1      -1.733   0.449  15.831  1.00  0.00     0.124 S 
ATOM     93  O   UNL     1      -2.678   0.680  16.918  1.00  0.00    -0.237 OA
ATOM     94  O   UNL     1      -0.422   1.073  15.980  1.00  0.00    -0.237 OA
ATOM     95  O   UNL     1      -2.292   0.500  14.484  1.00  0.00    -0.744 OA
ENDBRANCH  91  92
ENDBRANCH  59  84
BRANCH  71  96
ATOM     96  C   UNL     1      -2.151  -8.831  21.187  1.00  0.00     0.058 A 
ATOM     97  C   UNL     1      -3.554  -8.800  21.182  1.00  0.00     0.135 A 
ATOM     98  C   UNL     1      -1.498  -8.867  22.429  1.00  0.00     0.135 A 
ATOM     99  F   UNL     1      -4.224  -8.757  20.020  1.00  0.00    -0.206 F 
ATOM    100  C   UNL     1      -4.283  -8.789  22.366  1.00  0.00     0.059 A 
ATOM    101  C   UNL     1      -2.208  -8.879  23.626  1.00  0.00     0.059 A 
ATOM    102  F   UNL     1      -0.157  -8.906  22.488  1.00  0.00    -0.206 F 
ATOM    103  C   UNL     1      -3.601  -8.828  23.584  1.00  0.00     0.060 A 
BRANCH 103 104
ATOM    104  S   UNL     1      -4.557  -8.849  25.115  1.00  0.00     0.124 S 
ATOM    105  O   UNL     1      -4.963  -7.452  25.226  1.00  0.00    -0.237 OA
ATOM    106  O   UNL     1      -5.624  -9.796  24.807  1.00  0.00    -0.237 OA
ATOM    107  O   UNL     1      -3.592  -9.304  26.111  1.00  0.00    -0.744 OA
ENDBRANCH 103 104
ENDBRANCH  71  96
ENDBRANCH  45  46
ENDBRANCH  37  40
ENDBRANCH  35  36
ENDBRANCH   1  35
TORSDOF 18
