REMARK SMILES O=C(NCCCNC(=O)[C@H]1CC=CC[C@H]1C(=O)Nc1ccc(S(=O)(=O)N2CCc3ccccc32)cc1)c1ccc(-c2c3nc(c(-c4c(F)cc(S(=O)(=O)[O-])cc4F)c4ccc([nH]4)c(-c4c(F)cc(S(=O)(=O)[O-])cc4F)c4nc(c(-c5c(F)cc(S(=O)(=O)[O-])cc5F)c5ccc2[nH]5)C=C4)C=C3)cc1
REMARK SMILES IDX 5 1 4 2 3 3 1 4 2 5 37 7 38 8 102 9 39 10 101 11 40 12 41 13
REMARK SMILES IDX 42 14 95 15 43 16 100 17 94 18 96 19 44 20 99 21 93 22 92 23
REMARK SMILES IDX 45 25 79 26 58 27 78 28 59 29 62 30 77 31 97 32 60 33 61 34
REMARK SMILES IDX 76 36 98 37 63 38 46 39 47 40 56 41 48 42 49 43 55 44 57 45
REMARK SMILES IDX 50 46 51 47 52 48 53 49 54 50 80 51 81 52 90 53 82 54 83 55
REMARK SMILES IDX 89 56 91 57 84 58 85 59 86 60 87 61 88 62 64 63 65 64 74 65
REMARK SMILES IDX 66 66 67 67 73 68 75 69 68 70 69 71 70 72 71 73 72 74 6 75
REMARK SMILES IDX 7 76 8 77 9 79 10 80 11 81 15 82 12 83 14 84 13 85 16 86
REMARK SMILES IDX 17 87 18 88 19 90 20 91 36 92 21 93 35 94 22 95 23 96 24 97
REMARK SMILES IDX 25 98 26 99 27 100 34 101 28 102 29 103 33 104 30 105 32 106
REMARK SMILES IDX 31 107
REMARK H PARENT 3 6 96 24 62 35 7 78 18 89
REMARK Flexibility Score: inf
ROOT
ATOM      1  C   UNL     1       3.178  -2.965  -0.019  1.00  0.00     0.042 C 
ENDROOT
BRANCH   1   2
ATOM      2  C   UNL     1       3.271  -1.737  -0.938  1.00  0.00     0.118 C 
BRANCH   2   3
ATOM      3  N   UNL     1       2.082  -0.897  -0.870  1.00  0.00    -0.352 N 
ATOM      4  O   UNL     1       0.583   0.570  -0.111  1.00  0.00    -0.269 OA
ATOM      5  C   UNL     1       1.760   0.204  -0.111  1.00  0.00     0.251 C 
ATOM      6  H   UNL     1       1.369  -1.171  -1.490  1.00  0.00     0.163 HD
BRANCH   5   7
ATOM      7  C   UNL     1       2.740   0.967   0.712  1.00  0.00     0.039 A 
ATOM      8  C   UNL     1       3.984   1.379   0.230  1.00  0.00     0.014 A 
ATOM      9  C   UNL     1       2.314   1.443   1.962  1.00  0.00     0.014 A 
ATOM     10  C   UNL     1       4.820   2.193   1.022  1.00  0.00     0.010 A 
ATOM     11  C   UNL     1       3.131   2.289   2.731  1.00  0.00     0.010 A 
ATOM     12  C   UNL     1       4.407   2.662   2.284  1.00  0.00    -0.014 A 
BRANCH  12  13
ATOM     13  C   UNL     1       5.281   3.553   3.118  1.00  0.00     0.031 A 
ATOM     14  C   UNL     1       5.787   3.102   4.472  1.00  0.00     0.074 A 
ATOM     15  C   UNL     1       5.606   4.793   2.690  1.00  0.00     0.049 A 
ATOM     16  N   UNL     1       6.542   3.740   5.334  1.00  0.00    -0.248 NA
ATOM     17  C   UNL     1       5.381   1.761   4.919  1.00  0.00     0.031 C 
ATOM     18  C   UNL     1       5.168   5.391   1.429  1.00  0.00     0.029 A 
ATOM     19  N   UNL     1       6.378   5.776   3.269  1.00  0.00    -0.354 N 
ATOM     20  C   UNL     1       6.686   2.891   6.429  1.00  0.00     0.074 A 
ATOM     21  C   UNL     1       5.911   1.704   6.133  1.00  0.00     0.031 C 
ATOM     22  C   UNL     1       5.701   6.619   1.315  1.00  0.00     0.029 A 
ATOM     23  C   UNL     1       6.484   6.921   2.511  1.00  0.00     0.049 A 
ATOM     24  H   UNL     1       6.815   5.669   4.145  1.00  0.00     0.167 HD
ATOM     25  C   UNL     1       7.402   3.071   7.568  1.00  0.00     0.037 A 
ATOM     26  C   UNL     1       7.125   8.085   2.746  1.00  0.00     0.037 A 
ATOM     27  C   UNL     1       8.187   4.245   7.865  1.00  0.00     0.049 A 
ATOM     28  C   UNL     1       7.905   8.267   4.023  1.00  0.00     0.074 A 
ATOM     29  C   UNL     1       8.989   4.486   8.970  1.00  0.00     0.029 A 
ATOM     30  N   UNL     1       8.264   5.378   7.069  1.00  0.00    -0.354 N 
ATOM     31  N   UNL     1       8.078   7.425   5.013  1.00  0.00    -0.248 NA
ATOM     32  C   UNL     1       8.583   9.559   4.210  1.00  0.00     0.031 C 
ATOM     33  C   UNL     1       9.505   5.783   8.868  1.00  0.00     0.029 A 
ATOM     34  C   UNL     1       9.079   6.327   7.668  1.00  0.00     0.049 A 
ATOM     35  H   UNL     1       7.807   5.491   6.204  1.00  0.00     0.167 HD
ATOM     36  C   UNL     1       8.916   8.069   5.920  1.00  0.00     0.074 A 
ATOM     37  C   UNL     1       9.219   9.368   5.358  1.00  0.00     0.031 C 
ATOM     38  C   UNL     1       9.395   7.617   7.106  1.00  0.00     0.037 A 
BRANCH  25  39
ATOM     39  C   UNL     1       7.365   1.974   8.603  1.00  0.00     0.058 A 
ATOM     40  C   UNL     1       7.984   0.731   8.392  1.00  0.00     0.135 A 
ATOM     41  C   UNL     1       6.745   2.187   9.847  1.00  0.00     0.135 A 
ATOM     42  F   UNL     1       8.588   0.466   7.222  1.00  0.00    -0.206 F 
ATOM     43  C   UNL     1       7.957  -0.272   9.357  1.00  0.00     0.059 A 
ATOM     44  C   UNL     1       6.733   1.210  10.839  1.00  0.00     0.059 A 
ATOM     45  F   UNL     1       6.146   3.358  10.111  1.00  0.00    -0.206 F 
ATOM     46  C   UNL     1       7.327  -0.024  10.578  1.00  0.00     0.060 A 
BRANCH  46  47
ATOM     47  S   UNL     1       7.295  -1.338  11.816  1.00  0.00     0.124 S 
ATOM     48  O   UNL     1       6.341  -2.271  11.226  1.00  0.00    -0.237 OA
ATOM     49  O   UNL     1       8.685  -1.782  11.836  1.00  0.00    -0.237 OA
ATOM     50  O   UNL     1       6.840  -0.657  13.025  1.00  0.00    -0.744 OA
ENDBRANCH  46  47
ENDBRANCH  25  39
BRANCH  26  51
ATOM     51  C   UNL     1       7.083   9.177   1.732  1.00  0.00     0.058 A 
ATOM     52  C   UNL     1       8.232   9.539   1.011  1.00  0.00     0.135 A 
ATOM     53  C   UNL     1       5.899   9.882   1.466  1.00  0.00     0.135 A 
ATOM     54  F   UNL     1       9.393   8.906   1.239  1.00  0.00    -0.206 F 
ATOM     55  C   UNL     1       8.213  10.567   0.074  1.00  0.00     0.059 A 
ATOM     56  C   UNL     1       5.848  10.894   0.512  1.00  0.00     0.059 A 
ATOM     57  F   UNL     1       4.770   9.572   2.122  1.00  0.00    -0.206 F 
ATOM     58  C   UNL     1       7.013  11.236  -0.173  1.00  0.00     0.060 A 
BRANCH  58  59
ATOM     59  S   UNL     1       6.989  12.535  -1.428  1.00  0.00     0.124 S 
ATOM     60  O   UNL     1       7.726  13.602  -0.763  1.00  0.00    -0.237 OA
ATOM     61  O   UNL     1       7.669  11.891  -2.548  1.00  0.00    -0.237 OA
ATOM     62  O   UNL     1       5.564  12.782  -1.628  1.00  0.00    -0.744 OA
ENDBRANCH  58  59
ENDBRANCH  26  51
BRANCH  38  63
ATOM     63  C   UNL     1      10.356   8.504   7.856  1.00  0.00     0.058 A 
ATOM     64  C   UNL     1       9.949   9.697   8.476  1.00  0.00     0.135 A 
ATOM     65  C   UNL     1      11.707   8.135   7.981  1.00  0.00     0.135 A 
ATOM     66  F   UNL     1       8.672  10.102   8.388  1.00  0.00    -0.206 F 
ATOM     67  C   UNL     1      10.852  10.509   9.159  1.00  0.00     0.059 A 
ATOM     68  C   UNL     1      12.619   8.915   8.685  1.00  0.00     0.059 A 
ATOM     69  F   UNL     1      12.152   6.999   7.420  1.00  0.00    -0.206 F 
ATOM     70  C   UNL     1      12.186  10.110   9.256  1.00  0.00     0.060 A 
BRANCH  70  71
ATOM     71  S   UNL     1      13.346  11.165  10.153  1.00  0.00     0.124 S 
ATOM     72  O   UNL     1      13.522  12.271   9.218  1.00  0.00    -0.237 OA
ATOM     73  O   UNL     1      12.607  11.477  11.372  1.00  0.00    -0.237 OA
ATOM     74  O   UNL     1      14.513  10.307  10.338  1.00  0.00    -0.744 OA
ENDBRANCH  70  71
ENDBRANCH  38  63
ENDBRANCH  12  13
ENDBRANCH   5   7
ENDBRANCH   2   3
ENDBRANCH   1   2
BRANCH   1  75
ATOM     75  C   UNL     1       3.209  -4.381  -0.653  1.00  0.00     0.117 C 
BRANCH  75  76
ATOM     76  N   UNL     1       4.149  -4.612  -1.757  1.00  0.00    -0.356 N 
ATOM     77  C   UNL     1       4.688  -5.834  -2.072  1.00  0.00     0.224 C 
ATOM     78  H   UNL     1       4.411  -3.839  -2.308  1.00  0.00     0.163 HD
ATOM     79  O   UNL     1       4.081  -6.498  -2.922  1.00  0.00    -0.275 OA
BRANCH  77  80
ATOM     80  C   UNL     1       6.080  -6.330  -1.558  1.00  0.00     0.095 C 
ATOM     81  C   UNL     1       6.945  -6.833  -2.759  1.00  0.00     0.041 C 
ATOM     82  C   UNL     1       6.906  -5.595  -0.489  1.00  0.00     0.095 C 
ATOM     83  C   UNL     1       8.250  -6.139  -3.020  1.00  0.00    -0.030 C 
ATOM     84  C   UNL     1       8.407  -5.299  -0.703  1.00  0.00     0.041 C 
ATOM     85  C   UNL     1       8.908  -5.440  -2.093  1.00  0.00    -0.030 C 
BRANCH  82  86
ATOM     86  C   UNL     1       6.286  -4.385   0.133  1.00  0.00     0.228 C 
ATOM     87  O   UNL     1       5.757  -4.493   1.247  1.00  0.00    -0.274 OA
ATOM     88  N   UNL     1       6.373  -3.143  -0.404  1.00  0.00    -0.326 N 
ATOM     89  H   UNL     1       6.197  -2.448   0.271  1.00  0.00     0.169 HD
BRANCH  88  90
ATOM     90  C   UNL     1       6.646  -2.580  -1.662  1.00  0.00     0.041 A 
ATOM     91  C   UNL     1       6.879  -1.214  -1.614  1.00  0.00     0.027 A 
ATOM     92  C   UNL     1       6.602  -3.190  -2.927  1.00  0.00     0.027 A 
ATOM     93  C   UNL     1       7.071  -0.499  -2.781  1.00  0.00     0.024 A 
ATOM     94  C   UNL     1       6.757  -2.464  -4.133  1.00  0.00     0.024 A 
ATOM     95  C   UNL     1       7.005  -1.108  -4.048  1.00  0.00     0.088 A 
BRANCH  95  96
ATOM     96  S   UNL     1       7.211   0.059  -5.360  1.00  0.00     0.264 S 
ATOM     97  O   UNL     1       6.364   1.145  -4.899  1.00  0.00    -0.201 OA
ATOM     98  O   UNL     1       8.642   0.238  -5.505  1.00  0.00    -0.201 OA
BRANCH  96  99
ATOM     99  N   UNL     1       6.590  -0.416  -6.873  1.00  0.00    -0.266 N 
ATOM    100  C   UNL     1       7.239  -1.533  -7.645  1.00  0.00     0.140 C 
ATOM    101  C   UNL     1       6.572   0.691  -7.830  1.00  0.00     0.055 A 
ATOM    102  C   UNL     1       6.911  -1.254  -9.137  1.00  0.00     0.060 C 
ATOM    103  C   UNL     1       6.713   0.226  -9.133  1.00  0.00    -0.022 A 
ATOM    104  C   UNL     1       6.399   2.050  -7.596  1.00  0.00     0.027 A 
ATOM    105  C   UNL     1       6.650   1.097 -10.217  1.00  0.00     0.006 A 
ATOM    106  C   UNL     1       6.393   2.942  -8.665  1.00  0.00     0.002 A 
ATOM    107  C   UNL     1       6.498   2.466  -9.972  1.00  0.00     0.000 A 
ENDBRANCH  96  99
ENDBRANCH  95  96
ENDBRANCH  88  90
ENDBRANCH  82  86
ENDBRANCH  77  80
ENDBRANCH  75  76
ENDBRANCH   1  75
TORSDOF 17
