REMARK SMILES O=C(NCCCNC(=O)c1ccccc1/C=C1/SC(=S)N(C2CCCC2)C1=O)c1ccc(-c2c3nc(c(-c4c(F)cc(S(=O)(=O)[O-])cc4F)c4ccc([nH]4)c(-c4c(F)cc(S(=O)(=O)[O-])cc4F)c4nc(c(-c5c(F)cc(S(=O)(=O)[O-])cc5F)c5ccc2[nH]5)C=C4)C=C3)cc1
REMARK SMILES IDX 4 1 3 2 1 3 2 4 29 6 30 7 94 8 31 9 93 10 32 11 33 12 34 13
REMARK SMILES IDX 87 14 35 15 92 16 86 17 88 18 36 19 91 20 85 21 84 22 37 24
REMARK SMILES IDX 71 25 50 26 70 27 51 28 54 29 69 30 89 31 52 32 53 33 68 35
REMARK SMILES IDX 90 36 55 37 38 38 39 39 48 40 40 41 41 42 47 43 49 44 42 45
REMARK SMILES IDX 43 46 44 47 45 48 46 49 72 50 73 51 82 52 74 53 75 54 81 55
REMARK SMILES IDX 83 56 76 57 77 58 78 59 79 60 80 61 56 62 57 63 66 64 58 65
REMARK SMILES IDX 59 66 65 67 67 68 60 69 61 70 62 71 63 72 64 73 5 74 6 75
REMARK SMILES IDX 7 76 8 77 9 79 10 80 11 81 15 82 12 83 14 84 13 85 16 86
REMARK SMILES IDX 17 87 18 88 27 89 19 90 21 91 28 92 20 93 22 94 23 95 26 96
REMARK SMILES IDX 24 97 25 98
REMARK H PARENT 3 5 88 23 54 34 7 78
REMARK Flexibility Score: inf
ROOT
ATOM      1  C   UNL     1       4.582   0.775  -1.011  1.00  0.00     0.118 C 
ENDROOT
BRANCH   1   2
ATOM      2  N   UNL     1       3.145   0.686  -0.769  1.00  0.00    -0.352 N 
ATOM      3  O   UNL     1       1.213  -0.100   0.079  1.00  0.00    -0.269 OA
ATOM      4  C   UNL     1       2.438  -0.046   0.158  1.00  0.00     0.251 C 
ATOM      5  H   UNL     1       2.592   1.240  -1.366  1.00  0.00     0.163 HD
BRANCH   4   6
ATOM      6  C   UNL     1       3.146  -0.791   1.222  1.00  0.00     0.039 A 
ATOM      7  C   UNL     1       4.245  -0.228   1.865  1.00  0.00     0.014 A 
ATOM      8  C   UNL     1       2.711  -2.070   1.585  1.00  0.00     0.014 A 
ATOM      9  C   UNL     1       5.036  -1.014   2.689  1.00  0.00     0.010 A 
ATOM     10  C   UNL     1       3.434  -2.812   2.528  1.00  0.00     0.010 A 
ATOM     11  C   UNL     1       4.631  -2.308   3.055  1.00  0.00    -0.014 A 
BRANCH  11  12
ATOM     12  C   UNL     1       5.465  -3.053   4.035  1.00  0.00     0.031 A 
ATOM     13  C   UNL     1       6.130  -4.356   3.681  1.00  0.00     0.074 A 
ATOM     14  C   UNL     1       5.696  -2.479   5.235  1.00  0.00     0.049 A 
ATOM     15  N   UNL     1       6.960  -5.072   4.397  1.00  0.00    -0.248 NA
ATOM     16  C   UNL     1       5.819  -4.941   2.368  1.00  0.00     0.031 C 
ATOM     17  C   UNL     1       5.079  -1.232   5.701  1.00  0.00     0.029 A 
ATOM     18  N   UNL     1       6.538  -2.830   6.257  1.00  0.00    -0.354 N 
ATOM     19  C   UNL     1       7.257  -6.196   3.634  1.00  0.00     0.074 A 
ATOM     20  C   UNL     1       6.498  -6.081   2.407  1.00  0.00     0.031 C 
ATOM     21  C   UNL     1       5.628  -0.878   6.870  1.00  0.00     0.029 A 
ATOM     22  C   UNL     1       6.578  -1.906   7.275  1.00  0.00     0.049 A 
ATOM     23  H   UNL     1       7.065  -3.662   6.261  1.00  0.00     0.167 HD
ATOM     24  C   UNL     1       8.091  -7.223   3.928  1.00  0.00     0.037 A 
ATOM     25  C   UNL     1       7.292  -1.886   8.415  1.00  0.00     0.037 A 
ATOM     26  C   UNL     1       8.859  -7.320   5.145  1.00  0.00     0.049 A 
ATOM     27  C   UNL     1       8.236  -3.016   8.696  1.00  0.00     0.074 A 
ATOM     28  C   UNL     1       9.728  -8.323   5.540  1.00  0.00     0.029 A 
ATOM     29  N   UNL     1       8.859  -6.373   6.160  1.00  0.00    -0.354 N 
ATOM     30  N   UNL     1       8.493  -4.072   7.962  1.00  0.00    -0.248 NA
ATOM     31  C   UNL     1       8.979  -2.959   9.960  1.00  0.00     0.031 C 
ATOM     32  C   UNL     1      10.235  -7.994   6.803  1.00  0.00     0.029 A 
ATOM     33  C   UNL     1       9.710  -6.769   7.180  1.00  0.00     0.049 A 
ATOM     34  H   UNL     1       8.332  -5.542   6.156  1.00  0.00     0.167 HD
ATOM     35  C   UNL     1       9.421  -4.813   8.681  1.00  0.00     0.074 A 
ATOM     36  C   UNL     1       9.710  -4.063   9.887  1.00  0.00     0.031 C 
ATOM     37  C   UNL     1       9.971  -6.014   8.379  1.00  0.00     0.037 A 
BRANCH  24  38
ATOM     38  C   UNL     1       8.219  -8.334   2.921  1.00  0.00     0.058 A 
ATOM     39  C   UNL     1       8.939  -8.165   1.728  1.00  0.00     0.135 A 
ATOM     40  C   UNL     1       7.662  -9.598   3.175  1.00  0.00     0.135 A 
ATOM     41  F   UNL     1       9.478  -6.973   1.427  1.00  0.00    -0.206 F 
ATOM     42  C   UNL     1       9.089  -9.205   0.815  1.00  0.00     0.059 A 
ATOM     43  C   UNL     1       7.817 -10.658   2.286  1.00  0.00     0.059 A 
ATOM     44  F   UNL     1       6.962  -9.814   4.300  1.00  0.00    -0.206 F 
ATOM     45  C   UNL     1       8.524 -10.449   1.103  1.00  0.00     0.060 A 
BRANCH  45  46
ATOM     46  S   UNL     1       8.740 -11.792  -0.085  1.00  0.00     0.124 S 
ATOM     47  O   UNL     1       7.813 -11.396  -1.141  1.00  0.00    -0.237 OA
ATOM     48  O   UNL     1      10.158 -11.693  -0.417  1.00  0.00    -0.237 OA
ATOM     49  O   UNL     1       8.359 -12.980   0.672  1.00  0.00    -0.744 OA
ENDBRANCH  45  46
ENDBRANCH  24  38
BRANCH  25  50
ATOM     50  C   UNL     1       7.119  -0.764   9.372  1.00  0.00     0.058 A 
ATOM     51  C   UNL     1       8.129   0.187   9.574  1.00  0.00     0.135 A 
ATOM     52  C   UNL     1       5.916  -0.603  10.079  1.00  0.00     0.135 A 
ATOM     53  F   UNL     1       9.296   0.074   8.921  1.00  0.00    -0.206 F 
ATOM     54  C   UNL     1       7.960   1.252  10.453  1.00  0.00     0.059 A 
ATOM     55  C   UNL     1       5.713   0.468  10.941  1.00  0.00     0.059 A 
ATOM     56  F   UNL     1       4.911  -1.474   9.903  1.00  0.00    -0.206 F 
ATOM     57  C   UNL     1       6.747   1.384  11.131  1.00  0.00     0.060 A 
BRANCH  57  58
ATOM     58  S   UNL     1       6.505   2.798  12.228  1.00  0.00     0.124 S 
ATOM     59  O   UNL     1       7.201   2.356  13.430  1.00  0.00    -0.237 OA
ATOM     60  O   UNL     1       7.139   3.882  11.485  1.00  0.00    -0.237 OA
ATOM     61  O   UNL     1       5.052   2.890  12.334  1.00  0.00    -0.744 OA
ENDBRANCH  57  58
ENDBRANCH  25  50
BRANCH  37  62
ATOM     62  C   UNL     1      10.936  -6.580   9.379  1.00  0.00     0.058 A 
ATOM     63  C   UNL     1      10.491  -7.124  10.594  1.00  0.00     0.135 A 
ATOM     64  C   UNL     1      12.316  -6.578   9.123  1.00  0.00     0.135 A 
ATOM     65  F   UNL     1       9.181  -7.141  10.886  1.00  0.00    -0.206 F 
ATOM     66  C   UNL     1      11.384  -7.614  11.539  1.00  0.00     0.059 A 
ATOM     67  C   UNL     1      13.226  -7.084  10.045  1.00  0.00     0.059 A 
ATOM     68  F   UNL     1      12.789  -6.077   7.971  1.00  0.00    -0.206 F 
ATOM     69  C   UNL     1      12.751  -7.582  11.258  1.00  0.00     0.060 A 
BRANCH  69  70
ATOM     70  S   UNL     1      13.906  -8.216  12.492  1.00  0.00     0.124 S 
ATOM     71  O   UNL     1      13.960  -7.107  13.438  1.00  0.00    -0.237 OA
ATOM     72  O   UNL     1      13.233  -9.421  12.966  1.00  0.00    -0.237 OA
ATOM     73  O   UNL     1      15.126  -8.448  11.724  1.00  0.00    -0.744 OA
ENDBRANCH  69  70
ENDBRANCH  37  62
ENDBRANCH  11  12
ENDBRANCH   4   6
ENDBRANCH   1   2
BRANCH   1  74
ATOM     74  C   UNL     1       5.025   0.047  -2.269  1.00  0.00     0.042 C 
BRANCH  74  75
ATOM     75  C   UNL     1       4.518   0.681  -3.551  1.00  0.00     0.118 C 
BRANCH  75  76
ATOM     76  N   UNL     1       4.965   2.058  -3.704  1.00  0.00    -0.352 N 
ATOM     77  C   UNL     1       5.755   2.622  -4.672  1.00  0.00     0.251 C 
ATOM     78  H   UNL     1       4.653   2.678  -3.006  1.00  0.00     0.163 HD
ATOM     79  O   UNL     1       6.128   3.784  -4.540  1.00  0.00    -0.269 OA
BRANCH  77  80
ATOM     80  C   UNL     1       6.157   1.842  -5.864  1.00  0.00     0.047 A 
ATOM     81  C   UNL     1       7.534   1.740  -6.104  1.00  0.00     0.014 A 
ATOM     82  C   UNL     1       5.227   1.253  -6.748  1.00  0.00    -0.012 A 
ATOM     83  C   UNL     1       7.997   1.002  -7.191  1.00  0.00     0.001 A 
ATOM     84  C   UNL     1       5.713   0.498  -7.823  1.00  0.00     0.009 A 
ATOM     85  C   UNL     1       7.089   0.373  -8.041  1.00  0.00     0.001 A 
BRANCH  82  86
ATOM     86  C   UNL     1       3.768   1.335  -6.564  1.00  0.00     0.030 C 
ATOM     87  C   UNL     1       3.049   2.464  -6.510  1.00  0.00     0.081 C 
ATOM     88  S   UNL     1       1.417   2.512  -5.982  1.00  0.00    -0.054 SA
ATOM     89  C   UNL     1       3.517   3.842  -6.806  1.00  0.00     0.266 C 
ATOM     90  C   UNL     1       1.417   4.274  -5.853  1.00  0.00     0.148 C 
ATOM     91  N   UNL     1       2.615   4.783  -6.319  1.00  0.00    -0.290 N 
ATOM     92  O   UNL     1       4.511   4.077  -7.479  1.00  0.00    -0.268 OA
ATOM     93  S   UNL     1       0.070   5.062  -5.260  1.00  0.00    -0.052 S 
BRANCH  91  94
ATOM     94  C   UNL     1       2.989   6.191  -6.488  1.00  0.00     0.092 C 
ATOM     95  C   UNL     1       2.165   6.946  -7.528  1.00  0.00     0.025 C 
ATOM     96  C   UNL     1       2.956   7.093  -5.254  1.00  0.00     0.025 C 
ATOM     97  C   UNL     1       2.592   8.390  -7.314  1.00  0.00     0.002 C 
ATOM     98  C   UNL     1       2.901   8.516  -5.820  1.00  0.00     0.002 C 
ENDBRANCH  91  94
ENDBRANCH  82  86
ENDBRANCH  77  80
ENDBRANCH  75  76
ENDBRANCH  74  75
ENDBRANCH   1  74
TORSDOF 15
