REMARK SMILES CC[C@@](C)(NC(=O)c1cccc2ccccc12)C(=O)NCCCNC(=O)c1ccc(-c2c3nc(c(-c4c(F)cc(S(=O)(=O)[O-])cc4F)c4ccc([nH]4)c(-c4c(F)cc(S(=O)(=O)[O-])cc4F)c4nc(c(-c5c(F)cc(S(=O)(=O)[O-])cc5F)c5ccc2[nH]5)C=C4)C=C3)cc1
REMARK SMILES IDX 22 1 21 2 20 3 18 4 19 5 3 7 4 8 2 9 1 10 5 11 6 12 7 14
REMARK SMILES IDX 8 15 9 16 17 17 10 18 12 19 16 20 11 21 13 22 15 23 14 24
REMARK SMILES IDX 23 25 24 26 25 27 26 29 27 30 28 31 92 32 29 33 91 34 30 35
REMARK SMILES IDX 31 36 32 37 85 38 33 39 90 40 84 41 86 42 34 43 89 44 83 45
REMARK SMILES IDX 82 46 35 48 69 49 48 50 68 51 49 52 52 53 67 54 87 55 50 56
REMARK SMILES IDX 51 57 66 59 88 60 53 61 36 62 37 63 46 64 38 65 39 66 45 67
REMARK SMILES IDX 47 68 40 69 41 70 42 71 43 72 44 73 70 74 71 75 80 76 72 77
REMARK SMILES IDX 73 78 79 79 81 80 74 81 75 82 76 83 77 84 78 85 54 86 55 87
REMARK SMILES IDX 64 88 56 89 57 90 63 91 65 92 58 93 59 94 60 95 61 96 62 97
REMARK H PARENT 20 6 5 13 24 28 86 47 52 58
REMARK Flexibility Score: inf
ROOT
ATOM      1  C   UNL     1       2.490   5.963  -1.449  1.00  0.00     0.042 C 
ENDROOT
BRANCH   1   2
ATOM      2  C   UNL     1       2.067   4.816  -2.366  1.00  0.00     0.117 C 
BRANCH   2   3
ATOM      3  N   UNL     1       2.623   3.492  -2.130  1.00  0.00    -0.354 N 
ATOM      4  C   UNL     1       2.238   2.419  -1.372  1.00  0.00     0.245 C 
ATOM      5  O   UNL     1       2.785   1.351  -1.671  1.00  0.00    -0.272 OA
ATOM      6  H   UNL     1       3.459   3.333  -2.624  1.00  0.00     0.163 HD
BRANCH   4   7
ATOM      7  C   UNL     1       1.139   2.486  -0.264  1.00  0.00     0.116 C 
ATOM      8  C   UNL     1      -0.204   2.483  -1.041  1.00  0.00     0.045 C 
BRANCH   7   9
ATOM      9  C   UNL     1       1.129   1.263   0.703  1.00  0.00     0.035 C 
ATOM     10  C   UNL     1       1.046  -0.134   0.096  1.00  0.00     0.007 C 
ENDBRANCH   7   9
BRANCH   7  11
ATOM     11  N   UNL     1       1.168   3.711   0.590  1.00  0.00    -0.338 N 
ATOM     12  C   UNL     1       1.947   4.204   1.623  1.00  0.00     0.252 C 
ATOM     13  H   UNL     1       0.441   4.332   0.356  1.00  0.00     0.164 HD
ATOM     14  O   UNL     1       1.359   5.043   2.312  1.00  0.00    -0.269 OA
BRANCH  12  15
ATOM     15  C   UNL     1       3.405   3.900   1.897  1.00  0.00     0.047 A 
ATOM     16  C   UNL     1       4.205   3.391   0.874  1.00  0.00     0.014 A 
ATOM     17  C   UNL     1       4.066   4.296   3.113  1.00  0.00    -0.006 A 
ATOM     18  C   UNL     1       5.583   3.243   0.972  1.00  0.00     0.001 A 
ATOM     19  C   UNL     1       5.489   4.162   3.189  1.00  0.00    -0.018 A 
ATOM     20  C   UNL     1       3.444   4.843   4.266  1.00  0.00     0.009 A 
ATOM     21  C   UNL     1       6.222   3.634   2.127  1.00  0.00     0.009 A 
ATOM     22  C   UNL     1       6.205   4.582   4.318  1.00  0.00     0.009 A 
ATOM     23  C   UNL     1       4.173   5.264   5.387  1.00  0.00     0.001 A 
ATOM     24  C   UNL     1       5.553   5.140   5.409  1.00  0.00     0.001 A 
ENDBRANCH  12  15
ENDBRANCH   7  11
ENDBRANCH   4   7
ENDBRANCH   2   3
ENDBRANCH   1   2
BRANCH   1  25
ATOM     25  C   UNL     1       3.979   6.256  -1.281  1.00  0.00     0.118 C 
BRANCH  25  26
ATOM     26  N   UNL     1       4.678   6.526  -2.520  1.00  0.00    -0.352 N 
ATOM     27  C   UNL     1       5.498   7.565  -2.885  1.00  0.00     0.251 C 
ATOM     28  H   UNL     1       4.541   5.849  -3.222  1.00  0.00     0.163 HD
ATOM     29  O   UNL     1       5.937   7.576  -4.034  1.00  0.00    -0.269 OA
BRANCH  27  30
ATOM     30  C   UNL     1       5.846   8.678  -1.964  1.00  0.00     0.039 A 
ATOM     31  C   UNL     1       5.903   9.967  -2.508  1.00  0.00     0.014 A 
ATOM     32  C   UNL     1       6.208   8.489  -0.626  1.00  0.00     0.014 A 
ATOM     33  C   UNL     1       6.296  11.055  -1.722  1.00  0.00     0.010 A 
ATOM     34  C   UNL     1       6.552   9.588   0.177  1.00  0.00     0.010 A 
ATOM     35  C   UNL     1       6.617  10.882  -0.366  1.00  0.00    -0.014 A 
BRANCH  35  36
ATOM     36  C   UNL     1       7.048  12.055   0.449  1.00  0.00     0.031 A 
ATOM     37  C   UNL     1       8.469  12.175   0.937  1.00  0.00     0.074 A 
ATOM     38  C   UNL     1       6.167  13.036   0.731  1.00  0.00     0.049 A 
ATOM     39  N   UNL     1       9.041  13.161   1.583  1.00  0.00    -0.248 NA
ATOM     40  C   UNL     1       9.362  11.036   0.676  1.00  0.00     0.031 C 
ATOM     41  C   UNL     1       4.752  13.031   0.356  1.00  0.00     0.029 A 
ATOM     42  N   UNL     1       6.331  14.232   1.388  1.00  0.00    -0.354 N 
ATOM     43  C   UNL     1      10.355  12.763   1.806  1.00  0.00     0.074 A 
ATOM     44  C   UNL     1      10.482  11.425   1.270  1.00  0.00     0.031 C 
ATOM     45  C   UNL     1       4.185  14.179   0.763  1.00  0.00     0.029 A 
ATOM     46  C   UNL     1       5.188  14.995   1.444  1.00  0.00     0.049 A 
ATOM     47  H   UNL     1       7.187  14.516   1.782  1.00  0.00     0.167 HD
ATOM     48  C   UNL     1      11.371  13.454   2.381  1.00  0.00     0.037 A 
ATOM     49  C   UNL     1       4.970  16.216   1.972  1.00  0.00     0.037 A 
ATOM     50  C   UNL     1      11.252  14.793   2.904  1.00  0.00     0.049 A 
ATOM     51  C   UNL     1       6.116  16.971   2.592  1.00  0.00     0.074 A 
ATOM     52  C   UNL     1      12.235  15.588   3.469  1.00  0.00     0.029 A 
ATOM     53  N   UNL     1      10.080  15.535   2.927  1.00  0.00    -0.354 N 
ATOM     54  N   UNL     1       7.367  16.603   2.733  1.00  0.00    -0.248 NA
ATOM     55  C   UNL     1       5.824  18.317   3.107  1.00  0.00     0.031 C 
ATOM     56  C   UNL     1      11.650  16.795   3.869  1.00  0.00     0.029 A 
ATOM     57  C   UNL     1      10.313  16.772   3.507  1.00  0.00     0.049 A 
ATOM     58  H   UNL     1       9.211  15.228   2.583  1.00  0.00     0.167 HD
ATOM     59  C   UNL     1       8.018  17.684   3.319  1.00  0.00     0.074 A 
ATOM     60  C   UNL     1       7.024  18.722   3.499  1.00  0.00     0.031 C 
ATOM     61  C   UNL     1       9.322  17.806   3.672  1.00  0.00     0.037 A 
BRANCH  48  62
ATOM     62  C   UNL     1      12.711  12.774   2.473  1.00  0.00     0.058 A 
ATOM     63  C   UNL     1      13.501  12.546   1.334  1.00  0.00     0.135 A 
ATOM     64  C   UNL     1      13.230  12.377   3.717  1.00  0.00     0.135 A 
ATOM     65  F   UNL     1      13.050  12.895   0.118  1.00  0.00    -0.206 F 
ATOM     66  C   UNL     1      14.740  11.919   1.420  1.00  0.00     0.059 A 
ATOM     67  C   UNL     1      14.479  11.774   3.829  1.00  0.00     0.059 A 
ATOM     68  F   UNL     1      12.521  12.575   4.839  1.00  0.00    -0.206 F 
ATOM     69  C   UNL     1      15.219  11.533   2.673  1.00  0.00     0.060 A 
BRANCH  69  70
ATOM     70  S   UNL     1      16.826  10.715   2.767  1.00  0.00     0.124 S 
ATOM     71  O   UNL     1      16.508   9.389   2.248  1.00  0.00    -0.237 OA
ATOM     72  O   UNL     1      17.655  11.550   1.906  1.00  0.00    -0.237 OA
ATOM     73  O   UNL     1      17.152  10.769   4.190  1.00  0.00    -0.744 OA
ENDBRANCH  69  70
ENDBRANCH  48  62
BRANCH  49  74
ATOM     74  C   UNL     1       3.614  16.824   1.901  1.00  0.00     0.058 A 
ATOM     75  C   UNL     1       3.351  17.914   1.057  1.00  0.00     0.135 A 
ATOM     76  C   UNL     1       2.553  16.325   2.672  1.00  0.00     0.135 A 
ATOM     77  F   UNL     1       4.334  18.432   0.306  1.00  0.00    -0.206 F 
ATOM     78  C   UNL     1       2.091  18.500   0.994  1.00  0.00     0.059 A 
ATOM     79  C   UNL     1       1.278  16.878   2.607  1.00  0.00     0.059 A 
ATOM     80  F   UNL     1       2.749  15.274   3.484  1.00  0.00    -0.206 F 
ATOM     81  C   UNL     1       1.060  17.973   1.773  1.00  0.00     0.060 A 
BRANCH  81  82
ATOM     82  S   UNL     1      -0.585  18.711   1.650  1.00  0.00     0.124 S 
ATOM     83  O   UNL     1      -0.405  19.954   2.390  1.00  0.00    -0.237 OA
ATOM     84  O   UNL     1      -0.754  18.845   0.206  1.00  0.00    -0.237 OA
ATOM     85  O   UNL     1      -1.446  17.716   2.283  1.00  0.00    -0.744 OA
ENDBRANCH  81  82
ENDBRANCH  49  74
BRANCH  61  86
ATOM     86  C   UNL     1       9.765  19.127   4.242  1.00  0.00     0.058 A 
ATOM     87  C   UNL     1       9.395  19.543   5.530  1.00  0.00     0.135 A 
ATOM     88  C   UNL     1      10.595  19.978   3.493  1.00  0.00     0.135 A 
ATOM     89  F   UNL     1       8.601  18.770   6.288  1.00  0.00    -0.206 F 
ATOM     90  C   UNL     1       9.801  20.773   6.042  1.00  0.00     0.059 A 
ATOM     91  C   UNL     1      11.036  21.199   3.996  1.00  0.00     0.059 A 
ATOM     92  F   UNL     1      10.991  19.624   2.260  1.00  0.00    -0.206 F 
ATOM     93  C   UNL     1      10.618  21.596   5.265  1.00  0.00     0.060 A 
BRANCH  93  94
ATOM     94  S   UNL     1      11.145  23.186   5.940  1.00  0.00     0.124 S 
ATOM     95  O   UNL     1       9.931  23.983   5.795  1.00  0.00    -0.237 OA
ATOM     96  O   UNL     1      11.516  22.839   7.309  1.00  0.00    -0.237 OA
ATOM     97  O   UNL     1      12.256  23.570   5.075  1.00  0.00    -0.744 OA
ENDBRANCH  93  94
ENDBRANCH  61  86
ENDBRANCH  35  36
ENDBRANCH  27  30
ENDBRANCH  25  26
ENDBRANCH   1  25
TORSDOF 16
