REMARK SMILES COC(=O)c1ccc([C@H]2CC(=O)Nc3c(C(=O)NCCCNC(=O)c4ccc(-c5c6nc(c(-c7c(F)cc(S(=O)(=O)[O-])cc7F)c7ccc([nH]7)c(-c7c(F)cc(S(=O)(=O)[O-])cc7F)c7nc(c(-c8c(F)cc(S(=O)(=O)[O-])cc8F)c8ccc5[nH]8)C=C7)C=C6)cc4)cn(-c4ccccc4)c32)cc1
REMARK SMILES IDX 20 1 19 2 18 3 16 4 17 5 15 7 9 8 10 9 99 10 11 11 14 12
REMARK SMILES IDX 92 13 12 14 13 15 91 16 8 18 5 19 6 20 101 21 7 22 100 23
REMARK SMILES IDX 3 24 4 25 2 26 1 27 93 28 94 29 98 30 95 31 97 32 96 33
REMARK SMILES IDX 21 34 22 35 23 36 24 38 25 39 26 40 90 41 27 42 89 43 28 44
REMARK SMILES IDX 29 45 30 46 83 47 31 48 88 49 82 50 84 51 32 52 87 53 81 54
REMARK SMILES IDX 80 55 33 57 67 58 46 59 66 60 47 61 50 62 65 63 85 64 48 65
REMARK SMILES IDX 49 66 64 68 86 69 51 70 34 71 35 72 44 73 36 74 37 75 43 76
REMARK SMILES IDX 45 77 38 78 39 79 40 80 41 81 42 82 68 83 69 84 78 85 70 86
REMARK SMILES IDX 71 87 77 88 79 89 72 90 73 91 74 92 75 93 76 94 52 95 53 96
REMARK SMILES IDX 62 97 54 98 55 99 61 100 63 101 56 102 57 103 58 104 59 105
REMARK SMILES IDX 60 106
REMARK H PARENT 18 6 13 17 22 37 84 56 50 67
REMARK Flexibility Score: inf
ROOT
ATOM      1  C   UNL     1      -6.417  -6.063   5.672  1.00  0.00     0.042 C 
ENDROOT
BRANCH   1   2
ATOM      2  C   UNL     1      -6.147  -4.580   5.964  1.00  0.00     0.118 C 
BRANCH   2   3
ATOM      3  N   UNL     1      -5.372  -4.373   7.165  1.00  0.00    -0.352 N 
ATOM      4  C   UNL     1      -4.036  -4.413   7.457  1.00  0.00     0.254 C 
ATOM      5  O   UNL     1      -3.751  -4.019   8.592  1.00  0.00    -0.269 OA
ATOM      6  H   UNL     1      -5.929  -4.154   7.946  1.00  0.00     0.163 HD
BRANCH   4   7
ATOM      7  C   UNL     1      -2.972  -4.896   6.563  1.00  0.00     0.081 A 
ATOM      8  C   UNL     1      -1.071  -6.715   3.898  1.00  0.00     0.078 C 
ATOM      9  C   UNL     1      -2.273  -7.390   3.219  1.00  0.00     0.115 C 
ATOM     10  C   UNL     1      -1.542  -5.879   5.065  1.00  0.00     0.055 A 
ATOM     11  C   UNL     1      -3.503  -6.527   3.180  1.00  0.00     0.225 C 
ATOM     12  C   UNL     1      -2.853  -5.498   5.274  1.00  0.00     0.076 A 
ATOM     13  N   UNL     1      -0.780  -5.291   6.056  1.00  0.00    -0.317 N 
ATOM     14  O   UNL     1      -4.329  -6.606   2.271  1.00  0.00    -0.275 OA
ATOM     15  N   UNL     1      -3.747  -5.734   4.262  1.00  0.00    -0.324 N 
ATOM     16  C   UNL     1      -1.651  -4.845   7.019  1.00  0.00     0.107 A 
ATOM     17  H   UNL     1      -4.629  -5.300   4.321  1.00  0.00     0.170 HD
BRANCH   8  18
ATOM     18  C   UNL     1      -0.048  -7.816   4.178  1.00  0.00    -0.038 A 
ATOM     19  C   UNL     1       1.961  -9.759   4.574  1.00  0.00     0.060 A 
ATOM     20  C   UNL     1       1.614  -9.359   3.280  1.00  0.00     0.016 A 
ATOM     21  C   UNL     1       1.254  -9.244   5.663  1.00  0.00     0.016 A 
ATOM     22  C   UNL     1       0.632  -8.387   3.087  1.00  0.00     0.005 A 
ATOM     23  C   UNL     1       0.230  -8.314   5.459  1.00  0.00     0.005 A 
BRANCH  19  24
ATOM     24  C   UNL     1       3.107 -10.694   4.732  1.00  0.00     0.337 C 
ATOM     25  O   UNL     1       3.803 -11.069   3.808  1.00  0.00    -0.246 OA
BRANCH  24  26
ATOM     26  O   UNL     1       3.273 -11.019   6.040  1.00  0.00    -0.465 OA
ATOM     27  C   UNL     1       4.418 -11.831   6.296  1.00  0.00     0.282 C 
ENDBRANCH  24  26
ENDBRANCH  19  24
ENDBRANCH   8  18
BRANCH  13  28
ATOM     28  C   UNL     1       0.632  -5.216   6.134  1.00  0.00     0.045 A 
ATOM     29  C   UNL     1       1.378  -4.898   4.994  1.00  0.00     0.026 A 
ATOM     30  C   UNL     1       1.274  -5.557   7.330  1.00  0.00     0.026 A 
ATOM     31  C   UNL     1       2.768  -4.992   5.030  1.00  0.00     0.002 A 
ATOM     32  C   UNL     1       2.664  -5.682   7.346  1.00  0.00     0.002 A 
ATOM     33  C   UNL     1       3.407  -5.410   6.196  1.00  0.00     0.000 A 
ENDBRANCH  13  28
ENDBRANCH   4   7
ENDBRANCH   2   3
ENDBRANCH   1   2
BRANCH   1  34
ATOM     34  C   UNL     1      -7.847  -6.479   5.965  1.00  0.00     0.118 C 
BRANCH  34  35
ATOM     35  N   UNL     1      -8.781  -5.885   4.995  1.00  0.00    -0.352 N 
ATOM     36  C   UNL     1     -10.149  -5.688   5.092  1.00  0.00     0.251 C 
ATOM     37  H   UNL     1      -8.373  -5.581   4.152  1.00  0.00     0.163 HD
ATOM     38  O   UNL     1     -10.829  -5.510   4.099  1.00  0.00    -0.269 OA
BRANCH  36  39
ATOM     39  C   UNL     1     -10.752  -5.703   6.434  1.00  0.00     0.039 A 
ATOM     40  C   UNL     1     -11.958  -6.357   6.700  1.00  0.00     0.014 A 
ATOM     41  C   UNL     1     -10.006  -5.127   7.451  1.00  0.00     0.014 A 
ATOM     42  C   UNL     1     -12.351  -6.504   8.028  1.00  0.00     0.010 A 
ATOM     43  C   UNL     1     -10.263  -5.494   8.737  1.00  0.00     0.010 A 
ATOM     44  C   UNL     1     -11.479  -6.088   9.043  1.00  0.00    -0.014 A 
BRANCH  44  45
ATOM     45  C   UNL     1     -11.744  -6.338  10.453  1.00  0.00     0.031 A 
ATOM     46  C   UNL     1     -11.964  -7.769  10.788  1.00  0.00     0.074 A 
ATOM     47  C   UNL     1     -11.520  -5.394  11.395  1.00  0.00     0.049 A 
ATOM     48  N   UNL     1     -13.078  -8.351  11.090  1.00  0.00    -0.248 NA
ATOM     49  C   UNL     1     -10.850  -8.708  10.572  1.00  0.00     0.031 C 
ATOM     50  C   UNL     1     -10.952  -4.047  11.221  1.00  0.00     0.029 A 
ATOM     51  N   UNL     1     -11.635  -5.484  12.744  1.00  0.00    -0.354 N 
ATOM     52  C   UNL     1     -12.740  -9.670  11.386  1.00  0.00     0.074 A 
ATOM     53  C   UNL     1     -11.449  -9.880  10.790  1.00  0.00     0.031 C 
ATOM     54  C   UNL     1     -10.545  -3.564  12.414  1.00  0.00     0.029 A 
ATOM     55  C   UNL     1     -10.999  -4.468  13.451  1.00  0.00     0.049 A 
ATOM     56  H   UNL     1     -12.129  -6.210  13.187  1.00  0.00     0.167 HD
ATOM     57  C   UNL     1     -13.406 -10.361  12.356  1.00  0.00     0.037 A 
ATOM     58  C   UNL     1     -10.843  -4.390  14.796  1.00  0.00     0.037 A 
ATOM     59  C   UNL     1     -14.628  -9.672  12.714  1.00  0.00     0.049 A 
ATOM     60  C   UNL     1     -11.860  -5.298  15.391  1.00  0.00     0.074 A 
ATOM     61  C   UNL     1     -15.750  -9.247  12.028  1.00  0.00     0.029 A 
ATOM     62  N   UNL     1     -14.626  -8.967  13.896  1.00  0.00    -0.354 N 
ATOM     63  N   UNL     1     -13.149  -5.106  15.294  1.00  0.00    -0.248 NA
ATOM     64  C   UNL     1     -11.456  -6.665  15.680  1.00  0.00     0.031 C 
ATOM     65  C   UNL     1     -16.085  -7.987  12.608  1.00  0.00     0.029 A 
ATOM     66  C   UNL     1     -15.206  -7.747  13.666  1.00  0.00     0.049 A 
ATOM     67  H   UNL     1     -14.270  -9.284  14.757  1.00  0.00     0.167 HD
ATOM     68  C   UNL     1     -13.683  -6.370  15.081  1.00  0.00     0.074 A 
ATOM     69  C   UNL     1     -12.605  -7.296  15.425  1.00  0.00     0.031 C 
ATOM     70  C   UNL     1     -14.838  -6.534  14.367  1.00  0.00     0.037 A 
BRANCH  57  71
ATOM     71  C   UNL     1     -12.774 -11.385  13.289  1.00  0.00     0.058 A 
ATOM     72  C   UNL     1     -13.598 -12.011  14.253  1.00  0.00     0.135 A 
ATOM     73  C   UNL     1     -11.386 -11.558  13.491  1.00  0.00     0.135 A 
ATOM     74  F   UNL     1     -14.936 -11.957  14.150  1.00  0.00    -0.206 F 
ATOM     75  C   UNL     1     -13.086 -12.626  15.396  1.00  0.00     0.059 A 
ATOM     76  C   UNL     1     -10.855 -12.211  14.598  1.00  0.00     0.059 A 
ATOM     77  F   UNL     1     -10.460 -11.037  12.682  1.00  0.00    -0.206 F 
ATOM     78  C   UNL     1     -11.710 -12.693  15.572  1.00  0.00     0.060 A 
BRANCH  78  79
ATOM     79  S   UNL     1     -11.043 -13.356  17.106  1.00  0.00     0.124 S 
ATOM     80  O   UNL     1     -11.440 -12.326  18.059  1.00  0.00    -0.237 OA
ATOM     81  O   UNL     1     -11.742 -14.632  17.210  1.00  0.00    -0.237 OA
ATOM     82  O   UNL     1      -9.612 -13.450  16.834  1.00  0.00    -0.744 OA
ENDBRANCH  78  79
ENDBRANCH  57  71
BRANCH  58  83
ATOM     83  C   UNL     1      -9.687  -3.855  15.563  1.00  0.00     0.058 A 
ATOM     84  C   UNL     1      -9.780  -3.622  16.947  1.00  0.00     0.135 A 
ATOM     85  C   UNL     1      -8.387  -3.833  15.017  1.00  0.00     0.135 A 
ATOM     86  F   UNL     1     -10.977  -3.637  17.553  1.00  0.00    -0.206 F 
ATOM     87  C   UNL     1      -8.649  -3.438  17.752  1.00  0.00     0.059 A 
ATOM     88  C   UNL     1      -7.246  -3.643  15.797  1.00  0.00     0.059 A 
ATOM     89  F   UNL     1      -8.179  -4.090  13.717  1.00  0.00    -0.206 F 
ATOM     90  C   UNL     1      -7.383  -3.474  17.170  1.00  0.00     0.060 A 
BRANCH  90  91
ATOM     91  S   UNL     1      -5.915  -3.423  18.229  1.00  0.00     0.124 S 
ATOM     92  O   UNL     1      -5.936  -2.045  18.707  1.00  0.00    -0.237 OA
ATOM     93  O   UNL     1      -6.215  -4.447  19.223  1.00  0.00    -0.237 OA
ATOM     94  O   UNL     1      -4.825  -3.750  17.313  1.00  0.00    -0.744 OA
ENDBRANCH  90  91
ENDBRANCH  58  83
BRANCH  70  95
ATOM     95  C   UNL     1     -15.698  -5.322  14.110  1.00  0.00     0.058 A 
ATOM     96  C   UNL     1     -15.325  -4.222  13.317  1.00  0.00     0.135 A 
ATOM     97  C   UNL     1     -17.024  -5.357  14.567  1.00  0.00     0.135 A 
ATOM     98  F   UNL     1     -14.111  -4.156  12.756  1.00  0.00    -0.206 F 
ATOM     99  C   UNL     1     -16.218  -3.188  13.024  1.00  0.00     0.059 A 
ATOM    100  C   UNL     1     -17.940  -4.354  14.262  1.00  0.00     0.059 A 
ATOM    101  F   UNL     1     -17.462  -6.410  15.278  1.00  0.00    -0.206 F 
ATOM    102  C   UNL     1     -17.526  -3.265  13.500  1.00  0.00     0.060 A 
BRANCH 102 103
ATOM    103  S   UNL     1     -18.703  -1.966  13.063  1.00  0.00     0.124 S 
ATOM    104  O   UNL     1     -18.221  -0.837  13.850  1.00  0.00    -0.237 OA
ATOM    105  O   UNL     1     -18.529  -1.853  11.617  1.00  0.00    -0.237 OA
ATOM    106  O   UNL     1     -19.990  -2.516  13.484  1.00  0.00    -0.744 OA
ENDBRANCH 102 103
ENDBRANCH  70  95
ENDBRANCH  44  45
ENDBRANCH  36  39
ENDBRANCH  34  35
ENDBRANCH   1  34
TORSDOF 17
