REMARK SMILES Cc1cccc(-n2c(C)cc(/C=N\c3ccc(O)c(C(=O)NCCCNC(=O)c4ccc(-c5c6nc(c(-c7c(F)cc(S(=O)(=O)[O-])cc7F)c7ccc([nH]7)c(-c7c(F)cc(S(=O)(=O)[O-])cc7F)c7nc(c(-c8c(F)cc(S(=O)(=O)[O-])cc8F)c8ccc5[nH]8)C=C7)C=C6)cc4)c3)c2C)c1
REMARK SMILES IDX 24 1 23 2 22 3 20 4 21 5 19 7 14 8 15 9 95 10 16 11 17 12
REMARK SMILES IDX 13 13 12 14 11 15 7 16 8 17 96 18 9 19 10 20 97 21 6 22 1 23
REMARK SMILES IDX 2 24 3 25 98 26 4 27 5 28 18 29 25 31 26 32 27 33 28 35
REMARK SMILES IDX 29 36 30 37 94 38 31 39 93 40 32 41 33 42 34 43 87 44 35 45
REMARK SMILES IDX 92 46 86 47 88 48 36 49 91 50 85 51 84 52 37 54 71 55 50 56
REMARK SMILES IDX 70 57 51 58 54 59 69 60 89 61 52 62 53 63 68 65 90 66 55 67
REMARK SMILES IDX 38 68 39 69 48 70 40 71 41 72 47 73 49 74 42 75 43 76 44 77
REMARK SMILES IDX 45 78 46 79 72 80 73 81 82 82 74 83 75 84 81 85 83 86 76 87
REMARK SMILES IDX 77 88 78 89 79 90 80 91 56 92 57 93 66 94 58 95 59 96 65 97
REMARK SMILES IDX 67 98 60 99 61 100 62 101 63 102 64 103
REMARK H PARENT 22 6 18 30 26 34 88 53 54 64
REMARK Flexibility Score: inf
ROOT
ATOM      1  C   UNL     1      -3.344  -1.653   6.601  1.00  0.00     0.042 C 
ENDROOT
BRANCH   1   2
ATOM      2  C   UNL     1      -3.986  -1.958   5.252  1.00  0.00     0.118 C 
BRANCH   2   3
ATOM      3  N   UNL     1      -5.126  -1.099   4.961  1.00  0.00    -0.352 N 
ATOM      4  C   UNL     1      -5.337   0.188   4.546  1.00  0.00     0.255 C 
ATOM      5  O   UNL     1      -6.527   0.469   4.353  1.00  0.00    -0.269 OA
ATOM      6  H   UNL     1      -5.977  -1.573   5.103  1.00  0.00     0.163 HD
BRANCH   4   7
ATOM      7  C   UNL     1      -4.325   1.270   4.293  1.00  0.00     0.083 A 
ATOM      8  C   UNL     1      -4.043   3.500   3.271  1.00  0.00     0.064 A 
ATOM      9  C   UNL     1      -2.702   3.514   3.626  1.00  0.00     0.032 A 
ATOM     10  C   UNL     1      -4.859   2.451   3.724  1.00  0.00     0.046 A 
ATOM     11  C   UNL     1      -2.150   2.389   4.220  1.00  0.00     0.049 A 
ATOM     12  C   UNL     1      -2.939   1.255   4.459  1.00  0.00     0.128 A 
BRANCH   8  13
ATOM     13  N   UNL     1      -4.592   4.481   2.443  1.00  0.00    -0.256 NA
ATOM     14  C   UNL     1      -4.236   4.628   1.197  1.00  0.00     0.121 C 
BRANCH  14  15
ATOM     15  C   UNL     1      -3.257   3.898   0.386  1.00  0.00     0.014 A 
ATOM     16  N   UNL     1      -1.869   2.371  -0.550  1.00  0.00    -0.318 N 
ATOM     17  C   UNL     1      -1.618   3.584  -1.174  1.00  0.00     0.021 A 
ATOM     18  C   UNL     1      -2.997   2.532   0.262  1.00  0.00     0.029 A 
ATOM     19  C   UNL     1      -0.689   3.741  -2.328  1.00  0.00     0.065 C 
ATOM     20  C   UNL     1      -2.428   4.533  -0.585  1.00  0.00     0.033 A 
ATOM     21  C   UNL     1      -3.680   1.373   0.899  1.00  0.00     0.065 C 
BRANCH  16  22
ATOM     22  C   UNL     1      -1.063   1.198  -0.656  1.00  0.00     0.046 A 
ATOM     23  C   UNL     1       2.564   0.192  -0.015  1.00  0.00     0.044 C 
ATOM     24  C   UNL     1       1.101   0.129  -0.342  1.00  0.00    -0.049 A 
ATOM     25  C   UNL     1       0.496  -1.119  -0.537  1.00  0.00     0.003 A 
ATOM     26  C   UNL     1       0.316   1.291  -0.406  1.00  0.00     0.030 A 
ATOM     27  C   UNL     1      -0.863  -1.207  -0.832  1.00  0.00     0.002 A 
ATOM     28  C   UNL     1      -1.638  -0.051  -0.906  1.00  0.00     0.026 A 
ENDBRANCH  16  22
ENDBRANCH  14  15
ENDBRANCH   8  13
BRANCH  12  29
ATOM     29  O   UNL     1      -2.199   0.139   4.685  1.00  0.00    -0.507 OA
ATOM     30  H   UNL     1      -1.270   0.206   4.786  1.00  0.00     0.293 HD
ENDBRANCH  12  29
ENDBRANCH   4   7
ENDBRANCH   2   3
ENDBRANCH   1   2
BRANCH   1  31
ATOM     31  C   UNL     1      -3.622  -2.739   7.625  1.00  0.00     0.118 C 
BRANCH  31  32
ATOM     32  N   UNL     1      -2.617  -3.805   7.674  1.00  0.00    -0.352 N 
ATOM     33  C   UNL     1      -2.628  -4.957   8.436  1.00  0.00     0.251 C 
ATOM     34  H   UNL     1      -1.834  -3.685   7.089  1.00  0.00     0.163 HD
ATOM     35  O   UNL     1      -1.632  -5.668   8.525  1.00  0.00    -0.269 OA
BRANCH  33  36
ATOM     36  C   UNL     1      -3.896  -5.346   9.094  1.00  0.00     0.039 A 
ATOM     37  C   UNL     1      -4.481  -6.574   8.764  1.00  0.00     0.014 A 
ATOM     38  C   UNL     1      -4.615  -4.384   9.794  1.00  0.00     0.014 A 
ATOM     39  C   UNL     1      -5.855  -6.745   8.939  1.00  0.00     0.010 A 
ATOM     40  C   UNL     1      -5.987  -4.498   9.826  1.00  0.00     0.010 A 
ATOM     41  C   UNL     1      -6.620  -5.665   9.370  1.00  0.00    -0.014 A 
BRANCH  41  42
ATOM     42  C   UNL     1      -8.082  -5.596   9.331  1.00  0.00     0.031 A 
ATOM     43  C   UNL     1      -8.844  -5.416  10.592  1.00  0.00     0.074 A 
ATOM     44  C   UNL     1      -8.721  -5.484   8.146  1.00  0.00     0.049 A 
ATOM     45  N   UNL     1     -10.127  -5.478  10.703  1.00  0.00    -0.248 NA
ATOM     46  C   UNL     1      -8.181  -5.171  11.867  1.00  0.00     0.031 C 
ATOM     47  C   UNL     1     -10.067  -4.966   7.918  1.00  0.00     0.029 A 
ATOM     48  N   UNL     1      -8.338  -5.997   6.906  1.00  0.00    -0.354 N 
ATOM     49  C   UNL     1     -10.476  -5.020  11.956  1.00  0.00     0.074 A 
ATOM     50  C   UNL     1      -9.220  -4.881  12.651  1.00  0.00     0.031 C 
ATOM     51  C   UNL     1     -10.503  -5.390   6.724  1.00  0.00     0.029 A 
ATOM     52  C   UNL     1      -9.521  -6.325   6.208  1.00  0.00     0.049 A 
ATOM     53  H   UNL     1      -7.416  -6.110   6.580  1.00  0.00     0.167 HD
ATOM     54  C   UNL     1     -11.783  -4.715  12.213  1.00  0.00     0.037 A 
ATOM     55  C   UNL     1      -9.788  -7.629   5.891  1.00  0.00     0.037 A 
ATOM     56  C   UNL     1     -12.646  -5.150  11.110  1.00  0.00     0.049 A 
ATOM     57  C   UNL     1     -10.955  -8.237   6.644  1.00  0.00     0.074 A 
ATOM     58  C   UNL     1     -13.241  -4.522  10.027  1.00  0.00     0.029 A 
ATOM     59  N   UNL     1     -12.770  -6.509  10.873  1.00  0.00    -0.354 N 
ATOM     60  N   UNL     1     -11.728  -7.587   7.471  1.00  0.00    -0.248 NA
ATOM     61  C   UNL     1     -11.293  -9.661   6.576  1.00  0.00     0.031 C 
ATOM     62  C   UNL     1     -13.650  -5.528   9.101  1.00  0.00     0.029 A 
ATOM     63  C   UNL     1     -13.315  -6.762   9.628  1.00  0.00     0.049 A 
ATOM     64  H   UNL     1     -12.503  -7.208  11.512  1.00  0.00     0.167 HD
ATOM     65  C   UNL     1     -12.552  -8.474   8.110  1.00  0.00     0.074 A 
ATOM     66  C   UNL     1     -12.276  -9.755   7.487  1.00  0.00     0.031 C 
ATOM     67  C   UNL     1     -13.363  -8.134   9.150  1.00  0.00     0.037 A 
BRANCH  54  68
ATOM     68  C   UNL     1     -12.271  -3.844  13.362  1.00  0.00     0.058 A 
ATOM     69  C   UNL     1     -13.518  -3.183  13.278  1.00  0.00     0.135 A 
ATOM     70  C   UNL     1     -11.551  -3.556  14.540  1.00  0.00     0.135 A 
ATOM     71  F   UNL     1     -14.370  -3.422  12.271  1.00  0.00    -0.206 F 
ATOM     72  C   UNL     1     -13.954  -2.242  14.217  1.00  0.00     0.059 A 
ATOM     73  C   UNL     1     -11.936  -2.580  15.464  1.00  0.00     0.059 A 
ATOM     74  F   UNL     1     -10.472  -4.254  14.901  1.00  0.00    -0.206 F 
ATOM     75  C   UNL     1     -13.137  -1.917  15.291  1.00  0.00     0.060 A 
BRANCH  75  76
ATOM     76  S   UNL     1     -13.669  -0.653  16.457  1.00  0.00     0.124 S 
ATOM     77  O   UNL     1     -13.889   0.496  15.585  1.00  0.00    -0.237 OA
ATOM     78  O   UNL     1     -14.866  -1.255  17.034  1.00  0.00    -0.237 OA
ATOM     79  O   UNL     1     -12.533  -0.529  17.367  1.00  0.00    -0.744 OA
ENDBRANCH  75  76
ENDBRANCH  54  68
BRANCH  55  80
ATOM     80  C   UNL     1      -8.562  -8.352   5.451  1.00  0.00     0.058 A 
ATOM     81  C   UNL     1      -7.976  -7.933   4.240  1.00  0.00     0.135 A 
ATOM     82  C   UNL     1      -7.747  -9.018   6.376  1.00  0.00     0.135 A 
ATOM     83  F   UNL     1      -8.723  -7.317   3.310  1.00  0.00    -0.206 F 
ATOM     84  C   UNL     1      -6.602  -7.978   4.048  1.00  0.00     0.059 A 
ATOM     85  C   UNL     1      -6.367  -9.089   6.194  1.00  0.00     0.059 A 
ATOM     86  F   UNL     1      -8.256  -9.448   7.541  1.00  0.00    -0.206 F 
ATOM     87  C   UNL     1      -5.803  -8.483   5.071  1.00  0.00     0.060 A 
BRANCH  87  88
ATOM     88  S   UNL     1      -4.032  -8.123   5.006  1.00  0.00     0.124 S 
ATOM     89  O   UNL     1      -3.656  -8.662   3.704  1.00  0.00    -0.237 OA
ATOM     90  O   UNL     1      -4.032  -6.665   5.111  1.00  0.00    -0.237 OA
ATOM     91  O   UNL     1      -3.504  -8.840   6.162  1.00  0.00    -0.744 OA
ENDBRANCH  87  88
ENDBRANCH  55  80
BRANCH  67  92
ATOM     92  C   UNL     1     -14.274  -9.127   9.799  1.00  0.00     0.058 A 
ATOM     93  C   UNL     1     -15.241  -9.818   9.052  1.00  0.00     0.135 A 
ATOM     94  C   UNL     1     -14.292  -9.316  11.194  1.00  0.00     0.135 A 
ATOM     95  F   UNL     1     -15.298  -9.679   7.718  1.00  0.00    -0.206 F 
ATOM     96  C   UNL     1     -16.173 -10.659   9.655  1.00  0.00     0.059 A 
ATOM     97  C   UNL     1     -15.238 -10.120  11.821  1.00  0.00     0.059 A 
ATOM     98  F   UNL     1     -13.373  -8.732  11.980  1.00  0.00    -0.206 F 
ATOM     99  C   UNL     1     -16.168 -10.799  11.041  1.00  0.00     0.060 A 
BRANCH  99 100
ATOM    100  S   UNL     1     -17.407 -11.844  11.835  1.00  0.00     0.124 S 
ATOM    101  O   UNL     1     -18.556 -11.719  10.943  1.00  0.00    -0.237 OA
ATOM    102  O   UNL     1     -16.740 -13.142  11.825  1.00  0.00    -0.237 OA
ATOM    103  O   UNL     1     -17.572 -11.227  13.147  1.00  0.00    -0.744 OA
ENDBRANCH  99 100
ENDBRANCH  67  92
ENDBRANCH  41  42
ENDBRANCH  33  36
ENDBRANCH  31  32
ENDBRANCH   1  31
TORSDOF 17
