REMARK SMILES O=C1C[C@H](C(=O)NCCCNC(=O)c2ccc(-c3c4nc(c(-c5c(F)cc(S(=O)(=O)[O-])cc5F)c5ccc([nH]5)c(-c5c(F)cc(S(=O)(=O)[O-])cc5F)c5nc(c(-c6c(F)cc(S(=O)(=O)[O-])cc6F)c6ccc3[nH]6)C=C5)C=C4)cc2)c2c(nc(Nc3ccc(Oc4ccccc4)cc3)[nH]c2=O)N1
REMARK SMILES IDX 8 1 7 2 5 3 6 4 4 6 1 7 2 8 3 9 101 10 81 11 80 13 82 14
REMARK SMILES IDX 99 15 83 16 98 17 100 18 84 20 85 22 86 23 97 24 87 25 96 26
REMARK SMILES IDX 88 27 89 28 90 29 91 30 95 31 92 32 94 33 93 34 9 35 10 36
REMARK SMILES IDX 11 37 12 38 13 40 14 41 15 42 79 43 16 44 78 45 17 46 18 47
REMARK SMILES IDX 19 48 72 49 20 50 77 51 71 52 73 53 21 54 76 55 70 56 69 57
REMARK SMILES IDX 22 59 56 60 35 61 55 62 36 63 39 64 54 65 74 66 37 67 38 68
REMARK SMILES IDX 53 70 75 71 40 72 23 73 24 74 33 75 25 76 26 77 32 78 34 79
REMARK SMILES IDX 27 80 28 81 29 82 30 83 31 84 57 85 58 86 67 87 59 88 60 89
REMARK SMILES IDX 66 90 68 91 61 92 62 93 63 94 64 95 65 96 41 97 42 98 51 99
REMARK SMILES IDX 43 100 44 101 50 102 52 103 45 104 46 105 47 106 48 107
REMARK SMILES IDX 49 108
REMARK H PARENT 7 5 101 12 98 19 84 21 11 39 73 58 39 69
REMARK Flexibility Score: inf
ROOT
ATOM      1  C   UNL     1       6.308  -1.072   0.645  1.00  0.00     0.117 C 
ENDROOT
BRANCH   1   2
ATOM      2  N   UNL     1       5.979  -2.312  -0.041  1.00  0.00    -0.355 N 
ATOM      3  C   UNL     1       4.929  -2.657  -0.836  1.00  0.00     0.228 C 
ATOM      4  O   UNL     1       4.841  -3.839  -1.180  1.00  0.00    -0.274 OA
ATOM      5  H   UNL     1       6.635  -3.033   0.094  1.00  0.00     0.163 HD
BRANCH   3   6
ATOM      6  C   UNL     1       3.859  -1.649  -1.253  1.00  0.00     0.127 C 
ATOM      7  O   UNL     1       1.486   0.353   0.755  1.00  0.00    -0.275 OA
ATOM      8  C   UNL     1       2.437   0.054   0.037  1.00  0.00     0.226 C 
ATOM      9  C   UNL     1       2.943  -1.364  -0.058  1.00  0.00     0.119 C 
ATOM     10  N   UNL     1       3.125   1.010  -0.645  1.00  0.00    -0.310 N 
ATOM     11  C   UNL     1       4.117   0.801  -1.547  1.00  0.00     0.146 A 
ATOM     12  H   UNL     1       2.878   1.946  -0.467  1.00  0.00     0.171 HD
ATOM     13  C   UNL     1       4.468  -0.440  -1.889  1.00  0.00     0.073 A 
ATOM     14  N   UNL     1       4.674   1.937  -2.033  1.00  0.00    -0.196 NA
ATOM     15  C   UNL     1       5.514  -0.555  -2.920  1.00  0.00     0.258 A 
ATOM     16  C   UNL     1       5.627   1.843  -2.907  1.00  0.00     0.209 A 
ATOM     17  N   UNL     1       6.052   0.623  -3.350  1.00  0.00    -0.292 N 
ATOM     18  O   UNL     1       5.886  -1.629  -3.377  1.00  0.00    -0.269 OA
ATOM     19  H   UNL     1       6.780   0.592  -4.011  1.00  0.00     0.173 HD
BRANCH  16  20
ATOM     20  N   UNL     1       6.239   2.937  -3.462  1.00  0.00    -0.326 N 
ATOM     21  H   UNL     1       6.840   2.802  -4.230  1.00  0.00     0.170 HD
BRANCH  20  22
ATOM     22  C   UNL     1       6.047   4.242  -2.979  1.00  0.00     0.041 A 
ATOM     23  C   UNL     1       5.533   5.234  -3.820  1.00  0.00     0.030 A 
ATOM     24  C   UNL     1       6.226   4.536  -1.622  1.00  0.00     0.030 A 
ATOM     25  C   UNL     1       5.188   6.489  -3.306  1.00  0.00     0.049 A 
ATOM     26  C   UNL     1       5.897   5.790  -1.110  1.00  0.00     0.049 A 
ATOM     27  C   UNL     1       5.373   6.774  -1.951  1.00  0.00     0.127 A 
BRANCH  27  28
ATOM     28  O   UNL     1       4.968   8.029  -1.541  1.00  0.00    -0.457 OA
BRANCH  28  29
ATOM     29  C   UNL     1       5.335   8.417  -0.276  1.00  0.00     0.127 A 
ATOM     30  C   UNL     1       4.376   8.410   0.737  1.00  0.00     0.047 A 
ATOM     31  C   UNL     1       6.649   8.808  -0.015  1.00  0.00     0.047 A 
ATOM     32  C   UNL     1       4.753   8.740   2.038  1.00  0.00     0.004 A 
ATOM     33  C   UNL     1       7.023   9.132   1.288  1.00  0.00     0.004 A 
ATOM     34  C   UNL     1       6.077   9.090   2.314  1.00  0.00     0.000 A 
ENDBRANCH  28  29
ENDBRANCH  27  28
ENDBRANCH  20  22
ENDBRANCH  16  20
ENDBRANCH   3   6
ENDBRANCH   1   2
BRANCH   1  35
ATOM     35  C   UNL     1       6.296  -1.242   2.157  1.00  0.00     0.042 C 
BRANCH  35  36
ATOM     36  C   UNL     1       7.349  -2.217   2.663  1.00  0.00     0.118 C 
BRANCH  36  37
ATOM     37  N   UNL     1       8.702  -1.705   2.492  1.00  0.00    -0.352 N 
ATOM     38  C   UNL     1       9.588  -1.275   3.450  1.00  0.00     0.251 C 
ATOM     39  H   UNL     1       9.026  -1.661   1.563  1.00  0.00     0.163 HD
ATOM     40  O   UNL     1      10.607  -0.675   3.125  1.00  0.00    -0.269 OA
BRANCH  38  41
ATOM     41  C   UNL     1       9.286  -1.526   4.873  1.00  0.00     0.039 A 
ATOM     42  C   UNL     1       9.364  -0.472   5.784  1.00  0.00     0.014 A 
ATOM     43  C   UNL     1       8.901  -2.803   5.295  1.00  0.00     0.014 A 
ATOM     44  C   UNL     1       8.994  -0.685   7.113  1.00  0.00     0.010 A 
ATOM     45  C   UNL     1       8.461  -2.995   6.599  1.00  0.00     0.010 A 
ATOM     46  C   UNL     1       8.515  -1.941   7.522  1.00  0.00    -0.014 A 
BRANCH  46  47
ATOM     47  C   UNL     1       8.113  -2.184   8.928  1.00  0.00     0.031 A 
ATOM     48  C   UNL     1       8.936  -3.106   9.783  1.00  0.00     0.074 A 
ATOM     49  C   UNL     1       7.000  -1.606   9.419  1.00  0.00     0.049 A 
ATOM     50  N   UNL     1       8.752  -3.458  11.028  1.00  0.00    -0.248 NA
ATOM     51  C   UNL     1      10.110  -3.731   9.149  1.00  0.00     0.031 C 
ATOM     52  C   UNL     1       6.104  -0.724   8.669  1.00  0.00     0.029 A 
ATOM     53  N   UNL     1       6.432  -1.675  10.666  1.00  0.00    -0.354 N 
ATOM     54  C   UNL     1       9.788  -4.333  11.329  1.00  0.00     0.074 A 
ATOM     55  C   UNL     1      10.555  -4.517  10.117  1.00  0.00     0.031 C 
ATOM     56  C   UNL     1       5.114  -0.312   9.480  1.00  0.00     0.029 A 
ATOM     57  C   UNL     1       5.289  -0.921  10.796  1.00  0.00     0.049 A 
ATOM     58  H   UNL     1       6.807  -2.214  11.399  1.00  0.00     0.167 HD
ATOM     59  C   UNL     1      10.094  -4.904  12.517  1.00  0.00     0.037 A 
ATOM     60  C   UNL     1       4.481  -0.739  11.858  1.00  0.00     0.037 A 
ATOM     61  C   UNL     1       9.334  -4.705  13.721  1.00  0.00     0.049 A 
ATOM     62  C   UNL     1       4.818  -1.418  13.160  1.00  0.00     0.074 A 
ATOM     63  C   UNL     1       9.583  -5.205  14.986  1.00  0.00     0.029 A 
ATOM     64  N   UNL     1       8.174  -3.949  13.808  1.00  0.00    -0.354 N 
ATOM     65  N   UNL     1       5.839  -2.191  13.445  1.00  0.00    -0.248 NA
ATOM     66  C   UNL     1       3.897  -1.199  14.284  1.00  0.00     0.031 C 
ATOM     67  C   UNL     1       8.550  -4.786  15.830  1.00  0.00     0.029 A 
ATOM     68  C   UNL     1       7.682  -3.988  15.101  1.00  0.00     0.049 A 
ATOM     69  H   UNL     1       7.762  -3.457  13.062  1.00  0.00     0.167 HD
ATOM     70  C   UNL     1       5.696  -2.531  14.786  1.00  0.00     0.074 A 
ATOM     71  C   UNL     1       4.497  -1.872  15.258  1.00  0.00     0.031 C 
ATOM     72  C   UNL     1       6.487  -3.319  15.555  1.00  0.00     0.037 A 
BRANCH  59  73
ATOM     73  C   UNL     1      11.314  -5.778  12.575  1.00  0.00     0.058 A 
ATOM     74  C   UNL     1      12.606  -5.233  12.489  1.00  0.00     0.135 A 
ATOM     75  C   UNL     1      11.198  -7.165  12.758  1.00  0.00     0.135 A 
ATOM     76  F   UNL     1      12.772  -3.915  12.294  1.00  0.00    -0.206 F 
ATOM     77  C   UNL     1      13.739  -6.034  12.562  1.00  0.00     0.059 A 
ATOM     78  C   UNL     1      12.320  -7.983  12.860  1.00  0.00     0.059 A 
ATOM     79  F   UNL     1       9.987  -7.737  12.840  1.00  0.00    -0.206 F 
ATOM     80  C   UNL     1      13.586  -7.408  12.750  1.00  0.00     0.060 A 
BRANCH  80  81
ATOM     81  S   UNL     1      15.071  -8.428  12.858  1.00  0.00     0.124 S 
ATOM     82  O   UNL     1      15.559  -8.379  11.484  1.00  0.00    -0.237 OA
ATOM     83  O   UNL     1      15.872  -7.706  13.841  1.00  0.00    -0.237 OA
ATOM     84  O   UNL     1      14.564  -9.725  13.296  1.00  0.00    -0.744 OA
ENDBRANCH  80  81
ENDBRANCH  59  73
BRANCH  60  85
ATOM     85  C   UNL     1       3.297   0.155  11.746  1.00  0.00     0.058 A 
ATOM     86  C   UNL     1       3.275   1.400  12.393  1.00  0.00     0.135 A 
ATOM     87  C   UNL     1       2.178  -0.202  10.978  1.00  0.00     0.135 A 
ATOM     88  F   UNL     1       4.317   1.783  13.145  1.00  0.00    -0.206 F 
ATOM     89  C   UNL     1       2.183   2.256  12.289  1.00  0.00     0.059 A 
ATOM     90  C   UNL     1       1.084   0.647  10.840  1.00  0.00     0.059 A 
ATOM     91  F   UNL     1       2.155  -1.377  10.329  1.00  0.00    -0.206 F 
ATOM     92  C   UNL     1       1.094   1.873  11.505  1.00  0.00     0.060 A 
BRANCH  92  93
ATOM     93  S   UNL     1      -0.292   3.019  11.337  1.00  0.00     0.124 S 
ATOM     94  O   UNL     1      -0.870   2.981  12.676  1.00  0.00    -0.237 OA
ATOM     95  O   UNL     1       0.384   4.259  10.968  1.00  0.00    -0.237 OA
ATOM     96  O   UNL     1      -1.101   2.417  10.283  1.00  0.00    -0.744 OA
ENDBRANCH  92  93
ENDBRANCH  60  85
BRANCH  72  97
ATOM     97  C   UNL     1       6.098  -3.512  16.994  1.00  0.00     0.058 A 
ATOM     98  C   UNL     1       5.027  -4.341  17.357  1.00  0.00     0.135 A 
ATOM     99  C   UNL     1       6.869  -2.944  18.022  1.00  0.00     0.135 A 
ATOM    100  F   UNL     1       4.256  -4.902  16.412  1.00  0.00    -0.206 F 
ATOM    101  C   UNL     1       4.731  -4.600  18.691  1.00  0.00     0.059 A 
ATOM    102  C   UNL     1       6.606  -3.210  19.362  1.00  0.00     0.059 A 
ATOM    103  F   UNL     1       7.911  -2.150  17.727  1.00  0.00    -0.206 F 
ATOM    104  C   UNL     1       5.533  -4.038  19.686  1.00  0.00     0.060 A 
BRANCH 104 105
ATOM    105  S   UNL     1       5.176  -4.442  21.409  1.00  0.00     0.124 S 
ATOM    106  O   UNL     1       3.931  -3.715  21.631  1.00  0.00    -0.237 OA
ATOM    107  O   UNL     1       5.063  -5.897  21.370  1.00  0.00    -0.237 OA
ATOM    108  O   UNL     1       6.339  -3.928  22.128  1.00  0.00    -0.744 OA
ENDBRANCH 104 105
ENDBRANCH  72  97
ENDBRANCH  46  47
ENDBRANCH  38  41
ENDBRANCH  36  37
ENDBRANCH  35  36
ENDBRANCH   1  35
TORSDOF 17
