REMARK SMILES N#Cc1nccnc1N(CC(=O)NCCCNC(=O)c1ccc(-c2c3nc(c(-c4c(F)cc(S(=O)(=O)[O-])cc4F)c4ccc([nH]4)c(-c4c(F)cc(S(=O)(=O)[O-])cc4F)c4nc(c(-c5c(F)cc(S(=O)(=O)[O-])cc5F)c5ccc2[nH]5)C=C4)C=C3)cc1)CC(F)(F)F
REMARK SMILES IDX 15 1 14 2 13 3 11 4 12 5 10 7 9 8 8 9 3 10 4 11 5 12 7 13
REMARK SMILES IDX 6 14 2 15 1 16 86 17 87 18 88 19 89 20 90 21 16 22 17 23
REMARK SMILES IDX 18 24 19 26 20 27 21 28 85 29 22 30 84 31 23 32 24 33 25 34
REMARK SMILES IDX 78 35 26 36 83 37 77 38 79 39 27 40 82 41 76 42 75 43 28 45
REMARK SMILES IDX 62 46 41 47 61 48 42 49 45 50 60 51 80 52 43 53 44 54 59 56
REMARK SMILES IDX 81 57 46 58 29 59 30 60 39 61 31 62 32 63 38 64 40 65 33 66
REMARK SMILES IDX 34 67 35 68 36 69 37 70 63 71 64 72 73 73 65 74 66 75 72 76
REMARK SMILES IDX 74 77 67 78 68 79 69 80 70 81 71 82 47 83 48 84 57 85 49 86
REMARK SMILES IDX 50 87 56 88 58 89 51 90 52 91 53 92 54 93 55 94
REMARK H PARENT 13 6 17 25 79 44 45 55
REMARK Flexibility Score: inf
ROOT
ATOM      1  C   UNL     1       3.814  -2.497   3.168  1.00  0.00     0.042 C 
ENDROOT
BRANCH   1   2
ATOM      2  C   UNL     1       4.784  -3.455   2.489  1.00  0.00     0.117 C 
BRANCH   2   3
ATOM      3  N   UNL     1       4.104  -4.517   1.769  1.00  0.00    -0.354 N 
ATOM      4  C   UNL     1       3.861  -4.626   0.431  1.00  0.00     0.239 C 
ATOM      5  O   UNL     1       3.223  -5.601   0.024  1.00  0.00    -0.273 OA
ATOM      6  H   UNL     1       3.773  -5.261   2.323  1.00  0.00     0.163 HD
BRANCH   4   7
ATOM      7  C   UNL     1       4.372  -3.557  -0.540  1.00  0.00     0.218 C 
BRANCH   7   8
ATOM      8  N   UNL     1       3.568  -2.308  -0.505  1.00  0.00    -0.336 N 
BRANCH   8   9
ATOM      9  C   UNL     1       4.241  -1.107  -0.342  1.00  0.00     0.166 A 
ATOM     10  C   UNL     1       3.739   0.208  -0.458  1.00  0.00     0.183 A 
ATOM     11  N   UNL     1       4.494   1.335  -0.257  1.00  0.00    -0.240 NA
ATOM     12  C   UNL     1       5.781   1.148   0.073  1.00  0.00     0.133 A 
ATOM     13  N   UNL     1       5.564  -1.225  -0.029  1.00  0.00    -0.235 NA
ATOM     14  C   UNL     1       6.309  -0.113   0.177  1.00  0.00     0.133 A 
BRANCH  10  15
ATOM     15  C   UNL     1       2.404   0.529  -0.868  1.00  0.00     0.123 C 
ATOM     16  N   UNL     1       1.323   0.740  -1.234  1.00  0.00    -0.191 NA
ENDBRANCH  10  15
ENDBRANCH   8   9
BRANCH   8  17
ATOM     17  C   UNL     1       2.115  -2.475  -0.804  1.00  0.00     0.234 C 
BRANCH  17  18
ATOM     18  C   UNL     1       1.147  -2.350   0.389  1.00  0.00     0.405 C 
ATOM     19  F   UNL     1       1.356  -1.220   1.097  1.00  0.00    -0.169 F 
ATOM     20  F   UNL     1      -0.136  -2.344  -0.036  1.00  0.00    -0.169 F 
ATOM     21  F   UNL     1       1.280  -3.388   1.246  1.00  0.00    -0.169 F 
ENDBRANCH  17  18
ENDBRANCH   8  17
ENDBRANCH   7   8
ENDBRANCH   4   7
ENDBRANCH   2   3
ENDBRANCH   1   2
BRANCH   1  22
ATOM     22  C   UNL     1       2.979  -3.153   4.261  1.00  0.00     0.118 C 
BRANCH  22  23
ATOM     23  N   UNL     1       3.781  -3.511   5.427  1.00  0.00    -0.352 N 
ATOM     24  C   UNL     1       3.702  -3.056   6.722  1.00  0.00     0.251 C 
ATOM     25  H   UNL     1       4.484  -4.180   5.261  1.00  0.00     0.163 HD
ATOM     26  O   UNL     1       4.606  -3.313   7.512  1.00  0.00    -0.269 OA
BRANCH  24  27
ATOM     27  C   UNL     1       2.546  -2.237   7.150  1.00  0.00     0.039 A 
ATOM     28  C   UNL     1       1.253  -2.567   6.743  1.00  0.00     0.014 A 
ATOM     29  C   UNL     1       2.761  -1.117   7.957  1.00  0.00     0.014 A 
ATOM     30  C   UNL     1       0.210  -1.679   6.976  1.00  0.00     0.010 A 
ATOM     31  C   UNL     1       1.688  -0.280   8.280  1.00  0.00     0.010 A 
ATOM     32  C   UNL     1       0.413  -0.523   7.747  1.00  0.00    -0.014 A 
BRANCH  32  33
ATOM     33  C   UNL     1      -0.716   0.420   7.972  1.00  0.00     0.031 A 
ATOM     34  C   UNL     1      -0.648   1.838   7.465  1.00  0.00     0.074 A 
ATOM     35  C   UNL     1      -1.831  -0.019   8.588  1.00  0.00     0.049 A 
ATOM     36  N   UNL     1      -1.535   2.795   7.568  1.00  0.00    -0.248 NA
ATOM     37  C   UNL     1       0.579   2.236   6.757  1.00  0.00     0.031 C 
ATOM     38  C   UNL     1      -2.031  -1.378   9.098  1.00  0.00     0.029 A 
ATOM     39  N   UNL     1      -3.015   0.616   8.867  1.00  0.00    -0.354 N 
ATOM     40  C   UNL     1      -0.978   3.903   6.938  1.00  0.00     0.074 A 
ATOM     41  C   UNL     1       0.351   3.518   6.514  1.00  0.00     0.031 C 
ATOM     42  C   UNL     1      -3.281  -1.492   9.568  1.00  0.00     0.029 A 
ATOM     43  C   UNL     1      -3.948  -0.198   9.464  1.00  0.00     0.049 A 
ATOM     44  H   UNL     1      -3.180   1.563   8.659  1.00  0.00     0.167 HD
ATOM     45  C   UNL     1      -1.531   5.120   6.710  1.00  0.00     0.037 A 
ATOM     46  C   UNL     1      -5.197   0.065   9.893  1.00  0.00     0.037 A 
ATOM     47  C   UNL     1      -2.855   5.496   7.138  1.00  0.00     0.049 A 
ATOM     48  C   UNL     1      -5.750   1.452   9.723  1.00  0.00     0.074 A 
ATOM     49  C   UNL     1      -3.501   6.708   6.971  1.00  0.00     0.029 A 
ATOM     50  N   UNL     1      -3.737   4.666   7.817  1.00  0.00    -0.354 N 
ATOM     51  N   UNL     1      -5.206   2.490   9.135  1.00  0.00    -0.248 NA
ATOM     52  C   UNL     1      -7.085   1.705  10.282  1.00  0.00     0.031 C 
ATOM     53  C   UNL     1      -4.749   6.630   7.597  1.00  0.00     0.029 A 
ATOM     54  C   UNL     1      -4.910   5.348   8.099  1.00  0.00     0.049 A 
ATOM     55  H   UNL     1      -3.556   3.730   8.062  1.00  0.00     0.167 HD
ATOM     56  C   UNL     1      -6.141   3.515   9.231  1.00  0.00     0.074 A 
ATOM     57  C   UNL     1      -7.290   2.965   9.921  1.00  0.00     0.031 C 
ATOM     58  C   UNL     1      -6.052   4.793   8.787  1.00  0.00     0.037 A 
BRANCH  45  59
ATOM     59  C   UNL     1      -0.700   6.136   5.967  1.00  0.00     0.058 A 
ATOM     60  C   UNL     1      -0.370   5.969   4.612  1.00  0.00     0.135 A 
ATOM     61  C   UNL     1      -0.246   7.302   6.606  1.00  0.00     0.135 A 
ATOM     62  F   UNL     1      -0.767   4.870   3.950  1.00  0.00    -0.206 F 
ATOM     63  C   UNL     1       0.415   6.894   3.931  1.00  0.00     0.059 A 
ATOM     64  C   UNL     1       0.511   8.259   5.935  1.00  0.00     0.059 A 
ATOM     65  F   UNL     1      -0.534   7.522   7.899  1.00  0.00    -0.206 F 
ATOM     66  C   UNL     1       0.854   8.036   4.602  1.00  0.00     0.060 A 
BRANCH  66  67
ATOM     67  S   UNL     1       1.898   9.208   3.711  1.00  0.00     0.124 S 
ATOM     68  O   UNL     1       3.118   8.428   3.522  1.00  0.00    -0.237 OA
ATOM     69  O   UNL     1       1.118   9.465   2.506  1.00  0.00    -0.237 OA
ATOM     70  O   UNL     1       2.014  10.334   4.633  1.00  0.00    -0.744 OA
ENDBRANCH  66  67
ENDBRANCH  45  59
BRANCH  46  71
ATOM     71  C   UNL     1      -6.011  -1.024  10.495  1.00  0.00     0.058 A 
ATOM     72  C   UNL     1      -7.128  -1.538   9.820  1.00  0.00     0.135 A 
ATOM     73  C   UNL     1      -5.662  -1.612  11.722  1.00  0.00     0.135 A 
ATOM     74  F   UNL     1      -7.508  -1.004   8.650  1.00  0.00    -0.206 F 
ATOM     75  C   UNL     1      -7.867  -2.597  10.336  1.00  0.00     0.059 A 
ATOM     76  C   UNL     1      -6.367  -2.692  12.243  1.00  0.00     0.059 A 
ATOM     77  F   UNL     1      -4.594  -1.165  12.402  1.00  0.00    -0.206 F 
ATOM     78  C   UNL     1      -7.470  -3.176  11.543  1.00  0.00     0.060 A 
BRANCH  78  79
ATOM     79  S   UNL     1      -8.395  -4.599  12.158  1.00  0.00     0.124 S 
ATOM     80  O   UNL     1      -9.689  -4.001  12.463  1.00  0.00    -0.237 OA
ATOM     81  O   UNL     1      -8.361  -5.499  11.009  1.00  0.00    -0.237 OA
ATOM     82  O   UNL     1      -7.614  -5.036  13.312  1.00  0.00    -0.744 OA
ENDBRANCH  78  79
ENDBRANCH  46  71
BRANCH  58  83
ATOM     83  C   UNL     1      -7.236   5.695   9.013  1.00  0.00     0.058 A 
ATOM     84  C   UNL     1      -7.573   6.164  10.293  1.00  0.00     0.135 A 
ATOM     85  C   UNL     1      -7.999   6.157   7.927  1.00  0.00     0.135 A 
ATOM     86  F   UNL     1      -6.884   5.749  11.368  1.00  0.00    -0.206 F 
ATOM     87  C   UNL     1      -8.632   7.044  10.489  1.00  0.00     0.059 A 
ATOM     88  C   UNL     1      -9.041   7.063   8.096  1.00  0.00     0.059 A 
ATOM     89  F   UNL     1      -7.716   5.748   6.679  1.00  0.00    -0.206 F 
ATOM     90  C   UNL     1      -9.355   7.495   9.383  1.00  0.00     0.060 A 
BRANCH  90  91
ATOM     91  S   UNL     1     -10.694   8.675   9.655  1.00  0.00     0.124 S 
ATOM     92  O   UNL     1     -11.665   7.858  10.376  1.00  0.00    -0.237 OA
ATOM     93  O   UNL     1     -10.035   9.715  10.438  1.00  0.00    -0.237 OA
ATOM     94  O   UNL     1     -11.085   9.066   8.304  1.00  0.00    -0.744 OA
ENDBRANCH  90  91
ENDBRANCH  58  83
ENDBRANCH  32  33
ENDBRANCH  24  27
ENDBRANCH  22  23
ENDBRANCH   1  22
TORSDOF 18
