REMARK SMILES Cn1cc2cc(C(=O)NCCCNC(=O)c3ccc(-c4c5nc(c(-c6c(F)cc(S(=O)(=O)[O-])cc6F)c6ccc([nH]6)c(-c6c(F)cc(S(=O)(=O)[O-])cc6F)c6nc(c(-c7c(F)cc(S(=O)(=O)[O-])cc7F)c7ccc4[nH]7)C=C6)C=C5)cc3)ccc2n1
REMARK SMILES IDX 13 1 14 2 15 3 12 5 11 6 10 7 9 8 7 9 8 10 6 12 1 13 2 14
REMARK SMILES IDX 3 15 85 16 4 17 84 18 5 19 83 20 82 21 16 22 17 23 81 24
REMARK SMILES IDX 18 25 80 26 19 27 20 28 21 29 74 30 22 31 79 32 73 33 75 34
REMARK SMILES IDX 23 35 78 36 72 37 71 38 24 40 58 41 37 42 57 43 38 44 41 45
REMARK SMILES IDX 56 46 76 47 39 48 40 49 55 51 77 52 42 53 25 54 26 55 35 56
REMARK SMILES IDX 27 57 28 58 34 59 36 60 29 61 30 62 31 63 32 64 33 65 59 66
REMARK SMILES IDX 60 67 69 68 61 69 62 70 68 71 70 72 63 73 64 74 65 75 66 76
REMARK SMILES IDX 67 77 43 78 44 79 53 80 45 81 46 82 52 83 54 84 47 85 48 86
REMARK SMILES IDX 49 87 50 88 51 89
REMARK H PARENT 13 4 9 11 75 39 41 50
REMARK Flexibility Score: inf
ROOT
ATOM      1  N   UNL     1       8.124   1.626   0.199  1.00  0.00    -0.352 N 
ATOM      2  C   UNL     1       9.222   2.436   0.345  1.00  0.00     0.251 C 
ATOM      3  O   UNL     1       9.798   2.837  -0.664  1.00  0.00    -0.269 OA
ATOM      4  H   UNL     1       7.994   1.266  -0.708  1.00  0.00     0.163 HD
ENDROOT
BRANCH   1   5
ATOM      5  C   UNL     1       7.122   1.213   1.169  1.00  0.00     0.118 C 
BRANCH   5   6
ATOM      6  C   UNL     1       5.708   1.581   0.718  1.00  0.00     0.042 C 
BRANCH   6   7
ATOM      7  C   UNL     1       5.211   0.765  -0.476  1.00  0.00     0.118 C 
BRANCH   7   8
ATOM      8  N   UNL     1       4.843  -0.581  -0.082  1.00  0.00    -0.352 N 
ATOM      9  C   UNL     1       3.642  -1.187   0.180  1.00  0.00     0.251 C 
ATOM     10  O   UNL     1       3.672  -2.396   0.420  1.00  0.00    -0.269 OA
ATOM     11  H   UNL     1       5.614  -1.184   0.019  1.00  0.00     0.163 HD
BRANCH   9  12
ATOM     12  C   UNL     1       2.316  -0.494   0.152  1.00  0.00     0.040 A 
ATOM     13  C   UNL     1      -3.548  -0.240  -0.028  1.00  0.00     0.173 C 
ATOM     14  N   UNL     1      -2.107  -0.174  -0.030  1.00  0.00    -0.275 N 
ATOM     15  C   UNL     1      -1.244  -1.223  -0.165  1.00  0.00     0.117 A 
ATOM     16  N   UNL     1      -1.508   1.024   0.138  1.00  0.00    -0.173 NA
ATOM     17  C   UNL     1      -0.004  -0.662  -0.039  1.00  0.00     0.021 A 
ATOM     18  C   UNL     1      -0.195   0.746   0.174  1.00  0.00     0.092 A 
ATOM     19  C   UNL     1       1.204  -1.349  -0.073  1.00  0.00     0.025 A 
ATOM     20  C   UNL     1       0.903   1.587   0.393  1.00  0.00     0.032 A 
ATOM     21  C   UNL     1       2.150   0.910   0.405  1.00  0.00     0.016 A 
ENDBRANCH   9  12
ENDBRANCH   7   8
ENDBRANCH   6   7
ENDBRANCH   5   6
ENDBRANCH   1   5
BRANCH   2  22
ATOM     22  C   UNL     1       9.718   2.834   1.684  1.00  0.00     0.039 A 
ATOM     23  C   UNL     1      10.245   4.121   1.843  1.00  0.00     0.014 A 
ATOM     24  C   UNL     1       9.749   1.937   2.755  1.00  0.00     0.014 A 
ATOM     25  C   UNL     1      10.771   4.515   3.076  1.00  0.00     0.010 A 
ATOM     26  C   UNL     1      10.217   2.351   4.003  1.00  0.00     0.010 A 
ATOM     27  C   UNL     1      10.748   3.639   4.173  1.00  0.00    -0.014 A 
BRANCH  27  28
ATOM     28  C   UNL     1      11.295   4.050   5.492  1.00  0.00     0.031 A 
ATOM     29  C   UNL     1      12.514   3.367   6.054  1.00  0.00     0.074 A 
ATOM     30  C   UNL     1      10.671   5.010   6.202  1.00  0.00     0.049 A 
ATOM     31  N   UNL     1      13.108   3.553   7.205  1.00  0.00    -0.248 NA
ATOM     32  C   UNL     1      13.131   2.320   5.225  1.00  0.00     0.031 C 
ATOM     33  C   UNL     1       9.457   5.715   5.785  1.00  0.00     0.029 A 
ATOM     34  N   UNL     1      10.965   5.553   7.428  1.00  0.00    -0.354 N 
ATOM     35  C   UNL     1      14.155   2.638   7.246  1.00  0.00     0.074 A 
ATOM     36  C   UNL     1      14.087   1.867   6.023  1.00  0.00     0.031 C 
ATOM     37  C   UNL     1       9.122   6.610   6.729  1.00  0.00     0.029 A 
ATOM     38  C   UNL     1      10.077   6.522   7.830  1.00  0.00     0.049 A 
ATOM     39  H   UNL     1      11.740   5.274   7.968  1.00  0.00     0.167 HD
ATOM     40  C   UNL     1      15.098   2.469   8.204  1.00  0.00     0.037 A 
ATOM     41  C   UNL     1      10.036   7.257   8.958  1.00  0.00     0.037 A 
ATOM     42  C   UNL     1      15.180   3.260   9.405  1.00  0.00     0.049 A 
ATOM     43  C   UNL     1      11.110   7.071   9.994  1.00  0.00     0.074 A 
ATOM     44  C   UNL     1      16.127   3.202  10.413  1.00  0.00     0.029 A 
ATOM     45  N   UNL     1      14.283   4.257   9.758  1.00  0.00    -0.354 N 
ATOM     46  N   UNL     1      12.121   6.236   9.992  1.00  0.00    -0.248 NA
ATOM     47  C   UNL     1      11.045   7.936  11.180  1.00  0.00     0.031 C 
ATOM     48  C   UNL     1      15.785   4.144  11.391  1.00  0.00     0.029 A 
ATOM     49  C   UNL     1      14.648   4.816  10.972  1.00  0.00     0.049 A 
ATOM     50  H   UNL     1      13.501   4.528   9.225  1.00  0.00     0.167 HD
ATOM     51  C   UNL     1      12.828   6.492  11.161  1.00  0.00     0.074 A 
ATOM     52  C   UNL     1      12.135   7.568  11.840  1.00  0.00     0.031 C 
ATOM     53  C   UNL     1      13.950   5.893  11.630  1.00  0.00     0.037 A 
BRANCH  40  54
ATOM     54  C   UNL     1      16.123   1.388   7.989  1.00  0.00     0.058 A 
ATOM     55  C   UNL     1      17.128   1.510   7.016  1.00  0.00     0.135 A 
ATOM     56  C   UNL     1      16.117   0.228   8.781  1.00  0.00     0.135 A 
ATOM     57  F   UNL     1      17.172   2.591   6.222  1.00  0.00    -0.206 F 
ATOM     58  C   UNL     1      18.071   0.507   6.814  1.00  0.00     0.059 A 
ATOM     59  C   UNL     1      17.067  -0.776   8.614  1.00  0.00     0.059 A 
ATOM     60  F   UNL     1      15.181   0.060   9.727  1.00  0.00    -0.206 F 
ATOM     61  C   UNL     1      18.030  -0.634   7.615  1.00  0.00     0.060 A 
BRANCH  61  62
ATOM     62  S   UNL     1      19.259  -1.929   7.339  1.00  0.00     0.124 S 
ATOM     63  O   UNL     1      18.759  -2.546   6.114  1.00  0.00    -0.237 OA
ATOM     64  O   UNL     1      20.495  -1.165   7.204  1.00  0.00    -0.237 OA
ATOM     65  O   UNL     1      19.162  -2.751   8.541  1.00  0.00    -0.744 OA
ENDBRANCH  61  62
ENDBRANCH  40  54
BRANCH  41  66
ATOM     66  C   UNL     1       8.956   8.260   9.148  1.00  0.00     0.058 A 
ATOM     67  C   UNL     1       9.226   9.633   9.066  1.00  0.00     0.135 A 
ATOM     68  C   UNL     1       7.631   7.867   9.396  1.00  0.00     0.135 A 
ATOM     69  F   UNL     1      10.478  10.057   8.836  1.00  0.00    -0.206 F 
ATOM     70  C   UNL     1       8.226  10.585   9.236  1.00  0.00     0.059 A 
ATOM     71  C   UNL     1       6.609   8.799   9.547  1.00  0.00     0.059 A 
ATOM     72  F   UNL     1       7.318   6.564   9.465  1.00  0.00    -0.206 F 
ATOM     73  C   UNL     1       6.919  10.157   9.475  1.00  0.00     0.060 A 
BRANCH  73  74
ATOM     74  S   UNL     1       5.617  11.397   9.641  1.00  0.00     0.124 S 
ATOM     75  O   UNL     1       5.870  11.911  10.982  1.00  0.00    -0.237 OA
ATOM     76  O   UNL     1       5.916  12.308   8.540  1.00  0.00    -0.237 OA
ATOM     77  O   UNL     1       4.392  10.619   9.483  1.00  0.00    -0.744 OA
ENDBRANCH  73  74
ENDBRANCH  41  66
BRANCH  53  78
ATOM     78  C   UNL     1      14.519   6.412  12.921  1.00  0.00     0.058 A 
ATOM     79  C   UNL     1      13.910   6.144  14.156  1.00  0.00     0.135 A 
ATOM     80  C   UNL     1      15.707   7.161  12.922  1.00  0.00     0.135 A 
ATOM     81  F   UNL     1      12.770   5.437  14.208  1.00  0.00    -0.206 F 
ATOM     82  C   UNL     1      14.442   6.627  15.347  1.00  0.00     0.059 A 
ATOM     83  C   UNL     1      16.270   7.632  14.103  1.00  0.00     0.059 A 
ATOM     84  F   UNL     1      16.334   7.436  11.768  1.00  0.00    -0.206 F 
ATOM     85  C   UNL     1      15.622   7.373  15.310  1.00  0.00     0.060 A 
BRANCH  85  86
ATOM     86  S   UNL     1      16.315   7.980  16.863  1.00  0.00     0.124 S 
ATOM     87  O   UNL     1      15.441   9.112  17.151  1.00  0.00    -0.237 OA
ATOM     88  O   UNL     1      16.170   6.826  17.745  1.00  0.00    -0.237 OA
ATOM     89  O   UNL     1      17.690   8.321  16.509  1.00  0.00    -0.744 OA
ENDBRANCH  85  86
ENDBRANCH  53  78
ENDBRANCH  27  28
ENDBRANCH   2  22
TORSDOF 13
