REMARK SMILES N#CCSc1nnnn1-c1ccc(C(=O)NCCCNC(=O)c2ccc(-c3c4nc(c(-c5c(F)cc(S(=O)(=O)[O-])cc5F)c5ccc([nH]5)c(-c5c(F)cc(S(=O)(=O)[O-])cc5F)c5nc(c(-c6c(F)cc(S(=O)(=O)[O-])cc6F)c6ccc3[nH]6)C=C5)C=C4)cc2)cc1
REMARK SMILES IDX 17 1 16 2 14 3 15 4 13 6 10 7 11 8 90 9 12 10 89 11 9 12
REMARK SMILES IDX 5 13 6 14 7 15 8 16 4 17 3 18 2 19 1 20 18 21 19 22 20 23
REMARK SMILES IDX 21 24 22 26 23 27 24 28 88 29 25 30 87 31 26 32 27 33 28 34
REMARK SMILES IDX 81 35 29 36 86 37 80 38 82 39 30 40 85 41 79 42 78 43 31 45
REMARK SMILES IDX 65 46 44 47 64 48 45 49 48 50 63 51 83 52 46 53 47 54 62 56
REMARK SMILES IDX 84 57 49 58 32 59 33 60 42 61 34 62 35 63 41 64 43 65 36 66
REMARK SMILES IDX 37 67 38 68 39 69 40 70 66 71 67 72 76 73 68 74 69 75 75 76
REMARK SMILES IDX 77 77 70 78 71 79 72 80 73 81 74 82 50 83 51 84 60 85 52 86
REMARK SMILES IDX 53 87 59 88 61 89 54 90 55 91 56 92 57 93 58 94
REMARK H PARENT 16 5 20 25 82 44 48 55
REMARK Flexibility Score: inf
ROOT
ATOM      1  C   UNL     1       4.245   3.684  -2.449  1.00  0.00     0.118 C 
ENDROOT
BRANCH   1   2
ATOM      2  N   UNL     1       5.266   4.597  -1.950  1.00  0.00    -0.352 N 
ATOM      3  C   UNL     1       5.785   4.797  -0.691  1.00  0.00     0.251 C 
ATOM      4  O   UNL     1       6.764   5.527  -0.563  1.00  0.00    -0.269 OA
ATOM      5  H   UNL     1       5.658   5.178  -2.642  1.00  0.00     0.163 HD
BRANCH   3   6
ATOM      6  C   UNL     1       5.263   4.077   0.498  1.00  0.00     0.039 A 
ATOM      7  C   UNL     1       4.478   2.362   2.526  1.00  0.00     0.069 A 
ATOM      8  C   UNL     1       5.790   2.833   2.520  1.00  0.00     0.029 A 
ATOM      9  C   UNL     1       3.517   2.861   1.647  1.00  0.00     0.029 A 
ATOM     10  C   UNL     1       6.180   3.692   1.491  1.00  0.00     0.016 A 
ATOM     11  C   UNL     1       3.915   3.741   0.649  1.00  0.00     0.016 A 
BRANCH   7  12
ATOM     12  N   UNL     1       4.137   1.267   3.321  1.00  0.00    -0.187 N 
ATOM     13  C   UNL     1       3.873  -0.031   2.922  1.00  0.00     0.215 A 
ATOM     14  N   UNL     1       3.305  -0.660   3.928  1.00  0.00    -0.101 NA
ATOM     15  N   UNL     1       3.206   0.257   4.946  1.00  0.00    -0.022 NA
ATOM     16  N   UNL     1       3.720   1.427   4.592  1.00  0.00    -0.039 NA
BRANCH  13  17
ATOM     17  S   UNL     1       4.546  -0.833   1.531  1.00  0.00    -0.069 SA
BRANCH  17  18
ATOM     18  C   UNL     1       3.798  -0.080   0.058  1.00  0.00     0.198 C 
BRANCH  18  19
ATOM     19  C   UNL     1       2.278  -0.080   0.058  1.00  0.00     0.074 C 
ATOM     20  N   UNL     1       1.018  -0.080   0.058  1.00  0.00    -0.197 NA
ENDBRANCH  18  19
ENDBRANCH  17  18
ENDBRANCH  13  17
ENDBRANCH   7  12
ENDBRANCH   3   6
ENDBRANCH   1   2
BRANCH   1  21
ATOM     21  C   UNL     1       2.879   4.361  -2.617  1.00  0.00     0.042 C 
BRANCH  21  22
ATOM     22  C   UNL     1       2.792   5.189  -3.884  1.00  0.00     0.118 C 
BRANCH  22  23
ATOM     23  N   UNL     1       2.710   4.367  -5.092  1.00  0.00    -0.352 N 
ATOM     24  C   UNL     1       2.605   4.797  -6.407  1.00  0.00     0.251 C 
ATOM     25  H   UNL     1       2.732   3.393  -4.955  1.00  0.00     0.163 HD
ATOM     26  O   UNL     1       2.185   4.051  -7.272  1.00  0.00    -0.269 OA
BRANCH  24  27
ATOM     27  C   UNL     1       3.017   6.178  -6.724  1.00  0.00     0.039 A 
ATOM     28  C   UNL     1       2.302   6.977  -7.621  1.00  0.00     0.014 A 
ATOM     29  C   UNL     1       4.126   6.679  -6.054  1.00  0.00     0.014 A 
ATOM     30  C   UNL     1       2.675   8.312  -7.771  1.00  0.00     0.010 A 
ATOM     31  C   UNL     1       4.356   8.026  -6.044  1.00  0.00     0.010 A 
ATOM     32  C   UNL     1       3.695   8.834  -6.960  1.00  0.00    -0.014 A 
BRANCH  32  33
ATOM     33  C   UNL     1       4.016  10.258  -6.941  1.00  0.00     0.031 A 
ATOM     34  C   UNL     1       2.847  11.127  -6.624  1.00  0.00     0.074 A 
ATOM     35  C   UNL     1       5.297  10.697  -6.928  1.00  0.00     0.049 A 
ATOM     36  N   UNL     1       2.267  11.991  -7.390  1.00  0.00    -0.248 NA
ATOM     37  C   UNL     1       2.119  10.878  -5.364  1.00  0.00     0.031 C 
ATOM     38  C   UNL     1       6.527   9.889  -6.912  1.00  0.00     0.029 A 
ATOM     39  N   UNL     1       5.786  11.958  -6.792  1.00  0.00    -0.354 N 
ATOM     40  C   UNL     1       1.282  12.586  -6.605  1.00  0.00     0.074 A 
ATOM     41  C   UNL     1       1.080  11.706  -5.486  1.00  0.00     0.031 C 
ATOM     42  C   UNL     1       7.572  10.650  -6.518  1.00  0.00     0.029 A 
ATOM     43  C   UNL     1       7.132  12.028  -6.431  1.00  0.00     0.049 A 
ATOM     44  H   UNL     1       5.233  12.760  -6.938  1.00  0.00     0.167 HD
ATOM     45  C   UNL     1       0.940  13.893  -6.783  1.00  0.00     0.037 A 
ATOM     46  C   UNL     1       7.825  13.137  -6.062  1.00  0.00     0.037 A 
ATOM     47  C   UNL     1       1.402  14.371  -8.064  1.00  0.00     0.049 A 
ATOM     48  C   UNL     1       7.048  14.304  -6.553  1.00  0.00     0.074 A 
ATOM     49  C   UNL     1       1.199  13.987  -9.376  1.00  0.00     0.029 A 
ATOM     50  N   UNL     1       2.533  15.153  -8.074  1.00  0.00    -0.354 N 
ATOM     51  N   UNL     1       6.852  14.563  -7.818  1.00  0.00    -0.248 NA
ATOM     52  C   UNL     1       6.085  14.897  -5.640  1.00  0.00     0.031 C 
ATOM     53  C   UNL     1       2.467  14.146 -10.007  1.00  0.00     0.029 A 
ATOM     54  C   UNL     1       3.350  14.702  -9.079  1.00  0.00     0.049 A 
ATOM     55  H   UNL     1       2.722  15.905  -7.467  1.00  0.00     0.167 HD
ATOM     56  C   UNL     1       5.527  14.967  -7.897  1.00  0.00     0.074 A 
ATOM     57  C   UNL     1       5.130  15.229  -6.513  1.00  0.00     0.031 C 
ATOM     58  C   UNL     1       4.795  14.767  -9.034  1.00  0.00     0.037 A 
BRANCH  45  59
ATOM     59  C   UNL     1       0.571  14.841  -5.658  1.00  0.00     0.058 A 
ATOM     60  C   UNL     1       0.143  16.148  -5.977  1.00  0.00     0.135 A 
ATOM     61  C   UNL     1       0.886  14.628  -4.296  1.00  0.00     0.135 A 
ATOM     62  F   UNL     1      -0.182  16.471  -7.239  1.00  0.00    -0.206 F 
ATOM     63  C   UNL     1       0.116  17.180  -5.037  1.00  0.00     0.059 A 
ATOM     64  C   UNL     1       0.813  15.628  -3.333  1.00  0.00     0.059 A 
ATOM     65  F   UNL     1       1.373  13.471  -3.838  1.00  0.00    -0.206 F 
ATOM     66  C   UNL     1       0.468  16.911  -3.719  1.00  0.00     0.060 A 
BRANCH  66  67
ATOM     67  S   UNL     1       0.528  18.255  -2.523  1.00  0.00     0.124 S 
ATOM     68  O   UNL     1       1.665  19.026  -3.011  1.00  0.00    -0.237 OA
ATOM     69  O   UNL     1      -0.785  18.867  -2.694  1.00  0.00    -0.237 OA
ATOM     70  O   UNL     1       0.730  17.563  -1.253  1.00  0.00    -0.744 OA
ENDBRANCH  66  67
ENDBRANCH  45  59
BRANCH  46  71
ATOM     71  C   UNL     1       8.896  13.264  -5.031  1.00  0.00     0.058 A 
ATOM     72  C   UNL     1       9.674  14.432  -4.923  1.00  0.00     0.135 A 
ATOM     73  C   UNL     1       8.982  12.366  -3.948  1.00  0.00     0.135 A 
ATOM     74  F   UNL     1       9.642  15.355  -5.897  1.00  0.00    -0.206 F 
ATOM     75  C   UNL     1      10.449  14.717  -3.790  1.00  0.00     0.059 A 
ATOM     76  C   UNL     1       9.752  12.624  -2.812  1.00  0.00     0.059 A 
ATOM     77  F   UNL     1       8.244  11.247  -3.919  1.00  0.00    -0.206 F 
ATOM     78  C   UNL     1      10.464  13.815  -2.728  1.00  0.00     0.060 A 
BRANCH  78  79
ATOM     79  S   UNL     1      11.318  14.254  -1.192  1.00  0.00     0.124 S 
ATOM     80  O   UNL     1      12.718  14.206  -1.600  1.00  0.00    -0.237 OA
ATOM     81  O   UNL     1      10.783  15.582  -0.909  1.00  0.00    -0.237 OA
ATOM     82  O   UNL     1      10.903  13.208  -0.262  1.00  0.00    -0.744 OA
ENDBRANCH  78  79
ENDBRANCH  46  71
BRANCH  58  83
ATOM     83  C   UNL     1       5.526  14.391 -10.301  1.00  0.00     0.058 A 
ATOM     84  C   UNL     1       6.242  13.196 -10.498  1.00  0.00     0.135 A 
ATOM     85  C   UNL     1       5.356  15.221 -11.419  1.00  0.00     0.135 A 
ATOM     86  F   UNL     1       6.371  12.296  -9.514  1.00  0.00    -0.206 F 
ATOM     87  C   UNL     1       6.794  12.862 -11.739  1.00  0.00     0.059 A 
ATOM     88  C   UNL     1       5.867  14.894 -12.671  1.00  0.00     0.059 A 
ATOM     89  F   UNL     1       4.631  16.347 -11.314  1.00  0.00    -0.206 F 
ATOM     90  C   UNL     1       6.598  13.719 -12.822  1.00  0.00     0.060 A 
BRANCH  90  91
ATOM     91  S   UNL     1       7.250  13.261 -14.443  1.00  0.00     0.124 S 
ATOM     92  O   UNL     1       8.688  13.408 -14.249  1.00  0.00    -0.237 OA
ATOM     93  O   UNL     1       6.768  11.892 -14.605  1.00  0.00    -0.237 OA
ATOM     94  O   UNL     1       6.639  14.236 -15.345  1.00  0.00    -0.744 OA
ENDBRANCH  90  91
ENDBRANCH  58  83
ENDBRANCH  32  33
ENDBRANCH  24  27
ENDBRANCH  22  23
ENDBRANCH  21  22
ENDBRANCH   1  21
TORSDOF 17
