REMARK SMILES COc1ccc2c(c1)c(CC(=O)NCCCNC(=O)c1ccc(-c3c4nc(c(-c5c(F)cc(S(=O)(=O)[O-])cc5F)c5ccc([nH]5)c(-c5c(F)cc(S(=O)(=O)[O-])cc5F)c5nc(c(-c6c(F)cc(S(=O)(=O)[O-])cc6F)c6ccc3[nH]6)C=C5)C=C4)cc1)c(C)n2C(=O)c1ccc(Cl)cc1
REMARK SMILES IDX 15 1 14 2 13 3 11 4 12 5 10 7 9 8 3 9 4 10 8 11 5 12 7 13
REMARK SMILES IDX 6 14 88 15 86 16 87 17 2 18 1 19 89 20 90 21 91 22 92 23
REMARK SMILES IDX 97 24 93 25 96 26 94 27 95 28 16 29 17 30 18 31 19 33 20 34
REMARK SMILES IDX 21 35 85 36 22 37 84 38 23 39 24 40 25 41 78 42 26 43 83 44
REMARK SMILES IDX 77 45 79 46 27 47 82 48 76 49 75 50 28 52 62 53 41 54 61 55
REMARK SMILES IDX 42 56 45 57 60 58 80 59 43 60 44 61 59 63 81 64 46 65 29 66
REMARK SMILES IDX 30 67 39 68 31 69 32 70 38 71 40 72 33 73 34 74 35 75 36 76
REMARK SMILES IDX 37 77 63 78 64 79 73 80 65 81 66 82 72 83 74 84 67 85 68 86
REMARK SMILES IDX 69 87 70 88 71 89 47 90 48 91 57 92 49 93 50 94 56 95 58 96
REMARK SMILES IDX 51 97 52 98 53 99 54 100 55 101
REMARK H PARENT 13 6 17 32 79 51 45 62
REMARK Flexibility Score: inf
ROOT
ATOM      1  C   UNL     1       0.552  -5.829  -5.399  1.00  0.00     0.042 C 
ENDROOT
BRANCH   1   2
ATOM      2  C   UNL     1      -0.833  -5.465  -5.938  1.00  0.00     0.117 C 
BRANCH   2   3
ATOM      3  N   UNL     1      -1.740  -5.031  -4.888  1.00  0.00    -0.356 N 
ATOM      4  C   UNL     1      -2.215  -3.782  -4.618  1.00  0.00     0.224 C 
ATOM      5  O   UNL     1      -2.977  -3.647  -3.655  1.00  0.00    -0.275 OA
ATOM      6  H   UNL     1      -2.056  -5.742  -4.285  1.00  0.00     0.163 HD
BRANCH   4   7
ATOM      7  C   UNL     1      -1.862  -2.611  -5.518  1.00  0.00     0.138 C 
BRANCH   7   8
ATOM      8  C   UNL     1      -0.412  -2.227  -5.465  1.00  0.00    -0.009 A 
ATOM      9  C   UNL     1       0.889  -1.281  -2.000  1.00  0.00     0.119 A 
ATOM     10  C   UNL     1       2.164  -0.928  -2.411  1.00  0.00     0.048 A 
ATOM     11  C   UNL     1      -0.033  -1.754  -2.935  1.00  0.00     0.057 A 
ATOM     12  C   UNL     1       2.531  -1.018  -3.757  1.00  0.00     0.031 A 
ATOM     13  C   UNL     1       0.319  -1.862  -4.301  1.00  0.00     0.008 A 
ATOM     14  C   UNL     1       1.617  -1.527  -4.701  1.00  0.00     0.057 A 
ATOM     15  N   UNL     1       1.738  -1.829  -6.072  1.00  0.00    -0.280 N 
ATOM     16  C   UNL     1       0.444  -2.083  -6.551  1.00  0.00     0.028 A 
ATOM     17  C   UNL     1       0.081  -2.210  -8.002  1.00  0.00     0.065 C 
BRANCH   9  18
ATOM     18  O   UNL     1       0.455  -1.225  -0.703  1.00  0.00    -0.497 OA
ATOM     19  C   UNL     1       0.951  -0.109   0.031  1.00  0.00     0.278 C 
ENDBRANCH   9  18
BRANCH  15  20
ATOM     20  C   UNL     1       2.945  -1.879  -6.826  1.00  0.00     0.262 C 
ATOM     21  O   UNL     1       2.885  -2.200  -8.013  1.00  0.00    -0.268 OA
BRANCH  20  22
ATOM     22  C   UNL     1       4.292  -1.594  -6.309  1.00  0.00     0.040 A 
ATOM     23  C   UNL     1       4.894  -2.446  -5.376  1.00  0.00     0.015 A 
ATOM     24  C   UNL     1       4.940  -0.432  -6.742  1.00  0.00     0.015 A 
ATOM     25  C   UNL     1       6.108  -2.072  -4.795  1.00  0.00     0.021 A 
ATOM     26  C   UNL     1       6.158  -0.070  -6.165  1.00  0.00     0.021 A 
ATOM     27  C   UNL     1       6.723  -0.877  -5.177  1.00  0.00     0.041 A 
ATOM     28  Cl  UNL     1       8.173  -0.378  -4.395  1.00  0.00    -0.084 Cl
ENDBRANCH  20  22
ENDBRANCH  15  20
ENDBRANCH   7   8
ENDBRANCH   4   7
ENDBRANCH   2   3
ENDBRANCH   1   2
BRANCH   1  29
ATOM     29  C   UNL     1       0.519  -6.985  -4.397  1.00  0.00     0.118 C 
BRANCH  29  30
ATOM     30  N   UNL     1      -0.122  -8.177  -4.915  1.00  0.00    -0.352 N 
ATOM     31  C   UNL     1       0.292  -9.311  -5.550  1.00  0.00     0.251 C 
ATOM     32  H   UNL     1      -1.097  -8.166  -4.773  1.00  0.00     0.163 HD
ATOM     33  O   UNL     1      -0.585 -10.157  -5.750  1.00  0.00    -0.269 OA
BRANCH  31  34
ATOM     34  C   UNL     1       1.660  -9.560  -6.071  1.00  0.00     0.039 A 
ATOM     35  C   UNL     1       2.735  -8.673  -5.992  1.00  0.00     0.014 A 
ATOM     36  C   UNL     1       1.818 -10.752  -6.803  1.00  0.00     0.014 A 
ATOM     37  C   UNL     1       3.873  -8.889  -6.759  1.00  0.00     0.010 A 
ATOM     38  C   UNL     1       2.962 -10.985  -7.549  1.00  0.00     0.010 A 
ATOM     39  C   UNL     1       3.942 -10.002  -7.597  1.00  0.00    -0.014 A 
BRANCH  39  40
ATOM     40  C   UNL     1       5.045 -10.080  -8.545  1.00  0.00     0.031 A 
ATOM     41  C   UNL     1       6.408 -10.128  -7.943  1.00  0.00     0.074 A 
ATOM     42  C   UNL     1       4.827 -10.172  -9.873  1.00  0.00     0.049 A 
ATOM     43  N   UNL     1       7.359  -9.256  -8.040  1.00  0.00    -0.248 NA
ATOM     44  C   UNL     1       6.699 -11.221  -7.002  1.00  0.00     0.031 C 
ATOM     45  C   UNL     1       3.562 -10.370 -10.589  1.00  0.00     0.029 A 
ATOM     46  N   UNL     1       5.742 -10.201 -10.878  1.00  0.00    -0.354 N 
ATOM     47  C   UNL     1       8.440  -9.780  -7.334  1.00  0.00     0.074 A 
ATOM     48  C   UNL     1       7.933 -10.913  -6.601  1.00  0.00     0.031 C 
ATOM     49  C   UNL     1       3.821 -10.754 -11.860  1.00  0.00     0.029 A 
ATOM     50  C   UNL     1       5.251 -10.680 -12.087  1.00  0.00     0.049 A 
ATOM     51  H   UNL     1       6.674  -9.908 -10.759  1.00  0.00     0.167 HD
ATOM     52  C   UNL     1       9.720  -9.357  -7.537  1.00  0.00     0.037 A 
ATOM     53  C   UNL     1       6.005 -11.079 -13.143  1.00  0.00     0.037 A 
ATOM     54  C   UNL     1       9.763  -8.108  -8.248  1.00  0.00     0.049 A 
ATOM     55  C   UNL     1       7.334 -10.419 -12.991  1.00  0.00     0.074 A 
ATOM     56  C   UNL     1       9.322  -6.828  -7.975  1.00  0.00     0.029 A 
ATOM     57  N   UNL     1       9.993  -8.140  -9.603  1.00  0.00    -0.354 N 
ATOM     58  N   UNL     1       7.504  -9.124 -13.067  1.00  0.00    -0.248 NA
ATOM     59  C   UNL     1       8.364 -11.137 -12.252  1.00  0.00     0.031 C 
ATOM     60  C   UNL     1       8.818  -6.343  -9.217  1.00  0.00     0.029 A 
ATOM     61  C   UNL     1       9.048  -7.328 -10.180  1.00  0.00     0.049 A 
ATOM     62  H   UNL     1      10.697  -8.647 -10.068  1.00  0.00     0.167 HD
ATOM     63  C   UNL     1       8.412  -8.818 -12.062  1.00  0.00     0.074 A 
ATOM     64  C   UNL     1       8.946 -10.109 -11.627  1.00  0.00     0.031 C 
ATOM     65  C   UNL     1       8.445  -7.587 -11.468  1.00  0.00     0.037 A 
BRANCH  52  66
ATOM     66  C   UNL     1      10.941 -10.224  -7.366  1.00  0.00     0.058 A 
ATOM     67  C   UNL     1      12.223  -9.639  -7.335  1.00  0.00     0.135 A 
ATOM     68  C   UNL     1      10.910 -11.628  -7.514  1.00  0.00     0.135 A 
ATOM     69  F   UNL     1      12.366  -8.310  -7.204  1.00  0.00    -0.206 F 
ATOM     70  C   UNL     1      13.388 -10.389  -7.507  1.00  0.00     0.059 A 
ATOM     71  C   UNL     1      12.060 -12.400  -7.635  1.00  0.00     0.059 A 
ATOM     72  F   UNL     1       9.760 -12.300  -7.646  1.00  0.00    -0.206 F 
ATOM     73  C   UNL     1      13.293 -11.768  -7.675  1.00  0.00     0.060 A 
BRANCH  73  74
ATOM     74  S   UNL     1      14.782 -12.720  -8.028  1.00  0.00     0.124 S 
ATOM     75  O   UNL     1      15.156 -12.200  -9.338  1.00  0.00    -0.237 OA
ATOM     76  O   UNL     1      15.651 -12.343  -6.918  1.00  0.00    -0.237 OA
ATOM     77  O   UNL     1      14.311 -14.101  -8.008  1.00  0.00    -0.744 OA
ENDBRANCH  73  74
ENDBRANCH  52  66
BRANCH  53  78
ATOM     78  C   UNL     1       5.792 -12.318 -13.945  1.00  0.00     0.058 A 
ATOM     79  C   UNL     1       6.469 -12.542 -15.157  1.00  0.00     0.135 A 
ATOM     80  C   UNL     1       5.109 -13.430 -13.406  1.00  0.00     0.135 A 
ATOM     81  F   UNL     1       7.170 -11.551 -15.728  1.00  0.00    -0.206 F 
ATOM     82  C   UNL     1       6.493 -13.799 -15.779  1.00  0.00     0.059 A 
ATOM     83  C   UNL     1       5.111 -14.686 -14.011  1.00  0.00     0.059 A 
ATOM     84  F   UNL     1       4.487 -13.355 -12.221  1.00  0.00    -0.206 F 
ATOM     85  C   UNL     1       5.825 -14.871 -15.187  1.00  0.00     0.060 A 
BRANCH  85  86
ATOM     86  S   UNL     1       5.977 -16.529 -15.896  1.00  0.00     0.124 S 
ATOM     87  O   UNL     1       5.292 -16.376 -17.175  1.00  0.00    -0.237 OA
ATOM     88  O   UNL     1       7.424 -16.701 -15.964  1.00  0.00    -0.237 OA
ATOM     89  O   UNL     1       5.296 -17.380 -14.923  1.00  0.00    -0.744 OA
ENDBRANCH  85  86
ENDBRANCH  53  78
BRANCH  65  90
ATOM     90  C   UNL     1       7.612  -6.475 -12.057  1.00  0.00     0.058 A 
ATOM     91  C   UNL     1       6.206  -6.481 -12.104  1.00  0.00     0.135 A 
ATOM     92  C   UNL     1       8.255  -5.285 -12.425  1.00  0.00     0.135 A 
ATOM     93  F   UNL     1       5.509  -7.536 -11.659  1.00  0.00    -0.206 F 
ATOM     94  C   UNL     1       5.476  -5.374 -12.543  1.00  0.00     0.059 A 
ATOM     95  C   UNL     1       7.548  -4.158 -12.838  1.00  0.00     0.059 A 
ATOM     96  F   UNL     1       9.591  -5.186 -12.332  1.00  0.00    -0.206 F 
ATOM     97  C   UNL     1       6.158  -4.215 -12.913  1.00  0.00     0.060 A 
BRANCH  97  98
ATOM     98  S   UNL     1       5.218  -2.768 -13.449  1.00  0.00     0.124 S 
ATOM     99  O   UNL     1       4.690  -3.205 -14.737  1.00  0.00    -0.237 OA
ATOM    100  O   UNL     1       4.235  -2.611 -12.382  1.00  0.00    -0.237 OA
ATOM    101  O   UNL     1       6.226  -1.711 -13.515  1.00  0.00    -0.744 OA
ENDBRANCH  97  98
ENDBRANCH  65  90
ENDBRANCH  39  40
ENDBRANCH  31  34
ENDBRANCH  29  30
ENDBRANCH   1  29
TORSDOF 17
