REMARK SMILES COc1ccccc1[C@@H]1C[N@@H+](Cc2cn3cc(C)ccc3n2)C[C@H]1C(=O)NCCCNC(=O)c1ccc(-c2c3nc(c(-c4c(F)cc(S(=O)(=O)[O-])cc4F)c4ccc([nH]4)c(-c4c(F)cc(S(=O)(=O)[O-])cc4F)c4nc(c(-c5c(F)cc(S(=O)(=O)[O-])cc5F)c5ccc2[nH]5)C=C4)C=C3)cc1
REMARK SMILES IDX 29 1 28 2 27 3 25 4 26 5 24 7 9 8 10 9 11 10 23 11 8 13 3 14
REMARK SMILES IDX 4 15 5 16 7 17 6 18 2 19 1 20 12 21 13 22 14 23 22 24 15 25
REMARK SMILES IDX 21 26 16 27 20 28 17 29 19 30 18 31 30 32 31 33 32 34 33 36
REMARK SMILES IDX 34 37 35 38 99 39 36 40 98 41 37 42 38 43 39 44 92 45 40 46
REMARK SMILES IDX 97 47 91 48 93 49 41 50 96 51 90 52 89 53 42 55 76 56 55 57
REMARK SMILES IDX 75 58 56 59 59 60 74 61 94 62 57 63 58 64 73 66 95 67 60 68
REMARK SMILES IDX 43 69 44 70 53 71 45 72 46 73 52 74 54 75 47 76 48 77 49 78
REMARK SMILES IDX 50 79 51 80 77 81 78 82 87 83 79 84 80 85 86 86 88 87 81 88
REMARK SMILES IDX 82 89 83 90 84 91 85 92 61 93 62 94 71 95 63 96 64 97 70 98
REMARK SMILES IDX 72 99 65 100 66 101 67 102 68 103 69 104
REMARK H PARENT 27 6 11 12 31 35 93 54 59 65
REMARK Flexibility Score: inf
ROOT
ATOM      1  C   UNL     1       6.920  -1.599   2.585  1.00  0.00     0.042 C 
ENDROOT
BRANCH   1   2
ATOM      2  C   UNL     1       5.504  -2.198   2.421  1.00  0.00     0.117 C 
BRANCH   2   3
ATOM      3  N   UNL     1       4.351  -1.551   3.063  1.00  0.00    -0.356 N 
ATOM      4  C   UNL     1       3.217  -0.878   2.709  1.00  0.00     0.229 C 
ATOM      5  O   UNL     1       2.495  -0.584   3.679  1.00  0.00    -0.275 OA
ATOM      6  H   UNL     1       4.414  -1.627   4.043  1.00  0.00     0.163 HD
BRANCH   4   7
ATOM      7  C   UNL     1       2.698  -0.478   1.307  1.00  0.00     0.146 C 
ATOM      8  C   UNL     1       2.560   1.058   1.046  1.00  0.00     0.096 C 
ATOM      9  C   UNL     1       3.014   1.261  -0.408  1.00  0.00     0.272 C 
ATOM     10  N   UNL     1       4.001   0.201  -0.654  1.00  0.00    -0.329 N 
ATOM     11  C   UNL     1       3.452  -0.958   0.071  1.00  0.00     0.276 C 
ATOM     12  H   UNL     1       4.112  -0.008  -1.646  1.00  0.00     0.348 HD
BRANCH   8  13
ATOM     13  C   UNL     1       1.422   1.963   1.488  1.00  0.00     0.004 A 
ATOM     14  C   UNL     1       0.154   2.098   0.910  1.00  0.00     0.122 A 
ATOM     15  C   UNL     1      -0.714   3.122   1.340  1.00  0.00     0.047 A 
ATOM     16  C   UNL     1      -0.334   4.043   2.317  1.00  0.00     0.004 A 
ATOM     17  C   UNL     1       1.772   2.923   2.480  1.00  0.00     0.008 A 
ATOM     18  C   UNL     1       0.925   3.954   2.879  1.00  0.00     0.001 A 
BRANCH  14  19
ATOM     19  O   UNL     1      -0.282   1.437  -0.206  1.00  0.00    -0.496 OA
ATOM     20  C   UNL     1      -0.387   0.030  -0.056  1.00  0.00     0.278 C 
ENDBRANCH  14  19
ENDBRANCH   8  13
BRANCH  10  21
ATOM     21  C   UNL     1       5.412   0.569  -0.351  1.00  0.00     0.321 C 
BRANCH  21  22
ATOM     22  C   UNL     1       5.689   1.327   0.927  1.00  0.00     0.114 A 
ATOM     23  C   UNL     1       6.332   2.527   1.188  1.00  0.00     0.122 A 
ATOM     24  N   UNL     1       5.281   0.792   2.117  1.00  0.00    -0.228 NA
ATOM     25  N   UNL     1       6.197   2.755   2.549  1.00  0.00    -0.306 N 
ATOM     26  C   UNL     1       5.457   1.699   3.042  1.00  0.00     0.137 A 
ATOM     27  C   UNL     1       6.663   3.781   3.371  1.00  0.00     0.096 A 
ATOM     28  C   UNL     1       5.008   1.752   4.387  1.00  0.00     0.048 A 
ATOM     29  C   UNL     1       6.335   3.781   4.684  1.00  0.00    -0.034 A 
ATOM     30  C   UNL     1       5.421   2.754   5.178  1.00  0.00     0.009 A 
ATOM     31  C   UNL     1       6.846   4.776   5.674  1.00  0.00     0.046 C 
ENDBRANCH  21  22
ENDBRANCH  10  21
ENDBRANCH   4   7
ENDBRANCH   2   3
ENDBRANCH   1   2
BRANCH   1  32
ATOM     32  C   UNL     1       7.295  -1.260   4.009  1.00  0.00     0.118 C 
BRANCH  32  33
ATOM     33  N   UNL     1       8.687  -1.522   4.343  1.00  0.00    -0.352 N 
ATOM     34  C   UNL     1       9.436  -1.129   5.428  1.00  0.00     0.251 C 
ATOM     35  H   UNL     1       9.172  -2.071   3.685  1.00  0.00     0.163 HD
ATOM     36  O   UNL     1      10.638  -1.424   5.429  1.00  0.00    -0.269 OA
BRANCH  34  37
ATOM     37  C   UNL     1       8.856  -0.421   6.602  1.00  0.00     0.039 A 
ATOM     38  C   UNL     1       9.700  -0.069   7.671  1.00  0.00     0.014 A 
ATOM     39  C   UNL     1       7.493  -0.158   6.722  1.00  0.00     0.014 A 
ATOM     40  C   UNL     1       9.151   0.400   8.864  1.00  0.00     0.010 A 
ATOM     41  C   UNL     1       6.960   0.393   7.852  1.00  0.00     0.010 A 
ATOM     42  C   UNL     1       7.766   0.552   8.957  1.00  0.00    -0.014 A 
BRANCH  42  43
ATOM     43  C   UNL     1       7.090   1.034  10.142  1.00  0.00     0.031 A 
ATOM     44  C   UNL     1       7.362   2.465  10.377  1.00  0.00     0.074 A 
ATOM     45  C   UNL     1       6.061   0.377  10.719  1.00  0.00     0.049 A 
ATOM     46  N   UNL     1       8.277   2.972  11.135  1.00  0.00    -0.248 NA
ATOM     47  C   UNL     1       6.759   3.436   9.445  1.00  0.00     0.031 C 
ATOM     48  C   UNL     1       5.411  -0.868  10.293  1.00  0.00     0.029 A 
ATOM     49  N   UNL     1       5.304   0.756  11.780  1.00  0.00    -0.354 N 
ATOM     50  C   UNL     1       8.101   4.343  11.011  1.00  0.00     0.074 A 
ATOM     51  C   UNL     1       7.464   4.531   9.739  1.00  0.00     0.031 C 
ATOM     52  C   UNL     1       4.248  -1.026  10.968  1.00  0.00     0.029 A 
ATOM     53  C   UNL     1       4.136   0.021  11.969  1.00  0.00     0.049 A 
ATOM     54  H   UNL     1       5.562   1.498  12.374  1.00  0.00     0.167 HD
ATOM     55  C   UNL     1       8.103   5.143  12.116  1.00  0.00     0.037 A 
ATOM     56  C   UNL     1       3.151   0.299  12.866  1.00  0.00     0.037 A 
ATOM     57  C   UNL     1       8.600   4.408  13.265  1.00  0.00     0.049 A 
ATOM     58  C   UNL     1       3.743   1.220  13.878  1.00  0.00     0.074 A 
ATOM     59  C   UNL     1       9.736   3.665  13.532  1.00  0.00     0.029 A 
ATOM     60  N   UNL     1       7.675   4.021  14.209  1.00  0.00    -0.354 N 
ATOM     61  N   UNL     1       4.689   0.874  14.710  1.00  0.00    -0.248 NA
ATOM     62  C   UNL     1       3.625   2.651  13.640  1.00  0.00     0.031 C 
ATOM     63  C   UNL     1       9.281   2.548  14.296  1.00  0.00     0.029 A 
ATOM     64  C   UNL     1       7.917   2.712  14.540  1.00  0.00     0.049 A 
ATOM     65  H   UNL     1       6.962   4.587  14.583  1.00  0.00     0.167 HD
ATOM     66  C   UNL     1       5.550   1.962  14.745  1.00  0.00     0.074 A 
ATOM     67  C   UNL     1       4.794   3.059  14.143  1.00  0.00     0.031 C 
ATOM     68  C   UNL     1       6.888   1.788  14.972  1.00  0.00     0.037 A 
BRANCH  55  69
ATOM     69  C   UNL     1       7.256   6.395  12.278  1.00  0.00     0.058 A 
ATOM     70  C   UNL     1       7.422   7.157  13.454  1.00  0.00     0.135 A 
ATOM     71  C   UNL     1       6.127   6.740  11.498  1.00  0.00     0.135 A 
ATOM     72  F   UNL     1       8.473   6.944  14.263  1.00  0.00    -0.206 F 
ATOM     73  C   UNL     1       6.483   8.094  13.882  1.00  0.00     0.059 A 
ATOM     74  C   UNL     1       5.206   7.706  11.880  1.00  0.00     0.059 A 
ATOM     75  F   UNL     1       5.793   6.119  10.365  1.00  0.00    -0.206 F 
ATOM     76  C   UNL     1       5.365   8.344  13.095  1.00  0.00     0.060 A 
BRANCH  76  77
ATOM     77  S   UNL     1       4.101   9.477  13.683  1.00  0.00     0.124 S 
ATOM     78  O   UNL     1       3.541   8.727  14.800  1.00  0.00    -0.237 OA
ATOM     79  O   UNL     1       4.892  10.653  14.029  1.00  0.00    -0.237 OA
ATOM     80  O   UNL     1       3.228   9.635  12.523  1.00  0.00    -0.744 OA
ENDBRANCH  76  77
ENDBRANCH  55  69
BRANCH  56  81
ATOM     81  C   UNL     1       1.680   0.083  12.767  1.00  0.00     0.058 A 
ATOM     82  C   UNL     1       0.842   0.261  13.886  1.00  0.00     0.135 A 
ATOM     83  C   UNL     1       1.029  -0.005  11.521  1.00  0.00     0.135 A 
ATOM     84  F   UNL     1       1.371   0.366  15.115  1.00  0.00    -0.206 F 
ATOM     85  C   UNL     1      -0.546   0.412  13.770  1.00  0.00     0.059 A 
ATOM     86  C   UNL     1      -0.354   0.133  11.381  1.00  0.00     0.059 A 
ATOM     87  F   UNL     1       1.729  -0.132  10.384  1.00  0.00    -0.206 F 
ATOM     88  C   UNL     1      -1.133   0.373  12.507  1.00  0.00     0.060 A 
BRANCH  88  89
ATOM     89  S   UNL     1      -2.892   0.765  12.330  1.00  0.00     0.124 S 
ATOM     90  O   UNL     1      -3.525  -0.401  12.934  1.00  0.00    -0.237 OA
ATOM     91  O   UNL     1      -3.008   2.013  13.078  1.00  0.00    -0.237 OA
ATOM     92  O   UNL     1      -3.066   0.892  10.885  1.00  0.00    -0.744 OA
ENDBRANCH  88  89
ENDBRANCH  56  81
BRANCH  68  93
ATOM     93  C   UNL     1       7.348   0.465  15.536  1.00  0.00     0.058 A 
ATOM     94  C   UNL     1       7.187  -0.786  14.912  1.00  0.00     0.135 A 
ATOM     95  C   UNL     1       8.089   0.489  16.727  1.00  0.00     0.135 A 
ATOM     96  F   UNL     1       6.595  -0.891  13.715  1.00  0.00    -0.206 F 
ATOM     97  C   UNL     1       7.682  -1.963  15.481  1.00  0.00     0.059 A 
ATOM     98  C   UNL     1       8.623  -0.665  17.293  1.00  0.00     0.059 A 
ATOM     99  F   UNL     1       8.338   1.657  17.342  1.00  0.00    -0.206 F 
ATOM    100  C   UNL     1       8.394  -1.892  16.677  1.00  0.00     0.060 A 
BRANCH 100 101
ATOM    101  S   UNL     1       9.056  -3.406  17.404  1.00  0.00     0.124 S 
ATOM    102  O   UNL     1       7.846  -4.083  17.857  1.00  0.00    -0.237 OA
ATOM    103  O   UNL     1       9.745  -4.026  16.276  1.00  0.00    -0.237 OA
ATOM    104  O   UNL     1       9.933  -2.920  18.467  1.00  0.00    -0.744 OA
ENDBRANCH 100 101
ENDBRANCH  68  93
ENDBRANCH  42  43
ENDBRANCH  34  37
ENDBRANCH  32  33
ENDBRANCH   1  32
TORSDOF 17
