REMARK SMILES CC1(C)[C@H](C(=O)NCCCNC(=O)c2ccc(-c3c4nc(c(-c5c(F)cc(S(=O)(=O)[O-])cc5F)c5ccc([nH]5)c(-c5c(F)cc(S(=O)(=O)[O-])cc5F)c5nc(c(-c6c(F)cc(S(=O)(=O)[O-])cc6F)c6ccc3[nH]6)C=C5)C=C4)cc2)[C@@H]1C(=O)Nc1ccc(NC(=O)C2CCC2)cc1
REMARK SMILES IDX 8 1 7 2 5 3 6 4 4 6 1 7 2 8 3 9 80 10 81 11 82 12 83 13
REMARK SMILES IDX 84 15 85 16 96 17 86 18 95 19 87 20 88 21 89 22 90 24 91 25
REMARK SMILES IDX 92 26 94 27 93 28 9 29 10 30 11 31 12 32 13 34 14 35 15 36
REMARK SMILES IDX 79 37 16 38 78 39 17 40 18 41 19 42 72 43 20 44 77 45 71 46
REMARK SMILES IDX 73 47 21 48 76 49 70 50 69 51 22 53 56 54 35 55 55 56 36 57
REMARK SMILES IDX 39 58 54 59 74 60 37 61 38 62 53 64 75 65 40 66 23 67 24 68
REMARK SMILES IDX 33 69 25 70 26 71 32 72 34 73 27 74 28 75 29 76 30 77 31 78
REMARK SMILES IDX 57 79 58 80 67 81 59 82 60 83 66 84 68 85 61 86 62 87 63 88
REMARK SMILES IDX 64 89 65 90 41 91 42 92 51 93 43 94 44 95 50 96 52 97 45 98
REMARK SMILES IDX 46 99 47 100 48 101 49 102
REMARK H PARENT 7 5 83 14 88 23 11 33 73 52 39 63
REMARK Flexibility Score: inf
ROOT
ATOM      1  C   UNL     1      -0.719   3.025  -0.296  1.00  0.00     0.117 C 
ENDROOT
BRANCH   1   2
ATOM      2  N   UNL     1      -0.947   2.168  -1.442  1.00  0.00    -0.356 N 
ATOM      3  C   UNL     1      -0.974   0.826  -1.666  1.00  0.00     0.224 C 
ATOM      4  O   UNL     1      -1.232   0.496  -2.827  1.00  0.00    -0.275 OA
ATOM      5  H   UNL     1      -1.127   2.684  -2.260  1.00  0.00     0.163 HD
BRANCH   3   6
ATOM      6  C   UNL     1      -0.743  -0.279  -0.706  1.00  0.00     0.098 C 
ATOM      7  C   UNL     1       1.169  -1.756   0.144  1.00  0.00     0.013 C 
ATOM      8  C   UNL     1       0.450  -0.427   0.223  1.00  0.00    -0.011 C 
ATOM      9  C   UNL     1       1.411   0.720   0.421  1.00  0.00     0.013 C 
ATOM     10  C   UNL     1      -1.000  -0.432   0.760  1.00  0.00     0.098 C 
BRANCH  10  11
ATOM     11  C   UNL     1      -1.574   0.563   1.686  1.00  0.00     0.228 C 
ATOM     12  O   UNL     1      -0.933   0.930   2.667  1.00  0.00    -0.274 OA
ATOM     13  N   UNL     1      -2.847   1.055   1.492  1.00  0.00    -0.326 N 
ATOM     14  H   UNL     1      -3.241   1.560   2.240  1.00  0.00     0.169 HD
BRANCH  13  15
ATOM     15  C   UNL     1      -3.638   0.913   0.349  1.00  0.00     0.041 A 
ATOM     16  C   UNL     1      -3.932   2.088  -0.324  1.00  0.00     0.028 A 
ATOM     17  C   UNL     1      -4.022  -0.306  -0.201  1.00  0.00     0.028 A 
ATOM     18  C   UNL     1      -4.375   2.025  -1.635  1.00  0.00     0.028 A 
ATOM     19  C   UNL     1      -4.685  -0.327  -1.440  1.00  0.00     0.028 A 
ATOM     20  C   UNL     1      -4.864   0.855  -2.172  1.00  0.00     0.041 A 
BRANCH  20  21
ATOM     21  N   UNL     1      -5.525   0.804  -3.403  1.00  0.00    -0.326 N 
ATOM     22  C   UNL     1      -6.000   1.760  -4.281  1.00  0.00     0.227 C 
ATOM     23  H   UNL     1      -5.688  -0.117  -3.713  1.00  0.00     0.169 HD
ATOM     24  O   UNL     1      -6.548   1.283  -5.295  1.00  0.00    -0.274 OA
BRANCH  22  25
ATOM     25  C   UNL     1      -5.905   3.301  -4.107  1.00  0.00     0.079 C 
ATOM     26  C   UNL     1      -7.181   4.063  -4.624  1.00  0.00     0.013 C 
ATOM     27  C   UNL     1      -6.152   4.109  -2.791  1.00  0.00     0.013 C 
ATOM     28  C   UNL     1      -6.850   5.181  -3.632  1.00  0.00     0.002 C 
ENDBRANCH  22  25
ENDBRANCH  20  21
ENDBRANCH  13  15
ENDBRANCH  10  11
ENDBRANCH   3   6
ENDBRANCH   1   2
BRANCH   1  29
ATOM     29  C   UNL     1       0.255   4.145  -0.617  1.00  0.00     0.042 C 
BRANCH  29  30
ATOM     30  C   UNL     1      -0.338   5.183  -1.565  1.00  0.00     0.118 C 
BRANCH  30  31
ATOM     31  N   UNL     1      -1.371   6.002  -0.936  1.00  0.00    -0.352 N 
ATOM     32  C   UNL     1      -1.365   7.352  -0.671  1.00  0.00     0.251 C 
ATOM     33  H   UNL     1      -2.186   5.521  -0.664  1.00  0.00     0.163 HD
ATOM     34  O   UNL     1      -2.243   7.846   0.030  1.00  0.00    -0.269 OA
BRANCH  32  35
ATOM     35  C   UNL     1      -0.279   8.187  -1.220  1.00  0.00     0.039 A 
ATOM     36  C   UNL     1       0.406   9.068  -0.381  1.00  0.00     0.014 A 
ATOM     37  C   UNL     1       0.096   8.049  -2.559  1.00  0.00     0.014 A 
ATOM     38  C   UNL     1       1.525   9.747  -0.867  1.00  0.00     0.010 A 
ATOM     39  C   UNL     1       1.266   8.645  -3.008  1.00  0.00     0.010 A 
ATOM     40  C   UNL     1       1.992   9.505  -2.170  1.00  0.00    -0.014 A 
BRANCH  40  41
ATOM     41  C   UNL     1       3.219  10.152  -2.700  1.00  0.00     0.031 A 
ATOM     42  C   UNL     1       3.123  11.037  -3.914  1.00  0.00     0.074 A 
ATOM     43  C   UNL     1       4.420   9.879  -2.149  1.00  0.00     0.049 A 
ATOM     44  N   UNL     1       4.080  11.580  -4.620  1.00  0.00    -0.248 NA
ATOM     45  C   UNL     1       1.769  11.316  -4.426  1.00  0.00     0.031 C 
ATOM     46  C   UNL     1       4.649   8.999  -1.000  1.00  0.00     0.029 A 
ATOM     47  N   UNL     1       5.679  10.304  -2.492  1.00  0.00    -0.354 N 
ATOM     48  C   UNL     1       3.447  12.244  -5.665  1.00  0.00     0.074 A 
ATOM     49  C   UNL     1       2.031  11.984  -5.538  1.00  0.00     0.031 C 
ATOM     50  C   UNL     1       5.963   8.970  -0.720  1.00  0.00     0.029 A 
ATOM     51  C   UNL     1       6.675   9.791  -1.693  1.00  0.00     0.049 A 
ATOM     52  H   UNL     1       5.853  10.918  -3.241  1.00  0.00     0.167 HD
ATOM     53  C   UNL     1       3.993  13.027  -6.624  1.00  0.00     0.037 A 
ATOM     54  C   UNL     1       8.011   9.959  -1.746  1.00  0.00     0.037 A 
ATOM     55  C   UNL     1       5.399  13.318  -6.717  1.00  0.00     0.049 A 
ATOM     56  C   UNL     1       8.593  10.841  -2.820  1.00  0.00     0.074 A 
ATOM     57  C   UNL     1       6.050  14.135  -7.624  1.00  0.00     0.029 A 
ATOM     58  N   UNL     1       6.368  12.814  -5.862  1.00  0.00    -0.354 N 
ATOM     59  N   UNL     1       7.974  11.494  -3.775  1.00  0.00    -0.248 NA
ATOM     60  C   UNL     1      10.052  11.013  -2.822  1.00  0.00     0.031 C 
ATOM     61  C   UNL     1       7.418  14.102  -7.336  1.00  0.00     0.029 A 
ATOM     62  C   UNL     1       7.612  13.299  -6.223  1.00  0.00     0.049 A 
ATOM     63  H   UNL     1       6.195  12.202  -5.111  1.00  0.00     0.167 HD
ATOM     64  C   UNL     1       8.965  12.183  -4.467  1.00  0.00     0.074 A 
ATOM     65  C   UNL     1      10.221  11.872  -3.818  1.00  0.00     0.031 C 
ATOM     66  C   UNL     1       8.847  12.999  -5.543  1.00  0.00     0.037 A 
BRANCH  53  67
ATOM     67  C   UNL     1       3.066  13.647  -7.631  1.00  0.00     0.058 A 
ATOM     68  C   UNL     1       2.180  14.677  -7.273  1.00  0.00     0.135 A 
ATOM     69  C   UNL     1       3.089  13.242  -8.975  1.00  0.00     0.135 A 
ATOM     70  F   UNL     1       2.102  15.089  -5.998  1.00  0.00    -0.206 F 
ATOM     71  C   UNL     1       1.335  15.267  -8.206  1.00  0.00     0.059 A 
ATOM     72  C   UNL     1       2.272  13.838  -9.932  1.00  0.00     0.059 A 
ATOM     73  F   UNL     1       3.914  12.259  -9.370  1.00  0.00    -0.206 F 
ATOM     74  C   UNL     1       1.391  14.842  -9.534  1.00  0.00     0.060 A 
BRANCH  74  75
ATOM     75  S   UNL     1       0.303  15.637 -10.736  1.00  0.00     0.124 S 
ATOM     76  O   UNL     1      -0.993  15.072 -10.372  1.00  0.00    -0.237 OA
ATOM     77  O   UNL     1       0.485  17.052 -10.433  1.00  0.00    -0.237 OA
ATOM     78  O   UNL     1       0.839  15.200 -12.021  1.00  0.00    -0.744 OA
ENDBRANCH  74  75
ENDBRANCH  53  67
BRANCH  54  79
ATOM     79  C   UNL     1       8.895   9.302  -0.746  1.00  0.00     0.058 A 
ATOM     80  C   UNL     1       9.575  10.059   0.220  1.00  0.00     0.135 A 
ATOM     81  C   UNL     1       9.096   7.913  -0.746  1.00  0.00     0.135 A 
ATOM     82  F   UNL     1       9.418  11.391   0.259  1.00  0.00    -0.206 F 
ATOM     83  C   UNL     1      10.448   9.470   1.129  1.00  0.00     0.059 A 
ATOM     84  C   UNL     1       9.944   7.296   0.170  1.00  0.00     0.059 A 
ATOM     85  F   UNL     1       8.454   7.140  -1.635  1.00  0.00    -0.206 F 
ATOM     86  C   UNL     1      10.629   8.086   1.092  1.00  0.00     0.060 A 
BRANCH  86  87
ATOM     87  S   UNL     1      11.755   7.327   2.284  1.00  0.00     0.124 S 
ATOM     88  O   UNL     1      13.054   7.701   1.738  1.00  0.00    -0.237 OA
ATOM     89  O   UNL     1      11.373   7.984   3.530  1.00  0.00    -0.237 OA
ATOM     90  O   UNL     1      11.419   5.909   2.204  1.00  0.00    -0.744 OA
ENDBRANCH  86  87
ENDBRANCH  54  79
BRANCH  66  91
ATOM     91  C   UNL     1      10.095  13.661  -6.053  1.00  0.00     0.058 A 
ATOM     92  C   UNL     1      11.064  12.951  -6.777  1.00  0.00     0.135 A 
ATOM     93  C   UNL     1      10.285  15.041  -5.874  1.00  0.00     0.135 A 
ATOM     94  F   UNL     1      10.930  11.629  -6.969  1.00  0.00    -0.206 F 
ATOM     95  C   UNL     1      12.190  13.584  -7.292  1.00  0.00     0.059 A 
ATOM     96  C   UNL     1      11.390  15.699  -6.403  1.00  0.00     0.059 A 
ATOM     97  F   UNL     1       9.380  15.767  -5.198  1.00  0.00    -0.206 F 
ATOM     98  C   UNL     1      12.342  14.959  -7.104  1.00  0.00     0.060 A 
BRANCH  98  99
ATOM     99  S   UNL     1      13.783  15.777  -7.820  1.00  0.00     0.124 S 
ATOM    100  O   UNL     1      14.844  15.347  -6.917  1.00  0.00    -0.237 OA
ATOM    101  O   UNL     1      13.827  15.211  -9.165  1.00  0.00    -0.237 OA
ATOM    102  O   UNL     1      13.437  17.194  -7.755  1.00  0.00    -0.744 OA
ENDBRANCH  98  99
ENDBRANCH  66  91
ENDBRANCH  40  41
ENDBRANCH  32  35
ENDBRANCH  30  31
ENDBRANCH  29  30
ENDBRANCH   1  29
TORSDOF 17
