REMARK SMILES COc1ccc(-n2c(SCc3cn(-c4ccc(C(=O)NCCCNC(=O)c5ccc(-c6c7nc(c(-c8c(F)cc(S(=O)(=O)[O-])cc8F)c8ccc([nH]8)c(-c8c(F)cc(S(=O)(=O)[O-])cc8F)c8nc(c(-c9c(F)cc(S(=O)(=O)[O-])cc9F)c9ccc6[nH]9)C=C8)C=C7)cc5)cc4)nn3)nc3ccccc3c2=O)cc1
REMARK SMILES IDX 18 1 19 2 20 3 17 5 14 6 15 7 94 8 16 9 93 10 13 11 11 12
REMARK SMILES IDX 12 13 96 14 95 15 10 16 9 17 8 18 7 19 104 20 97 21 103 22
REMARK SMILES IDX 105 23 98 24 102 25 99 26 101 27 100 28 6 29 3 30 4 31
REMARK SMILES IDX 107 32 5 33 106 34 2 35 1 36 21 37 22 38 23 39 24 40 25 41
REMARK SMILES IDX 26 43 27 44 28 45 92 46 29 47 91 48 30 49 31 50 32 51 85 52
REMARK SMILES IDX 33 53 90 54 84 55 86 56 34 57 89 58 83 59 82 60 35 62 69 63
REMARK SMILES IDX 48 64 68 65 49 66 52 67 67 68 87 69 50 70 51 71 66 73 88 74
REMARK SMILES IDX 53 75 36 76 37 77 46 78 38 79 39 80 45 81 47 82 40 83 41 84
REMARK SMILES IDX 42 85 43 86 44 87 70 88 71 89 80 90 72 91 73 92 79 93 81 94
REMARK SMILES IDX 74 95 75 96 76 97 77 98 78 99 54 100 55 101 64 102 56 103
REMARK SMILES IDX 57 104 63 105 65 106 58 107 59 108 60 109 61 110 62 111
REMARK H PARENT 20 4 24 42 86 61 52 72
REMARK Flexibility Score: inf
ROOT
ATOM      1  C   UNL     1      -3.183   1.793   3.417  1.00  0.00     0.251 C 
ATOM      2  O   UNL     1      -4.282   2.333   3.321  1.00  0.00    -0.269 OA
ATOM      3  N   UNL     1      -3.041   0.714   4.262  1.00  0.00    -0.352 N 
ATOM      4  H   UNL     1      -3.802   0.573   4.871  1.00  0.00     0.163 HD
ENDROOT
BRANCH   1   5
ATOM      5  C   UNL     1      -2.059   2.300   2.591  1.00  0.00     0.039 A 
ATOM      6  C   UNL     1       0.038   3.155   0.997  1.00  0.00     0.066 A 
ATOM      7  C   UNL     1      -1.264   3.514   0.646  1.00  0.00     0.029 A 
ATOM      8  C   UNL     1       0.311   2.442   2.151  1.00  0.00     0.029 A 
ATOM      9  C   UNL     1      -2.320   3.050   1.435  1.00  0.00     0.016 A 
ATOM     10  C   UNL     1      -0.736   2.086   2.960  1.00  0.00     0.016 A 
BRANCH   6  11
ATOM     11  N   UNL     1       1.139   3.550   0.252  1.00  0.00    -0.220 N 
ATOM     12  C   UNL     1       3.146   3.746  -0.506  1.00  0.00     0.093 A 
ATOM     13  C   UNL     1       2.327   2.875   0.152  1.00  0.00     0.141 A 
ATOM     14  N   UNL     1       2.465   4.915  -0.716  1.00  0.00    -0.134 NA
ATOM     15  N   UNL     1       1.207   4.738  -0.362  1.00  0.00    -0.062 NA
BRANCH  12  16
ATOM     16  C   UNL     1       4.498   3.488  -1.015  1.00  0.00     0.138 C 
BRANCH  16  17
ATOM     17  S   UNL     1       5.114   4.753  -2.104  1.00  0.00    -0.081 SA
BRANCH  17  18
ATOM     18  C   UNL     1       3.631   5.241  -3.043  1.00  0.00     0.176 A 
ATOM     19  N   UNL     1       3.361   4.363  -4.072  1.00  0.00    -0.255 N 
ATOM     20  C   UNL     1       3.985   4.648  -5.280  1.00  0.00     0.266 A 
ATOM     21  N   UNL     1       3.529   6.516  -3.279  1.00  0.00    -0.223 NA
ATOM     22  C   UNL     1       4.811   5.907  -5.242  1.00  0.00     0.066 A 
ATOM     23  O   UNL     1       3.962   3.958  -6.293  1.00  0.00    -0.268 OA
ATOM     24  C   UNL     1       4.473   6.862  -4.260  1.00  0.00     0.079 A 
ATOM     25  C   UNL     1       6.030   5.999  -5.905  1.00  0.00     0.016 A 
ATOM     26  C   UNL     1       5.296   7.958  -4.013  1.00  0.00     0.029 A 
ATOM     27  C   UNL     1       6.899   7.048  -5.580  1.00  0.00     0.001 A 
ATOM     28  C   UNL     1       6.526   8.034  -4.657  1.00  0.00     0.002 A 
BRANCH  19  29
ATOM     29  C   UNL     1       2.511   3.250  -3.850  1.00  0.00     0.052 A 
ATOM     30  C   UNL     1       0.989   1.129  -2.818  1.00  0.00     0.119 A 
ATOM     31  C   UNL     1       0.399   2.376  -3.000  1.00  0.00     0.048 A 
ATOM     32  C   UNL     1       2.296   0.909  -3.253  1.00  0.00     0.048 A 
ATOM     33  C   UNL     1       1.169   3.444  -3.482  1.00  0.00     0.030 A 
ATOM     34  C   UNL     1       3.048   1.961  -3.795  1.00  0.00     0.030 A 
BRANCH  30  35
ATOM     35  O   UNL     1       0.234   0.123  -2.281  1.00  0.00    -0.497 OA
ATOM     36  C   UNL     1       0.723  -0.319  -1.013  1.00  0.00     0.278 C 
ENDBRANCH  30  35
ENDBRANCH  19  29
ENDBRANCH  17  18
ENDBRANCH  16  17
ENDBRANCH  12  16
ENDBRANCH   6  11
ENDBRANCH   1   5
BRANCH   3  37
ATOM     37  C   UNL     1      -1.962  -0.259   4.415  1.00  0.00     0.118 C 
BRANCH  37  38
ATOM     38  C   UNL     1      -0.972   0.091   5.544  1.00  0.00     0.042 C 
BRANCH  38  39
ATOM     39  C   UNL     1      -1.431  -0.378   6.898  1.00  0.00     0.118 C 
BRANCH  39  40
ATOM     40  N   UNL     1      -1.407  -1.837   7.031  1.00  0.00    -0.352 N 
ATOM     41  C   UNL     1      -1.851  -2.623   8.090  1.00  0.00     0.251 C 
ATOM     42  H   UNL     1      -1.026  -2.328   6.268  1.00  0.00     0.163 HD
ATOM     43  O   UNL     1      -1.442  -3.758   8.231  1.00  0.00    -0.269 OA
BRANCH  41  44
ATOM     44  C   UNL     1      -2.824  -2.034   9.032  1.00  0.00     0.039 A 
ATOM     45  C   UNL     1      -2.884  -2.342  10.394  1.00  0.00     0.014 A 
ATOM     46  C   UNL     1      -3.667  -1.077   8.507  1.00  0.00     0.014 A 
ATOM     47  C   UNL     1      -3.813  -1.657  11.178  1.00  0.00     0.010 A 
ATOM     48  C   UNL     1      -4.156  -0.131   9.340  1.00  0.00     0.010 A 
ATOM     49  C   UNL     1      -4.465  -0.558  10.611  1.00  0.00    -0.014 A 
BRANCH  49  50
ATOM     50  C   UNL     1      -5.485   0.243  11.256  1.00  0.00     0.031 A 
ATOM     51  C   UNL     1      -4.958   1.112  12.324  1.00  0.00     0.074 A 
ATOM     52  C   UNL     1      -6.687   0.445  10.665  1.00  0.00     0.049 A 
ATOM     53  N   UNL     1      -5.046   0.923  13.597  1.00  0.00    -0.248 NA
ATOM     54  C   UNL     1      -4.016   2.179  11.943  1.00  0.00     0.031 C 
ATOM     55  C   UNL     1      -7.175  -0.057   9.370  1.00  0.00     0.029 A 
ATOM     56  N   UNL     1      -7.684   1.285  11.047  1.00  0.00    -0.354 N 
ATOM     57  C   UNL     1      -4.418   2.025  14.164  1.00  0.00     0.074 A 
ATOM     58  C   UNL     1      -3.553   2.543  13.141  1.00  0.00     0.031 C 
ATOM     59  C   UNL     1      -8.253   0.660   8.983  1.00  0.00     0.029 A 
ATOM     60  C   UNL     1      -8.613   1.575  10.046  1.00  0.00     0.049 A 
ATOM     61  H   UNL     1      -7.747   1.658  11.956  1.00  0.00     0.167 HD
ATOM     62  C   UNL     1      -4.910   2.614  15.290  1.00  0.00     0.037 A 
ATOM     63  C   UNL     1      -9.530   2.578  10.100  1.00  0.00     0.037 A 
ATOM     64  C   UNL     1      -5.943   1.788  15.883  1.00  0.00     0.049 A 
ATOM     65  C   UNL     1      -9.694   2.909  11.552  1.00  0.00     0.074 A 
ATOM     66  C   UNL     1      -6.008   0.467  16.291  1.00  0.00     0.029 A 
ATOM     67  N   UNL     1      -7.252   2.188  15.718  1.00  0.00    -0.354 N 
ATOM     68  N   UNL     1     -10.167   2.063  12.435  1.00  0.00    -0.248 NA
ATOM     69  C   UNL     1      -8.845   3.960  12.102  1.00  0.00     0.031 C 
ATOM     70  C   UNL     1      -7.284   0.010  15.845  1.00  0.00     0.029 A 
ATOM     71  C   UNL     1      -7.965   1.095  15.291  1.00  0.00     0.049 A 
ATOM     72  H   UNL     1      -7.610   3.092  15.876  1.00  0.00     0.167 HD
ATOM     73  C   UNL     1      -9.351   2.210  13.552  1.00  0.00     0.074 A 
ATOM     74  C   UNL     1      -8.596   3.439  13.308  1.00  0.00     0.031 C 
ATOM     75  C   UNL     1      -9.121   1.175  14.419  1.00  0.00     0.037 A 
BRANCH  62  76
ATOM     76  C   UNL     1      -4.771   4.081  15.640  1.00  0.00     0.058 A 
ATOM     77  C   UNL     1      -5.231   4.514  16.901  1.00  0.00     0.135 A 
ATOM     78  C   UNL     1      -4.459   5.115  14.728  1.00  0.00     0.135 A 
ATOM     79  F   UNL     1      -5.538   3.625  17.860  1.00  0.00    -0.206 F 
ATOM     80  C   UNL     1      -5.469   5.856  17.193  1.00  0.00     0.059 A 
ATOM     81  C   UNL     1      -4.633   6.462  15.019  1.00  0.00     0.059 A 
ATOM     82  F   UNL     1      -4.056   4.888  13.474  1.00  0.00    -0.206 F 
ATOM     83  C   UNL     1      -5.186   6.821  16.233  1.00  0.00     0.060 A 
BRANCH  83  84
ATOM     84  S   UNL     1      -5.604   8.540  16.556  1.00  0.00     0.124 S 
ATOM     85  O   UNL     1      -7.061   8.489  16.542  1.00  0.00    -0.237 OA
ATOM     86  O   UNL     1      -4.982   8.761  17.858  1.00  0.00    -0.237 OA
ATOM     87  O   UNL     1      -4.984   9.251  15.443  1.00  0.00    -0.744 OA
ENDBRANCH  83  84
ENDBRANCH  62  76
BRANCH  63  88
ATOM     88  C   UNL     1      -9.902   3.502   8.983  1.00  0.00     0.058 A 
ATOM     89  C   UNL     1     -10.943   4.442   9.116  1.00  0.00     0.135 A 
ATOM     90  C   UNL     1      -9.082   3.664   7.845  1.00  0.00     0.135 A 
ATOM     91  F   UNL     1     -11.770   4.386  10.171  1.00  0.00    -0.206 F 
ATOM     92  C   UNL     1     -11.123   5.500   8.209  1.00  0.00     0.059 A 
ATOM     93  C   UNL     1      -9.251   4.695   6.922  1.00  0.00     0.059 A 
ATOM     94  F   UNL     1      -8.019   2.876   7.632  1.00  0.00    -0.206 F 
ATOM     95  C   UNL     1     -10.256   5.629   7.124  1.00  0.00     0.060 A 
BRANCH  95  96
ATOM     96  S   UNL     1     -10.352   7.087   6.056  1.00  0.00     0.124 S 
ATOM     97  O   UNL     1     -11.601   6.855   5.338  1.00  0.00    -0.237 OA
ATOM     98  O   UNL     1     -10.366   8.179   7.023  1.00  0.00    -0.237 OA
ATOM     99  O   UNL     1      -9.141   6.995   5.245  1.00  0.00    -0.744 OA
ENDBRANCH  95  96
ENDBRANCH  63  88
BRANCH  75 100
ATOM    100  C   UNL     1      -9.958  -0.081  14.317  1.00  0.00     0.058 A 
ATOM    101  C   UNL     1      -9.992  -0.930  13.196  1.00  0.00     0.135 A 
ATOM    102  C   UNL     1     -10.588  -0.548  15.481  1.00  0.00     0.135 A 
ATOM    103  F   UNL     1      -9.325  -0.622  12.077  1.00  0.00    -0.206 F 
ATOM    104  C   UNL     1     -10.648  -2.164  13.218  1.00  0.00     0.059 A 
ATOM    105  C   UNL     1     -11.220  -1.789  15.538  1.00  0.00     0.059 A 
ATOM    106  F   UNL     1     -10.538   0.178  16.610  1.00  0.00    -0.206 F 
ATOM    107  C   UNL     1     -11.257  -2.587  14.398  1.00  0.00     0.060 A 
BRANCH 107 108
ATOM    108  S   UNL     1     -12.038  -4.215  14.450  1.00  0.00     0.124 S 
ATOM    109  O   UNL     1     -13.210  -4.018  13.605  1.00  0.00    -0.237 OA
ATOM    110  O   UNL     1     -10.999  -5.083  13.902  1.00  0.00    -0.237 OA
ATOM    111  O   UNL     1     -12.318  -4.414  15.870  1.00  0.00    -0.744 OA
ENDBRANCH 107 108
ENDBRANCH  75 100
ENDBRANCH  49  50
ENDBRANCH  41  44
ENDBRANCH  39  40
ENDBRANCH  38  39
ENDBRANCH  37  38
ENDBRANCH   3  37
TORSDOF 19
