REMARK SMILES C=C[C@@H]1[C@@H](O)C[C@H]2[C@]3(CC[C@]4(C)[C@@H]([C@H](C)CCC=C(C)C)CC[C@]24C)C[C@]13CCC(=O)NCCCNC(=O)c1ccc(-c2c3nc(c(-c4c(F)cc(S(=O)(=O)[O-])cc4F)c4ccc([nH]4)c(-c4c(F)cc(S(=O)(=O)[O-])cc4F)c4nc(c(-c5c(F)cc(S(=O)(=O)[O-])cc5F)c5ccc2[nH]5)C=C4)C=C3)cc1
REMARK SMILES IDX 30 1 31 2 32 3 29 5 28 6 27 7 3 8 4 9 6 10 8 11 26 12 7 13
REMARK SMILES IDX 9 14 24 15 10 16 11 17 23 18 25 19 13 20 12 21 22 22 2 23
REMARK SMILES IDX 1 24 5 25 14 27 15 28 16 29 17 30 18 31 19 32 20 33 21 34
REMARK SMILES IDX 33 35 34 36 35 37 36 38 37 39 38 41 39 42 40 43 104 44 41 45
REMARK SMILES IDX 103 46 42 47 43 48 44 49 97 50 45 51 102 52 96 53 98 54
REMARK SMILES IDX 46 55 101 56 95 57 94 58 47 60 81 61 60 62 80 63 61 64 64 65
REMARK SMILES IDX 79 66 99 67 62 68 63 69 78 71 100 72 65 73 48 74 49 75 58 76
REMARK SMILES IDX 50 77 51 78 57 79 59 80 52 81 53 82 54 83 55 84 56 85 82 86
REMARK SMILES IDX 83 87 92 88 84 89 85 90 91 91 93 92 86 93 87 94 88 95 89 96
REMARK SMILES IDX 90 97 66 98 67 99 76 100 68 101 69 102 75 103 77 104 70 105
REMARK SMILES IDX 71 106 72 107 73 108 74 109
REMARK H PARENT 32 4 5 26 36 40 98 59 64 70
REMARK Flexibility Score: inf
ROOT
ATOM      1  C   UNL     1      -1.117   0.538   1.865  1.00  0.00     0.220 C 
ATOM      2  O   UNL     1      -0.718   1.453   2.614  1.00  0.00    -0.275 OA
ATOM      3  N   UNL     1      -0.421  -0.624   2.083  1.00  0.00    -0.356 N 
ATOM      4  H   UNL     1       0.234  -0.437   2.793  1.00  0.00     0.163 HD
ENDROOT
BRANCH   1   5
ATOM      5  C   UNL     1      -2.344   0.901   0.925  1.00  0.00     0.100 C 
BRANCH   5   6
ATOM      6  C   UNL     1      -2.232   1.495  -0.558  1.00  0.00     0.018 C 
BRANCH   6   7
ATOM      7  C   UNL     1      -1.989   0.479  -1.692  1.00  0.00    -0.014 C 
ATOM      8  C   UNL     1      -1.062  -0.606  -1.200  1.00  0.00     0.047 C 
ATOM      9  C   UNL     1      -1.875  -1.912  -1.082  1.00  0.00     0.122 C 
ATOM     10  C   UNL     1      -2.385  -2.293  -2.426  1.00  0.00     0.037 C 
ATOM     11  C   UNL     1      -3.035   0.185  -2.864  1.00  0.00    -0.019 C 
ATOM     12  C   UNL     1      -1.697   0.815  -3.141  1.00  0.00     0.016 C 
ATOM     13  C   UNL     1      -3.451  -1.315  -2.916  1.00  0.00     0.005 C 
ATOM     14  C   UNL     1      -4.085   1.090  -3.489  1.00  0.00     0.008 C 
ATOM     15  C   UNL     1      -4.073  -1.861  -4.252  1.00  0.00    -0.023 C 
ATOM     16  C   UNL     1      -4.424   0.545  -4.897  1.00  0.00     0.008 C 
ATOM     17  C   UNL     1      -5.102  -0.849  -4.871  1.00  0.00    -0.024 C 
ATOM     18  C   UNL     1      -4.988  -3.074  -3.918  1.00  0.00     0.008 C 
ATOM     19  C   UNL     1      -2.958  -2.318  -5.224  1.00  0.00     0.012 C 
ATOM     20  C   UNL     1      -6.318  -0.995  -3.883  1.00  0.00    -0.002 C 
ATOM     21  C   UNL     1      -5.497  -1.250  -6.311  1.00  0.00     0.012 C 
ATOM     22  C   UNL     1      -6.337  -2.492  -3.497  1.00  0.00     0.005 C 
BRANCH   8  23
ATOM     23  C   UNL     1       0.333  -0.508  -1.817  1.00  0.00    -0.028 C 
ATOM     24  C   UNL     1       1.237   0.382  -1.363  1.00  0.00     0.004 C 
ENDBRANCH   8  23
BRANCH   9  25
ATOM     25  O   UNL     1      -2.955  -1.765  -0.146  1.00  0.00    -0.392 OA
ATOM     26  H   UNL     1      -3.554  -1.066  -0.450  1.00  0.00     0.210 HD
ENDBRANCH   9  25
BRANCH  20  27
ATOM     27  C   UNL     1      -7.720  -0.362  -4.131  1.00  0.00    -0.010 C 
ATOM     28  C   UNL     1      -8.652  -1.121  -5.088  1.00  0.00     0.008 C 
BRANCH  27  29
ATOM     29  C   UNL     1      -7.678   1.136  -4.528  1.00  0.00     0.008 C 
BRANCH  29  30
ATOM     30  C   UNL     1      -8.421   2.093  -3.590  1.00  0.00     0.027 C 
BRANCH  30  31
ATOM     31  C   UNL     1      -7.634   2.383  -2.335  1.00  0.00    -0.028 C 
ATOM     32  C   UNL     1      -6.968   3.519  -2.041  1.00  0.00    -0.080 C 
ATOM     33  C   UNL     1      -6.195   3.660  -0.756  1.00  0.00     0.039 C 
ATOM     34  C   UNL     1      -6.902   4.713  -2.954  1.00  0.00     0.039 C 
ENDBRANCH  30  31
ENDBRANCH  29  30
ENDBRANCH  27  29
ENDBRANCH  20  27
ENDBRANCH   6   7
ENDBRANCH   5   6
ENDBRANCH   1   5
BRANCH   3  35
ATOM     35  C   UNL     1      -0.241  -2.076   1.684  1.00  0.00     0.117 C 
BRANCH  35  36
ATOM     36  C   UNL     1       0.867  -2.299   0.618  1.00  0.00     0.042 C 
BRANCH  36  37
ATOM     37  C   UNL     1       1.855  -3.469   0.618  1.00  0.00     0.118 C 
BRANCH  37  38
ATOM     38  N   UNL     1       1.361  -4.757   0.124  1.00  0.00    -0.352 N 
ATOM     39  C   UNL     1       1.661  -5.549  -0.976  1.00  0.00     0.251 C 
ATOM     40  H   UNL     1       0.663  -5.146   0.698  1.00  0.00     0.163 HD
ATOM     41  O   UNL     1       1.038  -6.609  -1.083  1.00  0.00    -0.269 OA
BRANCH  39  42
ATOM     42  C   UNL     1       2.659  -5.210  -2.043  1.00  0.00     0.039 A 
ATOM     43  C   UNL     1       2.524  -5.796  -3.319  1.00  0.00     0.014 A 
ATOM     44  C   UNL     1       3.776  -4.412  -1.822  1.00  0.00     0.014 A 
ATOM     45  C   UNL     1       3.465  -5.556  -4.341  1.00  0.00     0.010 A 
ATOM     46  C   UNL     1       4.639  -4.071  -2.868  1.00  0.00     0.010 A 
ATOM     47  C   UNL     1       4.531  -4.673  -4.130  1.00  0.00    -0.014 A 
BRANCH  47  48
ATOM     48  C   UNL     1       5.623  -4.446  -5.128  1.00  0.00     0.031 A 
ATOM     49  C   UNL     1       7.056  -4.739  -4.731  1.00  0.00     0.074 A 
ATOM     50  C   UNL     1       5.372  -3.905  -6.337  1.00  0.00     0.049 A 
ATOM     51  N   UNL     1       8.175  -4.429  -5.335  1.00  0.00    -0.248 NA
ATOM     52  C   UNL     1       7.249  -5.420  -3.440  1.00  0.00     0.031 C 
ATOM     53  C   UNL     1       4.051  -3.540  -6.847  1.00  0.00     0.029 A 
ATOM     54  N   UNL     1       6.227  -3.557  -7.356  1.00  0.00    -0.354 N 
ATOM     55  C   UNL     1       9.194  -4.810  -4.465  1.00  0.00     0.074 A 
ATOM     56  C   UNL     1       8.556  -5.313  -3.269  1.00  0.00     0.031 C 
ATOM     57  C   UNL     1       4.178  -3.056  -8.095  1.00  0.00     0.029 A 
ATOM     58  C   UNL     1       5.592  -3.038  -8.460  1.00  0.00     0.049 A 
ATOM     59  H   UNL     1       7.204  -3.669  -7.300  1.00  0.00     0.167 HD
ATOM     60  C   UNL     1      10.537  -4.781  -4.651  1.00  0.00     0.037 A 
ATOM     61  C   UNL     1       6.093  -2.602  -9.634  1.00  0.00     0.037 A 
ATOM     62  C   UNL     1      11.161  -4.373  -5.882  1.00  0.00     0.049 A 
ATOM     63  C   UNL     1       7.582  -2.641  -9.858  1.00  0.00     0.074 A 
ATOM     64  C   UNL     1      12.503  -4.382  -6.217  1.00  0.00     0.029 A 
ATOM     65  N   UNL     1      10.473  -3.908  -6.994  1.00  0.00    -0.354 N 
ATOM     66  N   UNL     1       8.530  -3.022  -9.033  1.00  0.00    -0.248 NA
ATOM     67  C   UNL     1       8.070  -2.197 -11.171  1.00  0.00     0.031 C 
ATOM     68  C   UNL     1      12.628  -3.905  -7.528  1.00  0.00     0.029 A 
ATOM     69  C   UNL     1      11.361  -3.630  -8.019  1.00  0.00     0.049 A 
ATOM     70  H   UNL     1       9.497  -3.792  -7.046  1.00  0.00     0.167 HD
ATOM     71  C   UNL     1       9.723  -2.890  -9.736  1.00  0.00     0.074 A 
ATOM     72  C   UNL     1       9.376  -2.400 -11.055  1.00  0.00     0.031 C 
ATOM     73  C   UNL     1      10.990  -3.154  -9.329  1.00  0.00     0.037 A 
BRANCH  60  74
ATOM     74  C   UNL     1      11.405  -5.216  -3.496  1.00  0.00     0.058 A 
ATOM     75  C   UNL     1      11.417  -6.544  -3.035  1.00  0.00     0.135 A 
ATOM     76  C   UNL     1      12.202  -4.285  -2.809  1.00  0.00     0.135 A 
ATOM     77  F   UNL     1      10.669  -7.478  -3.647  1.00  0.00    -0.206 F 
ATOM     78  C   UNL     1      12.118  -6.914  -1.893  1.00  0.00     0.059 A 
ATOM     79  C   UNL     1      12.943  -4.643  -1.684  1.00  0.00     0.059 A 
ATOM     80  F   UNL     1      12.246  -3.005  -3.210  1.00  0.00    -0.206 F 
ATOM     81  C   UNL     1      12.863  -5.954  -1.214  1.00  0.00     0.060 A 
BRANCH  81  82
ATOM     82  S   UNL     1      13.721  -6.420   0.309  1.00  0.00     0.124 S 
ATOM     83  O   UNL     1      12.610  -6.431   1.265  1.00  0.00    -0.237 OA
ATOM     84  O   UNL     1      14.258  -7.742  -0.031  1.00  0.00    -0.237 OA
ATOM     85  O   UNL     1      14.696  -5.378   0.487  1.00  0.00    -0.744 OA
ENDBRANCH  81  82
ENDBRANCH  60  74
BRANCH  61  86
ATOM     86  C   UNL     1       5.167  -2.170 -10.716  1.00  0.00     0.058 A 
ATOM     87  C   UNL     1       4.936  -3.001 -11.823  1.00  0.00     0.135 A 
ATOM     88  C   UNL     1       4.454  -0.963 -10.647  1.00  0.00     0.135 A 
ATOM     89  F   UNL     1       5.602  -4.160 -11.939  1.00  0.00    -0.206 F 
ATOM     90  C   UNL     1       4.029  -2.658 -12.819  1.00  0.00     0.059 A 
ATOM     91  C   UNL     1       3.525  -0.606 -11.623  1.00  0.00     0.059 A 
ATOM     92  F   UNL     1       4.629  -0.138  -9.604  1.00  0.00    -0.206 F 
ATOM     93  C   UNL     1       3.319  -1.462 -12.705  1.00  0.00     0.060 A 
BRANCH  93  94
ATOM     94  S   UNL     1       2.075  -1.075 -13.957  1.00  0.00     0.124 S 
ATOM     95  O   UNL     1       2.907  -0.727 -15.103  1.00  0.00    -0.237 OA
ATOM     96  O   UNL     1       1.342  -2.333 -14.059  1.00  0.00    -0.237 OA
ATOM     97  O   UNL     1       1.329   0.029 -13.359  1.00  0.00    -0.744 OA
ENDBRANCH  93  94
ENDBRANCH  61  86
BRANCH  73  98
ATOM     98  C   UNL     1      12.092  -2.953 -10.329  1.00  0.00     0.058 A 
ATOM     99  C   UNL     1      12.548  -1.673 -10.674  1.00  0.00     0.135 A 
ATOM    100  C   UNL     1      12.739  -4.060 -10.902  1.00  0.00     0.135 A 
ATOM    101  F   UNL     1      11.959  -0.583 -10.157  1.00  0.00    -0.206 F 
ATOM    102  C   UNL     1      13.599  -1.494 -11.568  1.00  0.00     0.059 A 
ATOM    103  C   UNL     1      13.806  -3.906 -11.781  1.00  0.00     0.059 A 
ATOM    104  F   UNL     1      12.346  -5.307 -10.596  1.00  0.00    -0.206 F 
ATOM    105  C   UNL     1      14.223  -2.618 -12.115  1.00  0.00     0.060 A 
BRANCH 105 106
ATOM    106  S   UNL     1      15.612  -2.375 -13.242  1.00  0.00     0.124 S 
ATOM    107  O   UNL     1      14.930  -1.962 -14.464  1.00  0.00    -0.237 OA
ATOM    108  O   UNL     1      16.387  -1.339 -12.567  1.00  0.00    -0.237 OA
ATOM    109  O   UNL     1      16.244  -3.690 -13.289  1.00  0.00    -0.744 OA
ENDBRANCH 105 106
ENDBRANCH  73  98
ENDBRANCH  47  48
ENDBRANCH  39  42
ENDBRANCH  37  38
ENDBRANCH  36  37
ENDBRANCH  35  36
ENDBRANCH   3  35
TORSDOF 21
