REMARK SMILES C/C(=N\NC(N)=S)c1nnn(-c2ccc(C(=O)NCCCNC(=O)c3ccc(-c4c5nc(c(-c6c(F)cc(S(=O)(=O)[O-])cc6F)c6ccc([nH]6)c(-c6c(F)cc(S(=O)(=O)[O-])cc6F)c6nc(c(-c7c(F)cc(S(=O)(=O)[O-])cc7F)c7ccc4[nH]7)C=C6)C=C5)cc3)cc2)c1C
REMARK SMILES IDX 19 1 18 2 16 3 17 4 15 6 12 7 13 8 92 9 14 10 91 11 11 12
REMARK SMILES IDX 8 13 9 14 93 15 10 16 94 17 2 18 1 19 3 20 4 21 5 23 7 24
REMARK SMILES IDX 6 25 20 28 21 29 22 30 23 31 24 33 25 34 26 35 90 36 27 37
REMARK SMILES IDX 89 38 28 39 29 40 30 41 83 42 31 43 88 44 82 45 84 46 32 47
REMARK SMILES IDX 87 48 81 49 80 50 33 52 67 53 46 54 66 55 47 56 50 57 65 58
REMARK SMILES IDX 85 59 48 60 49 61 64 63 86 64 51 65 34 66 35 67 44 68 36 69
REMARK SMILES IDX 37 70 43 71 45 72 38 73 39 74 40 75 41 76 42 77 68 78 69 79
REMARK SMILES IDX 78 80 70 81 71 82 77 83 79 84 72 85 73 86 74 87 75 88 76 89
REMARK SMILES IDX 52 90 53 91 62 92 54 93 55 94 61 95 63 96 56 97 57 98 58 99
REMARK SMILES IDX 59 100 60 101
REMARK H PARENT 18 5 4 22 6 26 6 27 22 32 84 51 50 62
REMARK Flexibility Score: inf
ROOT
ATOM      1  C   UNL     1       8.434  -4.710  -1.831  1.00  0.00     0.118 C 
ENDROOT
BRANCH   1   2
ATOM      2  N   UNL     1       8.173  -5.364  -3.110  1.00  0.00    -0.352 N 
ATOM      3  C   UNL     1       7.005  -5.591  -3.807  1.00  0.00     0.251 C 
ATOM      4  O   UNL     1       7.084  -5.993  -4.966  1.00  0.00    -0.269 OA
ATOM      5  H   UNL     1       8.980  -5.705  -3.558  1.00  0.00     0.163 HD
BRANCH   3   6
ATOM      6  C   UNL     1       5.660  -5.303  -3.235  1.00  0.00     0.039 A 
ATOM      7  C   UNL     1       3.226  -4.418  -2.224  1.00  0.00     0.067 A 
ATOM      8  C   UNL     1       3.367  -4.556  -3.605  1.00  0.00     0.029 A 
ATOM      9  C   UNL     1       4.218  -4.846  -1.349  1.00  0.00     0.029 A 
ATOM     10  C   UNL     1       4.604  -4.980  -4.107  1.00  0.00     0.016 A 
ATOM     11  C   UNL     1       5.408  -5.329  -1.865  1.00  0.00     0.016 A 
BRANCH   7  12
ATOM     12  N   UNL     1       2.161  -3.689  -1.683  1.00  0.00    -0.217 N 
ATOM     13  C   UNL     1       0.962  -2.269  -0.569  1.00  0.00     0.132 A 
ATOM     14  N   UNL     1       0.138  -3.238  -1.085  1.00  0.00    -0.128 NA
ATOM     15  C   UNL     1       2.260  -2.511  -0.966  1.00  0.00     0.071 A 
ATOM     16  N   UNL     1       0.875  -4.057  -1.826  1.00  0.00    -0.061 NA
ATOM     17  C   UNL     1       3.504  -1.714  -0.836  1.00  0.00     0.069 C 
BRANCH  13  18
ATOM     18  C   UNL     1       0.451  -1.089   0.099  1.00  0.00     0.087 C 
ATOM     19  C   UNL     1       0.357   0.154  -0.746  1.00  0.00     0.071 C 
ATOM     20  N   UNL     1       0.093  -1.251   1.339  1.00  0.00    -0.176 NA
BRANCH  20  21
ATOM     21  N   UNL     1      -0.478  -0.242   2.058  1.00  0.00    -0.254 N 
ATOM     22  H   UNL     1      -1.410  -0.393   2.338  1.00  0.00     0.193 HD
BRANCH  21  23
ATOM     23  C   UNL     1       0.077   0.961   2.443  1.00  0.00     0.184 C 
ATOM     24  S   UNL     1       1.576   1.597   2.107  1.00  0.00    -0.040 S 
BRANCH  23  25
ATOM     25  N   UNL     1      -0.782   1.698   3.212  1.00  0.00    -0.375 N 
ATOM     26  H   UNL     1      -1.677   1.346   3.426  1.00  0.00     0.159 HD
ATOM     27  H   UNL     1      -0.507   2.580   3.551  1.00  0.00     0.159 HD
ENDBRANCH  23  25
ENDBRANCH  21  23
ENDBRANCH  20  21
ENDBRANCH  13  18
ENDBRANCH   7  12
ENDBRANCH   3   6
ENDBRANCH   1   2
BRANCH   1  28
ATOM     28  C   UNL     1       8.556  -5.698  -0.658  1.00  0.00     0.042 C 
BRANCH  28  29
ATOM     29  C   UNL     1       9.931  -6.318  -0.540  1.00  0.00     0.118 C 
BRANCH  29  30
ATOM     30  N   UNL     1      10.951  -5.380  -0.060  1.00  0.00    -0.352 N 
ATOM     31  C   UNL     1      12.320  -5.591   0.079  1.00  0.00     0.251 C 
ATOM     32  H   UNL     1      10.626  -4.487   0.196  1.00  0.00     0.163 HD
ATOM     33  O   UNL     1      12.984  -4.891   0.821  1.00  0.00    -0.269 OA
BRANCH  31  34
ATOM     34  C   UNL     1      12.936  -6.688  -0.694  1.00  0.00     0.039 A 
ATOM     35  C   UNL     1      13.986  -7.475  -0.213  1.00  0.00     0.014 A 
ATOM     36  C   UNL     1      12.373  -6.953  -1.930  1.00  0.00     0.014 A 
ATOM     37  C   UNL     1      14.399  -8.564  -0.982  1.00  0.00     0.010 A 
ATOM     38  C   UNL     1      12.540  -8.182  -2.485  1.00  0.00     0.010 A 
ATOM     39  C   UNL     1      13.654  -8.910  -2.119  1.00  0.00    -0.014 A 
BRANCH  39  40
ATOM     40  C   UNL     1      13.968 -10.043  -2.974  1.00  0.00     0.031 A 
ATOM     41  C   UNL     1      13.975 -11.351  -2.279  1.00  0.00     0.074 A 
ATOM     42  C   UNL     1      13.968  -9.940  -4.324  1.00  0.00     0.049 A 
ATOM     43  N   UNL     1      14.994 -12.090  -1.996  1.00  0.00    -0.248 NA
ATOM     44  C   UNL     1      12.716 -11.814  -1.673  1.00  0.00     0.031 C 
ATOM     45  C   UNL     1      13.611  -8.787  -5.168  1.00  0.00     0.029 A 
ATOM     46  N   UNL     1      14.191 -10.910  -5.246  1.00  0.00    -0.354 N 
ATOM     47  C   UNL     1      14.475 -13.230  -1.392  1.00  0.00     0.074 A 
ATOM     48  C   UNL     1      13.125 -12.902  -1.017  1.00  0.00     0.031 C 
ATOM     49  C   UNL     1      13.417  -9.193  -6.442  1.00  0.00     0.029 A 
ATOM     50  C   UNL     1      13.818 -10.582  -6.545  1.00  0.00     0.049 A 
ATOM     51  H   UNL     1      14.587 -11.780  -5.013  1.00  0.00     0.167 HD
ATOM     52  C   UNL     1      15.115 -14.430  -1.479  1.00  0.00     0.037 A 
ATOM     53  C   UNL     1      13.822 -11.413  -7.617  1.00  0.00     0.037 A 
ATOM     54  C   UNL     1      16.466 -14.259  -1.958  1.00  0.00     0.049 A 
ATOM     55  C   UNL     1      14.725 -12.544  -7.269  1.00  0.00     0.074 A 
ATOM     56  C   UNL     1      17.569 -13.559  -1.506  1.00  0.00     0.029 A 
ATOM     57  N   UNL     1      16.709 -14.512  -3.289  1.00  0.00    -0.354 N 
ATOM     58  N   UNL     1      16.011 -12.411  -7.071  1.00  0.00    -0.248 NA
ATOM     59  C   UNL     1      14.123 -13.720  -6.660  1.00  0.00     0.031 C 
ATOM     60  C   UNL     1      18.161 -13.005  -2.679  1.00  0.00     0.029 A 
ATOM     61  C   UNL     1      17.441 -13.461  -3.785  1.00  0.00     0.049 A 
ATOM     62  H   UNL     1      16.411 -15.303  -3.794  1.00  0.00     0.167 HD
ATOM     63  C   UNL     1      16.296 -13.233  -5.988  1.00  0.00     0.074 A 
ATOM     64  C   UNL     1      15.108 -14.071  -5.829  1.00  0.00     0.031 C 
ATOM     65  C   UNL     1      17.338 -12.963  -5.144  1.00  0.00     0.037 A 
BRANCH  52  66
ATOM     66  C   UNL     1      14.426 -15.775  -1.464  1.00  0.00     0.058 A 
ATOM     67  C   UNL     1      15.203 -16.947  -1.367  1.00  0.00     0.135 A 
ATOM     68  C   UNL     1      13.066 -15.976  -1.791  1.00  0.00     0.135 A 
ATOM     69  F   UNL     1      16.511 -16.878  -1.072  1.00  0.00    -0.206 F 
ATOM     70  C   UNL     1      14.684 -18.214  -1.637  1.00  0.00     0.059 A 
ATOM     71  C   UNL     1      12.514 -17.233  -2.005  1.00  0.00     0.059 A 
ATOM     72  F   UNL     1      12.223 -14.962  -2.016  1.00  0.00    -0.206 F 
ATOM     73  C   UNL     1      13.338 -18.344  -1.968  1.00  0.00     0.060 A 
BRANCH  73  74
ATOM     74  S   UNL     1      12.687 -19.961  -2.416  1.00  0.00     0.124 S 
ATOM     75  O   UNL     1      13.348 -20.196  -3.694  1.00  0.00    -0.237 OA
ATOM     76  O   UNL     1      13.137 -20.788  -1.300  1.00  0.00    -0.237 OA
ATOM     77  O   UNL     1      11.246 -19.737  -2.481  1.00  0.00    -0.744 OA
ENDBRANCH  73  74
ENDBRANCH  52  66
BRANCH  53  78
ATOM     78  C   UNL     1      12.837 -11.475  -8.731  1.00  0.00     0.058 A 
ATOM     79  C   UNL     1      13.096 -12.224  -9.892  1.00  0.00     0.135 A 
ATOM     80  C   UNL     1      11.506 -11.040  -8.560  1.00  0.00     0.135 A 
ATOM     81  F   UNL     1      14.331 -12.694 -10.128  1.00  0.00    -0.206 F 
ATOM     82  C   UNL     1      12.088 -12.570 -10.800  1.00  0.00     0.059 A 
ATOM     83  C   UNL     1      10.486 -11.366  -9.454  1.00  0.00     0.059 A 
ATOM     84  F   UNL     1      11.137 -10.362  -7.463  1.00  0.00    -0.206 F 
ATOM     85  C   UNL     1      10.778 -12.155 -10.559  1.00  0.00     0.060 A 
BRANCH  85  86
ATOM     86  S   UNL     1       9.443 -12.758 -11.623  1.00  0.00     0.124 S 
ATOM     87  O   UNL     1       9.707 -12.049 -12.870  1.00  0.00    -0.237 OA
ATOM     88  O   UNL     1       9.690 -14.196 -11.643  1.00  0.00    -0.237 OA
ATOM     89  O   UNL     1       8.233 -12.348 -10.915  1.00  0.00    -0.744 OA
ENDBRANCH  85  86
ENDBRANCH  53  78
BRANCH  65  90
ATOM     90  C   UNL     1      18.342 -11.909  -5.555  1.00  0.00     0.058 A 
ATOM     91  C   UNL     1      18.046 -10.543  -5.722  1.00  0.00     0.135 A 
ATOM     92  C   UNL     1      19.695 -12.274  -5.623  1.00  0.00     0.135 A 
ATOM     93  F   UNL     1      16.797 -10.085  -5.573  1.00  0.00    -0.206 F 
ATOM     94  C   UNL     1      19.039  -9.594  -5.980  1.00  0.00     0.059 A 
ATOM     95  C   UNL     1      20.706 -11.341  -5.848  1.00  0.00     0.059 A 
ATOM     96  F   UNL     1      20.057 -13.550  -5.412  1.00  0.00    -0.206 F 
ATOM     97  C   UNL     1      20.370 -10.004  -6.039  1.00  0.00     0.060 A 
BRANCH  97  98
ATOM     98  S   UNL     1      21.662  -8.768  -6.299  1.00  0.00     0.124 S 
ATOM     99  O   UNL     1      21.461  -8.402  -7.696  1.00  0.00    -0.237 OA
ATOM    100  O   UNL     1      21.323  -7.740  -5.319  1.00  0.00    -0.237 OA
ATOM    101  O   UNL     1      22.895  -9.500  -6.018  1.00  0.00    -0.744 OA
ENDBRANCH  97  98
ENDBRANCH  65  90
ENDBRANCH  39  40
ENDBRANCH  31  34
ENDBRANCH  29  30
ENDBRANCH  28  29
ENDBRANCH   1  28
TORSDOF 18
