REMARK SMILES O=C(/C=C/Nc1cc(Cl)ccc1Cl)NCCCNC(=O)c1ccc(-c2c3nc(c(-c4c(F)cc(S(=O)(=O)[O-])cc4F)c4ccc([nH]4)c(-c4c(F)cc(S(=O)(=O)[O-])cc4F)c4nc(c(-c5c(F)cc(S(=O)(=O)[O-])cc5F)c5ccc2[nH]5)C=C4)C=C3)cc1
REMARK SMILES IDX 16 1 15 2 14 3 1 4 2 5 3 7 4 8 5 9 6 11 7 12 12 13 8 14
REMARK SMILES IDX 11 15 13 16 9 17 10 18 17 19 18 20 19 21 20 23 21 24 22 25
REMARK SMILES IDX 86 26 23 27 85 28 24 29 25 30 26 31 79 32 27 33 84 34 78 35
REMARK SMILES IDX 80 36 28 37 83 38 77 39 76 40 29 42 63 43 42 44 62 45 43 46
REMARK SMILES IDX 46 47 61 48 81 49 44 50 45 51 60 53 82 54 47 55 30 56 31 57
REMARK SMILES IDX 40 58 32 59 33 60 39 61 41 62 34 63 35 64 36 65 37 66 38 67
REMARK SMILES IDX 64 68 65 69 74 70 66 71 67 72 73 73 75 74 68 75 69 76 70 77
REMARK SMILES IDX 71 78 72 79 48 80 49 81 58 82 50 83 51 84 57 85 59 86 52 87
REMARK SMILES IDX 53 88 54 89 55 90 56 91
REMARK H PARENT 14 6 5 10 18 22 80 41 46 52
REMARK Flexibility Score: inf
ROOT
ATOM      1  C   UNL     1       2.331   3.119  -1.113  1.00  0.00     0.042 C 
ENDROOT
BRANCH   1   2
ATOM      2  C   UNL     1       2.066   1.694  -1.588  1.00  0.00     0.118 C 
BRANCH   2   3
ATOM      3  N   UNL     1       2.773   0.695  -0.811  1.00  0.00    -0.352 N 
ATOM      4  O   UNL     1       0.970   0.044   0.460  1.00  0.00    -0.270 OA
ATOM      5  C   UNL     1       2.157  -0.054   0.157  1.00  0.00     0.245 C 
ATOM      6  H   UNL     1       3.731   0.550  -0.985  1.00  0.00     0.163 HD
BRANCH   5   7
ATOM      7  C   UNL     1       2.985  -1.113   0.782  1.00  0.00     0.089 C 
ATOM      8  C   UNL     1       4.315  -1.062   0.936  1.00  0.00     0.088 C 
BRANCH   8   9
ATOM      9  N   UNL     1       5.104  -2.060   1.448  1.00  0.00    -0.360 N 
ATOM     10  H   UNL     1       4.630  -2.868   1.752  1.00  0.00     0.166 HD
BRANCH   9  11
ATOM     11  C   UNL     1       6.508  -2.079   1.594  1.00  0.00     0.058 A 
ATOM     12  C   UNL     1       7.263  -0.902   1.689  1.00  0.00     0.048 A 
ATOM     13  C   UNL     1       7.204  -3.308   1.569  1.00  0.00     0.064 A 
ATOM     14  C   UNL     1       8.658  -0.952   1.757  1.00  0.00     0.043 A 
ATOM     15  C   UNL     1       8.600  -3.355   1.626  1.00  0.00     0.024 A 
ATOM     16  Cl  UNL     1       6.345  -4.807   1.441  1.00  0.00    -0.082 Cl
ATOM     17  Cl  UNL     1       9.556   0.509   1.888  1.00  0.00    -0.084 Cl
ATOM     18  C   UNL     1       9.330  -2.171   1.718  1.00  0.00     0.022 A 
ENDBRANCH   9  11
ENDBRANCH   8   9
ENDBRANCH   5   7
ENDBRANCH   2   3
ENDBRANCH   1   2
BRANCH   1  19
ATOM     19  C   UNL     1       3.792   3.559  -1.177  1.00  0.00     0.118 C 
BRANCH  19  20
ATOM     20  N   UNL     1       4.345   3.530  -2.522  1.00  0.00    -0.352 N 
ATOM     21  C   UNL     1       5.034   4.483  -3.231  1.00  0.00     0.251 C 
ATOM     22  H   UNL     1       4.200   2.684  -3.006  1.00  0.00     0.163 HD
ATOM     23  O   UNL     1       5.291   4.262  -4.413  1.00  0.00    -0.269 OA
BRANCH  21  24
ATOM     24  C   UNL     1       5.455   5.765  -2.615  1.00  0.00     0.039 A 
ATOM     25  C   UNL     1       5.418   6.921  -3.402  1.00  0.00     0.014 A 
ATOM     26  C   UNL     1       5.942   5.841  -1.307  1.00  0.00     0.014 A 
ATOM     27  C   UNL     1       5.828   8.148  -2.872  1.00  0.00     0.010 A 
ATOM     28  C   UNL     1       6.282   7.078  -0.755  1.00  0.00     0.010 A 
ATOM     29  C   UNL     1       6.245   8.244  -1.535  1.00  0.00    -0.014 A 
BRANCH  29  30
ATOM     30  C   UNL     1       6.675   9.547  -0.959  1.00  0.00     0.031 A 
ATOM     31  C   UNL     1       8.100   9.747  -0.509  1.00  0.00     0.074 A 
ATOM     32  C   UNL     1       5.780  10.545  -0.811  1.00  0.00     0.049 A 
ATOM     33  N   UNL     1       8.655  10.800   0.035  1.00  0.00    -0.248 NA
ATOM     34  C   UNL     1       9.014   8.606  -0.670  1.00  0.00     0.031 C 
ATOM     35  C   UNL     1       4.361  10.467  -1.163  1.00  0.00     0.029 A 
ATOM     36  N   UNL     1       5.930  11.819  -0.323  1.00  0.00    -0.354 N 
ATOM     37  C   UNL     1       9.975  10.445   0.293  1.00  0.00     0.074 A 
ATOM     38  C   UNL     1      10.123   9.062  -0.104  1.00  0.00     0.031 C 
ATOM     39  C   UNL     1       3.777  11.648  -0.903  1.00  0.00     0.029 A 
ATOM     40  C   UNL     1       4.770  12.558  -0.339  1.00  0.00     0.049 A 
ATOM     41  H   UNL     1       6.788  12.172   0.008  1.00  0.00     0.167 HD
ATOM     42  C   UNL     1      10.980  11.206   0.791  1.00  0.00     0.037 A 
ATOM     43  C   UNL     1       4.532  13.825   0.053  1.00  0.00     0.037 A 
ATOM     44  C   UNL     1      10.839  12.591   1.159  1.00  0.00     0.049 A 
ATOM     45  C   UNL     1       5.668  14.658   0.585  1.00  0.00     0.074 A 
ATOM     46  C   UNL     1      11.809  13.461   1.627  1.00  0.00     0.029 A 
ATOM     47  N   UNL     1       9.655  13.312   1.097  1.00  0.00    -0.354 N 
ATOM     48  N   UNL     1       6.923  14.321   0.767  1.00  0.00    -0.248 NA
ATOM     49  C   UNL     1       5.359  16.048   0.948  1.00  0.00     0.031 C 
ATOM     50  C   UNL     1      11.204  14.697   1.883  1.00  0.00     0.029 A 
ATOM     51  C   UNL     1       9.868  14.611   1.527  1.00  0.00     0.049 A 
ATOM     52  H   UNL     1       8.791  12.952   0.792  1.00  0.00     0.167 HD
ATOM     53  C   UNL     1       7.560  15.467   1.233  1.00  0.00     0.074 A 
ATOM     54  C   UNL     1       6.554  16.507   1.296  1.00  0.00     0.031 C 
ATOM     55  C   UNL     1       8.861  15.642   1.572  1.00  0.00     0.037 A 
BRANCH  42  56
ATOM     56  C   UNL     1      12.327  10.556   0.960  1.00  0.00     0.058 A 
ATOM     57  C   UNL     1      13.118  10.201  -0.146  1.00  0.00     0.135 A 
ATOM     58  C   UNL     1      12.849  10.311   2.240  1.00  0.00     0.135 A 
ATOM     59  F   UNL     1      12.663  10.400  -1.393  1.00  0.00    -0.206 F 
ATOM     60  C   UNL     1      14.360   9.596   0.011  1.00  0.00     0.059 A 
ATOM     61  C   UNL     1      14.103   9.733   2.421  1.00  0.00     0.059 A 
ATOM     62  F   UNL     1      12.138  10.632   3.333  1.00  0.00    -0.206 F 
ATOM     63  C   UNL     1      14.844   9.364   1.300  1.00  0.00     0.060 A 
BRANCH  63  64
ATOM     64  S   UNL     1      16.457   8.576   1.487  1.00  0.00     0.124 S 
ATOM     65  O   UNL     1      16.150   7.195   1.125  1.00  0.00    -0.237 OA
ATOM     66  O   UNL     1      17.278   9.313   0.532  1.00  0.00    -0.237 OA
ATOM     67  O   UNL     1      16.783   8.798   2.892  1.00  0.00    -0.744 OA
ENDBRANCH  63  64
ENDBRANCH  42  56
BRANCH  43  68
ATOM     68  C   UNL     1       3.166  14.399  -0.078  1.00  0.00     0.058 A 
ATOM     69  C   UNL     1       2.885  15.383  -1.038  1.00  0.00     0.135 A 
ATOM     70  C   UNL     1       2.114  13.972   0.747  1.00  0.00     0.135 A 
ATOM     71  F   UNL     1       3.860  15.828  -1.845  1.00  0.00    -0.206 F 
ATOM     72  C   UNL     1       1.616  15.938  -1.164  1.00  0.00     0.059 A 
ATOM     73  C   UNL     1       0.830  14.494   0.623  1.00  0.00     0.059 A 
ATOM     74  F   UNL     1       2.326  13.020   1.669  1.00  0.00    -0.206 F 
ATOM     75  C   UNL     1       0.594  15.486  -0.328  1.00  0.00     0.060 A 
BRANCH  75  76
ATOM     76  S   UNL     1      -1.061  16.181  -0.530  1.00  0.00     0.124 S 
ATOM     77  O   UNL     1      -0.896  17.505   0.059  1.00  0.00    -0.237 OA
ATOM     78  O   UNL     1      -1.236  16.143  -1.978  1.00  0.00    -0.237 OA
ATOM     79  O   UNL     1      -1.906  15.257   0.220  1.00  0.00    -0.744 OA
ENDBRANCH  75  76
ENDBRANCH  43  68
BRANCH  55  80
ATOM     80  C   UNL     1       9.287  17.023   1.992  1.00  0.00     0.058 A 
ATOM     81  C   UNL     1       8.918  17.569   3.231  1.00  0.00     0.135 A 
ATOM     82  C   UNL     1      10.110  17.794   1.154  1.00  0.00     0.135 A 
ATOM     83  F   UNL     1       8.131  16.876   4.068  1.00  0.00    -0.206 F 
ATOM     84  C   UNL     1       9.322  18.846   3.610  1.00  0.00     0.059 A 
ATOM     85  C   UNL     1      10.548  19.061   1.525  1.00  0.00     0.059 A 
ATOM     86  F   UNL     1      10.502  17.314  -0.037  1.00  0.00    -0.206 F 
ATOM     87  C   UNL     1      10.136  19.585   2.749  1.00  0.00     0.060 A 
BRANCH  87  88
ATOM     88  S   UNL     1      10.669  21.233   3.259  1.00  0.00     0.124 S 
ATOM     89  O   UNL     1       9.452  22.011   3.054  1.00  0.00    -0.237 OA
ATOM     90  O   UNL     1      11.059  21.021   4.650  1.00  0.00    -0.237 OA
ATOM     91  O   UNL     1      11.768  21.532   2.346  1.00  0.00    -0.744 OA
ENDBRANCH  87  88
ENDBRANCH  55  80
ENDBRANCH  29  30
ENDBRANCH  21  24
ENDBRANCH  19  20
ENDBRANCH   1  19
TORSDOF 15
