REMARK SMILES Cc1ccc(NC(=O)C[C@@H](C(=O)NCCCNC(=O)c2ccc(-c3c4nc(c(-c5c(F)cc(S(=O)(=O)[O-])cc5F)c5ccc([nH]5)c(-c5c(F)cc(S(=O)(=O)[O-])cc5F)c5nc(c(-c6c(F)cc(S(=O)(=O)[O-])cc6F)c6ccc3[nH]6)C=C5)C=C4)cc2)[NH+]2CCOCC2)cc1
REMARK SMILES IDX 15 1 14 2 13 3 11 4 12 5 10 7 9 8 7 9 6 10 8 12 5 13 1 14
REMARK SMILES IDX 2 15 3 16 93 17 4 18 92 19 86 20 87 21 91 22 88 24 90 25
REMARK SMILES IDX 89 26 16 27 17 28 18 29 19 31 20 32 21 33 85 34 22 35 84 36
REMARK SMILES IDX 23 37 24 38 25 39 78 40 26 41 83 42 77 43 79 44 27 45 82 46
REMARK SMILES IDX 76 47 75 48 28 50 62 51 41 52 61 53 42 54 45 55 60 56 80 57
REMARK SMILES IDX 43 58 44 59 59 61 81 62 46 63 29 64 30 65 39 66 31 67 32 68
REMARK SMILES IDX 38 69 40 70 33 71 34 72 35 73 36 74 37 75 63 76 64 77 73 78
REMARK SMILES IDX 65 79 66 80 72 81 74 82 67 83 68 84 69 85 70 86 71 87 47 88
REMARK SMILES IDX 48 89 57 90 49 91 50 92 56 93 58 94 51 95 52 96 53 97 54 98
REMARK SMILES IDX 55 99
REMARK H PARENT 13 6 6 11 86 23 17 30 79 49 45 60
REMARK Flexibility Score: inf
ROOT
ATOM      1  C   UNL     1      -4.820   0.885  -1.238  1.00  0.00     0.042 C 
ENDROOT
BRANCH   1   2
ATOM      2  C   UNL     1      -4.041  -0.059  -2.155  1.00  0.00     0.118 C 
BRANCH   2   3
ATOM      3  N   UNL     1      -2.629  -0.174  -1.857  1.00  0.00    -0.351 N 
ATOM      4  C   UNL     1      -1.815  -1.261  -1.735  1.00  0.00     0.278 C 
ATOM      5  O   UNL     1      -0.610  -1.031  -1.885  1.00  0.00    -0.268 OA
ATOM      6  H   UNL     1      -2.175   0.688  -1.719  1.00  0.00     0.163 HD
BRANCH   4   7
ATOM      7  C   UNL     1      -2.365  -2.709  -1.472  1.00  0.00     0.283 C 
BRANCH   7   8
ATOM      8  C   UNL     1      -2.901  -2.933  -0.040  1.00  0.00     0.175 C 
BRANCH   8   9
ATOM      9  C   UNL     1      -3.409  -1.772   0.779  1.00  0.00     0.230 C 
ATOM     10  N   UNL     1      -2.591  -0.820   1.309  1.00  0.00    -0.326 N 
ATOM     11  H   UNL     1      -3.062  -0.122   1.819  1.00  0.00     0.169 HD
ATOM     12  O   UNL     1      -4.625  -1.678   0.985  1.00  0.00    -0.274 OA
BRANCH  10  13
ATOM     13  C   UNL     1      -1.195  -0.654   1.260  1.00  0.00     0.041 A 
ATOM     14  C   UNL     1       2.909   0.143   0.244  1.00  0.00     0.044 C 
ATOM     15  C   UNL     1       1.512  -0.117   0.723  1.00  0.00    -0.051 A 
ATOM     16  C   UNL     1       1.071  -1.429   0.905  1.00  0.00     0.005 A 
ATOM     17  C   UNL     1       0.610   0.930   0.919  1.00  0.00     0.005 A 
ATOM     18  C   UNL     1      -0.272  -1.694   1.187  1.00  0.00     0.026 A 
ATOM     19  C   UNL     1      -0.730   0.662   1.205  1.00  0.00     0.026 A 
ENDBRANCH  10  13
ENDBRANCH   8   9
ENDBRANCH   7   8
BRANCH   7  20
ATOM     20  N   UNL     1      -1.293  -3.709  -1.810  1.00  0.00    -0.320 N 
ATOM     21  C   UNL     1      -0.871  -3.696  -3.228  1.00  0.00     0.291 C 
ATOM     22  C   UNL     1      -1.417  -5.100  -1.351  1.00  0.00     0.291 C 
ATOM     23  H   UNL     1      -0.565  -3.320  -1.211  1.00  0.00     0.348 HD
ATOM     24  C   UNL     1      -1.659  -4.662  -4.127  1.00  0.00     0.221 C 
ATOM     25  C   UNL     1      -2.185  -6.031  -2.297  1.00  0.00     0.221 C 
ATOM     26  O   UNL     1      -1.638  -6.000  -3.618  1.00  0.00    -0.370 OA
ENDBRANCH   7  20
ENDBRANCH   4   7
ENDBRANCH   2   3
ENDBRANCH   1   2
BRANCH   1  27
ATOM     27  C   UNL     1      -4.212   2.274  -1.030  1.00  0.00     0.118 C 
BRANCH  27  28
ATOM     28  N   UNL     1      -5.273   3.264  -0.829  1.00  0.00    -0.352 N 
ATOM     29  C   UNL     1      -5.267   4.449  -0.135  1.00  0.00     0.251 C 
ATOM     30  H   UNL     1      -6.130   3.043  -1.260  1.00  0.00     0.163 HD
ATOM     31  O   UNL     1      -6.281   5.127   0.010  1.00  0.00    -0.269 OA
BRANCH  29  32
ATOM     32  C   UNL     1      -3.980   4.932   0.375  1.00  0.00     0.039 A 
ATOM     33  C   UNL     1      -3.382   6.011  -0.284  1.00  0.00     0.014 A 
ATOM     34  C   UNL     1      -3.301   4.197   1.342  1.00  0.00     0.014 A 
ATOM     35  C   UNL     1      -2.026   6.253  -0.097  1.00  0.00     0.010 A 
ATOM     36  C   UNL     1      -1.944   4.412   1.491  1.00  0.00     0.010 A 
ATOM     37  C   UNL     1      -1.296   5.395   0.725  1.00  0.00    -0.014 A 
BRANCH  37  38
ATOM     38  C   UNL     1       0.163   5.388   0.772  1.00  0.00     0.031 A 
ATOM     39  C   UNL     1       0.878   5.950   1.938  1.00  0.00     0.074 A 
ATOM     40  C   UNL     1       0.856   4.783  -0.216  1.00  0.00     0.049 A 
ATOM     41  N   UNL     1       2.133   6.249   1.959  1.00  0.00    -0.248 NA
ATOM     42  C   UNL     1       0.195   6.260   3.186  1.00  0.00     0.031 C 
ATOM     43  C   UNL     1       2.265   4.402  -0.202  1.00  0.00     0.029 A 
ATOM     44  N   UNL     1       0.451   4.568  -1.538  1.00  0.00    -0.354 N 
ATOM     45  C   UNL     1       2.484   6.540   3.259  1.00  0.00     0.074 A 
ATOM     46  C   UNL     1       1.226   6.585   3.971  1.00  0.00     0.031 C 
ATOM     47  C   UNL     1       2.688   4.264  -1.467  1.00  0.00     0.029 A 
ATOM     48  C   UNL     1       1.610   4.702  -2.336  1.00  0.00     0.049 A 
ATOM     49  H   UNL     1      -0.460   4.364  -1.850  1.00  0.00     0.167 HD
ATOM     50  C   UNL     1       3.808   6.595   3.596  1.00  0.00     0.037 A 
ATOM     51  C   UNL     1       1.705   5.718  -3.245  1.00  0.00     0.037 A 
ATOM     52  C   UNL     1       4.658   6.514   2.404  1.00  0.00     0.049 A 
ATOM     53  C   UNL     1       2.780   6.742  -2.938  1.00  0.00     0.074 A 
ATOM     54  C   UNL     1       5.353   5.493   1.775  1.00  0.00     0.029 A 
ATOM     55  N   UNL     1       4.644   7.571   1.511  1.00  0.00    -0.354 N 
ATOM     56  N   UNL     1       3.567   6.700  -1.897  1.00  0.00    -0.248 NA
ATOM     57  C   UNL     1       3.004   7.940  -3.752  1.00  0.00     0.031 C 
ATOM     58  C   UNL     1       5.688   5.930   0.461  1.00  0.00     0.029 A 
ATOM     59  C   UNL     1       5.208   7.217   0.299  1.00  0.00     0.049 A 
ATOM     60  H   UNL     1       4.279   8.462   1.713  1.00  0.00     0.167 HD
ATOM     61  C   UNL     1       4.312   7.847  -1.846  1.00  0.00     0.074 A 
ATOM     62  C   UNL     1       3.949   8.581  -3.043  1.00  0.00     0.031 C 
ATOM     63  C   UNL     1       5.142   8.153  -0.810  1.00  0.00     0.037 A 
BRANCH  50  64
ATOM     64  C   UNL     1       4.343   6.486   5.014  1.00  0.00     0.058 A 
ATOM     65  C   UNL     1       5.633   5.960   5.254  1.00  0.00     0.135 A 
ATOM     66  C   UNL     1       3.626   6.808   6.183  1.00  0.00     0.135 A 
ATOM     67  F   UNL     1       6.482   5.701   4.250  1.00  0.00    -0.206 F 
ATOM     68  C   UNL     1       6.113   5.664   6.533  1.00  0.00     0.059 A 
ATOM     69  C   UNL     1       4.057   6.468   7.470  1.00  0.00     0.059 A 
ATOM     70  F   UNL     1       2.500   7.529   6.140  1.00  0.00    -0.206 F 
ATOM     71  C   UNL     1       5.300   5.881   7.636  1.00  0.00     0.060 A 
BRANCH  71  72
ATOM     72  S   UNL     1       5.891   5.406   9.270  1.00  0.00     0.124 S 
ATOM     73  O   UNL     1       6.194   3.990   9.087  1.00  0.00    -0.237 OA
ATOM     74  O   UNL     1       7.041   6.285   9.446  1.00  0.00    -0.237 OA
ATOM     75  O   UNL     1       4.751   5.686  10.139  1.00  0.00    -0.744 OA
ENDBRANCH  71  72
ENDBRANCH  50  64
BRANCH  51  76
ATOM     76  C   UNL     1       0.411   5.993  -3.927  1.00  0.00     0.058 A 
ATOM     77  C   UNL     1      -0.114   4.986  -4.761  1.00  0.00     0.135 A 
ATOM     78  C   UNL     1      -0.473   6.973  -3.459  1.00  0.00     0.135 A 
ATOM     79  F   UNL     1       0.693   4.031  -5.252  1.00  0.00    -0.206 F 
ATOM     80  C   UNL     1      -1.480   4.860  -4.986  1.00  0.00     0.059 A 
ATOM     81  C   UNL     1      -1.848   6.872  -3.682  1.00  0.00     0.059 A 
ATOM     82  F   UNL     1      -0.031   7.959  -2.664  1.00  0.00    -0.206 F 
ATOM     83  C   UNL     1      -2.344   5.776  -4.390  1.00  0.00     0.060 A 
BRANCH  83  84
ATOM     84  S   UNL     1      -4.113   5.397  -4.402  1.00  0.00     0.124 S 
ATOM     85  O   UNL     1      -4.442   5.535  -5.816  1.00  0.00    -0.237 OA
ATOM     86  O   UNL     1      -4.137   4.031  -3.882  1.00  0.00    -0.237 OA
ATOM     87  O   UNL     1      -4.679   6.409  -3.518  1.00  0.00    -0.744 OA
ENDBRANCH  83  84
ENDBRANCH  51  76
BRANCH  63  88
ATOM     88  C   UNL     1       5.969   9.399  -0.792  1.00  0.00     0.058 A 
ATOM     89  C   UNL     1       6.872   9.691  -1.825  1.00  0.00     0.135 A 
ATOM     90  C   UNL     1       5.974  10.261   0.321  1.00  0.00     0.135 A 
ATOM     91  F   UNL     1       6.942   8.905  -2.912  1.00  0.00    -0.206 F 
ATOM     92  C   UNL     1       7.731  10.787  -1.764  1.00  0.00     0.059 A 
ATOM     93  C   UNL     1       6.849  11.339   0.421  1.00  0.00     0.059 A 
ATOM     94  F   UNL     1       5.111  10.083   1.335  1.00  0.00    -0.206 F 
ATOM     95  C   UNL     1       7.715  11.603  -0.634  1.00  0.00     0.060 A 
BRANCH  95  96
ATOM     96  S   UNL     1       8.859  12.993  -0.525  1.00  0.00     0.124 S 
ATOM     97  O   UNL     1      10.023  12.515  -1.265  1.00  0.00    -0.237 OA
ATOM     98  O   UNL     1       8.091  14.051  -1.173  1.00  0.00    -0.237 OA
ATOM     99  O   UNL     1       9.060  13.149   0.912  1.00  0.00    -0.744 OA
ENDBRANCH  95  96
ENDBRANCH  63  88
ENDBRANCH  37  38
ENDBRANCH  29  32
ENDBRANCH  27  28
ENDBRANCH   1  27
TORSDOF 17
