REMARK SMILES CC(C)[C@@](C)(CC(=O)N[C@H]1CCCC1(C)C)C(=O)NCCCNC(=O)c1ccc(-c2c3nc(c(-c4c(F)cc(S(=O)(=O)[O-])cc4F)c4ccc([nH]4)c(-c4c(F)cc(S(=O)(=O)[O-])cc4F)c4nc(c(-c5c(F)cc(S(=O)(=O)[O-])cc5F)c5ccc2[nH]5)C=C4)C=C3)cc1
REMARK SMILES IDX 21 1 20 2 19 3 17 4 18 5 4 7 5 8 2 9 1 10 3 11 6 12 7 13
REMARK SMILES IDX 8 14 9 15 10 17 11 18 14 19 12 20 13 21 15 22 16 23 22 24
REMARK SMILES IDX 23 25 24 26 25 28 26 29 27 30 91 31 28 32 90 33 29 34 30 35
REMARK SMILES IDX 31 36 84 37 32 38 89 39 83 40 85 41 33 42 88 43 82 44 81 45
REMARK SMILES IDX 34 47 68 48 47 49 67 50 48 51 51 52 66 53 86 54 49 55 50 56
REMARK SMILES IDX 65 58 87 59 52 60 35 61 36 62 45 63 37 64 38 65 44 66 46 67
REMARK SMILES IDX 39 68 40 69 41 70 42 71 43 72 69 73 70 74 79 75 71 76 72 77
REMARK SMILES IDX 78 78 80 79 73 80 74 81 75 82 76 83 77 84 53 85 54 86 63 87
REMARK SMILES IDX 55 88 56 89 62 90 64 91 57 92 58 93 59 94 60 95 61 96
REMARK H PARENT 19 6 9 16 23 27 85 46 51 57
REMARK Flexibility Score: inf
ROOT
ATOM      1  C   UNL     1      -5.083  -1.475  -1.709  1.00  0.00     0.042 C 
ENDROOT
BRANCH   1   2
ATOM      2  C   UNL     1      -4.276  -0.659  -0.707  1.00  0.00     0.117 C 
BRANCH   2   3
ATOM      3  N   UNL     1      -3.433  -1.523   0.102  1.00  0.00    -0.356 N 
ATOM      4  C   UNL     1      -2.095  -1.723   0.181  1.00  0.00     0.226 C 
ATOM      5  O   UNL     1      -1.756  -2.597   0.984  1.00  0.00    -0.274 OA
ATOM      6  H   UNL     1      -3.945  -2.084   0.728  1.00  0.00     0.163 HD
BRANCH   4   7
ATOM      7  C   UNL     1      -1.067  -0.833  -0.558  1.00  0.00     0.057 C 
ATOM      8  C   UNL     1      -1.342   0.613  -0.006  1.00  0.00     0.022 C 
BRANCH   7   9
ATOM      9  C   UNL     1       0.403  -1.320  -0.221  1.00  0.00    -0.002 C 
ATOM     10  C   UNL     1       0.921  -0.975   1.187  1.00  0.00     0.008 C 
ATOM     11  C   UNL     1       0.687  -2.818  -0.454  1.00  0.00     0.008 C 
ENDBRANCH   7   9
BRANCH   7  12
ATOM     12  C   UNL     1      -1.335  -0.786  -2.094  1.00  0.00     0.116 C 
BRANCH  12  13
ATOM     13  C   UNL     1      -0.589  -1.636  -3.085  1.00  0.00     0.221 C 
ATOM     14  O   UNL     1      -1.006  -2.759  -3.379  1.00  0.00    -0.275 OA
ATOM     15  N   UNL     1       0.390  -1.097  -3.865  1.00  0.00    -0.353 N 
ATOM     16  H   UNL     1       0.165  -1.023  -4.821  1.00  0.00     0.163 HD
BRANCH  15  17
ATOM     17  C   UNL     1       1.731  -0.608  -3.503  1.00  0.00     0.087 C 
ATOM     18  C   UNL     1       2.603  -0.738  -4.780  1.00  0.00     0.025 C 
ATOM     19  C   UNL     1       1.975   0.896  -3.143  1.00  0.00    -0.015 C 
ATOM     20  C   UNL     1       2.442   0.588  -5.524  1.00  0.00     0.003 C 
ATOM     21  C   UNL     1       1.895   1.587  -4.512  1.00  0.00     0.008 C 
ATOM     22  C   UNL     1       1.052   1.633  -2.179  1.00  0.00     0.013 C 
ATOM     23  C   UNL     1       3.400   1.035  -2.537  1.00  0.00     0.013 C 
ENDBRANCH  15  17
ENDBRANCH  12  13
ENDBRANCH   7  12
ENDBRANCH   4   7
ENDBRANCH   2   3
ENDBRANCH   1   2
BRANCH   1  24
ATOM     24  C   UNL     1      -5.887  -2.595  -1.060  1.00  0.00     0.118 C 
BRANCH  24  25
ATOM     25  N   UNL     1      -6.787  -2.104  -0.020  1.00  0.00    -0.352 N 
ATOM     26  C   UNL     1      -8.134  -2.333   0.112  1.00  0.00     0.251 C 
ATOM     27  H   UNL     1      -6.377  -1.538   0.673  1.00  0.00     0.163 HD
ATOM     28  O   UNL     1      -8.805  -1.708   0.926  1.00  0.00    -0.269 OA
BRANCH  26  29
ATOM     29  C   UNL     1      -8.748  -3.339  -0.768  1.00  0.00     0.039 A 
ATOM     30  C   UNL     1      -9.838  -2.986  -1.565  1.00  0.00     0.014 A 
ATOM     31  C   UNL     1      -8.157  -4.601  -0.868  1.00  0.00     0.014 A 
ATOM     32  C   UNL     1     -10.299  -3.889  -2.522  1.00  0.00     0.010 A 
ATOM     33  C   UNL     1      -8.560  -5.457  -1.878  1.00  0.00     0.010 A 
ATOM     34  C   UNL     1      -9.639  -5.113  -2.709  1.00  0.00    -0.014 A 
BRANCH  34  35
ATOM     35  C   UNL     1     -10.058  -6.092  -3.740  1.00  0.00     0.031 A 
ATOM     36  C   UNL     1     -10.496  -7.460  -3.300  1.00  0.00     0.074 A 
ATOM     37  C   UNL     1      -9.915  -5.802  -5.046  1.00  0.00     0.049 A 
ATOM     38  N   UNL     1     -10.691  -8.537  -4.013  1.00  0.00    -0.248 NA
ATOM     39  C   UNL     1     -10.687  -7.651  -1.852  1.00  0.00     0.031 C 
ATOM     40  C   UNL     1      -9.448  -4.524  -5.586  1.00  0.00     0.029 A 
ATOM     41  N   UNL     1     -10.112  -6.581  -6.158  1.00  0.00    -0.354 N 
ATOM     42  C   UNL     1     -10.980  -9.541  -3.098  1.00  0.00     0.074 A 
ATOM     43  C   UNL     1     -10.884  -8.957  -1.778  1.00  0.00     0.031 C 
ATOM     44  C   UNL     1      -9.394  -4.607  -6.925  1.00  0.00     0.029 A 
ATOM     45  C   UNL     1      -9.777  -5.955  -7.335  1.00  0.00     0.049 A 
ATOM     46  H   UNL     1     -10.461  -7.501  -6.117  1.00  0.00     0.167 HD
ATOM     47  C   UNL     1     -11.314 -10.831  -3.338  1.00  0.00     0.037 A 
ATOM     48  C   UNL     1      -9.756  -6.424  -8.598  1.00  0.00     0.037 A 
ATOM     49  C   UNL     1     -11.444 -11.384  -4.659  1.00  0.00     0.049 A 
ATOM     50  C   UNL     1     -10.169  -7.847  -8.854  1.00  0.00     0.074 A 
ATOM     51  C   UNL     1     -11.846 -12.654  -5.025  1.00  0.00     0.029 A 
ATOM     52  N   UNL     1     -11.174 -10.692  -5.832  1.00  0.00    -0.354 N 
ATOM     53  N   UNL     1     -10.499  -8.774  -7.985  1.00  0.00    -0.248 NA
ATOM     54  C   UNL     1     -10.217  -8.289 -10.253  1.00  0.00     0.031 C 
ATOM     55  C   UNL     1     -11.787 -12.742  -6.420  1.00  0.00     0.029 A 
ATOM     56  C   UNL     1     -11.392 -11.511  -6.925  1.00  0.00     0.049 A 
ATOM     57  H   UNL     1     -10.872  -9.756  -5.879  1.00  0.00     0.167 HD
ATOM     58  C   UNL     1     -10.820  -9.901  -8.733  1.00  0.00     0.074 A 
ATOM     59  C   UNL     1     -10.644  -9.539 -10.126  1.00  0.00     0.031 C 
ATOM     60  C   UNL     1     -11.229 -11.121  -8.305  1.00  0.00     0.037 A 
BRANCH  47  61
ATOM     61  C   UNL     1     -11.549 -11.714  -2.143  1.00  0.00     0.058 A 
ATOM     62  C   UNL     1     -12.642 -11.520  -1.283  1.00  0.00     0.135 A 
ATOM     63  C   UNL     1     -10.650 -12.747  -1.834  1.00  0.00     0.135 A 
ATOM     64  F   UNL     1     -13.525 -10.537  -1.523  1.00  0.00    -0.206 F 
ATOM     65  C   UNL     1     -12.802 -12.275  -0.126  1.00  0.00     0.059 A 
ATOM     66  C   UNL     1     -10.809 -13.538  -0.699  1.00  0.00     0.059 A 
ATOM     67  F   UNL     1      -9.590 -12.982  -2.623  1.00  0.00    -0.206 F 
ATOM     68  C   UNL     1     -11.873 -13.275   0.163  1.00  0.00     0.060 A 
BRANCH  68  69
ATOM     69  S   UNL     1     -12.064 -14.216   1.691  1.00  0.00     0.124 S 
ATOM     70  O   UNL     1     -11.588 -13.257   2.683  1.00  0.00    -0.237 OA
ATOM     71  O   UNL     1     -13.498 -14.491   1.715  1.00  0.00    -0.237 OA
ATOM     72  O   UNL     1     -11.210 -15.380   1.482  1.00  0.00    -0.744 OA
ENDBRANCH  68  69
ENDBRANCH  47  61
BRANCH  48  73
ATOM     73  C   UNL     1      -9.352  -5.517  -9.704  1.00  0.00     0.058 A 
ATOM     74  C   UNL     1     -10.307  -4.978 -10.578  1.00  0.00     0.135 A 
ATOM     75  C   UNL     1      -8.018  -5.109  -9.861  1.00  0.00     0.135 A 
ATOM     76  F   UNL     1     -11.594  -5.342 -10.471  1.00  0.00    -0.206 F 
ATOM     77  C   UNL     1      -9.957  -4.059 -11.563  1.00  0.00     0.059 A 
ATOM     78  C   UNL     1      -7.647  -4.176 -10.826  1.00  0.00     0.059 A 
ATOM     79  F   UNL     1      -7.069  -5.583  -9.039  1.00  0.00    -0.206 F 
ATOM     80  C   UNL     1      -8.625  -3.656 -11.672  1.00  0.00     0.060 A 
BRANCH  80  81
ATOM     81  S   UNL     1      -8.202  -2.388 -12.887  1.00  0.00     0.124 S 
ATOM     82  O   UNL     1      -8.303  -3.132 -14.137  1.00  0.00    -0.237 OA
ATOM     83  O   UNL     1      -9.237  -1.385 -12.656  1.00  0.00    -0.237 OA
ATOM     84  O   UNL     1      -6.854  -1.986 -12.498  1.00  0.00    -0.744 OA
ENDBRANCH  80  81
ENDBRANCH  48  73
BRANCH  60  85
ATOM     85  C   UNL     1     -11.566 -12.151  -9.345  1.00  0.00     0.058 A 
ATOM     86  C   UNL     1     -10.570 -12.852 -10.039  1.00  0.00     0.135 A 
ATOM     87  C   UNL     1     -12.904 -12.521  -9.558  1.00  0.00     0.135 A 
ATOM     88  F   UNL     1      -9.277 -12.530  -9.875  1.00  0.00    -0.206 F 
ATOM     89  C   UNL     1     -10.889 -13.889 -10.909  1.00  0.00     0.059 A 
ATOM     90  C   UNL     1     -13.244 -13.570 -10.406  1.00  0.00     0.059 A 
ATOM     91  F   UNL     1     -13.893 -11.885  -8.910  1.00  0.00    -0.206 F 
ATOM     92  C   UNL     1     -12.228 -14.248 -11.077  1.00  0.00     0.060 A 
BRANCH  92  93
ATOM     93  S   UNL     1     -12.622 -15.653 -12.141  1.00  0.00     0.124 S 
ATOM     94  O   UNL     1     -12.406 -15.086 -13.469  1.00  0.00    -0.237 OA
ATOM     95  O   UNL     1     -11.648 -16.652 -11.713  1.00  0.00    -0.237 OA
ATOM     96  O   UNL     1     -14.010 -15.955 -11.805  1.00  0.00    -0.744 OA
ENDBRANCH  92  93
ENDBRANCH  60  85
ENDBRANCH  34  35
ENDBRANCH  26  29
ENDBRANCH  24  25
ENDBRANCH   1  24
TORSDOF 17
