REMARK SMILES CCC(CC)C[N@H+]1[C@@H]2CC[C@H]1C[C@H](CC(=O)NCCCNC(=O)c1ccc(-c3c4nc(c(-c5c(F)cc(S(=O)(=O)[O-])cc5F)c5ccc([nH]5)c(-c5c(F)cc(S(=O)(=O)[O-])cc5F)c5nc(c(-c6c(F)cc(S(=O)(=O)[O-])cc6F)c6ccc3[nH]6)C=C5)C=C4)cc1)C2
REMARK SMILES IDX 18 1 17 2 15 3 16 4 14 6 13 7 7 8 8 9 11 10 9 12 90 13 10 14
REMARK SMILES IDX 12 15 6 16 3 17 2 18 1 19 4 20 5 21 19 22 20 23 21 24 22 25
REMARK SMILES IDX 23 27 24 28 25 29 89 30 26 31 88 32 27 33 28 34 29 35 82 36
REMARK SMILES IDX 30 37 87 38 81 39 83 40 31 41 86 42 80 43 79 44 32 46 66 47
REMARK SMILES IDX 45 48 65 49 46 50 49 51 64 52 84 53 47 54 48 55 63 57 85 58
REMARK SMILES IDX 50 59 33 60 34 61 43 62 35 63 36 64 42 65 44 66 37 67 38 68
REMARK SMILES IDX 39 69 40 70 41 71 67 72 68 73 77 74 69 75 70 76 76 77 78 78
REMARK SMILES IDX 71 79 72 80 73 81 74 82 75 83 51 84 52 85 61 86 53 87 54 88
REMARK SMILES IDX 60 89 62 90 55 91 56 92 57 93 58 94 59 95
REMARK H PARENT 17 5 7 11 21 26 83 45 49 56
REMARK Flexibility Score: inf
ROOT
ATOM      1  C   UNL     1      -3.262  -2.689  -6.094  1.00  0.00     0.117 C 
ENDROOT
BRANCH   1   2
ATOM      2  N   UNL     1      -2.670  -2.966  -7.399  1.00  0.00    -0.356 N 
ATOM      3  C   UNL     1      -1.420  -3.370  -7.767  1.00  0.00     0.220 C 
ATOM      4  O   UNL     1      -1.213  -3.577  -8.965  1.00  0.00    -0.275 OA
ATOM      5  H   UNL     1      -3.288  -2.837  -8.154  1.00  0.00     0.163 HD
BRANCH   3   6
ATOM      6  C   UNL     1      -0.304  -3.559  -6.753  1.00  0.00     0.104 C 
BRANCH   6   7
ATOM      7  C   UNL     1       0.616  -2.323  -6.619  1.00  0.00     0.010 C 
ATOM      8  N   UNL     1       1.359  -0.781  -4.175  1.00  0.00    -0.330 N 
ATOM      9  C   UNL     1       2.409  -1.470  -4.944  1.00  0.00     0.184 C 
ATOM     10  C   UNL     1       0.584  -0.117  -5.229  1.00  0.00     0.184 C 
ATOM     11  H   UNL     1       1.752  -0.136  -3.490  1.00  0.00     0.348 HD
ATOM     12  C   UNL     1       2.892  -0.338  -5.864  1.00  0.00     0.071 C 
ATOM     13  C   UNL     1       1.868  -2.657  -5.773  1.00  0.00     0.069 C 
ATOM     14  C   UNL     1       1.674   0.565  -6.046  1.00  0.00     0.071 C 
ATOM     15  C   UNL     1      -0.185  -1.142  -6.059  1.00  0.00     0.069 C 
BRANCH   8  16
ATOM     16  C   UNL     1       0.567  -1.613  -3.263  1.00  0.00     0.266 C 
BRANCH  16  17
ATOM     17  C   UNL     1       1.045  -1.501  -1.799  1.00  0.00     0.044 C 
BRANCH  17  18
ATOM     18  C   UNL     1       0.652  -0.120  -1.228  1.00  0.00     0.006 C 
ATOM     19  C   UNL     1       1.083   0.106   0.212  1.00  0.00     0.004 C 
ENDBRANCH  17  18
BRANCH  17  20
ATOM     20  C   UNL     1       0.509  -2.691  -0.967  1.00  0.00     0.006 C 
ATOM     21  C   UNL     1      -1.009  -2.796  -0.876  1.00  0.00     0.004 C 
ENDBRANCH  17  20
ENDBRANCH  16  17
ENDBRANCH   8  16
ENDBRANCH   6   7
ENDBRANCH   3   6
ENDBRANCH   1   2
BRANCH   1  22
ATOM     22  C   UNL     1      -3.530  -1.199  -5.858  1.00  0.00     0.042 C 
BRANCH  22  23
ATOM     23  C   UNL     1      -4.647  -0.606  -6.705  1.00  0.00     0.118 C 
BRANCH  23  24
ATOM     24  N   UNL     1      -5.924  -0.660  -6.018  1.00  0.00    -0.352 N 
ATOM     25  C   UNL     1      -6.676   0.357  -5.478  1.00  0.00     0.251 C 
ATOM     26  H   UNL     1      -6.309  -1.561  -5.923  1.00  0.00     0.163 HD
ATOM     27  O   UNL     1      -7.585   0.069  -4.702  1.00  0.00    -0.269 OA
BRANCH  25  28
ATOM     28  C   UNL     1      -6.413   1.783  -5.808  1.00  0.00     0.039 A 
ATOM     29  C   UNL     1      -6.614   2.751  -4.816  1.00  0.00     0.014 A 
ATOM     30  C   UNL     1      -6.056   2.190  -7.096  1.00  0.00     0.014 A 
ATOM     31  C   UNL     1      -6.429   4.109  -5.105  1.00  0.00     0.010 A 
ATOM     32  C   UNL     1      -5.797   3.536  -7.364  1.00  0.00     0.010 A 
ATOM     33  C   UNL     1      -6.003   4.514  -6.379  1.00  0.00    -0.014 A 
BRANCH  33  34
ATOM     34  C   UNL     1      -5.824   5.952  -6.726  1.00  0.00     0.031 A 
ATOM     35  C   UNL     1      -6.694   6.580  -7.786  1.00  0.00     0.074 A 
ATOM     36  C   UNL     1      -4.849   6.678  -6.144  1.00  0.00     0.049 A 
ATOM     37  N   UNL     1      -6.618   7.770  -8.324  1.00  0.00    -0.248 NA
ATOM     38  C   UNL     1      -7.777   5.745  -8.333  1.00  0.00     0.031 C 
ATOM     39  C   UNL     1      -3.922   6.187  -5.123  1.00  0.00     0.029 A 
ATOM     40  N   UNL     1      -4.464   7.982  -6.341  1.00  0.00    -0.354 N 
ATOM     41  C   UNL     1      -7.618   7.817  -9.289  1.00  0.00     0.074 A 
ATOM     42  C   UNL     1      -8.263   6.522  -9.291  1.00  0.00     0.031 C 
ATOM     43  C   UNL     1      -3.084   7.178  -4.777  1.00  0.00     0.029 A 
ATOM     44  C   UNL     1      -3.385   8.362  -5.577  1.00  0.00     0.049 A 
ATOM     45  H   UNL     1      -4.918   8.587  -6.971  1.00  0.00     0.167 HD
ATOM     46  C   UNL     1      -7.981   8.849 -10.089  1.00  0.00     0.037 A 
ATOM     47  C   UNL     1      -2.706   9.526  -5.536  1.00  0.00     0.037 A 
ATOM     48  C   UNL     1      -7.367  10.150 -10.056  1.00  0.00     0.049 A 
ATOM     49  C   UNL     1      -3.134  10.663  -6.424  1.00  0.00     0.074 A 
ATOM     50  C   UNL     1      -7.696  11.276 -10.792  1.00  0.00     0.029 A 
ATOM     51  N   UNL     1      -6.304  10.504  -9.239  1.00  0.00    -0.354 N 
ATOM     52  N   UNL     1      -4.105  10.699  -7.306  1.00  0.00    -0.248 NA
ATOM     53  C   UNL     1      -2.381  11.920  -6.309  1.00  0.00     0.031 C 
ATOM     54  C   UNL     1      -6.812  12.302 -10.441  1.00  0.00     0.029 A 
ATOM     55  C   UNL     1      -5.960  11.828  -9.457  1.00  0.00     0.049 A 
ATOM     56  H   UNL     1      -5.860   9.903  -8.598  1.00  0.00     0.167 HD
ATOM     57  C   UNL     1      -4.099  11.989  -7.825  1.00  0.00     0.074 A 
ATOM     58  C   UNL     1      -3.030  12.704  -7.159  1.00  0.00     0.031 C 
ATOM     59  C   UNL     1      -4.909  12.533  -8.767  1.00  0.00     0.037 A 
BRANCH  46  60
ATOM     60  C   UNL     1      -9.098   8.614 -11.069  1.00  0.00     0.058 A 
ATOM     61  C   UNL     1     -10.430   8.476 -10.649  1.00  0.00     0.135 A 
ATOM     62  C   UNL     1      -8.838   8.556 -12.448  1.00  0.00     0.135 A 
ATOM     63  F   UNL     1     -10.734   8.508  -9.342  1.00  0.00    -0.206 F 
ATOM     64  C   UNL     1     -11.461   8.257 -11.558  1.00  0.00     0.059 A 
ATOM     65  C   UNL     1      -9.857   8.365 -13.377  1.00  0.00     0.059 A 
ATOM     66  F   UNL     1      -7.582   8.684 -12.905  1.00  0.00    -0.206 F 
ATOM     67  C   UNL     1     -11.163   8.200 -12.921  1.00  0.00     0.060 A 
BRANCH  67  68
ATOM     68  S   UNL     1     -12.511   7.912 -14.087  1.00  0.00     0.124 S 
ATOM     69  O   UNL     1     -12.764   6.488 -13.892  1.00  0.00    -0.237 OA
ATOM     70  O   UNL     1     -13.549   8.812 -13.598  1.00  0.00    -0.237 OA
ATOM     71  O   UNL     1     -11.927   8.275 -15.376  1.00  0.00    -0.744 OA
ENDBRANCH  67  68
ENDBRANCH  46  60
BRANCH  47  72
ATOM     72  C   UNL     1      -1.558   9.681  -4.603  1.00  0.00     0.058 A 
ATOM     73  C   UNL     1      -1.662  10.492  -3.463  1.00  0.00     0.135 A 
ATOM     74  C   UNL     1      -0.343   9.014  -4.823  1.00  0.00     0.135 A 
ATOM     75  F   UNL     1      -2.801  11.156  -3.215  1.00  0.00    -0.206 F 
ATOM     76  C   UNL     1      -0.598  10.648  -2.581  1.00  0.00     0.059 A 
ATOM     77  C   UNL     1       0.727   9.136  -3.943  1.00  0.00     0.059 A 
ATOM     78  F   UNL     1      -0.199   8.214  -5.892  1.00  0.00    -0.206 F 
ATOM     79  C   UNL     1       0.593   9.964  -2.828  1.00  0.00     0.060 A 
BRANCH  79  80
ATOM     80  S   UNL     1       1.951  10.133  -1.650  1.00  0.00     0.124 S 
ATOM     81  O   UNL     1       2.444  11.470  -1.960  1.00  0.00    -0.237 OA
ATOM     82  O   UNL     1       1.267   9.986  -0.369  1.00  0.00    -0.237 OA
ATOM     83  O   UNL     1       2.842   9.033  -2.005  1.00  0.00    -0.744 OA
ENDBRANCH  79  80
ENDBRANCH  47  72
BRANCH  59  84
ATOM     84  C   UNL     1      -4.714  13.985  -9.102  1.00  0.00     0.058 A 
ATOM     85  C   UNL     1      -3.641  14.424  -9.891  1.00  0.00     0.135 A 
ATOM     86  C   UNL     1      -5.659  14.938  -8.687  1.00  0.00     0.135 A 
ATOM     87  F   UNL     1      -2.708  13.554 -10.308  1.00  0.00    -0.206 F 
ATOM     88  C   UNL     1      -3.505  15.762 -10.249  1.00  0.00     0.059 A 
ATOM     89  C   UNL     1      -5.554  16.276  -9.052  1.00  0.00     0.059 A 
ATOM     90  F   UNL     1      -6.709  14.566  -7.937  1.00  0.00    -0.206 F 
ATOM     91  C   UNL     1      -4.469  16.680  -9.828  1.00  0.00     0.060 A 
BRANCH  91  92
ATOM     92  S   UNL     1      -4.311  18.403 -10.343  1.00  0.00     0.124 S 
ATOM     93  O   UNL     1      -3.242  18.875  -9.470  1.00  0.00    -0.237 OA
ATOM     94  O   UNL     1      -3.966  18.278 -11.756  1.00  0.00    -0.237 OA
ATOM     95  O   UNL     1      -5.633  18.960 -10.075  1.00  0.00    -0.744 OA
ENDBRANCH  91  92
ENDBRANCH  59  84
ENDBRANCH  33  34
ENDBRANCH  25  28
ENDBRANCH  23  24
ENDBRANCH  22  23
ENDBRANCH   1  22
TORSDOF 18
