REMARK SMILES CCNC(=O)C[NH2+][C@@H](C)[C@@H](C)C(=O)NCCCNC(=O)c1ccc(-c2c3nc(c(-c4c(F)cc(S(=O)(=O)[O-])cc4F)c4ccc([nH]4)c(-c4c(F)cc(S(=O)(=O)[O-])cc4F)c4nc(c(-c5c(F)cc(S(=O)(=O)[O-])cc5F)c5ccc2[nH]5)C=C4)C=C3)cc1
REMARK SMILES IDX 15 1 14 2 12 3 13 4 10 6 11 7 8 8 9 9 7 10 6 13 4 14 3 15
REMARK SMILES IDX 5 17 2 18 1 19 16 20 17 21 18 22 19 23 20 25 21 26 22 27
REMARK SMILES IDX 86 28 23 29 85 30 24 31 25 32 26 33 79 34 27 35 84 36 78 37
REMARK SMILES IDX 80 38 28 39 83 40 77 41 76 42 29 44 63 45 42 46 62 47 43 48
REMARK SMILES IDX 46 49 61 50 81 51 44 52 45 53 60 55 82 56 47 57 30 58 31 59
REMARK SMILES IDX 40 60 32 61 33 62 39 63 41 64 34 65 35 66 36 67 37 68 38 69
REMARK SMILES IDX 64 70 65 71 74 72 66 73 67 74 73 75 75 76 68 77 69 78 70 79
REMARK SMILES IDX 71 80 72 81 48 82 49 83 58 84 50 85 51 86 57 87 59 88 52 89
REMARK SMILES IDX 53 90 54 91 55 92 56 93
REMARK H PARENT 14 5 7 11 7 12 3 16 18 24 80 43 46 54
REMARK Flexibility Score: inf
ROOT
ATOM      1  C   UNL     1      -4.938   0.418   1.135  1.00  0.00     0.117 C 
ENDROOT
BRANCH   1   2
ATOM      2  N   UNL     1      -5.564  -0.171  -0.036  1.00  0.00    -0.356 N 
ATOM      3  C   UNL     1      -5.076  -0.472  -1.269  1.00  0.00     0.228 C 
ATOM      4  O   UNL     1      -5.859  -0.983  -2.075  1.00  0.00    -0.275 OA
ATOM      5  H   UNL     1      -6.515  -0.394   0.085  1.00  0.00     0.163 HD
BRANCH   3   6
ATOM      6  C   UNL     1      -3.625  -0.213  -1.668  1.00  0.00     0.133 C 
ATOM      7  C   UNL     1      -2.691  -1.133  -0.874  1.00  0.00     0.024 C 
BRANCH   6   8
ATOM      8  C   UNL     1      -3.267   1.295  -1.655  1.00  0.00     0.191 C 
ATOM      9  C   UNL     1      -4.140   2.058  -2.666  1.00  0.00     0.076 C 
BRANCH   8  10
ATOM     10  N   UNL     1      -1.835   1.485  -1.943  1.00  0.00    -0.336 N 
ATOM     11  H   UNL     1      -1.298   0.820  -1.386  1.00  0.00     0.346 HD
ATOM     12  H   UNL     1      -1.696   1.335  -2.942  1.00  0.00     0.346 HD
BRANCH  10  13
ATOM     13  C   UNL     1      -1.373   2.850  -1.625  1.00  0.00     0.362 C 
BRANCH  13  14
ATOM     14  C   UNL     1       0.148   2.934  -1.768  1.00  0.00     0.275 C 
ATOM     15  N   UNL     1       0.945   2.368  -0.813  1.00  0.00    -0.351 N 
ATOM     16  H   UNL     1       1.908   2.554  -0.893  1.00  0.00     0.163 HD
ATOM     17  O   UNL     1       0.676   3.506  -2.724  1.00  0.00    -0.269 OA
BRANCH  15  18
ATOM     18  C   UNL     1       0.554   1.530   0.303  1.00  0.00     0.112 C 
ATOM     19  C   UNL     1       0.974   0.091   0.063  1.00  0.00     0.027 C 
ENDBRANCH  15  18
ENDBRANCH  13  14
ENDBRANCH  10  13
ENDBRANCH   8  10
ENDBRANCH   6   8
ENDBRANCH   3   6
ENDBRANCH   1   2
BRANCH   1  20
ATOM     20  C   UNL     1      -5.435   1.831   1.411  1.00  0.00     0.042 C 
BRANCH  20  21
ATOM     21  C   UNL     1      -6.908   1.908   1.791  1.00  0.00     0.118 C 
BRANCH  21  22
ATOM     22  N   UNL     1      -7.204   1.199   3.028  1.00  0.00    -0.352 N 
ATOM     23  C   UNL     1      -7.662   1.673   4.232  1.00  0.00     0.251 C 
ATOM     24  H   UNL     1      -7.052   0.227   2.996  1.00  0.00     0.163 HD
ATOM     25  O   UNL     1      -7.645   0.933   5.216  1.00  0.00    -0.269 OA
BRANCH  23  26
ATOM     26  C   UNL     1      -8.153   3.061   4.357  1.00  0.00     0.039 A 
ATOM     27  C   UNL     1      -7.825   3.798   5.498  1.00  0.00     0.014 A 
ATOM     28  C   UNL     1      -8.949   3.635   3.362  1.00  0.00     0.014 A 
ATOM     29  C   UNL     1      -8.235   5.129   5.606  1.00  0.00     0.010 A 
ATOM     30  C   UNL     1      -9.276   4.986   3.428  1.00  0.00     0.010 A 
ATOM     31  C   UNL     1      -8.929   5.747   4.553  1.00  0.00    -0.014 A 
BRANCH  31  32
ATOM     32  C   UNL     1      -9.300   7.185   4.607  1.00  0.00     0.031 A 
ATOM     33  C   UNL     1     -10.749   7.594   4.561  1.00  0.00     0.074 A 
ATOM     34  C   UNL     1      -8.332   8.123   4.629  1.00  0.00     0.049 A 
ATOM     35  N   UNL     1     -11.267   8.795   4.520  1.00  0.00    -0.248 NA
ATOM     36  C   UNL     1     -11.746   6.511   4.526  1.00  0.00     0.031 C 
ATOM     37  C   UNL     1      -6.892   7.853   4.627  1.00  0.00     0.029 A 
ATOM     38  N   UNL     1      -8.410   9.493   4.646  1.00  0.00    -0.354 N 
ATOM     39  C   UNL     1     -12.643   8.612   4.441  1.00  0.00     0.074 A 
ATOM     40  C   UNL     1     -12.876   7.186   4.380  1.00  0.00     0.031 C 
ATOM     41  C   UNL     1      -6.225   9.017   4.667  1.00  0.00     0.029 A 
ATOM     42  C   UNL     1      -7.184  10.117   4.651  1.00  0.00     0.049 A 
ATOM     43  H   UNL     1      -9.264   9.984   4.653  1.00  0.00     0.167 HD
ATOM     44  C   UNL     1     -13.623   9.547   4.446  1.00  0.00     0.037 A 
ATOM     45  C   UNL     1      -6.867  11.427   4.635  1.00  0.00     0.037 A 
ATOM     46  C   UNL     1     -13.382  10.964   4.529  1.00  0.00     0.049 A 
ATOM     47  C   UNL     1      -7.973  12.447   4.629  1.00  0.00     0.074 A 
ATOM     48  C   UNL     1     -14.307  11.991   4.596  1.00  0.00     0.029 A 
ATOM     49  N   UNL     1     -12.127  11.555   4.552  1.00  0.00    -0.354 N 
ATOM     50  N   UNL     1      -9.271  12.255   4.620  1.00  0.00    -0.248 NA
ATOM     51  C   UNL     1      -7.575  13.861   4.637  1.00  0.00     0.031 C 
ATOM     52  C   UNL     1     -13.613  13.204   4.606  1.00  0.00     0.029 A 
ATOM     53  C   UNL     1     -12.254  12.933   4.608  1.00  0.00     0.049 A 
ATOM     54  H   UNL     1     -11.272  11.067   4.532  1.00  0.00     0.167 HD
ATOM     55  C   UNL     1      -9.844  13.522   4.656  1.00  0.00     0.074 A 
ATOM     56  C   UNL     1      -8.751  14.472   4.695  1.00  0.00     0.031 C 
ATOM     57  C   UNL     1     -11.155  13.867   4.659  1.00  0.00     0.037 A 
BRANCH  44  58
ATOM     58  C   UNL     1     -15.048   9.068   4.360  1.00  0.00     0.058 A 
ATOM     59  C   UNL     1     -15.658   8.370   5.416  1.00  0.00     0.135 A 
ATOM     60  C   UNL     1     -15.828   9.344   3.225  1.00  0.00     0.135 A 
ATOM     61  F   UNL     1     -14.957   8.065   6.520  1.00  0.00    -0.206 F 
ATOM     62  C   UNL     1     -16.977   7.936   5.337  1.00  0.00     0.059 A 
ATOM     63  C   UNL     1     -17.160   8.948   3.138  1.00  0.00     0.059 A 
ATOM     64  F   UNL     1     -15.298  10.008   2.186  1.00  0.00    -0.206 F 
ATOM     65  C   UNL     1     -17.721   8.231   4.193  1.00  0.00     0.060 A 
BRANCH  65  66
ATOM     66  S   UNL     1     -19.433   7.667   4.112  1.00  0.00     0.124 S 
ATOM     67  O   UNL     1     -19.257   6.227   3.947  1.00  0.00    -0.237 OA
ATOM     68  O   UNL     1     -19.964   8.096   5.401  1.00  0.00    -0.237 OA
ATOM     69  O   UNL     1     -19.969   8.369   2.950  1.00  0.00    -0.744 OA
ENDBRANCH  65  66
ENDBRANCH  44  58
BRANCH  45  70
ATOM     70  C   UNL     1      -5.439  11.847   4.643  1.00  0.00     0.058 A 
ATOM     71  C   UNL     1      -4.877  12.474   5.765  1.00  0.00     0.135 A 
ATOM     72  C   UNL     1      -4.604  11.618   3.538  1.00  0.00     0.135 A 
ATOM     73  F   UNL     1      -5.635  12.720   6.845  1.00  0.00    -0.206 F 
ATOM     74  C   UNL     1      -3.546  12.877   5.786  1.00  0.00     0.059 A 
ATOM     75  C   UNL     1      -3.262  11.986   3.545  1.00  0.00     0.059 A 
ATOM     76  F   UNL     1      -5.087  11.004   2.446  1.00  0.00    -0.206 F 
ATOM     77  C   UNL     1      -2.745  12.625   4.671  1.00  0.00     0.060 A 
BRANCH  77  78
ATOM     78  S   UNL     1      -1.006  13.109   4.728  1.00  0.00     0.124 S 
ATOM     79  O   UNL     1      -1.102  14.561   4.639  1.00  0.00    -0.237 OA
ATOM     80  O   UNL     1      -0.583  12.573   6.018  1.00  0.00    -0.237 OA
ATOM     81  O   UNL     1      -0.434  12.441   3.562  1.00  0.00    -0.744 OA
ENDBRANCH  77  78
ENDBRANCH  45  70
BRANCH  57  82
ATOM     82  C   UNL     1     -11.490  15.331   4.754  1.00  0.00     0.058 A 
ATOM     83  C   UNL     1     -11.280  16.212   3.682  1.00  0.00     0.135 A 
ATOM     84  C   UNL     1     -12.087  15.845   5.918  1.00  0.00     0.135 A 
ATOM     85  F   UNL     1     -10.707  15.774   2.550  1.00  0.00    -0.206 F 
ATOM     86  C   UNL     1     -11.631  17.555   3.767  1.00  0.00     0.059 A 
ATOM     87  C   UNL     1     -12.474  17.177   6.013  1.00  0.00     0.059 A 
ATOM     88  F   UNL     1     -12.319  15.044   6.970  1.00  0.00    -0.206 F 
ATOM     89  C   UNL     1     -12.232  18.028   4.936  1.00  0.00     0.060 A 
BRANCH  89  90
ATOM     90  S   UNL     1     -12.720  19.764   5.016  1.00  0.00     0.124 S 
ATOM     91  O   UNL     1     -11.426  20.428   5.131  1.00  0.00    -0.237 OA
ATOM     92  O   UNL     1     -13.419  19.950   3.748  1.00  0.00    -0.237 OA
ATOM     93  O   UNL     1     -13.565  19.826   6.205  1.00  0.00    -0.744 OA
ENDBRANCH  89  90
ENDBRANCH  57  82
ENDBRANCH  31  32
ENDBRANCH  23  26
ENDBRANCH  21  22
ENDBRANCH  20  21
ENDBRANCH   1  20
TORSDOF 18
