REMARK SMILES Cc1ccc(C2=NN(C(=O)CCC(=O)NCCCNC(=O)c3ccc(-c4c5nc(c(-c6c(F)cc(S(=O)(=O)[O-])cc6F)c6ccc([nH]6)c(-c6c(F)cc(S(=O)(=O)[O-])cc6F)c6nc(c(-c7c(F)cc(S(=O)(=O)[O-])cc7F)c7ccc4[nH]7)C=C6)C=C5)cc3)[C@H](C[C@@H]3C=c4cccc(C)c4=NC3=O)C2)cc1
REMARK SMILES IDX 16 1 15 2 13 3 14 4 12 6 11 7 9 8 10 9 8 10 6 11 7 12 102 13
REMARK SMILES IDX 88 14 5 15 1 16 2 17 3 18 104 19 4 20 103 21 89 22 90 23
REMARK SMILES IDX 91 24 100 25 92 26 99 27 101 28 93 29 98 30 94 31 96 32
REMARK SMILES IDX 95 33 97 34 17 35 18 36 19 37 20 38 21 40 22 41 23 42 87 43
REMARK SMILES IDX 24 44 86 45 25 46 26 47 27 48 80 49 28 50 85 51 79 52 81 53
REMARK SMILES IDX 29 54 84 55 78 56 77 57 30 59 64 60 43 61 63 62 44 63 47 64
REMARK SMILES IDX 62 65 82 66 45 67 46 68 61 70 83 71 48 72 31 73 32 74 41 75
REMARK SMILES IDX 33 76 34 77 40 78 42 79 35 80 36 81 37 82 38 83 39 84 65 85
REMARK SMILES IDX 66 86 75 87 67 88 68 89 74 90 76 91 69 92 70 93 71 94 72 95
REMARK SMILES IDX 73 96 49 97 50 98 59 99 51 100 52 101 58 102 60 103 53 104
REMARK SMILES IDX 54 105 55 106 56 107 57 108
REMARK H PARENT 15 5 19 39 81 58 47 69
REMARK Flexibility Score: inf
ROOT
ATOM      1  C   UNL     1      -5.366   0.862   1.398  1.00  0.00     0.117 C 
ENDROOT
BRANCH   1   2
ATOM      2  N   UNL     1      -6.502   1.995   1.583  1.00  0.00    -0.356 N 
ATOM      3  C   UNL     1      -7.811   2.032   1.906  1.00  0.00     0.220 C 
ATOM      4  O   UNL     1      -8.401   3.104   1.744  1.00  0.00    -0.275 OA
ATOM      5  H   UNL     1      -6.145   2.897   1.415  1.00  0.00     0.163 HD
BRANCH   3   6
ATOM      6  C   UNL     1      -8.527   0.834   2.458  1.00  0.00     0.110 C 
BRANCH   6   7
ATOM      7  C   UNL     1      -8.472  -0.453   1.657  1.00  0.00     0.112 C 
BRANCH   7   8
ATOM      8  C   UNL     1      -7.142  -1.186   1.758  1.00  0.00     0.243 C 
ATOM      9  O   UNL     1      -6.914  -1.935   2.707  1.00  0.00    -0.273 OA
BRANCH   8  10
ATOM     10  N   UNL     1      -6.184  -0.822   0.766  1.00  0.00    -0.230 N 
ATOM     11  C   UNL     1      -3.617   0.195   0.916  1.00  0.00     0.070 C 
ATOM     12  N   UNL     1      -4.480  -0.997   1.281  1.00  0.00    -0.174 NA
ATOM     13  C   UNL     1      -4.781   1.747  -0.048  1.00  0.00     0.086 C 
ATOM     14  C   UNL     1      -6.470   0.586  -0.367  1.00  0.00     0.118 C 
BRANCH  11  15
ATOM     15  C   UNL     1      -2.020  -0.504   0.288  1.00  0.00    -0.002 A 
ATOM     16  C   UNL     1       2.822   0.011   1.905  1.00  0.00     0.044 C 
ATOM     17  C   UNL     1       1.408  -0.118   1.420  1.00  0.00    -0.051 A 
ATOM     18  C   UNL     1       0.313  -1.317   2.140  1.00  0.00     0.004 A 
ATOM     19  C   UNL     1       0.905   0.908   0.066  1.00  0.00     0.004 A 
ATOM     20  C   UNL     1      -1.379  -1.490   1.641  1.00  0.00     0.010 A 
ATOM     21  C   UNL     1      -0.733   0.605  -0.649  1.00  0.00     0.010 A 
ENDBRANCH  11  15
BRANCH  14  22
ATOM     22  C   UNL     1      -6.918  -0.348  -1.794  1.00  0.00     0.045 C 
BRANCH  22  23
ATOM     23  C   UNL     1      -7.795  -1.658  -1.553  1.00  0.00     0.106 C 
ATOM     24  C   UNL     1      -7.127  -2.789  -0.792  1.00  0.00    -0.003 C 
ATOM     25  C   UNL     1      -8.484  -2.384  -2.727  1.00  0.00     0.253 C 
ATOM     26  C   UNL     1      -7.890  -3.801  -0.369  1.00  0.00    -0.003 A 
ATOM     27  N   UNL     1      -9.261  -3.507  -2.402  1.00  0.00    -0.212 NA
ATOM     28  O   UNL     1      -8.429  -1.939  -3.869  1.00  0.00    -0.272 OA
ATOM     29  C   UNL     1      -7.732  -4.464   0.903  1.00  0.00     0.010 A 
ATOM     30  C   UNL     1      -8.996  -4.159  -1.305  1.00  0.00     0.077 A 
ATOM     31  C   UNL     1      -8.616  -5.391   1.289  1.00  0.00     0.001 A 
ATOM     32  C   UNL     1      -9.716  -5.430  -0.902  1.00  0.00    -0.025 A 
ATOM     33  C   UNL     1      -9.554  -5.934   0.339  1.00  0.00     0.005 A 
ATOM     34  C   UNL     1     -10.439  -6.194  -1.962  1.00  0.00     0.047 C 
ENDBRANCH  22  23
ENDBRANCH  14  22
ENDBRANCH   8  10
ENDBRANCH   7   8
ENDBRANCH   6   7
ENDBRANCH   3   6
ENDBRANCH   1   2
BRANCH   1  35
ATOM     35  C   UNL     1      -4.589   0.087  -0.540  1.00  0.00     0.042 C 
BRANCH  35  36
ATOM     36  C   UNL     1      -2.967   1.190  -0.872  1.00  0.00     0.118 C 
BRANCH  36  37
ATOM     37  N   UNL     1      -1.948   1.566   0.635  1.00  0.00    -0.352 N 
ATOM     38  C   UNL     1      -0.676   0.448   1.246  1.00  0.00     0.251 C 
ATOM     39  H   UNL     1      -2.109   2.408   1.119  1.00  0.00     0.163 HD
ATOM     40  O   UNL     1      -0.518   0.839   2.425  1.00  0.00    -0.269 OA
BRANCH  38  41
ATOM     41  C   UNL     1       0.019  -1.145  -0.043  1.00  0.00     0.039 A 
ATOM     42  C   UNL     1       1.251  -1.191  -0.898  1.00  0.00     0.014 A 
ATOM     43  C   UNL     1      -0.787  -1.964  -0.987  1.00  0.00     0.014 A 
ATOM     44  C   UNL     1       1.231  -0.739  -2.264  1.00  0.00     0.010 A 
ATOM     45  C   UNL     1      -0.918  -1.578  -2.360  1.00  0.00     0.010 A 
ATOM     46  C   UNL     1       0.002  -0.672  -2.887  1.00  0.00    -0.014 A 
BRANCH  46  47
ATOM     47  C   UNL     1      -0.367   0.204  -4.025  1.00  0.00     0.031 A 
ATOM     48  C   UNL     1       0.026  -0.292  -5.349  1.00  0.00     0.074 A 
ATOM     49  C   UNL     1      -0.969   1.436  -4.035  1.00  0.00     0.049 A 
ATOM     50  N   UNL     1       0.308   0.453  -6.365  1.00  0.00    -0.248 NA
ATOM     51  C   UNL     1       0.247  -1.714  -5.562  1.00  0.00     0.031 C 
ATOM     52  C   UNL     1      -1.740   1.992  -5.159  1.00  0.00     0.029 A 
ATOM     53  N   UNL     1      -0.976   2.496  -3.120  1.00  0.00    -0.354 N 
ATOM     54  C   UNL     1       0.418  -0.400  -7.431  1.00  0.00     0.074 A 
ATOM     55  C   UNL     1       0.563  -1.718  -6.854  1.00  0.00     0.031 C 
ATOM     56  C   UNL     1      -2.027   3.283  -4.936  1.00  0.00     0.029 A 
ATOM     57  C   UNL     1      -1.370   3.701  -3.715  1.00  0.00     0.049 A 
ATOM     58  H   UNL     1      -0.734   2.404  -2.170  1.00  0.00     0.167 HD
ATOM     59  C   UNL     1       0.155   0.028  -8.696  1.00  0.00     0.037 A 
ATOM     60  C   UNL     1      -0.788   4.911  -3.478  1.00  0.00     0.037 A 
ATOM     61  C   UNL     1      -0.237   1.435  -8.743  1.00  0.00     0.049 A 
ATOM     62  C   UNL     1      -0.028   5.386  -4.694  1.00  0.00     0.074 A 
ATOM     63  C   UNL     1      -1.447   2.108  -8.816  1.00  0.00     0.029 A 
ATOM     64  N   UNL     1       0.692   2.397  -8.399  1.00  0.00    -0.354 N 
ATOM     65  N   UNL     1      -0.227   4.919  -5.894  1.00  0.00    -0.248 NA
ATOM     66  C   UNL     1       1.104   6.314  -4.640  1.00  0.00     0.031 C 
ATOM     67  C   UNL     1      -1.217   3.489  -8.544  1.00  0.00     0.029 A 
ATOM     68  C   UNL     1       0.136   3.661  -8.317  1.00  0.00     0.049 A 
ATOM     69  H   UNL     1       1.643   2.205  -8.232  1.00  0.00     0.167 HD
ATOM     70  C   UNL     1       0.804   5.306  -6.704  1.00  0.00     0.074 A 
ATOM     71  C   UNL     1       1.583   6.225  -5.893  1.00  0.00     0.031 C 
ATOM     72  C   UNL     1       1.000   4.774  -7.946  1.00  0.00     0.037 A 
BRANCH  59  73
ATOM     73  C   UNL     1      -0.058  -0.986  -9.789  1.00  0.00     0.058 A 
ATOM     74  C   UNL     1      -1.080  -0.835 -10.741  1.00  0.00     0.135 A 
ATOM     75  C   UNL     1       0.684  -2.183  -9.886  1.00  0.00     0.135 A 
ATOM     76  F   UNL     1      -1.795   0.294 -10.825  1.00  0.00    -0.206 F 
ATOM     77  C   UNL     1      -1.419  -1.845 -11.639  1.00  0.00     0.059 A 
ATOM     78  C   UNL     1       0.311  -3.241 -10.712  1.00  0.00     0.059 A 
ATOM     79  F   UNL     1       1.811  -2.356  -9.174  1.00  0.00    -0.206 F 
ATOM     80  C   UNL     1      -0.744  -3.059 -11.593  1.00  0.00     0.060 A 
BRANCH  80  81
ATOM     81  S   UNL     1      -1.240  -4.377 -12.715  1.00  0.00     0.124 S 
ATOM     82  O   UNL     1      -2.695  -4.362 -12.596  1.00  0.00    -0.237 OA
ATOM     83  O   UNL     1      -0.700  -3.901 -13.984  1.00  0.00    -0.237 OA
ATOM     84  O   UNL     1      -0.587  -5.559 -12.157  1.00  0.00    -0.744 OA
ENDBRANCH  80  81
ENDBRANCH  59  73
BRANCH  60  85
ATOM     85  C   UNL     1      -0.433   5.194  -2.064  1.00  0.00     0.058 A 
ATOM     86  C   UNL     1      -1.446   5.679  -1.215  1.00  0.00     0.135 A 
ATOM     87  C   UNL     1       0.729   4.693  -1.463  1.00  0.00     0.135 A 
ATOM     88  F   UNL     1      -2.571   6.198  -1.733  1.00  0.00    -0.206 F 
ATOM     89  C   UNL     1      -1.369   5.546   0.166  1.00  0.00     0.059 A 
ATOM     90  C   UNL     1       0.828   4.545  -0.080  1.00  0.00     0.059 A 
ATOM     91  F   UNL     1       1.710   4.191  -2.226  1.00  0.00    -0.206 F 
ATOM     92  C   UNL     1      -0.252   4.924   0.718  1.00  0.00     0.060 A 
BRANCH  92  93
ATOM     93  S   UNL     1      -0.360   4.410   2.449  1.00  0.00     0.124 S 
ATOM     94  O   UNL     1      -0.371   5.694   3.140  1.00  0.00    -0.237 OA
ATOM     95  O   UNL     1      -1.638   3.695   2.432  1.00  0.00    -0.237 OA
ATOM     96  O   UNL     1       0.851   3.617   2.625  1.00  0.00    -0.744 OA
ENDBRANCH  92  93
ENDBRANCH  60  85
BRANCH  72  97
ATOM     97  C   UNL     1       2.082   5.247  -8.881  1.00  0.00     0.058 A 
ATOM     98  C   UNL     1       2.367   6.613  -9.055  1.00  0.00     0.135 A 
ATOM     99  C   UNL     1       2.786   4.361  -9.727  1.00  0.00     0.135 A 
ATOM    100  F   UNL     1       1.696   7.549  -8.365  1.00  0.00    -0.206 F 
ATOM    101  C   UNL     1       3.337   7.062  -9.950  1.00  0.00     0.059 A 
ATOM    102  C   UNL     1       3.713   4.790 -10.668  1.00  0.00     0.059 A 
ATOM    103  F   UNL     1       2.629   3.033  -9.653  1.00  0.00    -0.206 F 
ATOM    104  C   UNL     1       4.008   6.141 -10.749  1.00  0.00     0.060 A 
BRANCH 104 105
ATOM    105  S   UNL     1       5.263   6.711 -11.905  1.00  0.00     0.124 S 
ATOM    106  O   UNL     1       4.684   7.949 -12.417  1.00  0.00    -0.237 OA
ATOM    107  O   UNL     1       6.415   6.867 -11.023  1.00  0.00    -0.237 OA
ATOM    108  O   UNL     1       5.353   5.621 -12.872  1.00  0.00    -0.744 OA
ENDBRANCH 104 105
ENDBRANCH  72  97
ENDBRANCH  46  47
ENDBRANCH  38  41
ENDBRANCH  36  37
ENDBRANCH  35  36
ENDBRANCH   1  35
TORSDOF 19
