REMARK SMILES NC(=O)CC[C@H](NC(=O)N[C@H]1CCOC1)C(=O)NCCCNC(=O)c1ccc(-c2c3nc(c(-c4c(F)cc(S(=O)(=O)[O-])cc4F)c4ccc([nH]4)c(-c4c(F)cc(S(=O)(=O)[O-])cc4F)c4nc(c(-c5c(F)cc(S(=O)(=O)[O-])cc5F)c5ccc2[nH]5)C=C4)C=C3)cc1
REMARK SMILES IDX 20 1 19 2 18 3 16 4 17 5 6 7 5 8 4 9 2 10 1 11 3 14 7 15
REMARK SMILES IDX 8 16 9 18 10 19 11 21 12 22 15 23 13 24 14 25 21 26 22 27
REMARK SMILES IDX 23 28 24 30 25 31 26 32 90 33 27 34 89 35 28 36 29 37 30 38
REMARK SMILES IDX 83 39 31 40 88 41 82 42 84 43 32 44 87 45 81 46 80 47 33 49
REMARK SMILES IDX 67 50 46 51 66 52 47 53 50 54 65 55 85 56 48 57 49 58 64 60
REMARK SMILES IDX 86 61 51 62 34 63 35 64 44 65 36 66 37 67 43 68 45 69 38 70
REMARK SMILES IDX 39 71 40 72 41 73 42 74 68 75 69 76 78 77 70 78 71 79 77 80
REMARK SMILES IDX 79 81 72 82 73 83 74 84 75 85 76 86 52 87 53 88 62 89 54 90
REMARK SMILES IDX 55 91 61 92 63 93 56 94 57 95 58 96 59 97 60 98
REMARK H PARENT 18 6 1 12 1 13 7 17 10 20 22 29 84 48 50 59
REMARK Flexibility Score: inf
ROOT
ATOM      1  C   UNL     1       1.562   3.791  -1.602  1.00  0.00     0.042 C 
ENDROOT
BRANCH   1   2
ATOM      2  C   UNL     1       1.747   3.061  -0.274  1.00  0.00     0.117 C 
BRANCH   2   3
ATOM      3  N   UNL     1       3.085   2.553  -0.040  1.00  0.00    -0.354 N 
ATOM      4  C   UNL     1       4.128   3.026   0.692  1.00  0.00     0.242 C 
ATOM      5  O   UNL     1       5.022   2.207   0.938  1.00  0.00    -0.273 OA
ATOM      6  H   UNL     1       3.274   1.703  -0.499  1.00  0.00     0.163 HD
BRANCH   4   7
ATOM      7  C   UNL     1       4.135   4.417   1.372  1.00  0.00     0.173 C 
BRANCH   7   8
ATOM      8  C   UNL     1       3.644   4.208   2.828  1.00  0.00     0.045 C 
BRANCH   8   9
ATOM      9  C   UNL     1       4.720   3.678   3.779  1.00  0.00     0.102 C 
BRANCH   9  10
ATOM     10  C   UNL     1       5.359   4.804   4.560  1.00  0.00     0.217 C 
ATOM     11  N   UNL     1       6.274   5.547   3.877  1.00  0.00    -0.370 N 
ATOM     12  H   UNL     1       6.730   6.297   4.322  1.00  0.00     0.159 HD
ATOM     13  H   UNL     1       6.478   5.334   2.938  1.00  0.00     0.159 HD
ATOM     14  O   UNL     1       5.076   5.063   5.720  1.00  0.00    -0.275 OA
ENDBRANCH   9  10
ENDBRANCH   8   9
ENDBRANCH   7   8
BRANCH   7  15
ATOM     15  N   UNL     1       3.324   5.465   0.760  1.00  0.00    -0.326 N 
ATOM     16  C   UNL     1       3.509   6.483  -0.063  1.00  0.00     0.315 C 
ATOM     17  H   UNL     1       2.381   5.395   1.036  1.00  0.00     0.166 HD
ATOM     18  O   UNL     1       2.612   7.333  -0.071  1.00  0.00    -0.249 OA
ATOM     19  N   UNL     1       4.510   6.699  -0.899  1.00  0.00    -0.333 N 
ATOM     20  H   UNL     1       4.399   7.593  -1.295  1.00  0.00     0.165 HD
BRANCH  19  21
ATOM     21  C   UNL     1       5.723   6.096  -1.451  1.00  0.00     0.112 C 
ATOM     22  C   UNL     1       6.980   6.510  -0.718  1.00  0.00     0.056 C 
ATOM     23  C   UNL     1       5.814   4.593  -1.558  1.00  0.00     0.185 C 
ATOM     24  C   UNL     1       7.580   5.218  -0.206  1.00  0.00     0.162 C 
ATOM     25  O   UNL     1       6.655   4.169  -0.483  1.00  0.00    -0.379 OA
ENDBRANCH  19  21
ENDBRANCH   7  15
ENDBRANCH   4   7
ENDBRANCH   2   3
ENDBRANCH   1   2
BRANCH   1  26
ATOM     26  C   UNL     1       2.126   3.090  -2.835  1.00  0.00     0.118 C 
BRANCH  26  27
ATOM     27  N   UNL     1       1.704   1.706  -2.970  1.00  0.00    -0.352 N 
ATOM     28  C   UNL     1       0.783   1.108  -3.791  1.00  0.00     0.251 C 
ATOM     29  H   UNL     1       2.163   1.084  -2.360  1.00  0.00     0.163 HD
ATOM     30  O   UNL     1       0.485  -0.068  -3.591  1.00  0.00    -0.269 OA
BRANCH  28  31
ATOM     31  C   UNL     1       0.127   1.854  -4.886  1.00  0.00     0.039 A 
ATOM     32  C   UNL     1      -1.246   1.674  -5.082  1.00  0.00     0.014 A 
ATOM     33  C   UNL     1       0.847   2.686  -5.746  1.00  0.00     0.014 A 
ATOM     34  C   UNL     1      -1.909   2.390  -6.082  1.00  0.00     0.010 A 
ATOM     35  C   UNL     1       0.175   3.452  -6.699  1.00  0.00     0.010 A 
ATOM     36  C   UNL     1      -1.212   3.322  -6.867  1.00  0.00    -0.014 A 
BRANCH  36  37
ATOM     37  C   UNL     1      -1.928   4.210  -7.819  1.00  0.00     0.031 A 
ATOM     38  C   UNL     1      -1.658   4.137  -9.296  1.00  0.00     0.074 A 
ATOM     39  C   UNL     1      -2.760   5.152  -7.331  1.00  0.00     0.049 A 
ATOM     40  N   UNL     1      -2.127   4.890 -10.257  1.00  0.00    -0.248 NA
ATOM     41  C   UNL     1      -0.719   3.100  -9.749  1.00  0.00     0.031 C 
ATOM     42  C   UNL     1      -3.056   5.361  -5.911  1.00  0.00     0.029 A 
ATOM     43  N   UNL     1      -3.491   6.123  -7.967  1.00  0.00    -0.354 N 
ATOM     44  C   UNL     1      -1.529   4.434 -11.426  1.00  0.00     0.074 A 
ATOM     45  C   UNL     1      -0.634   3.361 -11.046  1.00  0.00     0.031 C 
ATOM     46  C   UNL     1      -3.906   6.390  -5.785  1.00  0.00     0.029 A 
ATOM     47  C   UNL     1      -4.185   6.942  -7.107  1.00  0.00     0.049 A 
ATOM     48  H   UNL     1      -3.517   6.225  -8.946  1.00  0.00     0.167 HD
ATOM     49  C   UNL     1      -1.720   4.863 -12.697  1.00  0.00     0.037 A 
ATOM     50  C   UNL     1      -4.944   8.029  -7.348  1.00  0.00     0.037 A 
ATOM     51  C   UNL     1      -2.629   5.918 -13.065  1.00  0.00     0.049 A 
ATOM     52  C   UNL     1      -5.146   8.483  -8.766  1.00  0.00     0.074 A 
ATOM     53  C   UNL     1      -2.966   6.360 -14.333  1.00  0.00     0.029 A 
ATOM     54  N   UNL     1      -3.334   6.709 -12.169  1.00  0.00    -0.354 N 
ATOM     55  N   UNL     1      -4.647   7.978  -9.869  1.00  0.00    -0.248 NA
ATOM     56  C   UNL     1      -6.013   9.649  -8.974  1.00  0.00     0.031 C 
ATOM     57  C   UNL     1      -3.829   7.453 -14.202  1.00  0.00     0.029 A 
ATOM     58  C   UNL     1      -4.072   7.662 -12.853  1.00  0.00     0.049 A 
ATOM     59  H   UNL     1      -3.313   6.608 -11.190  1.00  0.00     0.167 HD
ATOM     60  C   UNL     1      -5.144   8.761 -10.904  1.00  0.00     0.074 A 
ATOM     61  C   UNL     1      -6.002   9.759 -10.296  1.00  0.00     0.031 C 
ATOM     62  C   UNL     1      -4.908   8.663 -12.236  1.00  0.00     0.037 A 
BRANCH  49  63
ATOM     63  C   UNL     1      -0.919   4.199 -13.786  1.00  0.00     0.058 A 
ATOM     64  C   UNL     1      -1.160   2.874 -14.182  1.00  0.00     0.135 A 
ATOM     65  C   UNL     1       0.086   4.910 -14.463  1.00  0.00     0.135 A 
ATOM     66  F   UNL     1      -2.101   2.144 -13.563  1.00  0.00    -0.206 F 
ATOM     67  C   UNL     1      -0.408   2.264 -15.182  1.00  0.00     0.059 A 
ATOM     68  C   UNL     1       0.831   4.330 -15.486  1.00  0.00     0.059 A 
ATOM     69  F   UNL     1       0.356   6.182 -14.130  1.00  0.00    -0.206 F 
ATOM     70  C   UNL     1       0.588   3.000 -15.825  1.00  0.00     0.060 A 
BRANCH  70  71
ATOM     71  S   UNL     1       1.565   2.190 -17.110  1.00  0.00     0.124 S 
ATOM     72  O   UNL     1       2.416   1.310 -16.315  1.00  0.00    -0.237 OA
ATOM     73  O   UNL     1       0.541   1.527 -17.911  1.00  0.00    -0.237 OA
ATOM     74  O   UNL     1       2.251   3.299 -17.766  1.00  0.00    -0.744 OA
ENDBRANCH  70  71
ENDBRANCH  49  63
BRANCH  50  75
ATOM     75  C   UNL     1      -5.560   8.755  -6.207  1.00  0.00     0.058 A 
ATOM     76  C   UNL     1      -6.937   8.676  -5.958  1.00  0.00     0.135 A 
ATOM     77  C   UNL     1      -4.774   9.496  -5.311  1.00  0.00     0.135 A 
ATOM     78  F   UNL     1      -7.731   7.986  -6.792  1.00  0.00    -0.206 F 
ATOM     79  C   UNL     1      -7.515   9.303  -4.859  1.00  0.00     0.059 A 
ATOM     80  C   UNL     1      -5.324  10.111  -4.191  1.00  0.00     0.059 A 
ATOM     81  F   UNL     1      -3.448   9.588  -5.497  1.00  0.00    -0.206 F 
ATOM     82  C   UNL     1      -6.698  10.011  -3.975  1.00  0.00     0.060 A 
BRANCH  82  83
ATOM     83  S   UNL     1      -7.446  10.748  -2.506  1.00  0.00     0.124 S 
ATOM     84  O   UNL     1      -8.166  11.880  -3.079  1.00  0.00    -0.237 OA
ATOM     85  O   UNL     1      -8.271   9.654  -2.002  1.00  0.00    -0.237 OA
ATOM     86  O   UNL     1      -6.293  11.085  -1.676  1.00  0.00    -0.744 OA
ENDBRANCH  82  83
ENDBRANCH  50  75
BRANCH  62  87
ATOM     87  C   UNL     1      -5.581   9.666 -13.132  1.00  0.00     0.058 A 
ATOM     88  C   UNL     1      -5.155  11.002 -13.184  1.00  0.00     0.135 A 
ATOM     89  C   UNL     1      -6.625   9.277 -13.986  1.00  0.00     0.135 A 
ATOM     90  F   UNL     1      -4.167  11.429 -12.380  1.00  0.00    -0.206 F 
ATOM     91  C   UNL     1      -5.750  11.922 -14.040  1.00  0.00     0.059 A 
ATOM     92  C   UNL     1      -7.217  10.173 -14.870  1.00  0.00     0.059 A 
ATOM     93  F   UNL     1      -7.066   8.009 -13.981  1.00  0.00    -0.206 F 
ATOM     94  C   UNL     1      -6.779  11.497 -14.883  1.00  0.00     0.060 A 
BRANCH  94  95
ATOM     95  S   UNL     1      -7.514  12.691 -16.020  1.00  0.00     0.124 S 
ATOM     96  O   UNL     1      -8.310  13.511 -15.112  1.00  0.00    -0.237 OA
ATOM     97  O   UNL     1      -6.340  13.339 -16.595  1.00  0.00    -0.237 OA
ATOM     98  O   UNL     1      -8.277  11.856 -16.944  1.00  0.00    -0.744 OA
ENDBRANCH  94  95
ENDBRANCH  62  87
ENDBRANCH  36  37
ENDBRANCH  28  31
ENDBRANCH  26  27
ENDBRANCH   1  26
TORSDOF 18
