REMARK SMILES CCC[C@@H](Oc1ccc(-c2ccccc2)cc1)C(=O)NCCCNC(=O)c1ccc(-c2c3nc(c(-c4c(F)cc(S(=O)(=O)[O-])cc4F)c4ccc([nH]4)c(-c4c(F)cc(S(=O)(=O)[O-])cc4F)c4nc(c(-c5c(F)cc(S(=O)(=O)[O-])cc5F)c5ccc2[nH]5)C=C4)C=C3)cc1
REMARK SMILES IDX 22 1 21 2 20 3 18 4 19 5 4 7 3 8 2 9 1 10 5 11 6 12 7 13
REMARK SMILES IDX 17 14 8 15 16 16 9 17 10 18 11 19 15 20 12 21 14 22 13 23
REMARK SMILES IDX 23 24 24 25 25 26 26 28 27 29 28 30 92 31 29 32 91 33 30 34
REMARK SMILES IDX 31 35 32 36 85 37 33 38 90 39 84 40 86 41 34 42 89 43 83 44
REMARK SMILES IDX 82 45 35 47 69 48 48 49 68 50 49 51 52 52 67 53 87 54 50 55
REMARK SMILES IDX 51 56 66 58 88 59 53 60 36 61 37 62 46 63 38 64 39 65 45 66
REMARK SMILES IDX 47 67 40 68 41 69 42 70 43 71 44 72 70 73 71 74 80 75 72 76
REMARK SMILES IDX 73 77 79 78 81 79 74 80 75 81 76 82 77 83 78 84 54 85 55 86
REMARK SMILES IDX 64 87 56 88 57 89 63 90 65 91 58 92 59 93 60 94 61 95 62 96
REMARK H PARENT 20 6 24 27 86 46 52 57
REMARK Flexibility Score: inf
ROOT
ATOM      1  C   UNL     1       0.403   3.405   4.804  1.00  0.00     0.042 C 
ENDROOT
BRANCH   1   2
ATOM      2  C   UNL     1      -0.349   3.789   3.538  1.00  0.00     0.118 C 
BRANCH   2   3
ATOM      3  N   UNL     1       0.519   4.348   2.509  1.00  0.00    -0.353 N 
ATOM      4  C   UNL     1       0.820   3.865   1.261  1.00  0.00     0.261 C 
ATOM      5  O   UNL     1       1.530   4.560   0.528  1.00  0.00    -0.271 OA
ATOM      6  H   UNL     1       0.954   5.199   2.745  1.00  0.00     0.163 HD
BRANCH   4   7
ATOM      7  C   UNL     1       0.350   2.464   0.820  1.00  0.00     0.261 C 
BRANCH   7   8
ATOM      8  C   UNL     1       1.212   1.442   1.597  1.00  0.00     0.055 C 
BRANCH   8   9
ATOM      9  C   UNL     1       1.342   0.011   1.055  1.00  0.00     0.001 C 
ATOM     10  C   UNL     1       1.539  -0.114  -0.444  1.00  0.00     0.004 C 
ENDBRANCH   8   9
ENDBRANCH   7   8
BRANCH   7  11
ATOM     11  O   UNL     1      -1.065   2.495   1.058  1.00  0.00    -0.481 OA
BRANCH  11  12
ATOM     12  C   UNL     1      -1.758   1.397   0.670  1.00  0.00     0.120 A 
ATOM     13  C   UNL     1      -2.479   1.422  -0.514  1.00  0.00     0.047 A 
ATOM     14  C   UNL     1      -1.871   0.321   1.536  1.00  0.00     0.047 A 
ATOM     15  C   UNL     1      -3.237   0.304  -0.881  1.00  0.00     0.012 A 
ATOM     16  C   UNL     1      -2.578  -0.811   1.143  1.00  0.00     0.012 A 
ATOM     17  C   UNL     1      -3.269  -0.855  -0.081  1.00  0.00    -0.018 A 
BRANCH  17  18
ATOM     18  C   UNL     1      -3.976  -2.084  -0.505  1.00  0.00    -0.018 A 
ATOM     19  C   UNL     1      -4.047  -2.458  -1.859  1.00  0.00     0.009 A 
ATOM     20  C   UNL     1      -4.560  -2.956   0.433  1.00  0.00     0.009 A 
ATOM     21  C   UNL     1      -4.662  -3.650  -2.255  1.00  0.00     0.001 A 
ATOM     22  C   UNL     1      -5.160  -4.156   0.043  1.00  0.00     0.001 A 
ATOM     23  C   UNL     1      -5.210  -4.502  -1.302  1.00  0.00     0.000 A 
ENDBRANCH  17  18
ENDBRANCH  11  12
ENDBRANCH   7  11
ENDBRANCH   4   7
ENDBRANCH   2   3
ENDBRANCH   1   2
BRANCH   1  24
ATOM     24  C   UNL     1       0.941   4.592   5.588  1.00  0.00     0.118 C 
BRANCH  24  25
ATOM     25  N   UNL     1      -0.118   5.459   6.085  1.00  0.00    -0.352 N 
ATOM     26  C   UNL     1      -0.456   5.803   7.368  1.00  0.00     0.251 C 
ATOM     27  H   UNL     1      -0.683   5.864   5.387  1.00  0.00     0.163 HD
ATOM     28  O   UNL     1      -1.518   6.400   7.566  1.00  0.00    -0.269 OA
BRANCH  26  29
ATOM     29  C   UNL     1       0.417   5.457   8.509  1.00  0.00     0.039 A 
ATOM     30  C   UNL     1      -0.174   5.064   9.714  1.00  0.00     0.014 A 
ATOM     31  C   UNL     1       1.809   5.551   8.418  1.00  0.00     0.014 A 
ATOM     32  C   UNL     1       0.629   4.710  10.801  1.00  0.00     0.010 A 
ATOM     33  C   UNL     1       2.609   5.117   9.473  1.00  0.00     0.010 A 
ATOM     34  C   UNL     1       2.028   4.700  10.679  1.00  0.00    -0.014 A 
BRANCH  34  35
ATOM     35  C   UNL     1       2.894   4.260  11.803  1.00  0.00     0.031 A 
ATOM     36  C   UNL     1       3.857   5.222  12.445  1.00  0.00     0.074 A 
ATOM     37  C   UNL     1       2.848   2.976  12.212  1.00  0.00     0.049 A 
ATOM     38  N   UNL     1       4.721   5.009  13.404  1.00  0.00    -0.248 NA
ATOM     39  C   UNL     1       3.870   6.599  11.924  1.00  0.00     0.031 C 
ATOM     40  C   UNL     1       1.993   1.935  11.636  1.00  0.00     0.029 A 
ATOM     41  N   UNL     1       3.538   2.325  13.204  1.00  0.00    -0.354 N 
ATOM     42  C   UNL     1       5.386   6.215  13.594  1.00  0.00     0.074 A 
ATOM     43  C   UNL     1       4.864   7.142  12.613  1.00  0.00     0.031 C 
ATOM     44  C   UNL     1       2.189   0.786  12.302  1.00  0.00     0.029 A 
ATOM     45  C   UNL     1       3.208   0.996  13.325  1.00  0.00     0.049 A 
ATOM     46  H   UNL     1       4.206   2.769  13.774  1.00  0.00     0.167 HD
ATOM     47  C   UNL     1       6.326   6.530  14.517  1.00  0.00     0.037 A 
ATOM     48  C   UNL     1       3.676   0.051  14.163  1.00  0.00     0.037 A 
ATOM     49  C   UNL     1       6.825   5.610  15.506  1.00  0.00     0.049 A 
ATOM     50  C   UNL     1       4.718   0.426  15.182  1.00  0.00     0.074 A 
ATOM     51  C   UNL     1       7.738   5.847  16.519  1.00  0.00     0.029 A 
ATOM     52  N   UNL     1       6.454   4.277  15.608  1.00  0.00    -0.354 N 
ATOM     53  N   UNL     1       5.291   1.588  15.386  1.00  0.00    -0.248 NA
ATOM     54  C   UNL     1       5.170  -0.636  16.090  1.00  0.00     0.031 C 
ATOM     55  C   UNL     1       7.950   4.647  17.207  1.00  0.00     0.029 A 
ATOM     56  C   UNL     1       7.133   3.675  16.655  1.00  0.00     0.049 A 
ATOM     57  H   UNL     1       5.803   3.826  15.023  1.00  0.00     0.167 HD
ATOM     58  C   UNL     1       6.152   1.404  16.462  1.00  0.00     0.074 A 
ATOM     59  C   UNL     1       6.013   0.022  16.874  1.00  0.00     0.031 C 
ATOM     60  C   UNL     1       6.982   2.297  17.055  1.00  0.00     0.037 A 
BRANCH  47  61
ATOM     61  C   UNL     1       6.873   7.933  14.505  1.00  0.00     0.058 A 
ATOM     62  C   UNL     1       6.091   9.031  14.898  1.00  0.00     0.135 A 
ATOM     63  C   UNL     1       8.204   8.179  14.130  1.00  0.00     0.135 A 
ATOM     64  F   UNL     1       4.808   8.856  15.251  1.00  0.00    -0.206 F 
ATOM     65  C   UNL     1       6.599  10.326  14.891  1.00  0.00     0.059 A 
ATOM     66  C   UNL     1       8.741   9.463  14.144  1.00  0.00     0.059 A 
ATOM     67  F   UNL     1       8.996   7.167  13.746  1.00  0.00    -0.206 F 
ATOM     68  C   UNL     1       7.926  10.533  14.512  1.00  0.00     0.060 A 
BRANCH  68  69
ATOM     69  S   UNL     1       8.570  12.219  14.513  1.00  0.00     0.124 S 
ATOM     70  O   UNL     1       7.910  12.784  13.341  1.00  0.00    -0.237 OA
ATOM     71  O   UNL     1       8.114  12.727  15.803  1.00  0.00    -0.237 OA
ATOM     72  O   UNL     1      10.013  12.032  14.391  1.00  0.00    -0.744 OA
ENDBRANCH  68  69
ENDBRANCH  47  61
BRANCH  48  73
ATOM     73  C   UNL     1       3.141  -1.335  14.092  1.00  0.00     0.058 A 
ATOM     74  C   UNL     1       2.318  -1.842  15.108  1.00  0.00     0.135 A 
ATOM     75  C   UNL     1       3.429  -2.173  13.004  1.00  0.00     0.135 A 
ATOM     76  F   UNL     1       2.018  -1.081  16.171  1.00  0.00    -0.206 F 
ATOM     77  C   UNL     1       1.812  -3.137  15.058  1.00  0.00     0.059 A 
ATOM     78  C   UNL     1       2.914  -3.463  12.919  1.00  0.00     0.059 A 
ATOM     79  F   UNL     1       4.197  -1.729  11.997  1.00  0.00    -0.206 F 
ATOM     80  C   UNL     1       2.114  -3.939  13.957  1.00  0.00     0.060 A 
BRANCH  80  81
ATOM     81  S   UNL     1       1.413  -5.601  13.877  1.00  0.00     0.124 S 
ATOM     82  O   UNL     1       2.215  -6.307  14.869  1.00  0.00    -0.237 OA
ATOM     83  O   UNL     1       0.018  -5.363  14.234  1.00  0.00    -0.237 OA
ATOM     84  O   UNL     1       1.637  -5.993  12.488  1.00  0.00    -0.744 OA
ENDBRANCH  80  81
ENDBRANCH  48  73
BRANCH  60  85
ATOM     85  C   UNL     1       7.781   1.817  18.235  1.00  0.00     0.058 A 
ATOM     86  C   UNL     1       8.863   0.935  18.085  1.00  0.00     0.135 A 
ATOM     87  C   UNL     1       7.480   2.271  19.529  1.00  0.00     0.135 A 
ATOM     88  F   UNL     1       9.189   0.466  16.870  1.00  0.00    -0.206 F 
ATOM     89  C   UNL     1       9.599   0.496  19.180  1.00  0.00     0.059 A 
ATOM     90  C   UNL     1       8.221   1.867  20.636  1.00  0.00     0.059 A 
ATOM     91  F   UNL     1       6.463   3.124  19.727  1.00  0.00    -0.206 F 
ATOM     92  C   UNL     1       9.269   0.967  20.453  1.00  0.00     0.060 A 
BRANCH  92  93
ATOM     93  S   UNL     1      10.243   0.404  21.864  1.00  0.00     0.124 S 
ATOM     94  O   UNL     1       9.750  -0.959  22.036  1.00  0.00    -0.237 OA
ATOM     95  O   UNL     1      11.611   0.526  21.370  1.00  0.00    -0.237 OA
ATOM     96  O   UNL     1       9.880   1.341  22.923  1.00  0.00    -0.744 OA
ENDBRANCH  92  93
ENDBRANCH  60  85
ENDBRANCH  34  35
ENDBRANCH  26  29
ENDBRANCH  24  25
ENDBRANCH   1  24
TORSDOF 18
