REMARK SMILES C[C@@H](C(=O)NCCCNC(=O)c1ccc(-c2c3nc(c(-c4c(F)cc(S(=O)(=O)[O-])cc4F)c4ccc([nH]4)c(-c4c(F)cc(S(=O)(=O)[O-])cc4F)c4nc(c(-c5c(F)cc(S(=O)(=O)[O-])cc5F)c5ccc2[nH]5)C=C4)C=C3)cc1)n1ccc(C(=O)N2CC[NH+](Cc3cccc(F)c3)CC2)n1
REMARK SMILES IDX 6 1 5 2 3 3 4 4 2 6 1 7 78 8 79 9 98 10 80 11 81 12 82 13
REMARK SMILES IDX 83 14 84 15 85 16 97 17 86 18 96 19 87 20 88 22 89 23 90 24
REMARK SMILES IDX 95 25 91 26 93 27 92 28 94 29 7 30 8 31 9 32 10 33 11 35
REMARK SMILES IDX 12 36 13 37 77 38 14 39 76 40 15 41 16 42 17 43 70 44 18 45
REMARK SMILES IDX 75 46 69 47 71 48 19 49 74 50 68 51 67 52 20 54 54 55 33 56
REMARK SMILES IDX 53 57 34 58 37 59 52 60 72 61 35 62 36 63 51 65 73 66 38 67
REMARK SMILES IDX 21 68 22 69 31 70 23 71 24 72 30 73 32 74 25 75 26 76 27 77
REMARK SMILES IDX 28 78 29 79 55 80 56 81 65 82 57 83 58 84 64 85 66 86 59 87
REMARK SMILES IDX 60 88 61 89 62 90 63 91 39 92 40 93 49 94 41 95 42 96 48 97
REMARK SMILES IDX 50 98 43 99 44 100 45 101 46 102 47 103
REMARK H PARENT 5 5 87 21 9 34 71 53 37 64
REMARK Flexibility Score: inf
ROOT
ATOM      1  C   UNL     1       3.548  -0.360  -1.990  1.00  0.00     0.117 C 
ENDROOT
BRANCH   1   2
ATOM      2  N   UNL     1       2.577  -1.376  -2.355  1.00  0.00    -0.354 N 
ATOM      3  C   UNL     1       1.231  -1.451  -2.115  1.00  0.00     0.244 C 
ATOM      4  O   UNL     1       0.649  -2.426  -2.594  1.00  0.00    -0.273 OA
ATOM      5  H   UNL     1       2.947  -2.138  -2.857  1.00  0.00     0.163 HD
BRANCH   3   6
ATOM      6  C   UNL     1       0.544  -0.364  -1.293  1.00  0.00     0.193 C 
ATOM      7  C   UNL     1       0.881  -0.468   0.193  1.00  0.00     0.044 C 
BRANCH   6   8
ATOM      8  N   UNL     1      -0.917  -0.325  -1.443  1.00  0.00    -0.260 N 
ATOM      9  C   UNL     1      -1.810  -1.357  -1.402  1.00  0.00     0.110 A 
ATOM     10  N   UNL     1      -1.514   0.883  -1.336  1.00  0.00    -0.167 NA
ATOM     11  C   UNL     1      -3.047  -0.788  -1.226  1.00  0.00     0.056 A 
ATOM     12  C   UNL     1      -2.818   0.612  -1.149  1.00  0.00     0.150 A 
BRANCH  12  13
ATOM     13  C   UNL     1      -3.821   1.624  -0.764  1.00  0.00     0.274 C 
ATOM     14  O   UNL     1      -4.836   1.278  -0.154  1.00  0.00    -0.267 OA
ATOM     15  N   UNL     1      -3.586   2.978  -1.056  1.00  0.00    -0.326 N 
ATOM     16  C   UNL     1      -4.498   3.929  -0.434  1.00  0.00     0.181 C 
ATOM     17  C   UNL     1      -2.927   3.405  -2.293  1.00  0.00     0.181 C 
ATOM     18  C   UNL     1      -4.044   5.394  -0.512  1.00  0.00     0.284 C 
ATOM     19  C   UNL     1      -2.535   4.894  -2.327  1.00  0.00     0.284 C 
ATOM     20  N   UNL     1      -3.526   5.841  -1.808  1.00  0.00    -0.328 N 
ATOM     21  H   UNL     1      -3.022   6.710  -1.631  1.00  0.00     0.348 HD
BRANCH  20  22
ATOM     22  C   UNL     1      -4.509   6.354  -2.763  1.00  0.00     0.299 C 
BRANCH  22  23
ATOM     23  C   UNL     1      -5.488   5.377  -3.370  1.00  0.00     0.009 A 
ATOM     24  C   UNL     1      -5.192   4.718  -4.576  1.00  0.00     0.010 A 
ATOM     25  C   UNL     1      -6.711   5.104  -2.743  1.00  0.00     0.048 A 
ATOM     26  C   UNL     1      -6.065   3.762  -5.103  1.00  0.00     0.004 A 
ATOM     27  C   UNL     1      -7.571   4.147  -3.271  1.00  0.00     0.123 A 
ATOM     28  C   UNL     1      -7.254   3.466  -4.440  1.00  0.00     0.039 A 
ATOM     29  F   UNL     1      -8.716   3.869  -2.635  1.00  0.00    -0.207 F 
ENDBRANCH  22  23
ENDBRANCH  20  22
ENDBRANCH  12  13
ENDBRANCH   6   8
ENDBRANCH   3   6
ENDBRANCH   1   2
BRANCH   1  30
ATOM     30  C   UNL     1       4.482  -0.801  -0.865  1.00  0.00     0.042 C 
BRANCH  30  31
ATOM     31  C   UNL     1       5.245  -2.098  -1.119  1.00  0.00     0.118 C 
BRANCH  31  32
ATOM     32  N   UNL     1       6.127  -2.025  -2.269  1.00  0.00    -0.352 N 
ATOM     33  C   UNL     1       7.447  -2.381  -2.394  1.00  0.00     0.251 C 
ATOM     34  H   UNL     1       5.714  -1.664  -3.087  1.00  0.00     0.163 HD
ATOM     35  O   UNL     1       8.036  -2.108  -3.438  1.00  0.00    -0.269 OA
BRANCH  33  36
ATOM     36  C   UNL     1       8.173  -3.056  -1.291  1.00  0.00     0.039 A 
ATOM     37  C   UNL     1       9.493  -2.669  -1.037  1.00  0.00     0.014 A 
ATOM     38  C   UNL     1       7.597  -4.087  -0.542  1.00  0.00     0.014 A 
ATOM     39  C   UNL     1      10.214  -3.276  -0.005  1.00  0.00     0.010 A 
ATOM     40  C   UNL     1       8.299  -4.654   0.525  1.00  0.00     0.010 A 
ATOM     41  C   UNL     1       9.615  -4.257   0.800  1.00  0.00    -0.014 A 
BRANCH  41  42
ATOM     42  C   UNL     1      10.365  -4.866   1.928  1.00  0.00     0.031 A 
ATOM     43  C   UNL     1      10.788  -6.308   1.878  1.00  0.00     0.074 A 
ATOM     44  C   UNL     1      10.645  -4.122   3.016  1.00  0.00     0.049 A 
ATOM     45  N   UNL     1      11.454  -7.003   2.766  1.00  0.00    -0.248 NA
ATOM     46  C   UNL     1      10.394  -7.076   0.687  1.00  0.00     0.031 C 
ATOM     47  C   UNL     1      10.241  -2.727   3.212  1.00  0.00     0.029 A 
ATOM     48  N   UNL     1      11.333  -4.433   4.161  1.00  0.00    -0.354 N 
ATOM     49  C   UNL     1      11.549  -8.289   2.248  1.00  0.00     0.074 A 
ATOM     50  C   UNL     1      10.839  -8.288   0.986  1.00  0.00     0.031 C 
ATOM     51  C   UNL     1      10.710  -2.298   4.396  1.00  0.00     0.029 A 
ATOM     52  C   UNL     1      11.432  -3.387   5.046  1.00  0.00     0.049 A 
ATOM     53  H   UNL     1      11.719  -5.322   4.332  1.00  0.00     0.167 HD
ATOM     54  C   UNL     1      12.184  -9.368   2.767  1.00  0.00     0.037 A 
ATOM     55  C   UNL     1      12.045  -3.310   6.243  1.00  0.00     0.037 A 
ATOM     56  C   UNL     1      12.916  -9.364   4.006  1.00  0.00     0.049 A 
ATOM     57  C   UNL     1      12.790  -4.502   6.771  1.00  0.00     0.074 A 
ATOM     58  C   UNL     1      13.635 -10.395   4.588  1.00  0.00     0.029 A 
ATOM     59  N   UNL     1      13.028  -8.273   4.854  1.00  0.00    -0.354 N 
ATOM     60  N   UNL     1      12.915  -5.694   6.241  1.00  0.00    -0.248 NA
ATOM     61  C   UNL     1      13.488  -4.333   8.053  1.00  0.00     0.031 C 
ATOM     62  C   UNL     1      14.168  -9.931   5.797  1.00  0.00     0.029 A 
ATOM     63  C   UNL     1      13.800  -8.605   5.956  1.00  0.00     0.049 A 
ATOM     64  H   UNL     1      12.618  -7.392   4.697  1.00  0.00     0.167 HD
ATOM     65  C   UNL     1      13.717  -6.416   7.117  1.00  0.00     0.074 A 
ATOM     66  C   UNL     1      14.059  -5.521   8.204  1.00  0.00     0.031 C 
ATOM     67  C   UNL     1      14.130  -7.704   7.029  1.00  0.00     0.037 A 
BRANCH  54  68
ATOM     68  C   UNL     1      12.121 -10.645   1.979  1.00  0.00     0.058 A 
ATOM     69  C   UNL     1      12.881 -10.821   0.811  1.00  0.00     0.135 A 
ATOM     70  C   UNL     1      11.306 -11.707   2.399  1.00  0.00     0.135 A 
ATOM     71  F   UNL     1      13.664  -9.829   0.359  1.00  0.00    -0.206 F 
ATOM     72  C   UNL     1      12.811 -11.995   0.069  1.00  0.00     0.059 A 
ATOM     73  C   UNL     1      11.235 -12.898   1.683  1.00  0.00     0.059 A 
ATOM     74  F   UNL     1      10.559 -11.588   3.508  1.00  0.00    -0.206 F 
ATOM     75  C   UNL     1      11.979 -13.026   0.509  1.00  0.00     0.060 A 
BRANCH  75  76
ATOM     76  S   UNL     1      11.883 -14.542  -0.466  1.00  0.00     0.124 S 
ATOM     77  O   UNL     1      10.965 -14.144  -1.529  1.00  0.00    -0.237 OA
ATOM     78  O   UNL     1      13.270 -14.748  -0.872  1.00  0.00    -0.237 OA
ATOM     79  O   UNL     1      11.361 -15.520   0.483  1.00  0.00    -0.744 OA
ENDBRANCH  75  76
ENDBRANCH  54  68
BRANCH  55  80
ATOM     80  C   UNL     1      12.015  -2.035   7.001  1.00  0.00     0.058 A 
ATOM     81  C   UNL     1      13.136  -1.194   7.036  1.00  0.00     0.135 A 
ATOM     82  C   UNL     1      10.859  -1.620   7.678  1.00  0.00     0.135 A 
ATOM     83  F   UNL     1      14.264  -1.556   6.405  1.00  0.00    -0.206 F 
ATOM     84  C   UNL     1      13.118   0.014   7.723  1.00  0.00     0.059 A 
ATOM     85  C   UNL     1      10.810  -0.408   8.359  1.00  0.00     0.059 A 
ATOM     86  F   UNL     1       9.757  -2.385   7.658  1.00  0.00    -0.206 F 
ATOM     87  C   UNL     1      11.948   0.400   8.380  1.00  0.00     0.060 A 
BRANCH  87  88
ATOM     88  S   UNL     1      11.901   2.003   9.211  1.00  0.00     0.124 S 
ATOM     89  O   UNL     1      12.562   1.697  10.474  1.00  0.00    -0.237 OA
ATOM     90  O   UNL     1      12.647   2.855   8.289  1.00  0.00    -0.237 OA
ATOM     91  O   UNL     1      10.472   2.290   9.295  1.00  0.00    -0.744 OA
ENDBRANCH  87  88
ENDBRANCH  55  80
BRANCH  67  92
ATOM     92  C   UNL     1      15.010  -8.212   8.134  1.00  0.00     0.058 A 
ATOM     93  C   UNL     1      14.481  -8.563   9.385  1.00  0.00     0.135 A 
ATOM     94  C   UNL     1      16.390  -8.365   7.934  1.00  0.00     0.135 A 
ATOM     95  F   UNL     1      13.167  -8.428   9.625  1.00  0.00    -0.206 F 
ATOM     96  C   UNL     1      15.296  -9.025  10.413  1.00  0.00     0.059 A 
ATOM     97  C   UNL     1      17.222  -8.841   8.943  1.00  0.00     0.059 A 
ATOM     98  F   UNL     1      16.942  -8.049   6.752  1.00  0.00    -0.206 F 
ATOM     99  C   UNL     1      16.667  -9.155  10.184  1.00  0.00     0.060 A 
BRANCH  99 100
ATOM    100  S   UNL     1      17.722  -9.765  11.516  1.00  0.00     0.124 S 
ATOM    101  O   UNL     1      17.936  -8.553  12.299  1.00  0.00    -0.237 OA
ATOM    102  O   UNL     1      16.887 -10.785  12.144  1.00  0.00    -0.237 OA
ATOM    103  O   UNL     1      18.894 -10.274  10.809  1.00  0.00    -0.744 OA
ENDBRANCH  99 100
ENDBRANCH  67  92
ENDBRANCH  41  42
ENDBRANCH  33  36
ENDBRANCH  31  32
ENDBRANCH  30  31
ENDBRANCH   1  30
TORSDOF 17
