REMARK SMILES O=Cc1c(OCc2ccc(C(=O)NCCCNC(=O)c3ccc(-c4c5nc(c(-c6c(F)cc(S(=O)(=O)[O-])cc6F)c6ccc([nH]6)c(-c6c(F)cc(S(=O)(=O)[O-])cc6F)c6nc(c(-c7c(F)cc(S(=O)(=O)[O-])cc7F)c7ccc4[nH]7)C=C6)C=C5)cc3)cc2)ccc2ccccc12
REMARK SMILES IDX 14 1 13 2 11 3 12 4 10 6 7 7 8 8 87 9 9 10 86 11 6 12 5 13
REMARK SMILES IDX 4 14 3 15 95 16 88 17 90 18 94 19 89 20 91 21 93 22 92 23
REMARK SMILES IDX 2 24 1 25 15 26 16 27 17 28 18 29 19 31 20 32 21 33 85 34
REMARK SMILES IDX 22 35 84 36 23 37 24 38 25 39 78 40 26 41 83 42 77 43 79 44
REMARK SMILES IDX 27 45 82 46 76 47 75 48 28 50 62 51 41 52 61 53 42 54 45 55
REMARK SMILES IDX 60 56 80 57 43 58 44 59 59 61 81 62 46 63 29 64 30 65 39 66
REMARK SMILES IDX 31 67 32 68 38 69 40 70 33 71 34 72 35 73 36 74 37 75 63 76
REMARK SMILES IDX 64 77 73 78 65 79 66 80 72 81 74 82 67 83 68 84 69 85 70 86
REMARK SMILES IDX 71 87 47 88 48 89 57 90 49 91 50 92 56 93 58 94 51 95 52 96
REMARK SMILES IDX 53 97 54 98 55 99
REMARK H PARENT 13 5 17 30 79 49 45 60
REMARK Flexibility Score: inf
ROOT
ATOM      1  C   UNL     1       7.022  -4.247   5.340  1.00  0.00     0.118 C 
ENDROOT
BRANCH   1   2
ATOM      2  N   UNL     1       6.399  -5.555   5.487  1.00  0.00    -0.352 N 
ATOM      3  C   UNL     1       5.134  -5.985   5.155  1.00  0.00     0.251 C 
ATOM      4  O   UNL     1       4.888  -7.189   5.186  1.00  0.00    -0.269 OA
ATOM      5  H   UNL     1       6.976  -6.244   5.888  1.00  0.00     0.163 HD
BRANCH   3   6
ATOM      6  C   UNL     1       4.072  -5.037   4.730  1.00  0.00     0.039 A 
ATOM      7  C   UNL     1       2.057  -3.256   3.842  1.00  0.00    -0.011 A 
ATOM      8  C   UNL     1       2.186  -4.532   3.273  1.00  0.00     0.008 A 
ATOM      9  C   UNL     1       2.902  -2.928   4.910  1.00  0.00     0.008 A 
ATOM     10  C   UNL     1       3.176  -5.421   3.725  1.00  0.00     0.014 A 
ATOM     11  C   UNL     1       3.893  -3.805   5.349  1.00  0.00     0.014 A 
BRANCH   7  12
ATOM     12  C   UNL     1       1.016  -2.266   3.347  1.00  0.00     0.265 C 
BRANCH  12  13
ATOM     13  O   UNL     1       1.435  -1.465   2.232  1.00  0.00    -0.488 OA
BRANCH  13  14
ATOM     14  C   UNL     1       2.295  -0.413   2.407  1.00  0.00     0.130 A 
ATOM     15  C   UNL     1       2.873   0.163   1.259  1.00  0.00     0.064 A 
ATOM     16  C   UNL     1       3.963   1.084   1.346  1.00  0.00    -0.004 A 
ATOM     17  C   UNL     1       2.682   0.080   3.647  1.00  0.00     0.048 A 
ATOM     18  C   UNL     1       4.444   1.413   2.635  1.00  0.00    -0.017 A 
ATOM     19  C   UNL     1       4.608   1.704   0.243  1.00  0.00     0.009 A 
ATOM     20  C   UNL     1       3.771   0.943   3.765  1.00  0.00     0.012 A 
ATOM     21  C   UNL     1       5.576   2.229   2.789  1.00  0.00     0.009 A 
ATOM     22  C   UNL     1       5.721   2.535   0.411  1.00  0.00     0.001 A 
ATOM     23  C   UNL     1       6.221   2.776   1.683  1.00  0.00     0.001 A 
BRANCH  15  24
ATOM     24  C   UNL     1       2.344  -0.202  -0.076  1.00  0.00     0.264 C 
ATOM     25  O   UNL     1       1.148  -0.309  -0.320  1.00  0.00    -0.298 OA
ENDBRANCH  15  24
ENDBRANCH  13  14
ENDBRANCH  12  13
ENDBRANCH   7  12
ENDBRANCH   3   6
ENDBRANCH   1   2
BRANCH   1  26
ATOM     26  C   UNL     1       7.196  -3.530   6.679  1.00  0.00     0.042 C 
BRANCH  26  27
ATOM     27  C   UNL     1       8.348  -4.059   7.527  1.00  0.00     0.118 C 
BRANCH  27  28
ATOM     28  N   UNL     1       9.646  -3.712   6.972  1.00  0.00    -0.352 N 
ATOM     29  C   UNL     1      10.710  -3.063   7.551  1.00  0.00     0.251 C 
ATOM     30  H   UNL     1       9.785  -3.984   6.036  1.00  0.00     0.163 HD
ATOM     31  O   UNL     1      11.641  -2.695   6.838  1.00  0.00    -0.269 OA
BRANCH  29  32
ATOM     32  C   UNL     1      10.742  -2.789   9.007  1.00  0.00     0.039 A 
ATOM     33  C   UNL     1      11.280  -1.575   9.448  1.00  0.00     0.014 A 
ATOM     34  C   UNL     1      10.298  -3.729   9.942  1.00  0.00     0.014 A 
ATOM     35  C   UNL     1      11.325  -1.284  10.815  1.00  0.00     0.010 A 
ATOM     36  C   UNL     1      10.278  -3.409  11.300  1.00  0.00     0.010 A 
ATOM     37  C   UNL     1      10.798  -2.188  11.751  1.00  0.00    -0.014 A 
BRANCH  37  38
ATOM     38  C   UNL     1      10.788  -1.872  13.204  1.00  0.00     0.031 A 
ATOM     39  C   UNL     1      11.590  -2.706  14.168  1.00  0.00     0.074 A 
ATOM     40  C   UNL     1      10.011  -0.871  13.662  1.00  0.00     0.049 A 
ATOM     41  N   UNL     1      11.654  -2.629  15.472  1.00  0.00    -0.248 NA
ATOM     42  C   UNL     1      12.409  -3.784  13.591  1.00  0.00     0.031 C 
ATOM     43  C   UNL     1       9.156  -0.018  12.833  1.00  0.00     0.029 A 
ATOM     44  N   UNL     1       9.805  -0.406  14.937  1.00  0.00    -0.354 N 
ATOM     45  C   UNL     1      12.506  -3.652  15.873  1.00  0.00     0.074 A 
ATOM     46  C   UNL     1      12.895  -4.368  14.677  1.00  0.00     0.031 C 
ATOM     47  C   UNL     1       8.533   0.876  13.617  1.00  0.00     0.029 A 
ATOM     48  C   UNL     1       8.913   0.639  15.007  1.00  0.00     0.049 A 
ATOM     49  H   UNL     1      10.253  -0.785  15.727  1.00  0.00     0.167 HD
ATOM     50  C   UNL     1      12.940  -3.955  17.120  1.00  0.00     0.037 A 
ATOM     51  C   UNL     1       8.447   1.323  16.070  1.00  0.00     0.037 A 
ATOM     52  C   UNL     1      12.568  -3.223  18.303  1.00  0.00     0.049 A 
ATOM     53  C   UNL     1       8.943   0.968  17.445  1.00  0.00     0.074 A 
ATOM     54  C   UNL     1      12.996  -3.416  19.605  1.00  0.00     0.029 A 
ATOM     55  N   UNL     1      11.677  -2.160  18.330  1.00  0.00    -0.354 N 
ATOM     56  N   UNL     1       9.793   0.033  17.798  1.00  0.00    -0.248 NA
ATOM     57  C   UNL     1       8.422   1.763  18.565  1.00  0.00     0.031 C 
ATOM     58  C   UNL     1      12.334  -2.496  20.425  1.00  0.00     0.029 A 
ATOM     59  C   UNL     1      11.529  -1.698  19.628  1.00  0.00     0.049 A 
ATOM     60  H   UNL     1      11.218  -1.788  17.542  1.00  0.00     0.167 HD
ATOM     61  C   UNL     1       9.929   0.145  19.177  1.00  0.00     0.074 A 
ATOM     62  C   UNL     1       9.083   1.245  19.592  1.00  0.00     0.031 C 
ATOM     63  C   UNL     1      10.686  -0.597  20.023  1.00  0.00     0.037 A 
BRANCH  50  64
ATOM     64  C   UNL     1      13.873  -5.127  17.268  1.00  0.00     0.058 A 
ATOM     65  C   UNL     1      15.197  -5.079  16.802  1.00  0.00     0.135 A 
ATOM     66  C   UNL     1      13.451  -6.301  17.913  1.00  0.00     0.135 A 
ATOM     67  F   UNL     1      15.650  -3.987  16.166  1.00  0.00    -0.206 F 
ATOM     68  C   UNL     1      16.058  -6.163  16.939  1.00  0.00     0.059 A 
ATOM     69  C   UNL     1      14.304  -7.388  18.087  1.00  0.00     0.059 A 
ATOM     70  F   UNL     1      12.197  -6.402  18.381  1.00  0.00    -0.206 F 
ATOM     71  C   UNL     1      15.601  -7.315  17.582  1.00  0.00     0.060 A 
BRANCH  71  72
ATOM     72  S   UNL     1      16.730  -8.713  17.751  1.00  0.00     0.124 S 
ATOM     73  O   UNL     1      16.766  -9.223  16.384  1.00  0.00    -0.237 OA
ATOM     74  O   UNL     1      17.955  -8.071  18.219  1.00  0.00    -0.237 OA
ATOM     75  O   UNL     1      16.065  -9.572  18.724  1.00  0.00    -0.744 OA
ENDBRANCH  71  72
ENDBRANCH  50  64
BRANCH  51  76
ATOM     76  C   UNL     1       7.473   2.429  15.871  1.00  0.00     0.058 A 
ATOM     77  C   UNL     1       7.851   3.766  16.060  1.00  0.00     0.135 A 
ATOM     78  C   UNL     1       6.152   2.174  15.470  1.00  0.00     0.135 A 
ATOM     79  F   UNL     1       9.102   4.060  16.448  1.00  0.00    -0.206 F 
ATOM     80  C   UNL     1       6.953   4.812  15.874  1.00  0.00     0.059 A 
ATOM     81  C   UNL     1       5.242   3.204  15.254  1.00  0.00     0.059 A 
ATOM     82  F   UNL     1       5.745   0.913  15.258  1.00  0.00    -0.206 F 
ATOM     83  C   UNL     1       5.650   4.520  15.468  1.00  0.00     0.060 A 
BRANCH  83  84
ATOM     84  S   UNL     1       4.507   5.887  15.175  1.00  0.00     0.124 S 
ATOM     85  O   UNL     1       4.200   6.311  16.536  1.00  0.00    -0.237 OA
ATOM     86  O   UNL     1       5.323   6.806  14.388  1.00  0.00    -0.237 OA
ATOM     87  O   UNL     1       3.410   5.256  14.447  1.00  0.00    -0.744 OA
ENDBRANCH  83  84
ENDBRANCH  51  76
BRANCH  63  88
ATOM     88  C   UNL     1      10.660  -0.224  21.480  1.00  0.00     0.058 A 
ATOM     89  C   UNL     1       9.548  -0.495  22.291  1.00  0.00     0.135 A 
ATOM     90  C   UNL     1      11.783   0.370  22.081  1.00  0.00     0.135 A 
ATOM     91  F   UNL     1       8.447  -1.054  21.765  1.00  0.00    -0.206 F 
ATOM     92  C   UNL     1       9.541  -0.171  23.644  1.00  0.00     0.059 A 
ATOM     93  C   UNL     1      11.807   0.678  23.437  1.00  0.00     0.059 A 
ATOM     94  F   UNL     1      12.876   0.641  21.351  1.00  0.00    -0.206 F 
ATOM     95  C   UNL     1      10.676   0.415  24.208  1.00  0.00     0.060 A 
BRANCH  95  96
ATOM     96  S   UNL     1      10.666   0.802  25.971  1.00  0.00     0.124 S 
ATOM     97  O   UNL     1       9.807   1.981  26.009  1.00  0.00    -0.237 OA
ATOM     98  O   UNL     1      10.102  -0.412  26.555  1.00  0.00    -0.237 OA
ATOM     99  O   UNL     1      12.074   1.040  26.275  1.00  0.00    -0.744 OA
ENDBRANCH  95  96
ENDBRANCH  63  88
ENDBRANCH  37  38
ENDBRANCH  29  32
ENDBRANCH  27  28
ENDBRANCH  26  27
ENDBRANCH   1  26
TORSDOF 17
