REMARK SMILES Cc1cccc(-c2ccccc2C(=O)N2CC[C@H](O)C[C@@H]2C(=O)NCCCNC(=O)c2ccc(-c3c4nc(c(-c5c(F)cc(S(=O)(=O)[O-])cc5F)c5ccc([nH]5)c(-c5c(F)cc(S(=O)(=O)[O-])cc5F)c5nc(c(-c6c(F)cc(S(=O)(=O)[O-])cc6F)c6ccc3[nH]6)C=C5)C=C4)cc2)c1
REMARK SMILES IDX 26 1 25 2 24 3 22 4 23 5 21 7 15 8 16 9 17 10 20 11 18 12
REMARK SMILES IDX 13 13 14 14 12 15 7 16 8 17 9 18 11 19 10 20 6 21 1 22 2 23
REMARK SMILES IDX 3 24 97 25 4 26 5 27 19 28 27 30 28 31 29 32 30 34 31 35
REMARK SMILES IDX 32 36 96 37 33 38 95 39 34 40 35 41 36 42 89 43 37 44 94 45
REMARK SMILES IDX 88 46 90 47 38 48 93 49 87 50 86 51 39 53 73 54 52 55 72 56
REMARK SMILES IDX 53 57 56 58 71 59 91 60 54 61 55 62 70 64 92 65 57 66 40 67
REMARK SMILES IDX 41 68 50 69 42 70 43 71 49 72 51 73 44 74 45 75 46 76 47 77
REMARK SMILES IDX 48 78 74 79 75 80 84 81 76 82 77 83 83 84 85 85 78 86 79 87
REMARK SMILES IDX 80 88 81 89 82 90 58 91 59 92 68 93 60 94 61 95 67 96 69 97
REMARK SMILES IDX 62 98 63 99 64 100 65 101 66 102
REMARK H PARENT 24 6 19 29 28 33 90 52 56 63
REMARK Flexibility Score: inf
ROOT
ATOM      1  C   UNL     1      -4.364   2.777  -3.852  1.00  0.00     0.042 C 
ENDROOT
BRANCH   1   2
ATOM      2  C   UNL     1      -3.683   2.893  -5.212  1.00  0.00     0.117 C 
BRANCH   2   3
ATOM      3  N   UNL     1      -3.124   4.219  -5.459  1.00  0.00    -0.354 N 
ATOM      4  C   UNL     1      -1.854   4.696  -5.322  1.00  0.00     0.242 C 
ATOM      5  O   UNL     1      -1.660   5.888  -5.593  1.00  0.00    -0.273 OA
ATOM      6  H   UNL     1      -3.777   4.883  -5.778  1.00  0.00     0.163 HD
BRANCH   4   7
ATOM      7  C   UNL     1      -0.717   3.829  -4.730  1.00  0.00     0.177 C 
ATOM      8  N   UNL     1      -0.619   4.078  -3.280  1.00  0.00    -0.326 N 
ATOM      9  C   UNL     1      -0.013   5.345  -2.864  1.00  0.00     0.123 C 
ATOM     10  C   UNL     1       1.377   5.504  -3.464  1.00  0.00     0.053 C 
ATOM     11  C   UNL     1       0.626   4.080  -5.437  1.00  0.00     0.067 C 
ATOM     12  C   UNL     1       1.377   5.332  -4.978  1.00  0.00     0.118 C 
BRANCH   8  13
ATOM     13  C   UNL     1      -1.170   3.120  -2.427  1.00  0.00     0.255 C 
ATOM     14  O   UNL     1      -1.346   1.963  -2.808  1.00  0.00    -0.269 OA
BRANCH  13  15
ATOM     15  C   UNL     1      -1.702   3.515  -1.085  1.00  0.00     0.047 A 
ATOM     16  C   UNL     1      -1.689   2.615   0.006  1.00  0.00    -0.006 A 
ATOM     17  C   UNL     1      -2.407   2.968   1.169  1.00  0.00     0.009 A 
ATOM     18  C   UNL     1      -3.115   4.167   1.256  1.00  0.00     0.001 A 
ATOM     19  C   UNL     1      -2.434   4.716  -0.986  1.00  0.00     0.014 A 
ATOM     20  C   UNL     1      -3.123   5.046   0.181  1.00  0.00     0.001 A 
BRANCH  16  21
ATOM     21  C   UNL     1      -0.991   1.318  -0.007  1.00  0.00    -0.017 A 
ATOM     22  C   UNL     1       2.573  -0.056   0.050  1.00  0.00     0.044 C 
ATOM     23  C   UNL     1       1.075   0.013   0.036  1.00  0.00    -0.051 A 
ATOM     24  C   UNL     1       0.324  -1.168   0.019  1.00  0.00     0.003 A 
ATOM     25  C   UNL     1       0.411   1.249   0.022  1.00  0.00     0.012 A 
ATOM     26  C   UNL     1      -1.068  -1.116  -0.011  1.00  0.00     0.001 A 
ATOM     27  C   UNL     1      -1.720   0.118  -0.023  1.00  0.00     0.009 A 
ENDBRANCH  16  21
ENDBRANCH  13  15
ENDBRANCH   8  13
BRANCH  12  28
ATOM     28  O   UNL     1       0.902   6.514  -5.611  1.00  0.00    -0.393 OA
ATOM     29  H   UNL     1      -0.018   6.675  -5.347  1.00  0.00     0.210 HD
ENDBRANCH  12  28
ENDBRANCH   4   7
ENDBRANCH   2   3
ENDBRANCH   1   2
BRANCH   1  30
ATOM     30  C   UNL     1      -5.625   3.622  -3.719  1.00  0.00     0.118 C 
BRANCH  30  31
ATOM     31  N   UNL     1      -6.830   2.831  -3.521  1.00  0.00    -0.352 N 
ATOM     32  C   UNL     1      -8.070   3.275  -3.098  1.00  0.00     0.251 C 
ATOM     33  H   UNL     1      -6.754   1.868  -3.711  1.00  0.00     0.163 HD
ATOM     34  O   UNL     1      -8.927   2.516  -2.676  1.00  0.00    -0.269 OA
BRANCH  32  35
ATOM     35  C   UNL     1      -8.373   4.704  -3.319  1.00  0.00     0.039 A 
ATOM     36  C   UNL     1      -9.291   5.009  -4.331  1.00  0.00     0.014 A 
ATOM     37  C   UNL     1      -7.591   5.697  -2.737  1.00  0.00     0.014 A 
ATOM     38  C   UNL     1      -9.309   6.290  -4.880  1.00  0.00     0.010 A 
ATOM     39  C   UNL     1      -7.556   6.943  -3.336  1.00  0.00     0.010 A 
ATOM     40  C   UNL     1      -8.382   7.231  -4.436  1.00  0.00    -0.014 A 
BRANCH  40  41
ATOM     41  C   UNL     1      -8.116   8.496  -5.122  1.00  0.00     0.031 A 
ATOM     42  C   UNL     1      -8.443   9.795  -4.481  1.00  0.00     0.074 A 
ATOM     43  C   UNL     1      -7.451   8.495  -6.298  1.00  0.00     0.049 A 
ATOM     44  N   UNL     1      -8.455  10.934  -5.090  1.00  0.00    -0.248 NA
ATOM     45  C   UNL     1      -8.826   9.898  -3.079  1.00  0.00     0.031 C 
ATOM     46  C   UNL     1      -6.761   9.621  -6.919  1.00  0.00     0.029 A 
ATOM     47  N   UNL     1      -7.436   7.501  -7.277  1.00  0.00    -0.354 N 
ATOM     48  C   UNL     1      -8.584  11.928  -4.146  1.00  0.00     0.074 A 
ATOM     49  C   UNL     1      -8.847  11.224  -2.911  1.00  0.00     0.031 C 
ATOM     50  C   UNL     1      -6.601   9.369  -8.226  1.00  0.00     0.029 A 
ATOM     51  C   UNL     1      -7.314   8.142  -8.527  1.00  0.00     0.049 A 
ATOM     52  H   UNL     1      -7.498   6.530  -7.123  1.00  0.00     0.167 HD
ATOM     53  C   UNL     1      -8.351  13.228  -4.497  1.00  0.00     0.037 A 
ATOM     54  C   UNL     1      -8.300   8.025  -9.467  1.00  0.00     0.037 A 
ATOM     55  C   UNL     1      -8.139  13.366  -5.938  1.00  0.00     0.049 A 
ATOM     56  C   UNL     1      -9.035   9.313  -9.779  1.00  0.00     0.074 A 
ATOM     57  C   UNL     1      -7.025  13.470  -6.754  1.00  0.00     0.029 A 
ATOM     58  N   UNL     1      -9.210  13.141  -6.784  1.00  0.00    -0.354 N 
ATOM     59  N   UNL     1      -8.746  10.473  -9.258  1.00  0.00    -0.248 NA
ATOM     60  C   UNL     1     -10.211   9.378 -10.652  1.00  0.00     0.031 C 
ATOM     61  C   UNL     1      -7.436  13.247  -8.100  1.00  0.00     0.029 A 
ATOM     62  C   UNL     1      -8.798  13.010  -8.097  1.00  0.00     0.049 A 
ATOM     63  H   UNL     1     -10.147  13.081  -6.489  1.00  0.00     0.167 HD
ATOM     64  C   UNL     1      -9.707  11.379  -9.615  1.00  0.00     0.074 A 
ATOM     65  C   UNL     1     -10.580  10.664 -10.524  1.00  0.00     0.031 C 
ATOM     66  C   UNL     1      -9.776  12.637  -9.101  1.00  0.00     0.037 A 
BRANCH  53  67
ATOM     67  C   UNL     1      -8.100  14.349  -3.506  1.00  0.00     0.058 A 
ATOM     68  C   UNL     1      -7.259  15.434  -3.843  1.00  0.00     0.135 A 
ATOM     69  C   UNL     1      -8.608  14.393  -2.193  1.00  0.00     0.135 A 
ATOM     70  F   UNL     1      -6.782  15.592  -5.085  1.00  0.00    -0.206 F 
ATOM     71  C   UNL     1      -6.855  16.401  -2.920  1.00  0.00     0.059 A 
ATOM     72  C   UNL     1      -8.171  15.312  -1.234  1.00  0.00     0.059 A 
ATOM     73  F   UNL     1      -9.596  13.578  -1.801  1.00  0.00    -0.206 F 
ATOM     74  C   UNL     1      -7.280  16.308  -1.603  1.00  0.00     0.060 A 
BRANCH  74  75
ATOM     75  S   UNL     1      -6.657  17.493  -0.397  1.00  0.00     0.124 S 
ATOM     76  O   UNL     1      -5.212  17.385  -0.576  1.00  0.00    -0.237 OA
ATOM     77  O   UNL     1      -7.263  18.739  -0.854  1.00  0.00    -0.237 OA
ATOM     78  O   UNL     1      -7.161  16.980   0.874  1.00  0.00    -0.744 OA
ENDBRANCH  74  75
ENDBRANCH  53  67
BRANCH  54  79
ATOM     79  C   UNL     1      -8.884   6.656  -9.498  1.00  0.00     0.058 A 
ATOM     80  C   UNL     1      -8.039   5.610  -9.918  1.00  0.00     0.135 A 
ATOM     81  C   UNL     1      -9.996   6.323  -8.714  1.00  0.00     0.135 A 
ATOM     82  F   UNL     1      -6.974   5.876 -10.692  1.00  0.00    -0.206 F 
ATOM     83  C   UNL     1      -8.173   4.322  -9.416  1.00  0.00     0.059 A 
ATOM     84  C   UNL     1     -10.158   5.032  -8.211  1.00  0.00     0.059 A 
ATOM     85  F   UNL     1     -10.841   7.278  -8.298  1.00  0.00    -0.206 F 
ATOM     86  C   UNL     1      -9.191   4.067  -8.500  1.00  0.00     0.060 A 
BRANCH  86  87
ATOM     87  S   UNL     1      -9.105   2.529  -7.554  1.00  0.00     0.124 S 
ATOM     88  O   UNL     1      -9.024   1.524  -8.608  1.00  0.00    -0.237 OA
ATOM     89  O   UNL     1      -7.881   2.730  -6.779  1.00  0.00    -0.237 OA
ATOM     90  O   UNL     1     -10.344   2.541  -6.787  1.00  0.00    -0.744 OA
ENDBRANCH  86  87
ENDBRANCH  54  79
BRANCH  66  91
ATOM     91  C   UNL     1     -10.816  13.619  -9.528  1.00  0.00     0.058 A 
ATOM     92  C   UNL     1     -10.912  14.036 -10.864  1.00  0.00     0.135 A 
ATOM     93  C   UNL     1     -11.636  14.272  -8.590  1.00  0.00     0.135 A 
ATOM     94  F   UNL     1     -10.153  13.463 -11.811  1.00  0.00    -0.206 F 
ATOM     95  C   UNL     1     -11.775  15.059 -11.251  1.00  0.00     0.059 A 
ATOM     96  C   UNL     1     -12.481  15.317  -8.948  1.00  0.00     0.059 A 
ATOM     97  F   UNL     1     -11.635  13.899  -7.300  1.00  0.00    -0.206 F 
ATOM     98  C   UNL     1     -12.549  15.700 -10.284  1.00  0.00     0.060 A 
BRANCH  98  99
ATOM     99  S   UNL     1     -13.613  17.077 -10.762  1.00  0.00     0.124 S 
ATOM    100  O   UNL     1     -12.914  17.647 -11.910  1.00  0.00    -0.237 OA
ATOM    101  O   UNL     1     -14.862  16.386 -11.065  1.00  0.00    -0.237 OA
ATOM    102  O   UNL     1     -13.628  17.914  -9.567  1.00  0.00    -0.744 OA
ENDBRANCH  98  99
ENDBRANCH  66  91
ENDBRANCH  40  41
ENDBRANCH  32  35
ENDBRANCH  30  31
ENDBRANCH   1  30
TORSDOF 17
