REMARK SMILES COc1ccc(NCc2ccc(C(=O)NCCCNC(=O)c3ccc(-c4c5nc(c(-c6c(F)cc(S(=O)(=O)[O-])cc6F)c6ccc([nH]6)c(-c6c(F)cc(S(=O)(=O)[O-])cc6F)c6nc(c(-c7c(F)cc(S(=O)(=O)[O-])cc7F)c7ccc4[nH]7)C=C6)C=C5)cc3)o2)cc1
REMARK SMILES IDX 16 1 15 2 13 3 14 4 12 6 9 7 10 8 88 9 11 10 8 11 7 12 6 14
REMARK SMILES IDX 3 15 4 16 90 17 5 18 89 19 2 20 1 21 17 22 18 23 19 24 20 25
REMARK SMILES IDX 21 27 22 28 23 29 87 30 24 31 86 32 25 33 26 34 27 35 80 36
REMARK SMILES IDX 28 37 85 38 79 39 81 40 29 41 84 42 78 43 77 44 30 46 64 47
REMARK SMILES IDX 43 48 63 49 44 50 47 51 62 52 82 53 45 54 46 55 61 57 83 58
REMARK SMILES IDX 48 59 31 60 32 61 41 62 33 63 34 64 40 65 42 66 35 67 36 68
REMARK SMILES IDX 37 69 38 70 39 71 65 72 66 73 75 74 67 75 68 76 74 77 76 78
REMARK SMILES IDX 69 79 70 80 71 81 72 82 73 83 49 84 50 85 59 86 51 87 52 88
REMARK SMILES IDX 58 89 60 90 53 91 54 92 55 93 56 94 57 95
REMARK H PARENT 15 5 7 13 19 26 81 45 47 56
REMARK Flexibility Score: inf
ROOT
ATOM      1  C   UNL     1       0.246   9.617  -6.960  1.00  0.00     0.118 C 
ENDROOT
BRANCH   1   2
ATOM      2  N   UNL     1       1.621   9.161  -6.965  1.00  0.00    -0.349 N 
ATOM      3  C   UNL     1       2.155   7.896  -6.877  1.00  0.00     0.286 C 
ATOM      4  O   UNL     1       3.373   7.820  -7.061  1.00  0.00    -0.266 OA
ATOM      5  H   UNL     1       2.289   9.880  -7.044  1.00  0.00     0.163 HD
BRANCH   3   6
ATOM      6  C   UNL     1       1.327   6.735  -6.609  1.00  0.00     0.191 A 
ATOM      7  C   UNL     1       0.976   4.545  -6.596  1.00  0.00     0.124 A 
ATOM      8  C   UNL     1      -0.153   5.117  -6.058  1.00  0.00     0.048 A 
ATOM      9  O   UNL     1       1.870   5.515  -6.933  1.00  0.00    -0.454 OA
ATOM     10  C   UNL     1       0.080   6.517  -6.047  1.00  0.00     0.056 A 
BRANCH   7  11
ATOM     11  C   UNL     1       1.409   3.142  -6.837  1.00  0.00     0.188 C 
BRANCH  11  12
ATOM     12  N   UNL     1       2.229   2.587  -5.772  1.00  0.00    -0.378 N 
ATOM     13  H   UNL     1       3.205   2.681  -5.860  1.00  0.00     0.161 HD
BRANCH  12  14
ATOM     14  C   UNL     1       1.756   1.939  -4.648  1.00  0.00     0.035 A 
ATOM     15  C   UNL     1       0.949   0.489  -2.352  1.00  0.00     0.119 A 
ATOM     16  C   UNL     1       0.033   0.797  -3.353  1.00  0.00     0.048 A 
ATOM     17  C   UNL     1       2.276   0.874  -2.503  1.00  0.00     0.048 A 
ATOM     18  C   UNL     1       0.433   1.518  -4.487  1.00  0.00     0.029 A 
ATOM     19  C   UNL     1       2.670   1.586  -3.644  1.00  0.00     0.029 A 
BRANCH  15  20
ATOM     20  O   UNL     1       0.466  -0.242  -1.302  1.00  0.00    -0.497 OA
ATOM     21  C   UNL     1       1.013   0.114  -0.036  1.00  0.00     0.278 C 
ENDBRANCH  15  20
ENDBRANCH  12  14
ENDBRANCH  11  12
ENDBRANCH   7  11
ENDBRANCH   3   6
ENDBRANCH   1   2
BRANCH   1  22
ATOM     22  C   UNL     1      -0.147  10.233  -5.620  1.00  0.00     0.042 C 
BRANCH  22  23
ATOM     23  C   UNL     1       0.441  11.626  -5.391  1.00  0.00     0.118 C 
BRANCH  23  24
ATOM     24  N   UNL     1      -0.105  12.611  -6.316  1.00  0.00    -0.352 N 
ATOM     25  C   UNL     1      -0.778  13.784  -6.077  1.00  0.00     0.251 C 
ATOM     26  H   UNL     1       0.032  12.402  -7.269  1.00  0.00     0.163 HD
ATOM     27  O   UNL     1      -1.342  14.346  -7.013  1.00  0.00    -0.269 OA
BRANCH  25  28
ATOM     28  C   UNL     1      -0.837  14.371  -4.719  1.00  0.00     0.039 A 
ATOM     29  C   UNL     1      -2.026  14.979  -4.303  1.00  0.00     0.014 A 
ATOM     30  C   UNL     1       0.281  14.386  -3.882  1.00  0.00     0.014 A 
ATOM     31  C   UNL     1      -2.109  15.554  -3.031  1.00  0.00     0.010 A 
ATOM     32  C   UNL     1       0.178  14.902  -2.590  1.00  0.00     0.010 A 
ATOM     33  C   UNL     1      -1.015  15.497  -2.154  1.00  0.00    -0.014 A 
BRANCH  33  34
ATOM     34  C   UNL     1      -1.100  16.053  -0.778  1.00  0.00     0.031 A 
ATOM     35  C   UNL     1      -0.231  17.215  -0.374  1.00  0.00     0.074 A 
ATOM     36  C   UNL     1      -1.908  15.467   0.127  1.00  0.00     0.049 A 
ATOM     37  N   UNL     1      -0.099  17.779   0.798  1.00  0.00    -0.248 NA
ATOM     38  C   UNL     1       0.622  17.801  -1.421  1.00  0.00     0.031 C 
ATOM     39  C   UNL     1      -2.763  14.306  -0.129  1.00  0.00     0.029 A 
ATOM     40  N   UNL     1      -2.132  15.757   1.450  1.00  0.00    -0.354 N 
ATOM     41  C   UNL     1       0.865  18.769   0.638  1.00  0.00     0.074 A 
ATOM     42  C   UNL     1       1.313  18.701  -0.736  1.00  0.00     0.031 C 
ATOM     43  C   UNL     1      -3.425  13.989   0.995  1.00  0.00     0.029 A 
ATOM     44  C   UNL     1      -3.018  14.900   2.061  1.00  0.00     0.049 A 
ATOM     45  H   UNL     1      -1.699  16.507   1.918  1.00  0.00     0.167 HD
ATOM     46  C   UNL     1       1.320  19.663   1.549  1.00  0.00     0.037 A 
ATOM     47  C   UNL     1      -3.447  14.847   3.337  1.00  0.00     0.037 A 
ATOM     48  C   UNL     1       0.844  19.747   2.905  1.00  0.00     0.049 A 
ATOM     49  C   UNL     1      -2.946  15.867   4.322  1.00  0.00     0.074 A 
ATOM     50  C   UNL     1       1.193  20.660   3.885  1.00  0.00     0.029 A 
ATOM     51  N   UNL     1      -0.087  18.889   3.473  1.00  0.00    -0.354 N 
ATOM     52  N   UNL     1      -2.079  16.834   4.137  1.00  0.00    -0.248 NA
ATOM     53  C   UNL     1      -3.485  15.795   5.687  1.00  0.00     0.031 C 
ATOM     54  C   UNL     1       0.502  20.332   5.056  1.00  0.00     0.029 A 
ATOM     55  C   UNL     1      -0.312  19.242   4.793  1.00  0.00     0.049 A 
ATOM     56  H   UNL     1      -0.522  18.140   3.007  1.00  0.00     0.167 HD
ATOM     57  C   UNL     1      -1.991  17.503   5.353  1.00  0.00     0.074 A 
ATOM     58  C   UNL     1      -2.898  16.835   6.263  1.00  0.00     0.031 C 
ATOM     59  C   UNL     1      -1.228  18.574   5.684  1.00  0.00     0.037 A 
BRANCH  46  60
ATOM     60  C   UNL     1       2.388  20.628   1.108  1.00  0.00     0.058 A 
ATOM     61  C   UNL     1       2.111  21.677   0.217  1.00  0.00     0.135 A 
ATOM     62  C   UNL     1       3.694  20.527   1.614  1.00  0.00     0.135 A 
ATOM     63  F   UNL     1       0.883  21.812  -0.308  1.00  0.00    -0.206 F 
ATOM     64  C   UNL     1       3.098  22.574  -0.180  1.00  0.00     0.059 A 
ATOM     65  C   UNL     1       4.690  21.430   1.252  1.00  0.00     0.059 A 
ATOM     66  F   UNL     1       4.013  19.544   2.470  1.00  0.00    -0.206 F 
ATOM     67  C   UNL     1       4.385  22.441   0.342  1.00  0.00     0.060 A 
BRANCH  67  68
ATOM     68  S   UNL     1       5.653  23.617  -0.178  1.00  0.00     0.124 S 
ATOM     69  O   UNL     1       5.936  23.156  -1.534  1.00  0.00    -0.237 OA
ATOM     70  O   UNL     1       4.956  24.895  -0.076  1.00  0.00    -0.237 OA
ATOM     71  O   UNL     1       6.725  23.412   0.791  1.00  0.00    -0.744 OA
ENDBRANCH  67  68
ENDBRANCH  46  60
BRANCH  47  72
ATOM     72  C   UNL     1      -4.421  13.802   3.747  1.00  0.00     0.058 A 
ATOM     73  C   UNL     1      -5.753  14.131   4.035  1.00  0.00     0.135 A 
ATOM     74  C   UNL     1      -4.045  12.453   3.841  1.00  0.00     0.135 A 
ATOM     75  F   UNL     1      -6.159  15.408   3.965  1.00  0.00    -0.206 F 
ATOM     76  C   UNL     1      -6.677  13.163   4.417  1.00  0.00     0.059 A 
ATOM     77  C   UNL     1      -4.957  11.463   4.197  1.00  0.00     0.059 A 
ATOM     78  F   UNL     1      -2.787  12.083   3.557  1.00  0.00    -0.206 F 
ATOM     79  C   UNL     1      -6.269  11.831   4.493  1.00  0.00     0.060 A 
BRANCH  79  80
ATOM     80  S   UNL     1      -7.488  10.574   4.938  1.00  0.00     0.124 S 
ATOM     81  O   UNL     1      -7.630  10.799   6.372  1.00  0.00    -0.237 OA
ATOM     82  O   UNL     1      -8.633  10.951   4.115  1.00  0.00    -0.237 OA
ATOM     83  O   UNL     1      -6.835   9.326   4.555  1.00  0.00    -0.744 OA
ENDBRANCH  79  80
ENDBRANCH  47  72
BRANCH  59  84
ATOM     84  C   UNL     1      -1.368  19.118   7.078  1.00  0.00     0.058 A 
ATOM     85  C   UNL     1      -0.827  18.452   8.188  1.00  0.00     0.135 A 
ATOM     86  C   UNL     1      -2.008  20.348   7.297  1.00  0.00     0.135 A 
ATOM     87  F   UNL     1      -0.212  17.269   8.033  1.00  0.00    -0.206 F 
ATOM     88  C   UNL     1      -0.935  18.977   9.472  1.00  0.00     0.059 A 
ATOM     89  C   UNL     1      -2.105  20.904   8.569  1.00  0.00     0.059 A 
ATOM     90  F   UNL     1      -2.534  21.030   6.267  1.00  0.00    -0.206 F 
ATOM     91  C   UNL     1      -1.575  20.205   9.652  1.00  0.00     0.060 A 
BRANCH  91  92
ATOM     92  S   UNL     1      -1.678  20.893  11.318  1.00  0.00     0.124 S 
ATOM     93  O   UNL     1      -2.726  20.069  11.911  1.00  0.00    -0.237 OA
ATOM     94  O   UNL     1      -0.330  20.673  11.832  1.00  0.00    -0.237 OA
ATOM     95  O   UNL     1      -2.033  22.290  11.086  1.00  0.00    -0.744 OA
ENDBRANCH  91  92
ENDBRANCH  59  84
ENDBRANCH  33  34
ENDBRANCH  25  28
ENDBRANCH  23  24
ENDBRANCH  22  23
ENDBRANCH   1  22
TORSDOF 17
