REMARK SMILES Cc1cc(C(=O)N[C@H]2C=C[C@H](C(=O)NCCCNC(=O)c3ccc(-c4c5nc(c(-c6c(F)cc(S(=O)(=O)[O-])cc6F)c6ccc([nH]6)c(-c6c(F)cc(S(=O)(=O)[O-])cc6F)c6nc(c(-c7c(F)cc(S(=O)(=O)[O-])cc7F)c7ccc4[nH]7)C=C6)C=C5)cc3)C2)ccc1F
REMARK SMILES IDX 16 1 15 2 14 3 12 4 13 5 11 7 8 8 9 9 87 10 10 11 7 12 5 13
REMARK SMILES IDX 6 14 4 16 1 17 2 18 3 19 90 20 89 21 91 22 88 23 17 24 18 25
REMARK SMILES IDX 19 26 20 28 21 29 22 30 86 31 23 32 85 33 24 34 25 35 26 36
REMARK SMILES IDX 79 37 27 38 84 39 78 40 80 41 28 42 83 43 77 44 76 45 29 47
REMARK SMILES IDX 63 48 42 49 62 50 43 51 46 52 61 53 81 54 44 55 45 56 60 58
REMARK SMILES IDX 82 59 47 60 30 61 31 62 40 63 32 64 33 65 39 66 41 67 34 68
REMARK SMILES IDX 35 69 36 70 37 71 38 72 64 73 65 74 74 75 66 76 67 77 73 78
REMARK SMILES IDX 75 79 68 80 69 81 70 82 71 83 72 84 48 85 49 86 58 87 50 88
REMARK SMILES IDX 51 89 57 90 59 91 52 92 53 93 54 94 55 95 56 96
REMARK H PARENT 14 6 7 15 18 27 80 46 46 57
REMARK Flexibility Score: inf
ROOT
ATOM      1  C   UNL     1      -0.483   7.732   1.401  1.00  0.00     0.042 C 
ENDROOT
BRANCH   1   2
ATOM      2  C   UNL     1      -0.505   6.698   0.282  1.00  0.00     0.117 C 
BRANCH   2   3
ATOM      3  N   UNL     1       0.172   5.485   0.706  1.00  0.00    -0.356 N 
ATOM      4  C   UNL     1      -0.197   4.570   1.636  1.00  0.00     0.227 C 
ATOM      5  O   UNL     1       0.671   3.774   2.010  1.00  0.00    -0.274 OA
ATOM      6  H   UNL     1       1.024   5.300   0.250  1.00  0.00     0.163 HD
BRANCH   4   7
ATOM      7  C   UNL     1      -1.648   4.433   2.157  1.00  0.00     0.103 C 
ATOM      8  C   UNL     1      -2.659   3.291   0.316  1.00  0.00     0.106 C 
ATOM      9  C   UNL     1      -3.357   4.593   0.540  1.00  0.00    -0.006 C 
ATOM     10  C   UNL     1      -2.109   3.036   1.721  1.00  0.00     0.047 C 
ATOM     11  C   UNL     1      -2.773   5.239   1.563  1.00  0.00    -0.016 C 
BRANCH   8  12
ATOM     12  N   UNL     1      -3.542   2.270  -0.165  1.00  0.00    -0.346 N 
ATOM     13  C   UNL     1      -3.265   0.966  -0.502  1.00  0.00     0.251 C 
ATOM     14  O   UNL     1      -4.201   0.244  -0.847  1.00  0.00    -0.269 OA
ATOM     15  H   UNL     1      -4.483   2.542  -0.269  1.00  0.00     0.164 HD
BRANCH  13  16
ATOM     16  C   UNL     1      -1.897   0.369  -0.388  1.00  0.00     0.040 A 
ATOM     17  C   UNL     1       1.805   1.290  -0.381  1.00  0.00     0.047 C 
ATOM     18  C   UNL     1       0.545   0.479  -0.330  1.00  0.00    -0.015 A 
ATOM     19  C   UNL     1      -0.701   1.067  -0.605  1.00  0.00     0.020 A 
ATOM     20  C   UNL     1       0.585  -0.868   0.025  1.00  0.00     0.126 A 
ATOM     21  C   UNL     1      -0.584  -1.610   0.151  1.00  0.00     0.040 A 
ATOM     22  F   UNL     1       1.762  -1.467   0.250  1.00  0.00    -0.207 F 
ATOM     23  C   UNL     1      -1.822  -0.988  -0.036  1.00  0.00     0.017 A 
ENDBRANCH  13  16
ENDBRANCH   8  12
ENDBRANCH   4   7
ENDBRANCH   2   3
ENDBRANCH   1   2
BRANCH   1  24
ATOM     24  C   UNL     1       0.862   8.394   1.394  1.00  0.00     0.118 C 
BRANCH  24  25
ATOM     25  N   UNL     1       1.038   9.210   0.199  1.00  0.00    -0.352 N 
ATOM     26  C   UNL     1       1.320  10.552   0.395  1.00  0.00     0.251 C 
ATOM     27  H   UNL     1       0.959   8.826  -0.704  1.00  0.00     0.163 HD
ATOM     28  O   UNL     1       0.471  11.395   0.613  1.00  0.00    -0.269 OA
BRANCH  26  29
ATOM     29  C   UNL     1       2.763  10.790   0.646  1.00  0.00     0.039 A 
ATOM     30  C   UNL     1       3.313  12.073   0.677  1.00  0.00     0.014 A 
ATOM     31  C   UNL     1       3.511   9.682   1.051  1.00  0.00     0.014 A 
ATOM     32  C   UNL     1       4.627  12.230   1.110  1.00  0.00     0.010 A 
ATOM     33  C   UNL     1       4.699   9.852   1.656  1.00  0.00     0.010 A 
ATOM     34  C   UNL     1       5.290  11.106   1.593  1.00  0.00    -0.014 A 
BRANCH  34  35
ATOM     35  C   UNL     1       6.645  11.019   2.073  1.00  0.00     0.031 A 
ATOM     36  C   UNL     1       6.911  11.429   3.450  1.00  0.00     0.074 A 
ATOM     37  C   UNL     1       7.394  10.169   1.333  1.00  0.00     0.049 A 
ATOM     38  N   UNL     1       8.079  11.650   3.923  1.00  0.00    -0.248 NA
ATOM     39  C   UNL     1       5.846  11.627   4.434  1.00  0.00     0.031 C 
ATOM     40  C   UNL     1       8.568   9.385   1.663  1.00  0.00     0.029 A 
ATOM     41  N   UNL     1       7.177   9.876  -0.018  1.00  0.00    -0.354 N 
ATOM     42  C   UNL     1       7.963  11.637   5.298  1.00  0.00     0.074 A 
ATOM     43  C   UNL     1       6.552  11.779   5.559  1.00  0.00     0.031 C 
ATOM     44  C   UNL     1       9.147   8.982   0.511  1.00  0.00     0.029 A 
ATOM     45  C   UNL     1       8.415   9.601  -0.594  1.00  0.00     0.049 A 
ATOM     46  H   UNL     1       6.307   9.865  -0.478  1.00  0.00     0.167 HD
ATOM     47  C   UNL     1       9.063  11.294   6.030  1.00  0.00     0.037 A 
ATOM     48  C   UNL     1       8.906  10.570  -1.429  1.00  0.00     0.037 A 
ATOM     49  C   UNL     1      10.165  10.970   5.113  1.00  0.00     0.049 A 
ATOM     50  C   UNL     1      10.028  11.328  -0.753  1.00  0.00     0.074 A 
ATOM     51  C   UNL     1      10.631   9.759   4.625  1.00  0.00     0.029 A 
ATOM     52  N   UNL     1      10.655  11.950   4.253  1.00  0.00    -0.354 N 
ATOM     53  N   UNL     1      10.164  11.448   0.542  1.00  0.00    -0.248 NA
ATOM     54  C   UNL     1      11.155  11.892  -1.487  1.00  0.00     0.031 C 
ATOM     55  C   UNL     1      11.318  10.013   3.407  1.00  0.00     0.029 A 
ATOM     56  C   UNL     1      11.267  11.374   3.151  1.00  0.00     0.049 A 
ATOM     57  H   UNL     1      10.577  12.919   4.406  1.00  0.00     0.167 HD
ATOM     58  C   UNL     1      11.371  12.021   0.828  1.00  0.00     0.074 A 
ATOM     59  C   UNL     1      11.949  12.293  -0.478  1.00  0.00     0.031 C 
ATOM     60  C   UNL     1      11.835  12.209   2.101  1.00  0.00     0.037 A 
BRANCH  47  61
ATOM     61  C   UNL     1       9.072  10.943   7.507  1.00  0.00     0.058 A 
ATOM     62  C   UNL     1      10.092  10.119   8.037  1.00  0.00     0.135 A 
ATOM     63  C   UNL     1       8.131  11.387   8.460  1.00  0.00     0.135 A 
ATOM     64  F   UNL     1      11.093   9.661   7.275  1.00  0.00    -0.206 F 
ATOM     65  C   UNL     1      10.146   9.729   9.376  1.00  0.00     0.059 A 
ATOM     66  C   UNL     1       8.141  10.977   9.800  1.00  0.00     0.059 A 
ATOM     67  F   UNL     1       7.191  12.289   8.150  1.00  0.00    -0.206 F 
ATOM     68  C   UNL     1       9.160  10.153  10.253  1.00  0.00     0.060 A 
BRANCH  68  69
ATOM     69  S   UNL     1       9.274   9.661  11.983  1.00  0.00     0.124 S 
ATOM     70  O   UNL     1       9.277   8.204  11.888  1.00  0.00    -0.237 OA
ATOM     71  O   UNL     1      10.535  10.273  12.389  1.00  0.00    -0.237 OA
ATOM     72  O   UNL     1       8.076  10.241  12.583  1.00  0.00    -0.744 OA
ENDBRANCH  68  69
ENDBRANCH  47  61
BRANCH  48  73
ATOM     73  C   UNL     1       7.818  11.122  -2.323  1.00  0.00     0.058 A 
ATOM     74  C   UNL     1       7.294  10.228  -3.284  1.00  0.00     0.135 A 
ATOM     75  C   UNL     1       6.969  12.166  -1.911  1.00  0.00     0.135 A 
ATOM     76  F   UNL     1       8.062   9.228  -3.751  1.00  0.00    -0.206 F 
ATOM     77  C   UNL     1       5.946  10.229  -3.646  1.00  0.00     0.059 A 
ATOM     78  C   UNL     1       5.611  12.191  -2.272  1.00  0.00     0.059 A 
ATOM     79  F   UNL     1       7.397  13.075  -1.022  1.00  0.00    -0.206 F 
ATOM     80  C   UNL     1       5.095  11.162  -3.062  1.00  0.00     0.060 A 
BRANCH  80  81
ATOM     81  S   UNL     1       3.305  10.894  -3.214  1.00  0.00     0.124 S 
ATOM     82  O   UNL     1       3.135  10.744  -4.655  1.00  0.00    -0.237 OA
ATOM     83  O   UNL     1       3.109   9.673  -2.428  1.00  0.00    -0.237 OA
ATOM     84  O   UNL     1       2.729  12.103  -2.638  1.00  0.00    -0.744 OA
ENDBRANCH  80  81
ENDBRANCH  48  73
BRANCH  60  85
ATOM     85  C   UNL     1      12.947  13.159   2.471  1.00  0.00     0.058 A 
ATOM     86  C   UNL     1      13.266  14.300   1.718  1.00  0.00     0.135 A 
ATOM     87  C   UNL     1      13.608  13.043   3.720  1.00  0.00     0.135 A 
ATOM     88  F   UNL     1      12.623  14.595   0.579  1.00  0.00    -0.206 F 
ATOM     89  C   UNL     1      14.228  15.216   2.129  1.00  0.00     0.059 A 
ATOM     90  C   UNL     1      14.510  13.991   4.186  1.00  0.00     0.059 A 
ATOM     91  F   UNL     1      13.384  12.011   4.547  1.00  0.00    -0.206 F 
ATOM     92  C   UNL     1      14.842  15.056   3.366  1.00  0.00     0.060 A 
BRANCH  92  93
ATOM     93  S   UNL     1      16.047  16.271   3.914  1.00  0.00     0.124 S 
ATOM     94  O   UNL     1      17.265  15.762   3.292  1.00  0.00    -0.237 OA
ATOM     95  O   UNL     1      15.524  17.514   3.355  1.00  0.00    -0.237 OA
ATOM     96  O   UNL     1      15.987  16.172   5.368  1.00  0.00    -0.744 OA
ENDBRANCH  92  93
ENDBRANCH  60  85
ENDBRANCH  34  35
ENDBRANCH  26  29
ENDBRANCH  24  25
ENDBRANCH   1  24
TORSDOF 15
