REMARK SMILES COc1ccccc1C[C@@H](C(=O)NCCCNC(=O)c1ccc(-c2c3nc(c(-c4c(F)cc(S(=O)(=O)[O-])cc4F)c4ccc([nH]4)c(-c4c(F)cc(S(=O)(=O)[O-])cc4F)c4nc(c(-c5c(F)cc(S(=O)(=O)[O-])cc5F)c5ccc2[nH]5)C=C4)C=C3)cc1)[C@@H]1C[C@H](C)C[C@H](C)C1
REMARK SMILES IDX 15 1 14 2 13 3 11 4 12 5 10 7 9 8 8 9 3 10 4 11 5 12 7 13
REMARK SMILES IDX 6 14 2 15 1 16 86 17 93 18 87 19 91 20 88 21 92 22 90 23
REMARK SMILES IDX 89 24 16 25 17 26 18 27 19 29 20 30 21 31 85 32 22 33 84 34
REMARK SMILES IDX 23 35 24 36 25 37 78 38 26 39 83 40 77 41 79 42 27 43 82 44
REMARK SMILES IDX 76 45 75 46 28 48 62 49 41 50 61 51 42 52 45 53 60 54 80 55
REMARK SMILES IDX 43 56 44 57 59 59 81 60 46 61 29 62 30 63 39 64 31 65 32 66
REMARK SMILES IDX 38 67 40 68 33 69 34 70 35 71 36 72 37 73 63 74 64 75 73 76
REMARK SMILES IDX 65 77 66 78 72 79 74 80 67 81 68 82 69 83 70 84 71 85 47 86
REMARK SMILES IDX 48 87 57 88 49 89 50 90 56 91 58 92 51 93 52 94 53 95 54 96
REMARK SMILES IDX 55 97
REMARK H PARENT 13 6 17 28 79 47 45 58
REMARK Flexibility Score: inf
ROOT
ATOM      1  C   UNL     1       2.712   4.607   3.404  1.00  0.00     0.042 C 
ENDROOT
BRANCH   1   2
ATOM      2  C   UNL     1       3.247   4.683   1.976  1.00  0.00     0.117 C 
BRANCH   2   3
ATOM      3  N   UNL     1       4.556   4.075   1.897  1.00  0.00    -0.356 N 
ATOM      4  C   UNL     1       5.031   2.912   1.410  1.00  0.00     0.223 C 
ATOM      5  O   UNL     1       6.269   2.860   1.472  1.00  0.00    -0.275 OA
ATOM      6  H   UNL     1       5.262   4.640   2.287  1.00  0.00     0.163 HD
BRANCH   4   7
ATOM      7  C   UNL     1       4.215   1.811   0.676  1.00  0.00     0.086 C 
BRANCH   7   8
ATOM      8  C   UNL     1       2.982   1.128   1.280  1.00  0.00     0.053 C 
BRANCH   8   9
ATOM      9  C   UNL     1       1.725   1.735   1.833  1.00  0.00    -0.005 A 
ATOM     10  C   UNL     1       0.666   2.169   1.025  1.00  0.00     0.122 A 
ATOM     11  C   UNL     1      -0.507   2.687   1.581  1.00  0.00     0.047 A 
ATOM     12  C   UNL     1      -0.672   2.696   2.965  1.00  0.00     0.004 A 
ATOM     13  C   UNL     1       1.503   1.681   3.219  1.00  0.00     0.007 A 
ATOM     14  C   UNL     1       0.322   2.168   3.783  1.00  0.00     0.001 A 
BRANCH  10  15
ATOM     15  O   UNL     1       0.743   2.023  -0.337  1.00  0.00    -0.496 OA
ATOM     16  C   UNL     1       0.111   0.790  -0.714  1.00  0.00     0.278 C 
ENDBRANCH  10  15
ENDBRANCH   8   9
ENDBRANCH   7   8
BRANCH   7  17
ATOM     17  C   UNL     1       5.245   0.647   0.241  1.00  0.00     0.002 C 
ATOM     18  C   UNL     1       6.138   0.020   1.344  1.00  0.00     0.007 C 
ATOM     19  C   UNL     1       4.687  -0.452  -0.696  1.00  0.00     0.007 C 
ATOM     20  C   UNL     1       5.689  -1.268   2.037  1.00  0.00    -0.014 C 
ATOM     21  C   UNL     1       4.320  -1.836  -0.110  1.00  0.00    -0.014 C 
ATOM     22  C   UNL     1       4.758  -1.061   3.234  1.00  0.00     0.007 C 
ATOM     23  C   UNL     1       5.209  -2.322   1.043  1.00  0.00     0.006 C 
ATOM     24  C   UNL     1       2.833  -2.032   0.194  1.00  0.00     0.007 C 
ENDBRANCH   7  17
ENDBRANCH   4   7
ENDBRANCH   2   3
ENDBRANCH   1   2
BRANCH   1  25
ATOM     25  C   UNL     1       3.396   5.520   4.412  1.00  0.00     0.118 C 
BRANCH  25  26
ATOM     26  N   UNL     1       2.795   6.837   4.464  1.00  0.00    -0.352 N 
ATOM     27  C   UNL     1       1.740   7.357   5.171  1.00  0.00     0.251 C 
ATOM     28  H   UNL     1       3.233   7.492   3.873  1.00  0.00     0.163 HD
ATOM     29  O   UNL     1       1.340   8.470   4.821  1.00  0.00    -0.269 OA
BRANCH  27  30
ATOM     30  C   UNL     1       1.054   6.675   6.309  1.00  0.00     0.039 A 
ATOM     31  C   UNL     1      -0.266   7.070   6.585  1.00  0.00     0.014 A 
ATOM     32  C   UNL     1       1.670   5.791   7.197  1.00  0.00     0.014 A 
ATOM     33  C   UNL     1      -0.938   6.610   7.726  1.00  0.00     0.010 A 
ATOM     34  C   UNL     1       0.967   5.260   8.292  1.00  0.00     0.010 A 
ATOM     35  C   UNL     1      -0.330   5.696   8.598  1.00  0.00    -0.014 A 
BRANCH  35  36
ATOM     36  C   UNL     1      -1.009   5.267   9.857  1.00  0.00     0.031 A 
ATOM     37  C   UNL     1      -0.407   5.593  11.206  1.00  0.00     0.074 A 
ATOM     38  C   UNL     1      -2.167   4.576   9.806  1.00  0.00     0.049 A 
ATOM     39  N   UNL     1      -0.841   5.289  12.404  1.00  0.00    -0.248 NA
ATOM     40  C   UNL     1       0.862   6.338  11.207  1.00  0.00     0.031 C 
ATOM     41  C   UNL     1      -2.847   4.156   8.580  1.00  0.00     0.029 A 
ATOM     42  N   UNL     1      -2.977   4.105  10.812  1.00  0.00    -0.354 N 
ATOM     43  C   UNL     1       0.110   5.778  13.294  1.00  0.00     0.074 A 
ATOM     44  C   UNL     1       1.168   6.359  12.496  1.00  0.00     0.031 C 
ATOM     45  C   UNL     1      -3.980   3.513   8.904  1.00  0.00     0.029 A 
ATOM     46  C   UNL     1      -4.096   3.446  10.359  1.00  0.00     0.049 A 
ATOM     47  H   UNL     1      -2.775   4.228  11.768  1.00  0.00     0.167 HD
ATOM     48  C   UNL     1       0.100   5.769  14.650  1.00  0.00     0.037 A 
ATOM     49  C   UNL     1      -5.103   2.854  11.032  1.00  0.00     0.037 A 
ATOM     50  C   UNL     1      -0.973   5.239  15.452  1.00  0.00     0.049 A 
ATOM     51  C   UNL     1      -5.115   2.888  12.536  1.00  0.00     0.074 A 
ATOM     52  C   UNL     1      -1.104   5.250  16.831  1.00  0.00     0.029 A 
ATOM     53  N   UNL     1      -2.100   4.606  14.951  1.00  0.00    -0.354 N 
ATOM     54  N   UNL     1      -4.232   3.406  13.356  1.00  0.00    -0.248 NA
ATOM     55  C   UNL     1      -6.266   2.266  13.207  1.00  0.00     0.031 C 
ATOM     56  C   UNL     1      -2.294   4.593  17.165  1.00  0.00     0.029 A 
ATOM     57  C   UNL     1      -2.924   4.210  15.992  1.00  0.00     0.049 A 
ATOM     58  H   UNL     1      -2.288   4.461  13.995  1.00  0.00     0.167 HD
ATOM     59  C   UNL     1      -4.731   3.192  14.637  1.00  0.00     0.074 A 
ATOM     60  C   UNL     1      -5.999   2.510  14.483  1.00  0.00     0.031 C 
ATOM     61  C   UNL     1      -4.187   3.533  15.831  1.00  0.00     0.037 A 
BRANCH  48  62
ATOM     62  C   UNL     1       1.292   6.356  15.360  1.00  0.00     0.058 A 
ATOM     63  C   UNL     1       1.542   7.737  15.370  1.00  0.00     0.135 A 
ATOM     64  C   UNL     1       2.183   5.527  16.063  1.00  0.00     0.135 A 
ATOM     65  F   UNL     1       0.730   8.575  14.707  1.00  0.00    -0.206 F 
ATOM     66  C   UNL     1       2.654   8.272  16.014  1.00  0.00     0.059 A 
ATOM     67  C   UNL     1       3.286   6.043  16.738  1.00  0.00     0.059 A 
ATOM     68  F   UNL     1       1.989   4.199  16.093  1.00  0.00    -0.206 F 
ATOM     69  C   UNL     1       3.524   7.415  16.691  1.00  0.00     0.060 A 
BRANCH  69  70
ATOM     70  S   UNL     1       4.968   8.124  17.510  1.00  0.00     0.124 S 
ATOM     71  O   UNL     1       5.842   8.395  16.370  1.00  0.00    -0.237 OA
ATOM     72  O   UNL     1       4.415   9.292  18.176  1.00  0.00    -0.237 OA
ATOM     73  O   UNL     1       5.414   7.049  18.397  1.00  0.00    -0.744 OA
ENDBRANCH  69  70
ENDBRANCH  48  62
BRANCH  49  74
ATOM     74  C   UNL     1      -6.205   2.200  10.278  1.00  0.00     0.058 A 
ATOM     75  C   UNL     1      -7.480   2.781  10.211  1.00  0.00     0.135 A 
ATOM     76  C   UNL     1      -5.997   0.998   9.585  1.00  0.00     0.135 A 
ATOM     77  F   UNL     1      -7.730   3.926  10.865  1.00  0.00    -0.206 F 
ATOM     78  C   UNL     1      -8.512   2.192   9.488  1.00  0.00     0.059 A 
ATOM     79  C   UNL     1      -7.006   0.402   8.836  1.00  0.00     0.059 A 
ATOM     80  F   UNL     1      -4.790   0.410   9.606  1.00  0.00    -0.206 F 
ATOM     81  C   UNL     1      -8.263   1.004   8.798  1.00  0.00     0.060 A 
BRANCH  81  82
ATOM     82  S   UNL     1      -9.587   0.286   7.800  1.00  0.00     0.124 S 
ATOM     83  O   UNL     1     -10.447  -0.292   8.826  1.00  0.00    -0.237 OA
ATOM     84  O   UNL     1     -10.117   1.455   7.105  1.00  0.00    -0.237 OA
ATOM     85  O   UNL     1      -8.883  -0.671   6.952  1.00  0.00    -0.744 OA
ENDBRANCH  81  82
ENDBRANCH  49  74
BRANCH  61  86
ATOM     86  C   UNL     1      -4.970   3.199  17.071  1.00  0.00     0.058 A 
ATOM     87  C   UNL     1      -5.078   1.882  17.544  1.00  0.00     0.135 A 
ATOM     88  C   UNL     1      -5.588   4.216  17.817  1.00  0.00     0.135 A 
ATOM     89  F   UNL     1      -4.510   0.873  16.865  1.00  0.00    -0.206 F 
ATOM     90  C   UNL     1      -5.792   1.581  18.699  1.00  0.00     0.059 A 
ATOM     91  C   UNL     1      -6.287   3.941  18.989  1.00  0.00     0.059 A 
ATOM     92  F   UNL     1      -5.507   5.494  17.416  1.00  0.00    -0.206 F 
ATOM     93  C   UNL     1      -6.396   2.617  19.414  1.00  0.00     0.060 A 
BRANCH  93  94
ATOM     94  S   UNL     1      -7.302   2.218  20.924  1.00  0.00     0.124 S 
ATOM     95  O   UNL     1      -8.539   1.663  20.385  1.00  0.00    -0.237 OA
ATOM     96  O   UNL     1      -6.414   1.265  21.582  1.00  0.00    -0.237 OA
ATOM     97  O   UNL     1      -7.432   3.509  21.593  1.00  0.00    -0.744 OA
ENDBRANCH  93  94
ENDBRANCH  61  86
ENDBRANCH  35  36
ENDBRANCH  27  30
ENDBRANCH  25  26
ENDBRANCH   1  25
TORSDOF 17
