REMARK SMILES Cc1ccc(OCC(=O)Oc2ccc(C(=O)NCCCNC(=O)c3ccc(-c4c5nc(c(-c6c(F)cc(S(=O)(=O)[O-])cc6F)c6ccc([nH]6)c(-c6c(F)cc(S(=O)(=O)[O-])cc6F)c6nc(c(-c7c(F)cc(S(=O)(=O)[O-])cc7F)c7ccc4[nH]7)C=C6)C=C5)cc3)cc2)cc1C
REMARK SMILES IDX 18 1 17 2 15 3 16 4 14 6 11 7 12 8 91 9 13 10 90 11 10 12
REMARK SMILES IDX 8 13 9 14 7 15 6 16 5 17 1 18 2 19 3 20 93 21 4 22 92 23
REMARK SMILES IDX 94 24 19 25 20 26 21 27 22 28 23 30 24 31 25 32 89 33 26 34
REMARK SMILES IDX 88 35 27 36 28 37 29 38 82 39 30 40 87 41 81 42 83 43 31 44
REMARK SMILES IDX 86 45 80 46 79 47 32 49 66 50 45 51 65 52 46 53 49 54 64 55
REMARK SMILES IDX 84 56 47 57 48 58 63 60 85 61 50 62 33 63 34 64 43 65 35 66
REMARK SMILES IDX 36 67 42 68 44 69 37 70 38 71 39 72 40 73 41 74 67 75 68 76
REMARK SMILES IDX 77 77 69 78 70 79 76 80 78 81 71 82 72 83 73 84 74 85 75 86
REMARK SMILES IDX 51 87 52 88 61 89 53 90 54 91 60 92 62 93 55 94 56 95 57 96
REMARK SMILES IDX 58 97 59 98
REMARK H PARENT 17 5 21 29 83 48 49 59
REMARK Flexibility Score: inf
ROOT
ATOM      1  C   UNL     1      -6.654   4.058   6.178  1.00  0.00     0.118 C 
ENDROOT
BRANCH   1   2
ATOM      2  N   UNL     1      -6.050   3.241   7.218  1.00  0.00    -0.352 N 
ATOM      3  C   UNL     1      -5.347   2.064   7.149  1.00  0.00     0.251 C 
ATOM      4  O   UNL     1      -4.818   1.637   8.175  1.00  0.00    -0.269 OA
ATOM      5  H   UNL     1      -6.165   3.593   8.130  1.00  0.00     0.163 HD
BRANCH   3   6
ATOM      6  C   UNL     1      -5.156   1.322   5.875  1.00  0.00     0.040 A 
ATOM      7  C   UNL     1      -4.640  -0.042   3.494  1.00  0.00     0.131 A 
ATOM      8  C   UNL     1      -3.668  -0.016   4.491  1.00  0.00     0.048 A 
ATOM      9  C   UNL     1      -5.894   0.527   3.706  1.00  0.00     0.048 A 
ATOM     10  C   UNL     1      -3.927   0.670   5.681  1.00  0.00     0.017 A 
ATOM     11  C   UNL     1      -6.151   1.201   4.901  1.00  0.00     0.017 A 
BRANCH   7  12
ATOM     12  O   UNL     1      -4.334  -0.720   2.308  1.00  0.00    -0.424 OA
BRANCH  12  13
ATOM     13  C   UNL     1      -4.505   0.015   1.138  1.00  0.00     0.349 C 
ATOM     14  O   UNL     1      -4.910   1.170   1.048  1.00  0.00    -0.248 OA
BRANCH  13  15
ATOM     15  C   UNL     1      -4.125  -0.833  -0.067  1.00  0.00     0.352 C 
BRANCH  15  16
ATOM     16  O   UNL     1      -2.856  -1.462  -0.023  1.00  0.00    -0.482 OA
BRANCH  16  17
ATOM     17  C   UNL     1      -1.744  -0.667  -0.078  1.00  0.00     0.120 A 
ATOM     18  C   UNL     1       1.997   1.506  -0.043  1.00  0.00     0.044 C 
ATOM     19  C   UNL     1       0.719   0.715  -0.074  1.00  0.00    -0.048 A 
ATOM     20  C   UNL     1      -0.500   1.402  -0.180  1.00  0.00     0.007 A 
ATOM     21  C   UNL     1       0.704  -0.689  -0.002  1.00  0.00    -0.045 A 
ATOM     22  C   UNL     1      -1.719   0.719  -0.193  1.00  0.00     0.047 A 
ATOM     23  C   UNL     1      -0.533  -1.360   0.002  1.00  0.00     0.050 A 
ATOM     24  C   UNL     1       1.951  -1.526   0.069  1.00  0.00     0.045 C 
ENDBRANCH  16  17
ENDBRANCH  15  16
ENDBRANCH  13  15
ENDBRANCH  12  13
ENDBRANCH   7  12
ENDBRANCH   3   6
ENDBRANCH   1   2
BRANCH   1  25
ATOM     25  C   UNL     1      -8.176   3.920   6.165  1.00  0.00     0.042 C 
BRANCH  25  26
ATOM     26  C   UNL     1      -8.869   4.625   7.327  1.00  0.00     0.118 C 
BRANCH  26  27
ATOM     27  N   UNL     1      -8.814   6.074   7.200  1.00  0.00    -0.352 N 
ATOM     28  C   UNL     1      -9.833   6.994   7.162  1.00  0.00     0.251 C 
ATOM     29  H   UNL     1      -7.908   6.452   7.131  1.00  0.00     0.163 HD
ATOM     30  O   UNL     1      -9.581   8.151   6.835  1.00  0.00    -0.269 OA
BRANCH  28  31
ATOM     31  C   UNL     1     -11.223   6.606   7.496  1.00  0.00     0.039 A 
ATOM     32  C   UNL     1     -12.270   7.147   6.744  1.00  0.00     0.014 A 
ATOM     33  C   UNL     1     -11.505   5.758   8.570  1.00  0.00     0.014 A 
ATOM     34  C   UNL     1     -13.592   6.801   7.038  1.00  0.00     0.010 A 
ATOM     35  C   UNL     1     -12.818   5.358   8.818  1.00  0.00     0.010 A 
ATOM     36  C   UNL     1     -13.876   5.882   8.061  1.00  0.00    -0.014 A 
BRANCH  36  37
ATOM     37  C   UNL     1     -15.271   5.465   8.357  1.00  0.00     0.031 A 
ATOM     38  C   UNL     1     -15.896   5.798   9.684  1.00  0.00     0.074 A 
ATOM     39  C   UNL     1     -15.952   4.732   7.455  1.00  0.00     0.049 A 
ATOM     40  N   UNL     1     -17.068   5.456  10.155  1.00  0.00    -0.248 NA
ATOM     41  C   UNL     1     -15.085   6.598  10.616  1.00  0.00     0.031 C 
ATOM     42  C   UNL     1     -15.437   4.304   6.152  1.00  0.00     0.029 A 
ATOM     43  N   UNL     1     -17.217   4.203   7.500  1.00  0.00    -0.354 N 
ATOM     44  C   UNL     1     -17.132   5.987  11.438  1.00  0.00     0.074 A 
ATOM     45  C   UNL     1     -15.859   6.628  11.691  1.00  0.00     0.031 C 
ATOM     46  C   UNL     1     -16.380   3.589   5.519  1.00  0.00     0.029 A 
ATOM     47  C   UNL     1     -17.553   3.478   6.382  1.00  0.00     0.049 A 
ATOM     48  H   UNL     1     -17.827   4.331   8.263  1.00  0.00     0.167 HD
ATOM     49  C   UNL     1     -18.163   5.964  12.317  1.00  0.00     0.037 A 
ATOM     50  C   UNL     1     -18.674   2.791   6.087  1.00  0.00     0.037 A 
ATOM     51  C   UNL     1     -19.433   5.338  12.052  1.00  0.00     0.049 A 
ATOM     52  C   UNL     1     -19.810   2.784   7.071  1.00  0.00     0.074 A 
ATOM     53  C   UNL     1     -20.559   5.297  12.856  1.00  0.00     0.029 A 
ATOM     54  N   UNL     1     -19.747   4.643  10.892  1.00  0.00    -0.354 N 
ATOM     55  N   UNL     1     -19.873   3.337   8.259  1.00  0.00    -0.248 NA
ATOM     56  C   UNL     1     -21.030   2.068   6.674  1.00  0.00     0.031 C 
ATOM     57  C   UNL     1     -21.540   4.545  12.199  1.00  0.00     0.029 A 
ATOM     58  C   UNL     1     -21.042   4.156  10.966  1.00  0.00     0.049 A 
ATOM     59  H   UNL     1     -19.138   4.513  10.130  1.00  0.00     0.167 HD
ATOM     60  C   UNL     1     -21.146   3.056   8.743  1.00  0.00     0.074 A 
ATOM     61  C   UNL     1     -21.823   2.293   7.713  1.00  0.00     0.031 C 
ATOM     62  C   UNL     1     -21.703   3.399   9.931  1.00  0.00     0.037 A 
BRANCH  49  63
ATOM     63  C   UNL     1     -17.955   6.638  13.646  1.00  0.00     0.058 A 
ATOM     64  C   UNL     1     -17.852   8.035  13.754  1.00  0.00     0.135 A 
ATOM     65  C   UNL     1     -17.865   5.884  14.828  1.00  0.00     0.135 A 
ATOM     66  F   UNL     1     -17.918   8.805  12.656  1.00  0.00    -0.206 F 
ATOM     67  C   UNL     1     -17.624   8.657  14.978  1.00  0.00     0.059 A 
ATOM     68  C   UNL     1     -17.667   6.487  16.067  1.00  0.00     0.059 A 
ATOM     69  F   UNL     1     -17.961   4.546  14.785  1.00  0.00    -0.206 F 
ATOM     70  C   UNL     1     -17.526   7.873  16.128  1.00  0.00     0.060 A 
BRANCH  70  71
ATOM     71  S   UNL     1     -17.209   8.692  17.706  1.00  0.00     0.124 S 
ATOM     72  O   UNL     1     -15.795   9.031  17.576  1.00  0.00    -0.237 OA
ATOM     73  O   UNL     1     -18.136   9.819  17.666  1.00  0.00    -0.237 OA
ATOM     74  O   UNL     1     -17.520   7.663  18.692  1.00  0.00    -0.744 OA
ENDBRANCH  70  71
ENDBRANCH  49  63
BRANCH  50  75
ATOM     75  C   UNL     1     -18.774   2.075   4.788  1.00  0.00     0.058 A 
ATOM     76  C   UNL     1     -19.595   2.558   3.758  1.00  0.00     0.135 A 
ATOM     77  C   UNL     1     -18.017   0.920   4.535  1.00  0.00     0.135 A 
ATOM     78  F   UNL     1     -20.342   3.655   3.955  1.00  0.00    -0.206 F 
ATOM     79  C   UNL     1     -19.665   1.921   2.524  1.00  0.00     0.059 A 
ATOM     80  C   UNL     1     -18.053   0.279   3.301  1.00  0.00     0.059 A 
ATOM     81  F   UNL     1     -17.203   0.429   5.482  1.00  0.00    -0.206 F 
ATOM     82  C   UNL     1     -18.885   0.784   2.302  1.00  0.00     0.060 A 
BRANCH  82  83
ATOM     83  S   UNL     1     -18.925   0.009   0.671  1.00  0.00     0.124 S 
ATOM     84  O   UNL     1     -20.226  -0.650   0.691  1.00  0.00    -0.237 OA
ATOM     85  O   UNL     1     -18.806   1.161  -0.218  1.00  0.00    -0.237 OA
ATOM     86  O   UNL     1     -17.766  -0.877   0.693  1.00  0.00    -0.744 OA
ENDBRANCH  82  83
ENDBRANCH  50  75
BRANCH  62  87
ATOM     87  C   UNL     1     -23.124   2.975  10.175  1.00  0.00     0.058 A 
ATOM     88  C   UNL     1     -23.459   1.640  10.451  1.00  0.00     0.135 A 
ATOM     89  C   UNL     1     -24.158   3.926  10.183  1.00  0.00     0.135 A 
ATOM     90  F   UNL     1     -22.509   0.691  10.449  1.00  0.00    -0.206 F 
ATOM     91  C   UNL     1     -24.772   1.259  10.707  1.00  0.00     0.059 A 
ATOM     92  C   UNL     1     -25.474   3.572  10.460  1.00  0.00     0.059 A 
ATOM     93  F   UNL     1     -23.890   5.218   9.934  1.00  0.00    -0.206 F 
ATOM     94  C   UNL     1     -25.773   2.233  10.710  1.00  0.00     0.060 A 
BRANCH  94  95
ATOM     95  S   UNL     1     -27.469   1.732  11.076  1.00  0.00     0.124 S 
ATOM     96  O   UNL     1     -27.856   1.076   9.832  1.00  0.00    -0.237 OA
ATOM     97  O   UNL     1     -27.294   0.852  12.228  1.00  0.00    -0.237 OA
ATOM     98  O   UNL     1     -28.143   2.995  11.358  1.00  0.00    -0.744 OA
ENDBRANCH  94  95
ENDBRANCH  62  87
ENDBRANCH  36  37
ENDBRANCH  28  31
ENDBRANCH  26  27
ENDBRANCH  25  26
ENDBRANCH   1  25
TORSDOF 18
