REMARK SMILES Cc1cc(S[C@@H](C)c2ccc(C(=O)NCCCNC(=O)c3ccc(-c4c5nc(c(-c6c(F)cc(S(=O)(=O)[O-])cc6F)c6ccc([nH]6)c(-c6c(F)cc(S(=O)(=O)[O-])cc6F)c6nc(c(-c7c(F)cc(S(=O)(=O)[O-])cc7F)c7ccc4[nH]7)C=C6)C=C5)cc3)o2)n(C)n1
REMARK SMILES IDX 16 1 15 2 14 3 12 4 13 5 11 7 8 8 9 9 87 10 10 11 6 12 7 13
REMARK SMILES IDX 5 14 4 15 1 16 2 17 3 18 90 19 88 20 89 21 17 22 18 23 19 24
REMARK SMILES IDX 20 26 21 27 22 28 86 29 23 30 85 31 24 32 25 33 26 34 79 35
REMARK SMILES IDX 27 36 84 37 78 38 80 39 28 40 83 41 77 42 76 43 29 45 63 46
REMARK SMILES IDX 42 47 62 48 43 49 46 50 61 51 81 52 44 53 45 54 60 56 82 57
REMARK SMILES IDX 47 58 30 59 31 60 40 61 32 62 33 63 39 64 41 65 34 66 35 67
REMARK SMILES IDX 36 68 37 69 38 70 64 71 65 72 74 73 66 74 67 75 73 76 75 77
REMARK SMILES IDX 68 78 69 79 70 80 71 81 72 82 48 83 49 84 58 85 50 86 51 87
REMARK SMILES IDX 57 88 59 89 52 90 53 91 54 92 55 93 56 94
REMARK H PARENT 14 6 18 25 80 44 46 55
REMARK Flexibility Score: inf
ROOT
ATOM      1  C   UNL     1      -3.779  -5.260  -5.446  1.00  0.00     0.042 C 
ENDROOT
BRANCH   1   2
ATOM      2  C   UNL     1      -2.395  -4.641  -5.627  1.00  0.00     0.118 C 
BRANCH   2   3
ATOM      3  N   UNL     1      -2.307  -3.338  -5.002  1.00  0.00    -0.349 N 
ATOM      4  C   UNL     1      -1.758  -2.942  -3.805  1.00  0.00     0.286 C 
ATOM      5  O   UNL     1      -1.770  -1.726  -3.598  1.00  0.00    -0.266 OA
ATOM      6  H   UNL     1      -2.710  -2.608  -5.525  1.00  0.00     0.163 HD
BRANCH   4   7
ATOM      7  C   UNL     1      -1.201  -3.897  -2.865  1.00  0.00     0.191 A 
ATOM      8  C   UNL     1       0.027  -4.380  -1.075  1.00  0.00     0.118 A 
ATOM      9  C   UNL     1      -0.509  -5.571  -1.517  1.00  0.00     0.047 A 
ATOM     10  O   UNL     1      -0.370  -3.379  -1.905  1.00  0.00    -0.455 OA
ATOM     11  C   UNL     1      -1.317  -5.257  -2.641  1.00  0.00     0.056 A 
BRANCH   8  12
ATOM     12  C   UNL     1       0.890  -4.040   0.103  1.00  0.00     0.116 C 
ATOM     13  C   UNL     1       0.140  -4.191   1.427  1.00  0.00     0.028 C 
BRANCH  12  14
ATOM     14  S   UNL     1       1.814  -2.471  -0.000  1.00  0.00    -0.096 SA
BRANCH  14  15
ATOM     15  C   UNL     1       0.661  -1.170   0.062  1.00  0.00     0.095 A 
ATOM     16  C   UNL     1      -2.415   0.833   0.002  1.00  0.00     0.069 C 
ATOM     17  C   UNL     1      -1.060   0.238   0.064  1.00  0.00     0.061 A 
ATOM     18  C   UNL     1      -0.714  -1.131   0.048  1.00  0.00     0.060 A 
ATOM     19  N   UNL     1       0.024   1.017   0.132  1.00  0.00    -0.178 NA
ATOM     20  N   UNL     1       1.058   0.146   0.080  1.00  0.00    -0.262 N 
ATOM     21  C   UNL     1       2.386   0.710   0.027  1.00  0.00     0.175 C 
ENDBRANCH  14  15
ENDBRANCH  12  14
ENDBRANCH   8  12
ENDBRANCH   4   7
ENDBRANCH   2   3
ENDBRANCH   1   2
BRANCH   1  22
ATOM     22  C   UNL     1      -4.850  -4.619  -6.330  1.00  0.00     0.118 C 
BRANCH  22  23
ATOM     23  N   UNL     1      -4.611  -4.873  -7.745  1.00  0.00    -0.352 N 
ATOM     24  C   UNL     1      -5.376  -5.535  -8.672  1.00  0.00     0.251 C 
ATOM     25  H   UNL     1      -3.764  -4.511  -8.092  1.00  0.00     0.163 HD
ATOM     26  O   UNL     1      -4.871  -5.847  -9.748  1.00  0.00    -0.269 OA
BRANCH  24  27
ATOM     27  C   UNL     1      -6.787  -5.878  -8.391  1.00  0.00     0.039 A 
ATOM     28  C   UNL     1      -7.281  -7.111  -8.831  1.00  0.00     0.014 A 
ATOM     29  C   UNL     1      -7.642  -4.973  -7.756  1.00  0.00     0.014 A 
ATOM     30  C   UNL     1      -8.613  -7.455  -8.589  1.00  0.00     0.010 A 
ATOM     31  C   UNL     1      -8.953  -5.342  -7.460  1.00  0.00     0.010 A 
ATOM     32  C   UNL     1      -9.454  -6.585  -7.876  1.00  0.00    -0.014 A 
BRANCH  32  33
ATOM     33  C   UNL     1     -10.859  -6.953  -7.564  1.00  0.00     0.031 A 
ATOM     34  C   UNL     1     -11.996  -6.163  -8.157  1.00  0.00     0.074 A 
ATOM     35  C   UNL     1     -11.109  -7.963  -6.707  1.00  0.00     0.049 A 
ATOM     36  N   UNL     1     -13.280  -6.262  -7.926  1.00  0.00    -0.248 NA
ATOM     37  C   UNL     1     -11.641  -5.108  -9.121  1.00  0.00     0.031 C 
ATOM     38  C   UNL     1     -10.092  -8.782  -6.043  1.00  0.00     0.029 A 
ATOM     39  N   UNL     1     -12.296  -8.465  -6.236  1.00  0.00    -0.354 N 
ATOM     40  C   UNL     1     -13.884  -5.286  -8.709  1.00  0.00     0.074 A 
ATOM     41  C   UNL     1     -12.823  -4.569  -9.382  1.00  0.00     0.031 C 
ATOM     42  C   UNL     1     -10.698  -9.691  -5.262  1.00  0.00     0.029 A 
ATOM     43  C   UNL     1     -12.142  -9.497  -5.339  1.00  0.00     0.049 A 
ATOM     44  H   UNL     1     -13.175  -8.120  -6.514  1.00  0.00     0.167 HD
ATOM     45  C   UNL     1     -15.204  -5.029  -8.874  1.00  0.00     0.037 A 
ATOM     46  C   UNL     1     -13.062 -10.197  -4.646  1.00  0.00     0.037 A 
ATOM     47  C   UNL     1     -16.258  -5.758  -8.218  1.00  0.00     0.049 A 
ATOM     48  C   UNL     1     -14.521  -9.878  -4.835  1.00  0.00     0.074 A 
ATOM     49  C   UNL     1     -17.626  -5.581  -8.327  1.00  0.00     0.029 A 
ATOM     50  N   UNL     1     -16.061  -6.814  -7.340  1.00  0.00    -0.354 N 
ATOM     51  N   UNL     1     -15.073  -8.966  -5.600  1.00  0.00    -0.248 NA
ATOM     52  C   UNL     1     -15.483 -10.686  -4.072  1.00  0.00     0.031 C 
ATOM     53  C   UNL     1     -18.257  -6.514  -7.498  1.00  0.00     0.029 A 
ATOM     54  C   UNL     1     -17.282  -7.297  -6.901  1.00  0.00     0.049 A 
ATOM     55  H   UNL     1     -15.183  -7.168  -7.069  1.00  0.00     0.167 HD
ATOM     56  C   UNL     1     -16.446  -9.113  -5.434  1.00  0.00     0.074 A 
ATOM     57  C   UNL     1     -16.641 -10.208  -4.507  1.00  0.00     0.031 C 
ATOM     58  C   UNL     1     -17.455  -8.405  -5.997  1.00  0.00     0.037 A 
BRANCH  45  59
ATOM     59  C   UNL     1     -15.589  -3.928  -9.823  1.00  0.00     0.058 A 
ATOM     60  C   UNL     1     -15.459  -4.087 -11.212  1.00  0.00     0.135 A 
ATOM     61  C   UNL     1     -16.146  -2.729  -9.351  1.00  0.00     0.135 A 
ATOM     62  F   UNL     1     -14.916  -5.207 -11.716  1.00  0.00    -0.206 F 
ATOM     63  C   UNL     1     -15.853  -3.091 -12.099  1.00  0.00     0.059 A 
ATOM     64  C   UNL     1     -16.570  -1.728 -10.221  1.00  0.00     0.059 A 
ATOM     65  F   UNL     1     -16.291  -2.524  -8.032  1.00  0.00    -0.206 F 
ATOM     66  C   UNL     1     -16.411  -1.915 -11.594  1.00  0.00     0.060 A 
BRANCH  66  67
ATOM     67  S   UNL     1     -16.942  -0.645 -12.761  1.00  0.00     0.124 S 
ATOM     68  O   UNL     1     -15.660  -0.111 -13.213  1.00  0.00    -0.237 OA
ATOM     69  O   UNL     1     -17.688  -1.420 -13.748  1.00  0.00    -0.237 OA
ATOM     70  O   UNL     1     -17.743   0.258 -11.941  1.00  0.00    -0.744 OA
ENDBRANCH  66  67
ENDBRANCH  45  59
BRANCH  46  71
ATOM     71  C   UNL     1     -12.641 -11.274  -3.710  1.00  0.00     0.058 A 
ATOM     72  C   UNL     1     -12.915 -12.621  -3.991  1.00  0.00     0.135 A 
ATOM     73  C   UNL     1     -11.991 -10.977  -2.503  1.00  0.00     0.135 A 
ATOM     74  F   UNL     1     -13.537 -12.954  -5.132  1.00  0.00    -0.206 F 
ATOM     75  C   UNL     1     -12.595 -13.633  -3.092  1.00  0.00     0.059 A 
ATOM     76  C   UNL     1     -11.637 -11.974  -1.599  1.00  0.00     0.059 A 
ATOM     77  F   UNL     1     -11.687  -9.706  -2.196  1.00  0.00    -0.206 F 
ATOM     78  C   UNL     1     -11.962 -13.297  -1.894  1.00  0.00     0.060 A 
BRANCH  78  79
ATOM     79  S   UNL     1     -11.547 -14.614  -0.730  1.00  0.00     0.124 S 
ATOM     80  O   UNL     1     -12.847 -14.893  -0.131  1.00  0.00    -0.237 OA
ATOM     81  O   UNL     1     -11.013 -15.649  -1.610  1.00  0.00    -0.237 OA
ATOM     82  O   UNL     1     -10.566 -13.984   0.149  1.00  0.00    -0.744 OA
ENDBRANCH  78  79
ENDBRANCH  46  71
BRANCH  58  83
ATOM     83  C   UNL     1     -18.860  -8.824  -5.666  1.00  0.00     0.058 A 
ATOM     84  C   UNL     1     -19.435  -8.551  -4.416  1.00  0.00     0.135 A 
ATOM     85  C   UNL     1     -19.653  -9.466  -6.630  1.00  0.00     0.135 A 
ATOM     86  F   UNL     1     -18.716  -7.946  -3.458  1.00  0.00    -0.206 F 
ATOM     87  C   UNL     1     -20.744  -8.922  -4.124  1.00  0.00     0.059 A 
ATOM     88  C   UNL     1     -20.972  -9.823  -6.369  1.00  0.00     0.059 A 
ATOM     89  F   UNL     1     -19.152  -9.741  -7.845  1.00  0.00    -0.206 F 
ATOM     90  C   UNL     1     -21.505  -9.557  -5.108  1.00  0.00     0.060 A 
BRANCH  90  91
ATOM     91  S   UNL     1     -23.212 -10.003  -4.730  1.00  0.00     0.124 S 
ATOM     92  O   UNL     1     -23.029 -11.176  -3.882  1.00  0.00    -0.237 OA
ATOM     93  O   UNL     1     -23.708  -8.806  -4.057  1.00  0.00    -0.237 OA
ATOM     94  O   UNL     1     -23.795 -10.261  -6.043  1.00  0.00    -0.744 OA
ENDBRANCH  90  91
ENDBRANCH  58  83
ENDBRANCH  32  33
ENDBRANCH  24  27
ENDBRANCH  22  23
ENDBRANCH   1  22
TORSDOF 16
