REMARK SMILES O=C(CN1CC2(CCC1=O)CC[NH+](Cc1ccc(Cl)c(F)c1)CC2)NCCCNC(=O)c1ccc(-c2c3nc(c(-c4c(F)cc(S(=O)(=O)[O-])cc4F)c4ccc([nH]4)c(-c4c(F)cc(S(=O)(=O)[O-])cc4F)c4nc(c(-c5c(F)cc(S(=O)(=O)[O-])cc5F)c5ccc2[nH]5)C=C4)C=C3)cc1
REMARK SMILES IDX 27 1 26 2 25 3 1 4 2 5 3 7 4 8 5 9 9 10 6 11 8 12 10 13 7 14
REMARK SMILES IDX 11 15 24 16 12 17 23 18 13 19 14 21 15 22 16 23 22 24 17 25
REMARK SMILES IDX 20 26 18 27 21 28 19 29 28 30 29 31 30 32 31 34 32 35 33 36
REMARK SMILES IDX 97 37 34 38 96 39 35 40 36 41 37 42 90 43 38 44 95 45 89 46
REMARK SMILES IDX 91 47 39 48 94 49 88 50 87 51 40 53 74 54 53 55 73 56 54 57
REMARK SMILES IDX 57 58 72 59 92 60 55 61 56 62 71 64 93 65 58 66 41 67 42 68
REMARK SMILES IDX 51 69 43 70 44 71 50 72 52 73 45 74 46 75 47 76 48 77 49 78
REMARK SMILES IDX 75 79 76 80 85 81 77 82 78 83 84 84 86 85 79 86 80 87 81 88
REMARK SMILES IDX 82 89 83 90 59 91 60 92 69 93 61 94 62 95 68 96 70 97 63 98
REMARK SMILES IDX 64 99 65 100 66 101 67 102
REMARK H PARENT 25 6 13 20 29 33 91 52 57 63
REMARK Flexibility Score: inf
ROOT
ATOM      1  C   UNL     1       2.295   2.114   3.091  1.00  0.00     0.042 C 
ENDROOT
BRANCH   1   2
ATOM      2  C   UNL     1       2.058   1.688   1.653  1.00  0.00     0.117 C 
BRANCH   2   3
ATOM      3  N   UNL     1       2.842   0.529   1.271  1.00  0.00    -0.354 N 
ATOM      4  O   UNL     1       1.242  -0.419  -0.082  1.00  0.00    -0.273 OA
ATOM      5  C   UNL     1       2.391  -0.400   0.349  1.00  0.00     0.239 C 
ATOM      6  H   UNL     1       3.726   0.397   1.684  1.00  0.00     0.163 HD
BRANCH   5   7
ATOM      7  C   UNL     1       3.526  -1.242  -0.253  1.00  0.00     0.219 C 
BRANCH   7   8
ATOM      8  N   UNL     1       3.977  -0.681  -1.533  1.00  0.00    -0.333 N 
ATOM      9  C   UNL     1       4.309   0.741  -1.628  1.00  0.00     0.127 C 
ATOM     10  C   UNL     1       4.179  -1.535  -2.604  1.00  0.00     0.223 C 
ATOM     11  C   UNL     1       3.743   1.356  -2.914  1.00  0.00    -0.001 C 
ATOM     12  C   UNL     1       4.227  -0.910  -3.991  1.00  0.00     0.101 C 
ATOM     13  O   UNL     1       4.207  -2.760  -2.482  1.00  0.00    -0.275 OA
ATOM     14  C   UNL     1       4.450   0.595  -4.055  1.00  0.00     0.019 C 
ATOM     15  C   UNL     1       2.209   1.161  -2.991  1.00  0.00     0.070 C 
ATOM     16  C   UNL     1       4.108   2.856  -3.018  1.00  0.00     0.070 C 
ATOM     17  C   UNL     1       1.394   2.174  -2.186  1.00  0.00     0.263 C 
ATOM     18  C   UNL     1       3.195   3.800  -2.228  1.00  0.00     0.263 C 
ATOM     19  N   UNL     1       1.768   3.565  -2.394  1.00  0.00    -0.331 N 
ATOM     20  H   UNL     1       1.357   4.072  -1.611  1.00  0.00     0.348 HD
BRANCH  19  21
ATOM     21  C   UNL     1       1.076   4.275  -3.475  1.00  0.00     0.299 C 
BRANCH  21  22
ATOM     22  C   UNL     1       1.397   3.835  -4.886  1.00  0.00     0.009 A 
ATOM     23  C   UNL     1       2.432   4.449  -5.608  1.00  0.00     0.011 A 
ATOM     24  C   UNL     1       0.731   2.743  -5.462  1.00  0.00     0.050 A 
ATOM     25  C   UNL     1       2.878   3.903  -6.815  1.00  0.00     0.024 A 
ATOM     26  C   UNL     1       1.197   2.185  -6.650  1.00  0.00     0.142 A 
ATOM     27  C   UNL     1       2.281   2.747  -7.316  1.00  0.00     0.076 A 
ATOM     28  F   UNL     1       0.622   1.059  -7.100  1.00  0.00    -0.205 F 
ATOM     29  Cl  UNL     1       2.923   2.007  -8.731  1.00  0.00    -0.081 Cl
ENDBRANCH  21  22
ENDBRANCH  19  21
ENDBRANCH   7   8
ENDBRANCH   5   7
ENDBRANCH   2   3
ENDBRANCH   1   2
BRANCH   1  30
ATOM     30  C   UNL     1       3.740   2.462   3.427  1.00  0.00     0.118 C 
BRANCH  30  31
ATOM     31  N   UNL     1       4.242   3.654   2.761  1.00  0.00    -0.352 N 
ATOM     32  C   UNL     1       5.045   4.647   3.281  1.00  0.00     0.251 C 
ATOM     33  H   UNL     1       3.974   3.766   1.820  1.00  0.00     0.163 HD
ATOM     34  O   UNL     1       5.314   5.634   2.601  1.00  0.00    -0.269 OA
BRANCH  32  35
ATOM     35  C   UNL     1       5.540   4.538   4.673  1.00  0.00     0.039 A 
ATOM     36  C   UNL     1       5.404   5.636   5.526  1.00  0.00     0.014 A 
ATOM     37  C   UNL     1       6.091   3.346   5.152  1.00  0.00     0.014 A 
ATOM     38  C   UNL     1       5.746   5.512   6.876  1.00  0.00     0.010 A 
ATOM     39  C   UNL     1       6.354   3.200   6.512  1.00  0.00     0.010 A 
ATOM     40  C   UNL     1       6.183   4.280   7.391  1.00  0.00    -0.014 A 
BRANCH  40  41
ATOM     41  C   UNL     1       6.454   4.102   8.843  1.00  0.00     0.031 A 
ATOM     42  C   UNL     1       7.837   3.746   9.320  1.00  0.00     0.074 A 
ATOM     43  C   UNL     1       5.442   4.199   9.730  1.00  0.00     0.049 A 
ATOM     44  N   UNL     1       8.254   3.500  10.536  1.00  0.00    -0.248 NA
ATOM     45  C   UNL     1       8.884   3.623   8.293  1.00  0.00     0.031 C 
ATOM     46  C   UNL     1       4.044   4.479   9.393  1.00  0.00     0.029 A 
ATOM     47  N   UNL     1       5.430   4.063  11.097  1.00  0.00    -0.354 N 
ATOM     48  C   UNL     1       9.602   3.181  10.418  1.00  0.00     0.074 A 
ATOM     49  C   UNL     1       9.920   3.209   9.007  1.00  0.00     0.031 C 
ATOM     50  C   UNL     1       3.318   4.522  10.522  1.00  0.00     0.029 A 
ATOM     51  C   UNL     1       4.187   4.237  11.660  1.00  0.00     0.049 A 
ATOM     52  H   UNL     1       6.236   3.861  11.624  1.00  0.00     0.167 HD
ATOM     53  C   UNL     1      10.501   2.916  11.397  1.00  0.00     0.037 A 
ATOM     54  C   UNL     1       3.790   4.171  12.946  1.00  0.00     0.037 A 
ATOM     55  C   UNL     1      10.188   2.917  12.803  1.00  0.00     0.049 A 
ATOM     56  C   UNL     1       4.808   3.885  14.017  1.00  0.00     0.074 A 
ATOM     57  C   UNL     1      11.043   2.721  13.874  1.00  0.00     0.029 A 
ATOM     58  N   UNL     1       8.924   3.123  13.334  1.00  0.00    -0.354 N 
ATOM     59  N   UNL     1       6.093   3.655  13.891  1.00  0.00    -0.248 NA
ATOM     60  C   UNL     1       4.325   3.859  15.405  1.00  0.00     0.031 C 
ATOM     61  C   UNL     1      10.288   2.768  15.050  1.00  0.00     0.029 A 
ATOM     62  C   UNL     1       8.972   3.042  14.716  1.00  0.00     0.049 A 
ATOM     63  H   UNL     1       8.112   3.302  12.807  1.00  0.00     0.167 HD
ATOM     64  C   UNL     1       6.577   3.484  15.184  1.00  0.00     0.074 A 
ATOM     65  C   UNL     1       5.449   3.650  16.077  1.00  0.00     0.031 C 
ATOM     66  C   UNL     1       7.841   3.216  15.594  1.00  0.00     0.037 A 
BRANCH  53  67
ATOM     67  C   UNL     1      11.915   2.612  10.981  1.00  0.00     0.058 A 
ATOM     68  C   UNL     1      12.754   3.604  10.447  1.00  0.00     0.135 A 
ATOM     69  C   UNL     1      12.448   1.324  11.147  1.00  0.00     0.135 A 
ATOM     70  F   UNL     1      12.291   4.849  10.252  1.00  0.00    -0.206 F 
ATOM     71  C   UNL     1      14.061   3.322  10.064  1.00  0.00     0.059 A 
ATOM     72  C   UNL     1      13.763   1.027  10.797  1.00  0.00     0.059 A 
ATOM     73  F   UNL     1      11.691   0.338  11.652  1.00  0.00    -0.206 F 
ATOM     74  C   UNL     1      14.556   2.030  10.242  1.00  0.00     0.060 A 
BRANCH  74  75
ATOM     75  S   UNL     1      16.255   1.682   9.739  1.00  0.00     0.124 S 
ATOM     76  O   UNL     1      16.131   1.677   8.284  1.00  0.00    -0.237 OA
ATOM     77  O   UNL     1      16.986   2.809  10.308  1.00  0.00    -0.237 OA
ATOM     78  O   UNL     1      16.531   0.385  10.349  1.00  0.00    -0.744 OA
ENDBRANCH  74  75
ENDBRANCH  53  67
BRANCH  54  79
ATOM     79  C   UNL     1       2.364   4.409  13.297  1.00  0.00     0.058 A 
ATOM     80  C   UNL     1       1.972   5.575  13.971  1.00  0.00     0.135 A 
ATOM     81  C   UNL     1       1.364   3.483  12.959  1.00  0.00     0.135 A 
ATOM     82  F   UNL     1       2.891   6.488  14.322  1.00  0.00    -0.206 F 
ATOM     83  C   UNL     1       0.644   5.810  14.313  1.00  0.00     0.059 A 
ATOM     84  C   UNL     1       0.026   3.707  13.267  1.00  0.00     0.059 A 
ATOM     85  F   UNL     1       1.685   2.360  12.299  1.00  0.00    -0.206 F 
ATOM     86  C   UNL     1      -0.323   4.869  13.954  1.00  0.00     0.060 A 
BRANCH  86  87
ATOM     87  S   UNL     1      -2.051   5.205  14.358  1.00  0.00     0.124 S 
ATOM     88  O   UNL     1      -2.066   4.975  15.798  1.00  0.00    -0.237 OA
ATOM     89  O   UNL     1      -2.201   6.593  13.931  1.00  0.00    -0.237 OA
ATOM     90  O   UNL     1      -2.779   4.229  13.554  1.00  0.00    -0.744 OA
ENDBRANCH  86  87
ENDBRANCH  54  79
BRANCH  66  91
ATOM     91  C   UNL     1       8.083   3.119  17.076  1.00  0.00     0.058 A 
ATOM     92  C   UNL     1       7.635   2.022  17.828  1.00  0.00     0.135 A 
ATOM     93  C   UNL     1       8.813   4.117  17.742  1.00  0.00     0.135 A 
ATOM     94  F   UNL     1       6.928   1.044  17.241  1.00  0.00    -0.206 F 
ATOM     95  C   UNL     1       7.880   1.930  19.194  1.00  0.00     0.059 A 
ATOM     96  C   UNL     1       9.094   4.032  19.102  1.00  0.00     0.059 A 
ATOM     97  F   UNL     1       9.275   5.182  17.067  1.00  0.00    -0.206 F 
ATOM     98  C   UNL     1       8.611   2.941  19.823  1.00  0.00     0.060 A 
BRANCH  98  99
ATOM     99  S   UNL     1       8.945   2.796  21.591  1.00  0.00     0.124 S 
ATOM    100  O   UNL     1       7.643   3.120  22.163  1.00  0.00    -0.237 OA
ATOM    101  O   UNL     1       9.365   1.404  21.717  1.00  0.00    -0.237 OA
ATOM    102  O   UNL     1       9.996   3.784  21.819  1.00  0.00    -0.744 OA
ENDBRANCH  98  99
ENDBRANCH  66  91
ENDBRANCH  40  41
ENDBRANCH  32  35
ENDBRANCH  30  31
ENDBRANCH   1  30
TORSDOF 16
