REMARK SMILES COc1cc(OC)cc(-c2cnc(Cl)c(C(=O)NCCCNC(=O)c3ccc(-c4c5nc(c(-c6c(F)cc(S(=O)(=O)[O-])cc6F)c6ccc([nH]6)c(-c6c(F)cc(S(=O)(=O)[O-])cc6F)c6nc(c(-c7c(F)cc(S(=O)(=O)[O-])cc7F)c7ccc4[nH]7)C=C6)C=C5)cc3)c2)c1
REMARK SMILES IDX 20 1 19 2 18 3 16 4 17 5 15 7 10 8 11 9 91 10 12 11 13 12
REMARK SMILES IDX 14 13 9 14 3 15 4 16 92 17 5 18 8 19 2 20 1 21 6 22 7 23
REMARK SMILES IDX 21 24 22 25 23 26 24 28 25 29 26 30 90 31 27 32 89 33 28 34
REMARK SMILES IDX 29 35 30 36 83 37 31 38 88 39 82 40 84 41 32 42 87 43 81 44
REMARK SMILES IDX 80 45 33 47 67 48 46 49 66 50 47 51 50 52 65 53 85 54 48 55
REMARK SMILES IDX 49 56 64 58 86 59 51 60 34 61 35 62 44 63 36 64 37 65 43 66
REMARK SMILES IDX 45 67 38 68 39 69 40 70 41 71 42 72 68 73 69 74 78 75 70 76
REMARK SMILES IDX 71 77 77 78 79 79 72 80 73 81 74 82 75 83 76 84 52 85 53 86
REMARK SMILES IDX 62 87 54 88 55 89 61 90 63 91 56 92 57 93 58 94 59 95 60 96
REMARK H PARENT 18 6 22 27 84 46 50 57
REMARK Flexibility Score: inf
ROOT
ATOM      1  C   UNL     1      10.309   2.485   3.440  1.00  0.00     0.042 C 
ENDROOT
BRANCH   1   2
ATOM      2  C   UNL     1       9.422   3.690   3.123  1.00  0.00     0.118 C 
BRANCH   2   3
ATOM      3  N   UNL     1       8.591   3.402   1.972  1.00  0.00    -0.352 N 
ATOM      4  C   UNL     1       7.314   2.950   1.801  1.00  0.00     0.254 C 
ATOM      5  O   UNL     1       6.994   2.724   0.628  1.00  0.00    -0.269 OA
ATOM      6  H   UNL     1       9.052   3.570   1.119  1.00  0.00     0.163 HD
BRANCH   4   7
ATOM      7  C   UNL     1       6.256   2.810   2.837  1.00  0.00     0.077 A 
ATOM      8  C   UNL     1       3.810   2.839   3.133  1.00  0.00     0.001 A 
ATOM      9  C   UNL     1       4.027   2.526   4.464  1.00  0.00     0.121 A 
ATOM     10  C   UNL     1       4.949   3.014   2.338  1.00  0.00     0.027 A 
ATOM     11  N   UNL     1       5.247   2.325   4.994  1.00  0.00    -0.243 NA
ATOM     12  C   UNL     1       6.324   2.417   4.166  1.00  0.00     0.141 A 
ATOM     13  Cl  UNL     1       7.677   1.779   4.995  1.00  0.00    -0.061 Cl
BRANCH   8  14
ATOM     14  C   UNL     1       2.459   2.938   2.584  1.00  0.00    -0.009 A 
ATOM     15  C   UNL     1       0.708   2.080   1.129  1.00  0.00     0.123 A 
ATOM     16  C   UNL     1      -0.140   3.094   1.579  1.00  0.00     0.092 A 
ATOM     17  C   UNL     1       2.009   2.012   1.625  1.00  0.00     0.055 A 
ATOM     18  C   UNL     1       0.289   4.028   2.524  1.00  0.00     0.123 A 
ATOM     19  C   UNL     1       1.585   3.940   3.029  1.00  0.00     0.055 A 
BRANCH  15  20
ATOM     20  O   UNL     1       0.160   1.236   0.201  1.00  0.00    -0.497 OA
ATOM     21  C   UNL     1       0.868   0.030  -0.065  1.00  0.00     0.278 C 
ENDBRANCH  15  20
BRANCH  18  22
ATOM     22  O   UNL     1      -0.640   4.966   2.883  1.00  0.00    -0.497 OA
ATOM     23  C   UNL     1      -0.185   6.021   3.723  1.00  0.00     0.278 C 
ENDBRANCH  18  22
ENDBRANCH   8  14
ENDBRANCH   4   7
ENDBRANCH   2   3
ENDBRANCH   1   2
BRANCH   1  24
ATOM     24  C   UNL     1      11.533   2.363   2.543  1.00  0.00     0.118 C 
BRANCH  24  25
ATOM     25  N   UNL     1      12.547   3.348   2.884  1.00  0.00    -0.352 N 
ATOM     26  C   UNL     1      13.790   3.165   3.435  1.00  0.00     0.251 C 
ATOM     27  H   UNL     1      12.306   4.282   2.692  1.00  0.00     0.163 HD
ATOM     28  O   UNL     1      14.382   4.136   3.911  1.00  0.00    -0.269 OA
BRANCH  26  29
ATOM     29  C   UNL     1      14.422   1.826   3.465  1.00  0.00     0.039 A 
ATOM     30  C   UNL     1      15.180   1.458   4.581  1.00  0.00     0.014 A 
ATOM     31  C   UNL     1      14.319   0.952   2.378  1.00  0.00     0.014 A 
ATOM     32  C   UNL     1      15.794   0.203   4.624  1.00  0.00     0.010 A 
ATOM     33  C   UNL     1      14.863  -0.327   2.456  1.00  0.00     0.010 A 
ATOM     34  C   UNL     1      15.619  -0.711   3.572  1.00  0.00    -0.014 A 
BRANCH  34  35
ATOM     35  C   UNL     1      16.235  -2.062   3.609  1.00  0.00     0.031 A 
ATOM     36  C   UNL     1      17.264  -2.450   2.579  1.00  0.00     0.074 A 
ATOM     37  C   UNL     1      15.820  -2.960   4.526  1.00  0.00     0.049 A 
ATOM     38  N   UNL     1      17.849  -3.604   2.388  1.00  0.00    -0.248 NA
ATOM     39  C   UNL     1      17.667  -1.410   1.617  1.00  0.00     0.031 C 
ATOM     40  C   UNL     1      14.794  -2.717   5.542  1.00  0.00     0.029 A 
ATOM     41  N   UNL     1      16.198  -4.261   4.742  1.00  0.00    -0.354 N 
ATOM     42  C   UNL     1      18.669  -3.436   1.277  1.00  0.00     0.074 A 
ATOM     43  C   UNL     1      18.470  -2.083   0.806  1.00  0.00     0.031 C 
ATOM     44  C   UNL     1      14.637  -3.826   6.283  1.00  0.00     0.029 A 
ATOM     45  C   UNL     1      15.520  -4.869   5.773  1.00  0.00     0.049 A 
ATOM     46  H   UNL     1      16.889  -4.717   4.210  1.00  0.00     0.167 HD
ATOM     47  C   UNL     1      19.525  -4.322   0.715  1.00  0.00     0.037 A 
ATOM     48  C   UNL     1      15.595  -6.128   6.246  1.00  0.00     0.037 A 
ATOM     49  C   UNL     1      19.744  -5.655   1.215  1.00  0.00     0.049 A 
ATOM     50  C   UNL     1      16.568  -7.088   5.616  1.00  0.00     0.074 A 
ATOM     51  C   UNL     1      20.636  -6.609   0.758  1.00  0.00     0.029 A 
ATOM     52  N   UNL     1      19.067  -6.220   2.286  1.00  0.00    -0.354 N 
ATOM     53  N   UNL     1      17.380  -6.892   4.604  1.00  0.00    -0.248 NA
ATOM     54  C   UNL     1      16.642  -8.437   6.195  1.00  0.00     0.031 C 
ATOM     55  C   UNL     1      20.470  -7.765   1.528  1.00  0.00     0.029 A 
ATOM     56  C   UNL     1      19.509  -7.515   2.495  1.00  0.00     0.049 A 
ATOM     57  H   UNL     1      18.373  -5.767   2.818  1.00  0.00     0.167 HD
ATOM     58  C   UNL     1      18.082  -8.082   4.444  1.00  0.00     0.074 A 
ATOM     59  C   UNL     1      17.606  -8.987   5.470  1.00  0.00     0.031 C 
ATOM     60  C   UNL     1      19.034  -8.396   3.532  1.00  0.00     0.037 A 
BRANCH  47  61
ATOM     61  C   UNL     1      20.299  -3.880  -0.497  1.00  0.00     0.058 A 
ATOM     62  C   UNL     1      21.331  -2.932  -0.408  1.00  0.00     0.135 A 
ATOM     63  C   UNL     1      20.041  -4.447  -1.756  1.00  0.00     0.135 A 
ATOM     64  F   UNL     1      21.610  -2.345   0.767  1.00  0.00    -0.206 F 
ATOM     65  C   UNL     1      22.062  -2.543  -1.526  1.00  0.00     0.059 A 
ATOM     66  C   UNL     1      20.779  -4.094  -2.883  1.00  0.00     0.059 A 
ATOM     67  F   UNL     1      19.066  -5.358  -1.900  1.00  0.00    -0.206 F 
ATOM     68  C   UNL     1      21.780  -3.132  -2.759  1.00  0.00     0.060 A 
BRANCH  68  69
ATOM     69  S   UNL     1      22.751  -2.630  -4.196  1.00  0.00     0.124 S 
ATOM     70  O   UNL     1      22.221  -1.295  -4.454  1.00  0.00    -0.237 OA
ATOM     71  O   UNL     1      24.117  -2.680  -3.683  1.00  0.00    -0.237 OA
ATOM     72  O   UNL     1      22.424  -3.640  -5.198  1.00  0.00    -0.744 OA
ENDBRANCH  68  69
ENDBRANCH  47  61
BRANCH  48  73
ATOM     73  C   UNL     1      14.738  -6.548   7.388  1.00  0.00     0.058 A 
ATOM     74  C   UNL     1      15.293  -6.803   8.651  1.00  0.00     0.135 A 
ATOM     75  C   UNL     1      13.350  -6.696   7.242  1.00  0.00     0.135 A 
ATOM     76  F   UNL     1      16.615  -6.678   8.840  1.00  0.00    -0.206 F 
ATOM     77  C   UNL     1      14.507  -7.212   9.724  1.00  0.00     0.059 A 
ATOM     78  C   UNL     1      12.540  -7.079   8.307  1.00  0.00     0.059 A 
ATOM     79  F   UNL     1      12.767  -6.446   6.060  1.00  0.00    -0.206 F 
ATOM     80  C   UNL     1      13.130  -7.348   9.541  1.00  0.00     0.060 A 
BRANCH  80  81
ATOM     81  S   UNL     1      12.114  -7.848  10.948  1.00  0.00     0.124 S 
ATOM     82  O   UNL     1      12.442  -9.264  11.058  1.00  0.00    -0.237 OA
ATOM     83  O   UNL     1      12.622  -6.990  12.014  1.00  0.00    -0.237 OA
ATOM     84  O   UNL     1      10.756  -7.546  10.504  1.00  0.00    -0.744 OA
ENDBRANCH  80  81
ENDBRANCH  48  73
BRANCH  60  85
ATOM     85  C   UNL     1      19.657  -9.760   3.624  1.00  0.00     0.058 A 
ATOM     86  C   UNL     1      18.964 -10.917   3.237  1.00  0.00     0.135 A 
ATOM     87  C   UNL     1      20.987  -9.903   4.052  1.00  0.00     0.135 A 
ATOM     88  F   UNL     1      17.689 -10.835   2.826  1.00  0.00    -0.206 F 
ATOM     89  C   UNL     1      19.561 -12.172   3.291  1.00  0.00     0.059 A 
ATOM     90  C   UNL     1      21.613 -11.145   4.088  1.00  0.00     0.059 A 
ATOM     91  F   UNL     1      21.698  -8.826   4.424  1.00  0.00    -0.206 F 
ATOM     92  C   UNL     1      20.887 -12.275   3.715  1.00  0.00     0.060 A 
BRANCH  92  93
ATOM     93  S   UNL     1      21.663 -13.905   3.743  1.00  0.00     0.124 S 
ATOM     94  O   UNL     1      21.040 -14.507   4.917  1.00  0.00    -0.237 OA
ATOM     95  O   UNL     1      21.262 -14.465   2.456  1.00  0.00    -0.237 OA
ATOM     96  O   UNL     1      23.085 -13.602   3.872  1.00  0.00    -0.744 OA
ENDBRANCH  92  93
ENDBRANCH  60  85
ENDBRANCH  34  35
ENDBRANCH  26  29
ENDBRANCH  24  25
ENDBRANCH   1  24
TORSDOF 16
