REMARK SMILES Cc1cc(N2CCC[C@H]2C2CCCC2)cc(C(=O)NCCCNC(=O)c2ccc(-c3c4nc(c(-c5c(F)cc(S(=O)(=O)[O-])cc5F)c5ccc([nH]5)c(-c5c(F)cc(S(=O)(=O)[O-])cc5F)c5nc(c(-c6c(F)cc(S(=O)(=O)[O-])cc6F)c6ccc3[nH]6)C=C5)C=C4)cc2)c1N
REMARK SMILES IDX 21 1 20 2 19 3 17 4 18 5 16 7 1 8 2 9 3 10 92 11 4 12 15 13
REMARK SMILES IDX 93 14 5 17 6 18 9 19 7 20 8 21 10 22 11 23 14 24 12 25 13 26
REMARK SMILES IDX 22 27 23 28 24 29 25 31 26 32 27 33 91 34 28 35 90 36 29 37
REMARK SMILES IDX 30 38 31 39 84 40 32 41 89 42 83 43 85 44 33 45 88 46 82 47
REMARK SMILES IDX 81 48 34 50 68 51 47 52 67 53 48 54 51 55 66 56 86 57 49 58
REMARK SMILES IDX 50 59 65 61 87 62 52 63 35 64 36 65 45 66 37 67 38 68 44 69
REMARK SMILES IDX 46 70 39 71 40 72 41 73 42 74 43 75 69 76 70 77 79 78 71 79
REMARK SMILES IDX 72 80 78 81 80 82 73 83 74 84 75 85 76 86 77 87 53 88 54 89
REMARK SMILES IDX 63 90 55 91 56 92 62 93 64 94 57 95 58 96 59 97 60 98 61 99
REMARK H PARENT 19 6 93 15 93 16 23 30 85 49 51 60
REMARK Flexibility Score: inf
ROOT
ATOM      1  C   UNL     1      -3.100  -3.983  -1.186  1.00  0.00     0.042 C 
ENDROOT
BRANCH   1   2
ATOM      2  C   UNL     1      -2.223  -3.753   0.045  1.00  0.00     0.118 C 
BRANCH   2   3
ATOM      3  N   UNL     1      -0.826  -3.677  -0.334  1.00  0.00    -0.352 N 
ATOM      4  C   UNL     1       0.061  -2.646  -0.513  1.00  0.00     0.253 C 
ATOM      5  O   UNL     1       1.202  -2.992  -0.844  1.00  0.00    -0.269 OA
ATOM      6  H   UNL     1      -0.425  -4.561  -0.499  1.00  0.00     0.163 HD
BRANCH   4   7
ATOM      7  C   UNL     1      -0.236  -1.187  -0.291  1.00  0.00     0.065 A 
ATOM      8  C   UNL     1       1.722   2.025   0.431  1.00  0.00     0.046 C 
ATOM      9  C   UNL     1       0.591   1.056   0.208  1.00  0.00    -0.025 A 
ATOM     10  C   UNL     1      -0.730   1.543   0.141  1.00  0.00     0.031 A 
ATOM     11  C   UNL     1       0.845  -0.318   0.012  1.00  0.00     0.047 A 
ATOM     12  C   UNL     1      -1.806   0.717  -0.205  1.00  0.00     0.038 A 
ATOM     13  C   UNL     1      -1.512  -0.631  -0.484  1.00  0.00     0.042 A 
BRANCH  11  14
ATOM     14  N   UNL     1       2.135  -0.817   0.259  1.00  0.00    -0.398 N 
ATOM     15  H   UNL     1       2.870  -0.197   0.468  1.00  0.00     0.156 HD
ATOM     16  H   UNL     1       2.303  -1.786   0.224  1.00  0.00     0.156 HD
ENDBRANCH  11  14
BRANCH  12  17
ATOM     17  N   UNL     1      -3.119   1.201  -0.329  1.00  0.00    -0.368 N 
ATOM     18  C   UNL     1      -3.296   2.374  -1.202  1.00  0.00     0.117 C 
ATOM     19  C   UNL     1      -3.935   1.379   0.911  1.00  0.00     0.085 C 
ATOM     20  C   UNL     1      -3.740   3.494  -0.269  1.00  0.00     0.024 C 
ATOM     21  C   UNL     1      -4.587   2.774   0.760  1.00  0.00     0.027 C 
BRANCH  19  22
ATOM     22  C   UNL     1      -5.022   0.297   1.142  1.00  0.00     0.011 C 
ATOM     23  C   UNL     1      -6.171   0.247   0.126  1.00  0.00     0.006 C 
ATOM     24  C   UNL     1      -4.512  -1.133   1.109  1.00  0.00     0.006 C 
ATOM     25  C   UNL     1      -6.788  -1.142   0.273  1.00  0.00     0.000 C 
ATOM     26  C   UNL     1      -5.731  -2.019   0.928  1.00  0.00     0.000 C 
ENDBRANCH  19  22
ENDBRANCH  12  17
ENDBRANCH   4   7
ENDBRANCH   2   3
ENDBRANCH   1   2
BRANCH   1  27
ATOM     27  C   UNL     1      -3.808  -5.337  -1.203  1.00  0.00     0.118 C 
BRANCH  27  28
ATOM     28  N   UNL     1      -4.781  -5.517  -0.133  1.00  0.00    -0.352 N 
ATOM     29  C   UNL     1      -6.099  -5.911  -0.155  1.00  0.00     0.251 C 
ATOM     30  H   UNL     1      -4.433  -5.321   0.767  1.00  0.00     0.163 HD
ATOM     31  O   UNL     1      -6.729  -5.909   0.903  1.00  0.00    -0.269 OA
BRANCH  29  32
ATOM     32  C   UNL     1      -6.788  -6.292  -1.414  1.00  0.00     0.039 A 
ATOM     33  C   UNL     1      -8.142  -5.964  -1.563  1.00  0.00     0.014 A 
ATOM     34  C   UNL     1      -6.140  -6.975  -2.442  1.00  0.00     0.014 A 
ATOM     35  C   UNL     1      -8.807  -6.234  -2.765  1.00  0.00     0.010 A 
ATOM     36  C   UNL     1      -6.770  -7.149  -3.674  1.00  0.00     0.010 A 
ATOM     37  C   UNL     1      -8.111  -6.779  -3.855  1.00  0.00    -0.014 A 
BRANCH  37  38
ATOM     38  C   UNL     1      -8.747  -6.967  -5.190  1.00  0.00     0.031 A 
ATOM     39  C   UNL     1      -8.786  -8.335  -5.822  1.00  0.00     0.074 A 
ATOM     40  C   UNL     1      -9.194  -5.897  -5.880  1.00  0.00     0.049 A 
ATOM     41  N   UNL     1      -9.133  -8.677  -7.037  1.00  0.00    -0.248 NA
ATOM     42  C   UNL     1      -8.337  -9.463  -4.990  1.00  0.00     0.031 C 
ATOM     43  C   UNL     1      -9.168  -4.511  -5.408  1.00  0.00     0.029 A 
ATOM     44  N   UNL     1      -9.736  -5.804  -7.140  1.00  0.00    -0.354 N 
ATOM     45  C   UNL     1      -8.907 -10.046  -7.126  1.00  0.00     0.074 A 
ATOM     46  C   UNL     1      -8.351 -10.464  -5.858  1.00  0.00     0.031 C 
ATOM     47  C   UNL     1      -9.687  -3.711  -6.354  1.00  0.00     0.029 A 
ATOM     48  C   UNL     1     -10.036  -4.516  -7.520  1.00  0.00     0.049 A 
ATOM     49  H   UNL     1      -9.896  -6.586  -7.716  1.00  0.00     0.167 HD
ATOM     50  C   UNL     1      -9.159 -10.884  -8.161  1.00  0.00     0.037 A 
ATOM     51  C   UNL     1     -10.519  -4.031  -8.681  1.00  0.00     0.037 A 
ATOM     52  C   UNL     1      -9.764 -10.472  -9.401  1.00  0.00     0.049 A 
ATOM     53  C   UNL     1     -10.821  -4.984  -9.806  1.00  0.00     0.074 A 
ATOM     54  C   UNL     1     -10.130 -11.257 -10.481  1.00  0.00     0.029 A 
ATOM     55  N   UNL     1     -10.100  -9.166  -9.724  1.00  0.00    -0.354 N 
ATOM     56  N   UNL     1     -10.646  -6.283  -9.853  1.00  0.00    -0.248 NA
ATOM     57  C   UNL     1     -11.388  -4.408 -11.034  1.00  0.00     0.031 C 
ATOM     58  C   UNL     1     -10.656 -10.420 -11.471  1.00  0.00     0.029 A 
ATOM     59  C   UNL     1     -10.658  -9.120 -10.991  1.00  0.00     0.049 A 
ATOM     60  H   UNL     1      -9.963  -8.386  -9.139  1.00  0.00     0.167 HD
ATOM     61  C   UNL     1     -11.104  -6.683 -11.104  1.00  0.00     0.074 A 
ATOM     62  C   UNL     1     -11.574  -5.490 -11.778  1.00  0.00     0.031 C 
ATOM     63  C   UNL     1     -11.134  -7.926 -11.643  1.00  0.00     0.037 A 
BRANCH  50  64
ATOM     64  C   UNL     1      -8.792 -12.334  -7.994  1.00  0.00     0.058 A 
ATOM     65  C   UNL     1      -9.496 -13.178  -7.120  1.00  0.00     0.135 A 
ATOM     66  C   UNL     1      -7.747 -12.897  -8.745  1.00  0.00     0.135 A 
ATOM     67  F   UNL     1     -10.495 -12.690  -6.367  1.00  0.00    -0.206 F 
ATOM     68  C   UNL     1      -9.156 -14.518  -6.971  1.00  0.00     0.059 A 
ATOM     69  C   UNL     1      -7.409 -14.243  -8.635  1.00  0.00     0.059 A 
ATOM     70  F   UNL     1      -7.042 -12.138  -9.599  1.00  0.00    -0.206 F 
ATOM     71  C   UNL     1      -8.111 -15.042  -7.732  1.00  0.00     0.060 A 
BRANCH  71  72
ATOM     72  S   UNL     1      -7.687 -16.785  -7.530  1.00  0.00     0.124 S 
ATOM     73  O   UNL     1      -7.017 -16.773  -6.233  1.00  0.00    -0.237 OA
ATOM     74  O   UNL     1      -8.995 -17.431  -7.561  1.00  0.00    -0.237 OA
ATOM     75  O   UNL     1      -6.828 -17.062  -8.677  1.00  0.00    -0.744 OA
ENDBRANCH  71  72
ENDBRANCH  50  64
BRANCH  51  76
ATOM     76  C   UNL     1     -10.765  -2.571  -8.832  1.00  0.00     0.058 A 
ATOM     77  C   UNL     1     -12.071  -2.062  -8.871  1.00  0.00     0.135 A 
ATOM     78  C   UNL     1      -9.704  -1.656  -8.917  1.00  0.00     0.135 A 
ATOM     79  F   UNL     1     -13.118  -2.898  -8.801  1.00  0.00    -0.206 F 
ATOM     80  C   UNL     1     -12.319  -0.699  -9.002  1.00  0.00     0.059 A 
ATOM     81  C   UNL     1      -9.927  -0.286  -9.024  1.00  0.00     0.059 A 
ATOM     82  F   UNL     1      -8.435  -2.090  -8.868  1.00  0.00    -0.206 F 
ATOM     83  C   UNL     1     -11.239   0.182  -9.075  1.00  0.00     0.060 A 
BRANCH  83  84
ATOM     84  S   UNL     1     -11.573   1.954  -9.187  1.00  0.00     0.124 S 
ATOM     85  O   UNL     1     -12.023   2.081 -10.568  1.00  0.00    -0.237 OA
ATOM     86  O   UNL     1     -12.596   2.139  -8.162  1.00  0.00    -0.237 OA
ATOM     87  O   UNL     1     -10.279   2.558  -8.885  1.00  0.00    -0.744 OA
ENDBRANCH  83  84
ENDBRANCH  51  76
BRANCH  63  88
ATOM     88  C   UNL     1     -11.727  -8.074 -13.016  1.00  0.00     0.058 A 
ATOM     89  C   UNL     1     -11.039  -7.657 -14.165  1.00  0.00     0.135 A 
ATOM     90  C   UNL     1     -12.970  -8.705 -13.187  1.00  0.00     0.135 A 
ATOM     91  F   UNL     1      -9.850  -7.043 -14.056  1.00  0.00    -0.206 F 
ATOM     92  C   UNL     1     -11.569  -7.846 -15.437  1.00  0.00     0.059 A 
ATOM     93  C   UNL     1     -13.508  -8.927 -14.450  1.00  0.00     0.059 A 
ATOM     94  F   UNL     1     -13.664  -9.131 -12.120  1.00  0.00    -0.206 F 
ATOM     95  C   UNL     1     -12.803  -8.487 -15.570  1.00  0.00     0.060 A 
BRANCH  95  96
ATOM     96  S   UNL     1     -13.459  -8.770 -17.228  1.00  0.00     0.124 S 
ATOM     97  O   UNL     1     -13.899  -7.430 -17.603  1.00  0.00    -0.237 OA
ATOM     98  O   UNL     1     -12.292  -9.277 -17.943  1.00  0.00    -0.237 OA
ATOM     99  O   UNL     1     -14.524  -9.744 -17.010  1.00  0.00    -0.744 OA
ENDBRANCH  95  96
ENDBRANCH  63  88
ENDBRANCH  37  38
ENDBRANCH  29  32
ENDBRANCH  27  28
ENDBRANCH   1  27
TORSDOF 16
