REMARK SMILES O=C(CS(=O)(=O)NCc1ccc(N2CCOCC2)nc1)NCCCNC(=O)c1ccc(-c2c3nc(c(-c4c(F)cc(S(=O)(=O)[O-])cc4F)c4ccc([nH]4)c(-c4c(F)cc(S(=O)(=O)[O-])cc4F)c4nc(c(-c5c(F)cc(S(=O)(=O)[O-])cc5F)c5ccc2[nH]5)C=C4)C=C3)cc1
REMARK SMILES IDX 22 1 21 2 1 3 2 4 3 6 4 7 5 8 6 9 7 10 8 12 9 13 10 14 20 15
REMARK SMILES IDX 11 16 19 17 12 18 13 19 14 20 18 21 15 22 17 23 16 24 23 25
REMARK SMILES IDX 24 26 25 27 26 28 27 30 28 31 29 32 93 33 30 34 92 35 31 36
REMARK SMILES IDX 32 37 33 38 86 39 34 40 91 41 85 42 87 43 35 44 90 45 84 46
REMARK SMILES IDX 83 47 36 49 70 50 49 51 69 52 50 53 53 54 68 55 88 56 51 57
REMARK SMILES IDX 52 58 67 60 89 61 54 62 37 63 38 64 47 65 39 66 40 67 46 68
REMARK SMILES IDX 48 69 41 70 42 71 43 72 44 73 45 74 71 75 72 76 81 77 73 78
REMARK SMILES IDX 74 79 80 80 82 81 75 82 76 83 77 84 78 85 79 86 55 87 56 88
REMARK SMILES IDX 65 89 57 90 58 91 64 92 66 93 59 94 60 95 61 96 62 97 63 98
REMARK H PARENT 21 5 7 11 25 29 87 48 53 59
REMARK Flexibility Score: inf
ROOT
ATOM      1  C   UNL     1       1.938   1.649  -1.496  1.00  0.00     0.117 C 
ENDROOT
BRANCH   1   2
ATOM      2  N   UNL     1       2.647   0.792  -0.562  1.00  0.00    -0.355 N 
ATOM      3  O   UNL     1       0.806  -0.416   0.066  1.00  0.00    -0.274 OA
ATOM      4  C   UNL     1       2.010  -0.184   0.170  1.00  0.00     0.236 C 
ATOM      5  H   UNL     1       3.617   0.914  -0.449  1.00  0.00     0.163 HD
BRANCH   4   6
ATOM      6  C   UNL     1       2.847  -0.901   1.181  1.00  0.00     0.253 C 
BRANCH   6   7
ATOM      7  S   UNL     1       4.099  -1.893   0.427  1.00  0.00     0.220 S 
ATOM      8  O   UNL     1       4.849  -1.059  -0.483  1.00  0.00    -0.212 OA
ATOM      9  O   UNL     1       4.785  -2.593   1.496  1.00  0.00    -0.212 OA
BRANCH   7  10
ATOM     10  N   UNL     1       3.315  -3.102  -0.403  1.00  0.00    -0.210 NA
ATOM     11  H   UNL     1       2.605  -3.457   0.238  1.00  0.00     0.141 HD
BRANCH  10  12
ATOM     12  C   UNL     1       2.632  -2.923  -1.684  1.00  0.00     0.135 C 
BRANCH  12  13
ATOM     13  C   UNL     1       3.433  -2.303  -2.788  1.00  0.00    -0.015 A 
ATOM     14  C   UNL     1       2.892  -1.283  -3.566  1.00  0.00     0.010 A 
ATOM     15  C   UNL     1       4.737  -2.688  -3.079  1.00  0.00     0.118 A 
ATOM     16  C   UNL     1       3.691  -0.644  -4.505  1.00  0.00     0.047 A 
ATOM     17  N   UNL     1       5.539  -2.068  -3.979  1.00  0.00    -0.239 NA
ATOM     18  C   UNL     1       5.021  -1.027  -4.657  1.00  0.00     0.128 A 
BRANCH  18  19
ATOM     19  N   UNL     1       5.815  -0.256  -5.471  1.00  0.00    -0.352 N 
ATOM     20  C   UNL     1       7.048   0.317  -4.939  1.00  0.00     0.146 C 
ATOM     21  C   UNL     1       5.841  -0.558  -6.896  1.00  0.00     0.146 C 
ATOM     22  C   UNL     1       7.424   1.548  -5.791  1.00  0.00     0.181 C 
ATOM     23  C   UNL     1       6.201   0.733  -7.643  1.00  0.00     0.181 C 
ATOM     24  O   UNL     1       7.474   1.242  -7.200  1.00  0.00    -0.378 OA
ENDBRANCH  18  19
ENDBRANCH  12  13
ENDBRANCH  10  12
ENDBRANCH   7  10
ENDBRANCH   6   7
ENDBRANCH   4   6
ENDBRANCH   1   2
BRANCH   1  25
ATOM     25  C   UNL     1       2.420   3.092  -1.461  1.00  0.00     0.042 C 
BRANCH  25  26
ATOM     26  C   UNL     1       3.888   3.284  -1.832  1.00  0.00     0.118 C 
BRANCH  26  27
ATOM     27  N   UNL     1       4.184   2.825  -3.181  1.00  0.00    -0.352 N 
ATOM     28  C   UNL     1       4.551   3.533  -4.298  1.00  0.00     0.251 C 
ATOM     29  H   UNL     1       4.110   1.852  -3.313  1.00  0.00     0.163 HD
ATOM     30  O   UNL     1       4.337   3.039  -5.404  1.00  0.00    -0.269 OA
BRANCH  28  31
ATOM     31  C   UNL     1       5.198   4.866  -4.191  1.00  0.00     0.039 A 
ATOM     32  C   UNL     1       5.086   5.757  -5.263  1.00  0.00     0.014 A 
ATOM     33  C   UNL     1       5.938   5.241  -3.067  1.00  0.00     0.014 A 
ATOM     34  C   UNL     1       5.611   7.048  -5.158  1.00  0.00     0.010 A 
ATOM     35  C   UNL     1       6.363   6.559  -2.918  1.00  0.00     0.010 A 
ATOM     36  C   UNL     1       6.188   7.484  -3.954  1.00  0.00    -0.014 A 
BRANCH  36  37
ATOM     37  C   UNL     1       6.542   8.912  -3.734  1.00  0.00     0.031 A 
ATOM     38  C   UNL     1       7.947   9.313  -3.374  1.00  0.00     0.074 A 
ATOM     39  C   UNL     1       5.557   9.835  -3.755  1.00  0.00     0.049 A 
ATOM     40  N   UNL     1       8.411  10.492  -3.049  1.00  0.00    -0.248 NA
ATOM     41  C   UNL     1       8.957   8.243  -3.336  1.00  0.00     0.031 C 
ATOM     42  C   UNL     1       4.140   9.555  -4.008  1.00  0.00     0.029 A 
ATOM     43  N   UNL     1       5.590  11.191  -3.549  1.00  0.00    -0.354 N 
ATOM     44  C   UNL     1       9.755  10.304  -2.747  1.00  0.00     0.074 A 
ATOM     45  C   UNL     1      10.020   8.888  -2.874  1.00  0.00     0.031 C 
ATOM     46  C   UNL     1       3.448  10.704  -3.979  1.00  0.00     0.029 A 
ATOM     47  C   UNL     1       4.359  11.796  -3.659  1.00  0.00     0.049 A 
ATOM     48  H   UNL     1       6.416  11.684  -3.341  1.00  0.00     0.167 HD
ATOM     49  C   UNL     1      10.688  11.231  -2.418  1.00  0.00     0.037 A 
ATOM     50  C   UNL     1       4.000  13.086  -3.515  1.00  0.00     0.037 A 
ATOM     51  C   UNL     1      10.418  12.643  -2.328  1.00  0.00     0.049 A 
ATOM     52  C   UNL     1       5.059  14.101  -3.190  1.00  0.00     0.074 A 
ATOM     53  C   UNL     1      11.303  13.675  -2.068  1.00  0.00     0.029 A 
ATOM     54  N   UNL     1       9.169  13.223  -2.501  1.00  0.00    -0.354 N 
ATOM     55  N   UNL     1       6.340  13.912  -2.976  1.00  0.00    -0.248 NA
ATOM     56  C   UNL     1       4.631  15.502  -3.096  1.00  0.00     0.031 C 
ATOM     57  C   UNL     1      10.583  14.875  -2.048  1.00  0.00     0.029 A 
ATOM     58  C   UNL     1       9.257  14.596  -2.341  1.00  0.00     0.049 A 
ATOM     59  H   UNL     1       8.341  12.731  -2.706  1.00  0.00     0.167 HD
ATOM     60  C   UNL     1       6.876  15.174  -2.748  1.00  0.00     0.074 A 
ATOM     61  C   UNL     1       5.782  16.118  -2.863  1.00  0.00     0.031 C 
ATOM     62  C   UNL     1       8.157  15.520  -2.469  1.00  0.00     0.037 A 
BRANCH  49  63
ATOM     63  C   UNL     1      12.088  10.748  -2.145  1.00  0.00     0.058 A 
ATOM     64  C   UNL     1      12.905  10.240  -3.168  1.00  0.00     0.135 A 
ATOM     65  C   UNL     1      12.633  10.819  -0.852  1.00  0.00     0.135 A 
ATOM     66  F   UNL     1      12.433  10.138  -4.421  1.00  0.00    -0.206 F 
ATOM     67  C   UNL     1      14.195   9.786  -2.915  1.00  0.00     0.059 A 
ATOM     68  C   UNL     1      13.932  10.398  -0.581  1.00  0.00     0.059 A 
ATOM     69  F   UNL     1      11.900  11.299   0.166  1.00  0.00    -0.206 F 
ATOM     70  C   UNL     1      14.699   9.866  -1.616  1.00  0.00     0.060 A 
BRANCH  70  71
ATOM     71  S   UNL     1      16.374   9.269  -1.304  1.00  0.00     0.124 S 
ATOM     72  O   UNL     1      16.184   7.823  -1.372  1.00  0.00    -0.237 OA
ATOM     73  O   UNL     1      17.128   9.860  -2.404  1.00  0.00    -0.237 OA
ATOM     74  O   UNL     1      16.683   9.799   0.020  1.00  0.00    -0.744 OA
ENDBRANCH  70  71
ENDBRANCH  49  63
BRANCH  50  75
ATOM     75  C   UNL     1       2.582  13.489  -3.716  1.00  0.00     0.058 A 
ATOM     76  C   UNL     1       2.199  14.223  -4.848  1.00  0.00     0.135 A 
ATOM     77  C   UNL     1       1.580  13.128  -2.802  1.00  0.00     0.135 A 
ATOM     78  F   UNL     1       3.120  14.593  -5.751  1.00  0.00    -0.206 F 
ATOM     79  C   UNL     1       0.877  14.601  -5.060  1.00  0.00     0.059 A 
ATOM     80  C   UNL     1       0.247  13.472  -3.005  1.00  0.00     0.059 A 
ATOM     81  F   UNL     1       1.891  12.406  -1.714  1.00  0.00    -0.206 F 
ATOM     82  C   UNL     1      -0.093  14.218  -4.132  1.00  0.00     0.060 A 
BRANCH  82  83
ATOM     83  S   UNL     1      -1.814  14.672  -4.441  1.00  0.00     0.124 S 
ATOM     84  O   UNL     1      -1.798  16.100  -4.144  1.00  0.00    -0.237 OA
ATOM     85  O   UNL     1      -1.979  14.314  -5.846  1.00  0.00    -0.237 OA
ATOM     86  O   UNL     1      -2.555  13.838  -3.499  1.00  0.00    -0.744 OA
ENDBRANCH  82  83
ENDBRANCH  50  75
BRANCH  62  87
ATOM     87  C   UNL     1       8.452  16.984  -2.305  1.00  0.00     0.058 A 
ATOM     88  C   UNL     1       8.050  17.694  -1.164  1.00  0.00     0.135 A 
ATOM     89  C   UNL     1       9.188  17.671  -3.284  1.00  0.00     0.135 A 
ATOM     90  F   UNL     1       7.338  17.084  -0.204  1.00  0.00    -0.206 F 
ATOM     91  C   UNL     1       8.349  19.044  -1.008  1.00  0.00     0.059 A 
ATOM     92  C   UNL     1       9.521  19.013  -3.136  1.00  0.00     0.059 A 
ATOM     93  F   UNL     1       9.604  17.034  -4.390  1.00  0.00    -0.206 F 
ATOM     94  C   UNL     1       9.086  19.694  -2.000  1.00  0.00     0.060 A 
BRANCH  94  95
ATOM     95  S   UNL     1       9.497  21.437  -1.770  1.00  0.00     0.124 S 
ATOM     96  O   UNL     1       8.216  22.079  -2.045  1.00  0.00    -0.237 OA
ATOM     97  O   UNL     1       9.939  21.474  -0.380  1.00  0.00    -0.237 OA
ATOM     98  O   UNL     1      10.543  21.672  -2.760  1.00  0.00    -0.744 OA
ENDBRANCH  94  95
ENDBRANCH  62  87
ENDBRANCH  36  37
ENDBRANCH  28  31
ENDBRANCH  26  27
ENDBRANCH  25  26
ENDBRANCH   1  25
TORSDOF 18
