REMARK SMILES N#C/C(=C/c1ccc(-c2cccc(C(=O)NCCCNC(=O)c3ccc(-c4c5nc(c(-c6c(F)cc(S(=O)(=O)[O-])cc6F)c6ccc([nH]6)c(-c6c(F)cc(S(=O)(=O)[O-])cc6F)c6nc(c(-c7c(F)cc(S(=O)(=O)[O-])cc7F)c7ccc4[nH]7)C=C6)C=C5)cc3)c2)o1)c1ccc(F)cc1
REMARK SMILES IDX 18 1 17 2 16 3 14 4 15 5 13 7 9 8 10 9 89 10 11 11 12 12
REMARK SMILES IDX 8 13 5 14 6 15 90 16 7 17 4 18 3 19 2 20 1 21 91 22 92 23
REMARK SMILES IDX 97 24 93 25 96 26 94 27 95 28 19 29 20 30 21 31 22 33 23 34
REMARK SMILES IDX 24 35 88 36 25 37 87 38 26 39 27 40 28 41 81 42 29 43 86 44
REMARK SMILES IDX 80 45 82 46 30 47 85 48 79 49 78 50 31 52 65 53 44 54 64 55
REMARK SMILES IDX 45 56 48 57 63 58 83 59 46 60 47 61 62 63 84 64 49 65 32 66
REMARK SMILES IDX 33 67 42 68 34 69 35 70 41 71 43 72 36 73 37 74 38 75 39 76
REMARK SMILES IDX 40 77 66 78 67 79 76 80 68 81 69 82 75 83 77 84 70 85 71 86
REMARK SMILES IDX 72 87 73 88 74 89 50 90 51 91 60 92 52 93 53 94 59 95 61 96
REMARK SMILES IDX 54 97 55 98 56 99 57 100 58 101
REMARK H PARENT 16 6 20 32 82 51 48 62
REMARK Flexibility Score: inf
ROOT
ATOM      1  C   UNL     1      10.162   5.240  -2.023  1.00  0.00     0.042 C 
ENDROOT
BRANCH   1   2
ATOM      2  C   UNL     1      10.964   4.052  -1.518  1.00  0.00     0.118 C 
BRANCH   2   3
ATOM      3  N   UNL     1      11.958   4.373  -0.494  1.00  0.00    -0.352 N 
ATOM      4  C   UNL     1      12.128   4.034   0.833  1.00  0.00     0.251 C 
ATOM      5  O   UNL     1      13.116   4.481   1.416  1.00  0.00    -0.269 OA
ATOM      6  H   UNL     1      12.669   4.967  -0.828  1.00  0.00     0.163 HD
BRANCH   4   7
ATOM      7  C   UNL     1      11.153   3.219   1.610  1.00  0.00     0.040 A 
ATOM      8  C   UNL     1       9.144   1.852   1.657  1.00  0.00     0.018 A 
ATOM      9  C   UNL     1       9.032   2.052   3.032  1.00  0.00     0.012 A 
ATOM     10  C   UNL     1      10.296   2.312   1.008  1.00  0.00     0.025 A 
ATOM     11  C   UNL     1      10.024   2.768   3.712  1.00  0.00     0.002 A 
ATOM     12  C   UNL     1      11.053   3.393   2.994  1.00  0.00     0.014 A 
BRANCH   8  13
ATOM     13  C   UNL     1       8.077   1.333   0.810  1.00  0.00     0.134 A 
ATOM     14  C   UNL     1       5.952   1.214   0.154  1.00  0.00     0.128 A 
ATOM     15  C   UNL     1       6.755   0.781  -0.896  1.00  0.00     0.051 A 
ATOM     16  O   UNL     1       6.787   1.580   1.192  1.00  0.00    -0.457 OA
ATOM     17  C   UNL     1       8.089   0.789  -0.456  1.00  0.00     0.051 A 
BRANCH  14  18
ATOM     18  C   UNL     1       4.525   1.218   0.225  1.00  0.00     0.067 C 
ATOM     19  C   UNL     1       3.819   0.092  -0.010  1.00  0.00     0.063 C 
BRANCH  19  20
ATOM     20  C   UNL     1       2.299   0.092  -0.010  1.00  0.00     0.100 C 
ATOM     21  N   UNL     1       1.038   0.092  -0.010  1.00  0.00    -0.192 NA
ENDBRANCH  19  20
BRANCH  19  22
ATOM     22  C   UNL     1       4.455  -1.244  -0.229  1.00  0.00    -0.007 A 
ATOM     23  C   UNL     1       5.411  -1.747   0.678  1.00  0.00     0.012 A 
ATOM     24  C   UNL     1       4.150  -2.002  -1.370  1.00  0.00     0.012 A 
ATOM     25  C   UNL     1       6.113  -2.921   0.401  1.00  0.00     0.040 A 
ATOM     26  C   UNL     1       4.834  -3.194  -1.630  1.00  0.00     0.040 A 
ATOM     27  C   UNL     1       5.823  -3.630  -0.756  1.00  0.00     0.123 A 
ATOM     28  F   UNL     1       6.510  -4.745  -1.035  1.00  0.00    -0.207 F 
ENDBRANCH  19  22
ENDBRANCH  14  18
ENDBRANCH   8  13
ENDBRANCH   4   7
ENDBRANCH   2   3
ENDBRANCH   1   2
BRANCH   1  29
ATOM     29  C   UNL     1      10.932   6.176  -2.939  1.00  0.00     0.118 C 
BRANCH  29  30
ATOM     30  N   UNL     1      11.412   5.513  -4.148  1.00  0.00    -0.352 N 
ATOM     31  C   UNL     1      11.004   5.602  -5.458  1.00  0.00     0.251 C 
ATOM     32  H   UNL     1      12.161   4.892  -3.999  1.00  0.00     0.163 HD
ATOM     33  O   UNL     1      11.414   4.773  -6.266  1.00  0.00    -0.269 OA
BRANCH  31  34
ATOM     34  C   UNL     1      10.073   6.666  -5.900  1.00  0.00     0.039 A 
ATOM     35  C   UNL     1       9.119   6.372  -6.880  1.00  0.00     0.014 A 
ATOM     36  C   UNL     1      10.156   7.960  -5.386  1.00  0.00     0.014 A 
ATOM     37  C   UNL     1       8.204   7.351  -7.278  1.00  0.00     0.010 A 
ATOM     38  C   UNL     1       9.183   8.901  -5.704  1.00  0.00     0.010 A 
ATOM     39  C   UNL     1       8.198   8.611  -6.657  1.00  0.00    -0.014 A 
BRANCH  39  40
ATOM     40  C   UNL     1       7.172   9.636  -6.982  1.00  0.00     0.031 A 
ATOM     41  C   UNL     1       7.586  10.975  -7.534  1.00  0.00     0.074 A 
ATOM     42  C   UNL     1       5.877   9.391  -6.697  1.00  0.00     0.049 A 
ATOM     43  N   UNL     1       6.850  12.026  -7.790  1.00  0.00    -0.248 NA
ATOM     44  C   UNL     1       9.020  11.172  -7.804  1.00  0.00     0.031 C 
ATOM     45  C   UNL     1       5.360   8.156  -6.101  1.00  0.00     0.029 A 
ATOM     46  N   UNL     1       4.760  10.173  -6.854  1.00  0.00    -0.354 N 
ATOM     47  C   UNL     1       7.729  13.010  -8.227  1.00  0.00     0.074 A 
ATOM     48  C   UNL     1       9.060  12.449  -8.153  1.00  0.00     0.031 C 
ATOM     49  C   UNL     1       4.029   8.256  -5.963  1.00  0.00     0.029 A 
ATOM     50  C   UNL     1       3.601   9.575  -6.417  1.00  0.00     0.049 A 
ATOM     51  H   UNL     1       4.785  11.077  -7.243  1.00  0.00     0.167 HD
ATOM     52  C   UNL     1       7.450  14.258  -8.671  1.00  0.00     0.037 A 
ATOM     53  C   UNL     1       2.337  10.041  -6.372  1.00  0.00     0.037 A 
ATOM     54  C   UNL     1       6.118  14.795  -8.774  1.00  0.00     0.049 A 
ATOM     55  C   UNL     1       2.051  11.426  -6.884  1.00  0.00     0.074 A 
ATOM     56  C   UNL     1       5.722  16.018  -9.285  1.00  0.00     0.029 A 
ATOM     57  N   UNL     1       4.967  14.146  -8.353  1.00  0.00    -0.354 N 
ATOM     58  N   UNL     1       2.887  12.313  -7.370  1.00  0.00    -0.248 NA
ATOM     59  C   UNL     1       0.652  11.873  -6.849  1.00  0.00     0.031 C 
ATOM     60  C   UNL     1       4.337  16.130  -9.126  1.00  0.00     0.029 A 
ATOM     61  C   UNL     1       3.862  14.954  -8.568  1.00  0.00     0.049 A 
ATOM     62  H   UNL     1       4.938  13.243  -7.960  1.00  0.00     0.167 HD
ATOM     63  C   UNL     1       2.112  13.413  -7.721  1.00  0.00     0.074 A 
ATOM     64  C   UNL     1       0.739  13.072  -7.407  1.00  0.00     0.031 C 
ATOM     65  C   UNL     1       2.501  14.598  -8.254  1.00  0.00     0.037 A 
BRANCH  52  66
ATOM     66  C   UNL     1       8.603  15.132  -9.088  1.00  0.00     0.058 A 
ATOM     67  C   UNL     1       9.354  14.866 -10.245  1.00  0.00     0.135 A 
ATOM     68  C   UNL     1       8.931  16.280  -8.348  1.00  0.00     0.135 A 
ATOM     69  F   UNL     1       9.096  13.774 -10.982  1.00  0.00    -0.206 F 
ATOM     70  C   UNL     1      10.401  15.692 -10.640  1.00  0.00     0.059 A 
ATOM     71  C   UNL     1       9.955  17.137  -8.741  1.00  0.00     0.059 A 
ATOM     72  F   UNL     1       8.248  16.583  -7.232  1.00  0.00    -0.206 F 
ATOM     73  C   UNL     1      10.692  16.828  -9.883  1.00  0.00     0.060 A 
BRANCH  73  74
ATOM     74  S   UNL     1      12.042  17.898 -10.421  1.00  0.00     0.124 S 
ATOM     75  O   UNL     1      13.207  17.077 -10.109  1.00  0.00    -0.237 OA
ATOM     76  O   UNL     1      11.753  18.073 -11.841  1.00  0.00    -0.237 OA
ATOM     77  O   UNL     1      11.879  19.093  -9.600  1.00  0.00    -0.744 OA
ENDBRANCH  73  74
ENDBRANCH  52  66
BRANCH  53  78
ATOM     78  C   UNL     1       1.247   9.183  -5.833  1.00  0.00     0.058 A 
ATOM     79  C   UNL     1       0.252   8.664  -6.674  1.00  0.00     0.135 A 
ATOM     80  C   UNL     1       1.185   8.857  -4.469  1.00  0.00     0.135 A 
ATOM     81  F   UNL     1       0.266   8.951  -7.985  1.00  0.00    -0.206 F 
ATOM     82  C   UNL     1      -0.777   7.869  -6.182  1.00  0.00     0.059 A 
ATOM     83  C   UNL     1       0.182   8.040  -3.957  1.00  0.00     0.059 A 
ATOM     84  F   UNL     1       2.124   9.311  -3.624  1.00  0.00    -0.206 F 
ATOM     85  C   UNL     1      -0.802   7.560  -4.821  1.00  0.00     0.060 A 
BRANCH  85  86
ATOM     86  S   UNL     1      -2.118   6.490  -4.200  1.00  0.00     0.124 S 
ATOM     87  O   UNL     1      -3.271   7.380  -4.258  1.00  0.00    -0.237 OA
ATOM     88  O   UNL     1      -2.103   5.398  -5.167  1.00  0.00    -0.237 OA
ATOM     89  O   UNL     1      -1.657   6.139  -2.860  1.00  0.00    -0.744 OA
ENDBRANCH  85  86
ENDBRANCH  53  78
BRANCH  65  90
ATOM     90  C   UNL     1       1.427  15.604  -8.561  1.00  0.00     0.058 A 
ATOM     91  C   UNL     1       0.753  16.299  -7.545  1.00  0.00     0.135 A 
ATOM     92  C   UNL     1       1.106  15.916  -9.892  1.00  0.00     0.135 A 
ATOM     93  F   UNL     1       1.017  16.034  -6.255  1.00  0.00    -0.206 F 
ATOM     94  C   UNL     1      -0.219  17.250  -7.837  1.00  0.00     0.059 A 
ATOM     95  C   UNL     1       0.160  16.884 -10.208  1.00  0.00     0.059 A 
ATOM     96  F   UNL     1       1.729  15.288 -10.903  1.00  0.00    -0.206 F 
ATOM     97  C   UNL     1      -0.507  17.538  -9.173  1.00  0.00     0.060 A 
BRANCH  97  98
ATOM     98  S   UNL     1      -1.746  18.798  -9.537  1.00  0.00     0.124 S 
ATOM     99  O   UNL     1      -2.982  18.105  -9.187  1.00  0.00    -0.237 OA
ATOM    100  O   UNL     1      -1.356  19.887  -8.647  1.00  0.00    -0.237 OA
ATOM    101  O   UNL     1      -1.556  19.061 -10.961  1.00  0.00    -0.744 OA
ENDBRANCH  97  98
ENDBRANCH  65  90
ENDBRANCH  39  40
ENDBRANCH  31  34
ENDBRANCH  29  30
ENDBRANCH   1  29
TORSDOF 17
