REMARK SMILES COc1ccc(-c2csc(NC(=O)[C@H](CC(=O)NCCCNC(=O)c3ccc(-c4c5nc(c(-c6c(F)cc(S(=O)(=O)[O-])cc6F)c6ccc([nH]6)c(-c6c(F)cc(S(=O)(=O)[O-])cc6F)c6nc(c(-c7c(F)cc(S(=O)(=O)[O-])cc7F)c7ccc4[nH]7)C=C6)C=C5)cc3)[NH+]3CCCCC3)n2)cc1
REMARK SMILES IDX 19 1 18 2 16 3 17 4 15 6 14 7 12 8 11 9 13 11 10 12 7 13
REMARK SMILES IDX 8 14 97 15 9 16 6 17 3 18 4 19 99 20 5 21 98 22 2 23 1 24
REMARK SMILES IDX 91 25 92 26 96 27 93 29 95 30 94 31 20 32 21 33 22 34 23 35
REMARK SMILES IDX 24 37 25 38 26 39 90 40 27 41 89 42 28 43 29 44 30 45 83 46
REMARK SMILES IDX 31 47 88 48 82 49 84 50 32 51 87 52 81 53 80 54 33 56 67 57
REMARK SMILES IDX 46 58 66 59 47 60 50 61 65 62 85 63 48 64 49 65 64 67 86 68
REMARK SMILES IDX 51 69 34 70 35 71 44 72 36 73 37 74 43 75 45 76 38 77 39 78
REMARK SMILES IDX 40 79 41 80 42 81 68 82 69 83 78 84 70 85 71 86 77 87 79 88
REMARK SMILES IDX 72 89 73 90 74 91 75 92 76 93 52 94 53 95 62 96 54 97 55 98
REMARK SMILES IDX 61 99 63 100 56 101 57 102 58 103 59 104 60 105
REMARK H PARENT 18 5 11 10 91 28 22 36 84 55 50 66
REMARK Flexibility Score: inf
ROOT
ATOM      1  C   UNL     1       7.422   2.901  -8.538  1.00  0.00     0.117 C 
ENDROOT
BRANCH   1   2
ATOM      2  N   UNL     1       6.210   2.229  -8.097  1.00  0.00    -0.356 N 
ATOM      3  C   UNL     1       5.083   1.868  -8.784  1.00  0.00     0.226 C 
ATOM      4  O   UNL     1       4.380   0.983  -8.292  1.00  0.00    -0.275 OA
ATOM      5  H   UNL     1       6.198   1.993  -7.141  1.00  0.00     0.163 HD
BRANCH   3   6
ATOM      6  C   UNL     1       4.726   2.486 -10.121  1.00  0.00     0.175 C 
BRANCH   6   7
ATOM      7  C   UNL     1       3.567   3.516 -10.187  1.00  0.00     0.284 C 
BRANCH   7   8
ATOM      8  C   UNL     1       2.159   2.835 -10.079  1.00  0.00     0.285 C 
ATOM      9  N   UNL     1       1.233   3.188  -9.133  1.00  0.00    -0.297 N 
ATOM     10  H   UNL     1       0.293   3.024  -9.375  1.00  0.00     0.172 HD
ATOM     11  O   UNL     1       1.798   2.064 -10.981  1.00  0.00    -0.268 OA
BRANCH   9  12
ATOM     12  C   UNL     1       1.439   3.737  -7.897  1.00  0.00     0.190 A 
ATOM     13  C   UNL     1       1.157   4.936  -6.090  1.00  0.00     0.084 A 
ATOM     14  C   UNL     1       2.360   4.344  -5.763  1.00  0.00     0.097 A 
ATOM     15  N   UNL     1       0.585   4.526  -7.283  1.00  0.00    -0.220 NA
ATOM     16  S   UNL     1       2.743   3.189  -6.940  1.00  0.00    -0.105 S 
BRANCH  13  17
ATOM     17  C   UNL     1       0.514   5.785  -5.116  1.00  0.00     0.001 A 
ATOM     18  C   UNL     1      -0.272   7.225  -2.864  1.00  0.00     0.118 A 
ATOM     19  C   UNL     1       0.376   7.876  -3.918  1.00  0.00     0.047 A 
ATOM     20  C   UNL     1      -0.602   5.875  -2.974  1.00  0.00     0.047 A 
ATOM     21  C   UNL     1       0.783   7.155  -5.046  1.00  0.00     0.014 A 
ATOM     22  C   UNL     1      -0.212   5.157  -4.099  1.00  0.00     0.014 A 
BRANCH  18  23
ATOM     23  O   UNL     1      -0.585   7.983  -1.770  1.00  0.00    -0.497 OA
ATOM     24  C   UNL     1      -0.311   7.337  -0.526  1.00  0.00     0.278 C 
ENDBRANCH  18  23
ENDBRANCH  13  17
ENDBRANCH   9  12
ENDBRANCH   7   8
BRANCH   7  25
ATOM     25  N   UNL     1       3.603   4.820  -9.478  1.00  0.00    -0.324 N 
ATOM     26  C   UNL     1       4.895   5.275  -9.008  1.00  0.00     0.262 C 
ATOM     27  C   UNL     1       2.906   5.901 -10.193  1.00  0.00     0.262 C 
ATOM     28  H   UNL     1       3.080   4.593  -8.631  1.00  0.00     0.348 HD
ATOM     29  C   UNL     1       4.766   6.447  -8.036  1.00  0.00     0.062 C 
ATOM     30  C   UNL     1       2.671   7.094  -9.262  1.00  0.00     0.062 C 
ATOM     31  C   UNL     1       3.961   7.593  -8.620  1.00  0.00     0.012 C 
ENDBRANCH   7  25
ENDBRANCH   6   7
ENDBRANCH   3   6
ENDBRANCH   1   2
BRANCH   1  32
ATOM     32  C   UNL     1       7.841   4.179  -7.785  1.00  0.00     0.042 C 
BRANCH  32  33
ATOM     33  C   UNL     1       7.416   4.323  -6.316  1.00  0.00     0.118 C 
BRANCH  33  34
ATOM     34  N   UNL     1       8.502   4.925  -5.555  1.00  0.00    -0.352 N 
ATOM     35  C   UNL     1       8.759   6.204  -5.140  1.00  0.00     0.251 C 
ATOM     36  H   UNL     1       9.194   4.279  -5.282  1.00  0.00     0.163 HD
ATOM     37  O   UNL     1       9.945   6.497  -4.969  1.00  0.00    -0.269 OA
BRANCH  35  38
ATOM     38  C   UNL     1       7.721   7.225  -4.826  1.00  0.00     0.039 A 
ATOM     39  C   UNL     1       8.121   8.570  -4.873  1.00  0.00     0.014 A 
ATOM     40  C   UNL     1       6.466   6.922  -4.288  1.00  0.00     0.014 A 
ATOM     41  C   UNL     1       7.306   9.587  -4.361  1.00  0.00     0.010 A 
ATOM     42  C   UNL     1       5.628   7.952  -3.809  1.00  0.00     0.010 A 
ATOM     43  C   UNL     1       6.048   9.295  -3.813  1.00  0.00    -0.014 A 
BRANCH  43  44
ATOM     44  C   UNL     1       5.214  10.398  -3.239  1.00  0.00     0.031 A 
ATOM     45  C   UNL     1       4.940  10.492  -1.756  1.00  0.00     0.074 A 
ATOM     46  C   UNL     1       4.721  11.358  -4.048  1.00  0.00     0.049 A 
ATOM     47  N   UNL     1       4.269  11.403  -1.092  1.00  0.00    -0.248 NA
ATOM     48  C   UNL     1       5.484   9.421  -0.910  1.00  0.00     0.031 C 
ATOM     49  C   UNL     1       4.901  11.407  -5.499  1.00  0.00     0.029 A 
ATOM     50  N   UNL     1       3.974  12.479  -3.769  1.00  0.00    -0.354 N 
ATOM     51  C   UNL     1       4.301  11.014   0.244  1.00  0.00     0.074 A 
ATOM     52  C   UNL     1       5.029   9.762   0.289  1.00  0.00     0.031 C 
ATOM     53  C   UNL     1       4.300  12.507  -5.979  1.00  0.00     0.029 A 
ATOM     54  C   UNL     1       3.655  13.223  -4.881  1.00  0.00     0.049 A 
ATOM     55  H   UNL     1       3.694  12.726  -2.858  1.00  0.00     0.167 HD
ATOM     56  C   UNL     1       3.784  11.640   1.333  1.00  0.00     0.037 A 
ATOM     57  C   UNL     1       2.920  14.346  -5.016  1.00  0.00     0.037 A 
ATOM     58  C   UNL     1       3.068  12.893   1.297  1.00  0.00     0.049 A 
ATOM     59  C   UNL     1       2.328  15.008  -3.800  1.00  0.00     0.074 A 
ATOM     60  C   UNL     1       2.559  13.623   2.360  1.00  0.00     0.029 A 
ATOM     61  N   UNL     1       2.742  13.596   0.146  1.00  0.00    -0.354 N 
ATOM     62  N   UNL     1       2.418  14.652  -2.542  1.00  0.00    -0.248 NA
ATOM     63  C   UNL     1       1.539  16.229  -4.023  1.00  0.00     0.031 C 
ATOM     64  C   UNL     1       1.875  14.732   1.849  1.00  0.00     0.029 A 
ATOM     65  C   UNL     1       2.012  14.731   0.471  1.00  0.00     0.049 A 
ATOM     66  H   UNL     1       2.993  13.329  -0.767  1.00  0.00     0.167 HD
ATOM     67  C   UNL     1       1.717  15.615  -1.821  1.00  0.00     0.074 A 
ATOM     68  C   UNL     1       1.221  16.577  -2.783  1.00  0.00     0.031 C 
ATOM     69  C   UNL     1       1.510  15.691  -0.483  1.00  0.00     0.037 A 
BRANCH  56  70
ATOM     70  C   UNL     1       3.953  10.968   2.673  1.00  0.00     0.058 A 
ATOM     71  C   UNL     1       5.202  10.872   3.306  1.00  0.00     0.135 A 
ATOM     72  C   UNL     1       2.838  10.446   3.352  1.00  0.00     0.135 A 
ATOM     73  F   UNL     1       6.304  11.349   2.705  1.00  0.00    -0.206 F 
ATOM     74  C   UNL     1       5.348  10.243   4.540  1.00  0.00     0.059 A 
ATOM     75  C   UNL     1       2.956   9.842   4.601  1.00  0.00     0.059 A 
ATOM     76  F   UNL     1       1.616  10.518   2.801  1.00  0.00    -0.206 F 
ATOM     77  C   UNL     1       4.219   9.726   5.177  1.00  0.00     0.060 A 
BRANCH  77  78
ATOM     78  S   UNL     1       4.430   8.885   6.761  1.00  0.00     0.124 S 
ATOM     79  O   UNL     1       5.072   7.642   6.346  1.00  0.00    -0.237 OA
ATOM     80  O   UNL     1       5.272   9.817   7.502  1.00  0.00    -0.237 OA
ATOM     81  O   UNL     1       3.063   8.748   7.258  1.00  0.00    -0.744 OA
ENDBRANCH  77  78
ENDBRANCH  56  70
BRANCH  57  82
ATOM     82  C   UNL     1       2.703  14.918  -6.373  1.00  0.00     0.058 A 
ATOM     83  C   UNL     1       3.306  16.122  -6.761  1.00  0.00     0.135 A 
ATOM     84  C   UNL     1       1.912  14.247  -7.320  1.00  0.00     0.135 A 
ATOM     85  F   UNL     1       4.059  16.808  -5.888  1.00  0.00    -0.206 F 
ATOM     86  C   UNL     1       3.136  16.643  -8.040  1.00  0.00     0.059 A 
ATOM     87  C   UNL     1       1.749  14.733  -8.613  1.00  0.00     0.059 A 
ATOM     88  F   UNL     1       1.321  13.085  -7.001  1.00  0.00    -0.206 F 
ATOM     89  C   UNL     1       2.363  15.934  -8.963  1.00  0.00     0.060 A 
BRANCH  89  90
ATOM     90  S   UNL     1       2.220  16.572 -10.646  1.00  0.00     0.124 S 
ATOM     91  O   UNL     1       1.349  17.727 -10.451  1.00  0.00    -0.237 OA
ATOM     92  O   UNL     1       3.611  16.870 -10.978  1.00  0.00    -0.237 OA
ATOM     93  O   UNL     1       1.635  15.456 -11.380  1.00  0.00    -0.744 OA
ENDBRANCH  89  90
ENDBRANCH  57  82
BRANCH  69  94
ATOM     94  C   UNL     1       0.732  16.872   0.040  1.00  0.00     0.058 A 
ATOM     95  C   UNL     1      -0.649  17.006  -0.173  1.00  0.00     0.135 A 
ATOM     96  C   UNL     1       1.370  17.863   0.806  1.00  0.00     0.135 A 
ATOM     97  F   UNL     1      -1.311  16.095  -0.904  1.00  0.00    -0.206 F 
ATOM     98  C   UNL     1      -1.365  18.088   0.333  1.00  0.00     0.059 A 
ATOM     99  C   UNL     1       0.669  18.938   1.347  1.00  0.00     0.059 A 
ATOM    100  F   UNL     1       2.688  17.785   1.051  1.00  0.00    -0.206 F 
ATOM    101  C   UNL     1      -0.697  19.049   1.094  1.00  0.00     0.060 A 
BRANCH 101 102
ATOM    102  S   UNL     1      -1.644  20.431   1.771  1.00  0.00     0.124 S 
ATOM    103  O   UNL     1      -1.904  21.225   0.575  1.00  0.00    -0.237 OA
ATOM    104  O   UNL     1      -2.803  19.761   2.352  1.00  0.00    -0.237 OA
ATOM    105  O   UNL     1      -0.727  21.032   2.736  1.00  0.00    -0.744 OA
ENDBRANCH 101 102
ENDBRANCH  69  94
ENDBRANCH  43  44
ENDBRANCH  35  38
ENDBRANCH  33  34
ENDBRANCH  32  33
ENDBRANCH   1  32
TORSDOF 19
