REMARK SMILES COC(=O)[C@@H](C)S(=O)(=O)N(C)c1snc(C)c1C(=O)NCCCNC(=O)c1ccc(-c2c3nc(c(-c4c(F)cc(S(=O)(=O)[O-])cc4F)c4ccc([nH]4)c(-c4c(F)cc(S(=O)(=O)[O-])cc4F)c4nc(c(-c5c(F)cc(S(=O)(=O)[O-])cc5F)c5ccc2[nH]5)C=C4)C=C3)cc1
REMARK SMILES IDX 21 1 20 2 18 3 19 4 17 6 12 7 13 8 14 9 15 10 16 11 10 12
REMARK SMILES IDX 11 13 7 14 8 15 9 16 5 17 6 18 3 19 4 20 2 21 1 22 22 23
REMARK SMILES IDX 23 24 24 25 25 26 26 28 27 29 28 30 92 31 29 32 91 33 30 34
REMARK SMILES IDX 31 35 32 36 85 37 33 38 90 39 84 40 86 41 34 42 89 43 83 44
REMARK SMILES IDX 82 45 35 47 69 48 48 49 68 50 49 51 52 52 67 53 87 54 50 55
REMARK SMILES IDX 51 56 66 58 88 59 53 60 36 61 37 62 46 63 38 64 39 65 45 66
REMARK SMILES IDX 47 67 40 68 41 69 42 70 43 71 44 72 70 73 71 74 80 75 72 76
REMARK SMILES IDX 73 77 79 78 81 79 74 80 75 81 76 82 77 83 78 84 54 85 55 86
REMARK SMILES IDX 64 87 56 88 57 89 63 90 65 91 58 92 59 93 60 94 61 95 62 96
REMARK H PARENT 20 5 24 27 86 46 52 57
REMARK Flexibility Score: inf
ROOT
ATOM      1  C   UNL     1      -1.944  -4.299   2.885  1.00  0.00     0.118 C 
ENDROOT
BRANCH   1   2
ATOM      2  N   UNL     1      -2.991  -5.097   2.317  1.00  0.00    -0.352 N 
ATOM      3  C   UNL     1      -4.019  -4.672   1.510  1.00  0.00     0.256 C 
ATOM      4  O   UNL     1      -4.739  -5.544   1.022  1.00  0.00    -0.269 OA
ATOM      5  H   UNL     1      -2.971  -6.058   2.529  1.00  0.00     0.163 HD
BRANCH   3   6
ATOM      6  C   UNL     1      -4.337  -3.253   1.331  1.00  0.00     0.098 A 
ATOM      7  C   UNL     1      -3.521  -2.154   1.054  1.00  0.00     0.138 A 
ATOM      8  S   UNL     1      -4.526  -0.774   0.811  1.00  0.00    -0.017 S 
ATOM      9  N   UNL     1      -5.944  -1.493   1.198  1.00  0.00    -0.195 NA
ATOM     10  C   UNL     1      -5.723  -2.784   1.446  1.00  0.00     0.066 A 
ATOM     11  C   UNL     1      -6.918  -3.580   1.867  1.00  0.00     0.069 C 
BRANCH   7  12
ATOM     12  N   UNL     1      -2.053  -2.051   1.019  1.00  0.00    -0.261 N 
ATOM     13  C   UNL     1      -1.527  -0.793   1.611  1.00  0.00     0.164 C 
BRANCH  12  14
ATOM     14  S   UNL     1      -1.444  -2.452  -0.535  1.00  0.00     0.249 S 
ATOM     15  O   UNL     1      -1.836  -1.383  -1.432  1.00  0.00    -0.206 OA
ATOM     16  O   UNL     1      -1.884  -3.810  -0.798  1.00  0.00    -0.206 OA
BRANCH  14  17
ATOM     17  C   UNL     1       0.351  -2.521  -0.443  1.00  0.00     0.236 C 
ATOM     18  C   UNL     1       1.027  -2.713   0.907  1.00  0.00     0.039 C 
BRANCH  17  19
ATOM     19  C   UNL     1       0.925  -1.304  -1.095  1.00  0.00     0.325 C 
ATOM     20  O   UNL     1       1.635  -1.322  -2.091  1.00  0.00    -0.251 OA
BRANCH  19  21
ATOM     21  O   UNL     1       0.687  -0.198  -0.332  1.00  0.00    -0.468 OA
ATOM     22  C   UNL     1       1.436   0.953  -0.712  1.00  0.00     0.282 C 
ENDBRANCH  19  21
ENDBRANCH  17  19
ENDBRANCH  14  17
ENDBRANCH  12  14
ENDBRANCH   7  12
ENDBRANCH   3   6
ENDBRANCH   1   2
BRANCH   1  23
ATOM     23  C   UNL     1      -0.924  -5.009   3.753  1.00  0.00     0.042 C 
BRANCH  23  24
ATOM     24  C   UNL     1      -0.160  -6.116   3.033  1.00  0.00     0.118 C 
BRANCH  24  25
ATOM     25  N   UNL     1       0.585  -5.705   1.834  1.00  0.00    -0.352 N 
ATOM     26  C   UNL     1       1.666  -6.350   1.238  1.00  0.00     0.251 C 
ATOM     27  H   UNL     1       0.284  -4.873   1.400  1.00  0.00     0.163 HD
ATOM     28  O   UNL     1       2.313  -5.856   0.335  1.00  0.00    -0.269 OA
BRANCH  26  29
ATOM     29  C   UNL     1       1.885  -7.734   1.684  1.00  0.00     0.039 A 
ATOM     30  C   UNL     1       2.964  -8.085   2.495  1.00  0.00     0.014 A 
ATOM     31  C   UNL     1       0.739  -8.507   1.605  1.00  0.00     0.014 A 
ATOM     32  C   UNL     1       2.803  -9.150   3.386  1.00  0.00     0.010 A 
ATOM     33  C   UNL     1       0.524  -9.392   2.628  1.00  0.00     0.010 A 
ATOM     34  C   UNL     1       1.543  -9.755   3.520  1.00  0.00    -0.014 A 
BRANCH  34  35
ATOM     35  C   UNL     1       1.208 -10.609   4.676  1.00  0.00     0.031 A 
ATOM     36  C   UNL     1       1.701 -10.209   6.038  1.00  0.00     0.074 A 
ATOM     37  C   UNL     1       0.229 -11.544   4.623  1.00  0.00     0.049 A 
ATOM     38  N   UNL     1       2.377 -10.924   6.884  1.00  0.00    -0.248 NA
ATOM     39  C   UNL     1       1.419  -8.848   6.524  1.00  0.00     0.031 C 
ATOM     40  C   UNL     1      -0.599 -11.945   3.474  1.00  0.00     0.029 A 
ATOM     41  N   UNL     1      -0.348 -12.227   5.651  1.00  0.00    -0.354 N 
ATOM     42  C   UNL     1       2.451 -10.188   8.069  1.00  0.00     0.074 A 
ATOM     43  C   UNL     1       1.941  -8.877   7.753  1.00  0.00     0.031 C 
ATOM     44  C   UNL     1      -1.728 -12.532   3.912  1.00  0.00     0.029 A 
ATOM     45  C   UNL     1      -1.577 -12.779   5.330  1.00  0.00     0.049 A 
ATOM     46  H   UNL     1       0.069 -12.319   6.538  1.00  0.00     0.167 HD
ATOM     47  C   UNL     1       2.766 -10.757   9.270  1.00  0.00     0.037 A 
ATOM     48  C   UNL     1      -2.425 -13.441   6.143  1.00  0.00     0.037 A 
ATOM     49  C   UNL     1       3.322 -12.075   9.109  1.00  0.00     0.049 A 
ATOM     50  C   UNL     1      -1.614 -14.005   7.242  1.00  0.00     0.074 A 
ATOM     51  C   UNL     1       4.436 -12.605   8.490  1.00  0.00     0.029 A 
ATOM     52  N   UNL     1       2.511 -13.146   9.389  1.00  0.00    -0.354 N 
ATOM     53  N   UNL     1      -0.672 -14.894   7.065  1.00  0.00    -0.248 NA
ATOM     54  C   UNL     1      -1.589 -13.323   8.525  1.00  0.00     0.031 C 
ATOM     55  C   UNL     1       4.022 -13.883   8.007  1.00  0.00     0.029 A 
ATOM     56  C   UNL     1       2.689 -14.062   8.383  1.00  0.00     0.049 A 
ATOM     57  H   UNL     1       1.913 -13.240  10.166  1.00  0.00     0.167 HD
ATOM     58  C   UNL     1       0.288 -14.591   8.015  1.00  0.00     0.074 A 
ATOM     59  C   UNL     1      -0.399 -13.730   8.973  1.00  0.00     0.031 C 
ATOM     60  C   UNL     1       1.614 -14.833   7.790  1.00  0.00     0.037 A 
BRANCH  47  61
ATOM     61  C   UNL     1       2.301 -10.265  10.625  1.00  0.00     0.058 A 
ATOM     62  C   UNL     1       2.897 -10.767  11.804  1.00  0.00     0.135 A 
ATOM     63  C   UNL     1       1.108  -9.535  10.815  1.00  0.00     0.135 A 
ATOM     64  F   UNL     1       4.029 -11.488  11.743  1.00  0.00    -0.206 F 
ATOM     65  C   UNL     1       2.317 -10.613  13.066  1.00  0.00     0.059 A 
ATOM     66  C   UNL     1       0.538  -9.326  12.070  1.00  0.00     0.059 A 
ATOM     67  F   UNL     1       0.391  -9.078   9.780  1.00  0.00    -0.206 F 
ATOM     68  C   UNL     1       1.124  -9.908  13.184  1.00  0.00     0.060 A 
BRANCH  68  69
ATOM     69  S   UNL     1       0.301  -9.812  14.787  1.00  0.00     0.124 S 
ATOM     70  O   UNL     1      -0.258 -11.154  14.903  1.00  0.00    -0.237 OA
ATOM     71  O   UNL     1       1.407  -9.500  15.687  1.00  0.00    -0.237 OA
ATOM     72  O   UNL     1      -0.667  -8.736  14.600  1.00  0.00    -0.744 OA
ENDBRANCH  68  69
ENDBRANCH  47  61
BRANCH  48  73
ATOM     73  C   UNL     1      -3.902 -13.406   6.099  1.00  0.00     0.058 A 
ATOM     74  C   UNL     1      -4.677 -14.393   6.721  1.00  0.00     0.135 A 
ATOM     75  C   UNL     1      -4.588 -12.259   5.642  1.00  0.00     0.135 A 
ATOM     76  F   UNL     1      -4.096 -15.502   7.201  1.00  0.00    -0.206 F 
ATOM     77  C   UNL     1      -6.052 -14.238   6.917  1.00  0.00     0.059 A 
ATOM     78  C   UNL     1      -5.959 -12.087   5.815  1.00  0.00     0.059 A 
ATOM     79  F   UNL     1      -3.924 -11.231   5.088  1.00  0.00    -0.206 F 
ATOM     80  C   UNL     1      -6.680 -13.072   6.478  1.00  0.00     0.060 A 
BRANCH  80  81
ATOM     81  S   UNL     1      -8.416 -12.793   6.898  1.00  0.00     0.124 S 
ATOM     82  O   UNL     1      -9.091 -13.772   6.053  1.00  0.00    -0.237 OA
ATOM     83  O   UNL     1      -8.431 -13.067   8.331  1.00  0.00    -0.237 OA
ATOM     84  O   UNL     1      -8.633 -11.395   6.533  1.00  0.00    -0.744 OA
ENDBRANCH  80  81
ENDBRANCH  48  73
BRANCH  60  85
ATOM     85  C   UNL     1       1.993 -15.744   6.645  1.00  0.00     0.058 A 
ATOM     86  C   UNL     1       1.807 -15.417   5.291  1.00  0.00     0.135 A 
ATOM     87  C   UNL     1       2.730 -16.905   6.917  1.00  0.00     0.135 A 
ATOM     88  F   UNL     1       1.213 -14.275   4.936  1.00  0.00    -0.206 F 
ATOM     89  C   UNL     1       2.297 -16.215   4.257  1.00  0.00     0.059 A 
ATOM     90  C   UNL     1       3.257 -17.705   5.901  1.00  0.00     0.059 A 
ATOM     91  F   UNL     1       3.005 -17.243   8.188  1.00  0.00    -0.206 F 
ATOM     92  C   UNL     1       3.028 -17.356   4.571  1.00  0.00     0.060 A 
BRANCH  92  93
ATOM     93  S   UNL     1       3.761 -18.318   3.229  1.00  0.00     0.124 S 
ATOM     94  O   UNL     1       2.601 -19.014   2.681  1.00  0.00    -0.237 OA
ATOM     95  O   UNL     1       4.341 -17.286   2.374  1.00  0.00    -0.237 OA
ATOM     96  O   UNL     1       4.735 -19.167   3.911  1.00  0.00    -0.744 OA
ENDBRANCH  92  93
ENDBRANCH  60  85
ENDBRANCH  34  35
ENDBRANCH  26  29
ENDBRANCH  24  25
ENDBRANCH  23  24
ENDBRANCH   1  23
TORSDOF 18
