REMARK SMILES CCOC(=O)[C@@H]1CCCCN1C(=O)N[C@](C)(CC)C(=O)NCCCNC(=O)c1ccc(-c2c3nc(c(-c4c(F)cc(S(=O)(=O)[O-])cc4F)c4ccc([nH]4)c(-c4c(F)cc(S(=O)(=O)[O-])cc4F)c4nc(c(-c5c(F)cc(S(=O)(=O)[O-])cc5F)c5ccc2[nH]5)C=C4)C=C3)cc1
REMARK SMILES IDX 22 1 21 2 19 3 20 4 15 6 16 7 14 8 12 9 13 10 11 12 6 13
REMARK SMILES IDX 7 14 8 15 10 16 9 17 4 18 5 19 3 20 2 21 1 22 17 23 18 24
REMARK SMILES IDX 23 25 24 26 25 27 26 28 27 30 28 31 29 32 93 33 30 34 92 35
REMARK SMILES IDX 31 36 32 37 33 38 86 39 34 40 91 41 85 42 87 43 35 44 90 45
REMARK SMILES IDX 84 46 83 47 36 49 70 50 49 51 69 52 50 53 53 54 68 55 88 56
REMARK SMILES IDX 51 57 52 58 67 60 89 61 54 62 37 63 38 64 47 65 39 66 40 67
REMARK SMILES IDX 46 68 48 69 41 70 42 71 43 72 44 73 45 74 71 75 72 76 81 77
REMARK SMILES IDX 73 78 74 79 80 80 82 81 75 82 76 83 77 84 78 85 79 86 55 87
REMARK SMILES IDX 56 88 65 89 57 90 58 91 64 92 66 93 59 94 60 95 61 96 62 97
REMARK SMILES IDX 63 98
REMARK H PARENT 21 5 14 11 25 29 87 48 53 59
REMARK Flexibility Score: inf
ROOT
ATOM      1  C   UNL     1      -0.264  -4.919   8.067  1.00  0.00     0.117 C 
ENDROOT
BRANCH   1   2
ATOM      2  N   UNL     1       0.615  -5.001   6.924  1.00  0.00    -0.354 N 
ATOM      3  C   UNL     1       0.527  -4.311   5.744  1.00  0.00     0.245 C 
ATOM      4  O   UNL     1       0.466  -4.931   4.681  1.00  0.00    -0.272 OA
ATOM      5  H   UNL     1       1.369  -5.629   7.003  1.00  0.00     0.163 HD
BRANCH   3   6
ATOM      6  C   UNL     1       0.501  -2.765   5.792  1.00  0.00     0.117 C 
ATOM      7  C   UNL     1       0.956  -2.127   4.473  1.00  0.00     0.045 C 
BRANCH   6   8
ATOM      8  N   UNL     1       1.290  -2.235   6.933  1.00  0.00    -0.324 N 
ATOM      9  C   UNL     1       2.440  -2.348   7.595  1.00  0.00     0.319 C 
ATOM     10  O   UNL     1       2.430  -1.643   8.610  1.00  0.00    -0.249 OA
ATOM     11  H   UNL     1       0.758  -1.529   7.368  1.00  0.00     0.166 HD
BRANCH   9  12
ATOM     12  N   UNL     1       3.468  -3.213   7.328  1.00  0.00    -0.311 N 
ATOM     13  C   UNL     1       4.101  -3.790   8.562  1.00  0.00     0.196 C 
ATOM     14  C   UNL     1       5.381  -4.606   8.306  1.00  0.00     0.037 C 
ATOM     15  C   UNL     1       5.260  -5.530   7.116  1.00  0.00     0.005 C 
ATOM     16  C   UNL     1       3.681  -3.906   6.050  1.00  0.00     0.122 C 
ATOM     17  C   UNL     1       4.991  -4.673   5.895  1.00  0.00     0.022 C 
BRANCH  13  18
ATOM     18  C   UNL     1       4.495  -2.886   9.755  1.00  0.00     0.328 C 
ATOM     19  O   UNL     1       4.550  -3.312  10.907  1.00  0.00    -0.250 OA
BRANCH  18  20
ATOM     20  O   UNL     1       4.916  -1.644   9.388  1.00  0.00    -0.464 OA
BRANCH  20  21
ATOM     21  C   UNL     1       5.176  -0.762  10.491  1.00  0.00     0.229 C 
ATOM     22  C   UNL     1       3.885  -0.280  11.140  1.00  0.00     0.049 C 
ENDBRANCH  20  21
ENDBRANCH  18  20
ENDBRANCH  13  18
ENDBRANCH   9  12
ENDBRANCH   6   8
BRANCH   6  23
ATOM     23  C   UNL     1      -0.981  -2.318   6.053  1.00  0.00     0.035 C 
ATOM     24  C   UNL     1      -2.057  -3.017   5.227  1.00  0.00     0.007 C 
ENDBRANCH   6  23
ENDBRANCH   3   6
ENDBRANCH   1   2
BRANCH   1  25
ATOM     25  C   UNL     1      -0.521  -6.295   8.674  1.00  0.00     0.042 C 
BRANCH  25  26
ATOM     26  C   UNL     1       0.651  -7.268   8.658  1.00  0.00     0.118 C 
BRANCH  26  27
ATOM     27  N   UNL     1       1.827  -6.826   9.392  1.00  0.00    -0.352 N 
ATOM     28  C   UNL     1       2.800  -7.609   9.983  1.00  0.00     0.251 C 
ATOM     29  H   UNL     1       1.943  -5.852   9.477  1.00  0.00     0.163 HD
ATOM     30  O   UNL     1       3.801  -7.110  10.470  1.00  0.00    -0.269 OA
BRANCH  28  31
ATOM     31  C   UNL     1       2.532  -9.056  10.108  1.00  0.00     0.039 A 
ATOM     32  C   UNL     1       2.348  -9.568  11.395  1.00  0.00     0.014 A 
ATOM     33  C   UNL     1       2.246  -9.826   8.979  1.00  0.00     0.014 A 
ATOM     34  C   UNL     1       1.743 -10.814  11.553  1.00  0.00     0.010 A 
ATOM     35  C   UNL     1       1.575 -11.034   9.142  1.00  0.00     0.010 A 
ATOM     36  C   UNL     1       1.282 -11.517  10.428  1.00  0.00    -0.014 A 
BRANCH  36  37
ATOM     37  C   UNL     1       0.425 -12.719  10.577  1.00  0.00     0.031 A 
ATOM     38  C   UNL     1       0.906 -14.049  10.076  1.00  0.00     0.074 A 
ATOM     39  C   UNL     1      -0.818 -12.587  11.086  1.00  0.00     0.049 A 
ATOM     40  N   UNL     1       0.272 -15.190  10.027  1.00  0.00    -0.248 NA
ATOM     41  C   UNL     1       2.272 -14.092   9.529  1.00  0.00     0.031 C 
ATOM     42  C   UNL     1      -1.416 -11.331  11.553  1.00  0.00     0.029 A 
ATOM     43  N   UNL     1      -1.810 -13.514  11.287  1.00  0.00    -0.354 N 
ATOM     44  C   UNL     1       1.154 -16.085   9.436  1.00  0.00     0.074 A 
ATOM     45  C   UNL     1       2.347 -15.341   9.094  1.00  0.00     0.031 C 
ATOM     46  C   UNL     1      -2.657 -11.573  12.008  1.00  0.00     0.029 A 
ATOM     47  C   UNL     1      -2.960 -12.989  11.832  1.00  0.00     0.049 A 
ATOM     48  H   UNL     1      -1.709 -14.467  11.062  1.00  0.00     0.167 HD
ATOM     49  C   UNL     1       0.992 -17.412   9.221  1.00  0.00     0.037 A 
ATOM     50  C   UNL     1      -4.127 -13.582  12.151  1.00  0.00     0.037 A 
ATOM     51  C   UNL     1      -0.191 -18.146   9.584  1.00  0.00     0.049 A 
ATOM     52  C   UNL     1      -4.277 -15.060  11.910  1.00  0.00     0.074 A 
ATOM     53  C   UNL     1      -0.444 -19.498   9.443  1.00  0.00     0.029 A 
ATOM     54  N   UNL     1      -1.319 -17.586  10.167  1.00  0.00    -0.354 N 
ATOM     55  N   UNL     1      -3.413 -15.902  11.394  1.00  0.00    -0.248 NA
ATOM     56  C   UNL     1      -5.555 -15.671  12.298  1.00  0.00     0.031 C 
ATOM     57  C   UNL     1      -1.736 -19.752   9.917  1.00  0.00     0.029 A 
ATOM     58  C   UNL     1      -2.273 -18.564  10.387  1.00  0.00     0.049 A 
ATOM     59  H   UNL     1      -1.425 -16.633  10.391  1.00  0.00     0.167 HD
ATOM     60  C   UNL     1      -4.032 -17.146  11.420  1.00  0.00     0.074 A 
ATOM     61  C   UNL     1      -5.340 -16.948  12.012  1.00  0.00     0.031 C 
ATOM     62  C   UNL     1      -3.563 -18.343  10.992  1.00  0.00     0.037 A 
BRANCH  49  63
ATOM     63  C   UNL     1       2.132 -18.150   8.576  1.00  0.00     0.058 A 
ATOM     64  C   UNL     1       3.330 -18.392   9.268  1.00  0.00     0.135 A 
ATOM     65  C   UNL     1       2.026 -18.630   7.261  1.00  0.00     0.135 A 
ATOM     66  F   UNL     1       3.490 -17.938  10.521  1.00  0.00    -0.206 F 
ATOM     67  C   UNL     1       4.394 -19.056   8.669  1.00  0.00     0.059 A 
ATOM     68  C   UNL     1       3.070 -19.320   6.651  1.00  0.00     0.059 A 
ATOM     69  F   UNL     1       0.905 -18.422   6.554  1.00  0.00    -0.206 F 
ATOM     70  C   UNL     1       4.256 -19.513   7.358  1.00  0.00     0.060 A 
BRANCH  70  71
ATOM     71  S   UNL     1       5.649 -20.370   6.593  1.00  0.00     0.124 S 
ATOM     72  O   UNL     1       6.554 -19.260   6.312  1.00  0.00    -0.237 OA
ATOM     73  O   UNL     1       6.075 -21.282   7.650  1.00  0.00    -0.237 OA
ATOM     74  O   UNL     1       5.054 -21.007   5.423  1.00  0.00    -0.744 OA
ENDBRANCH  70  71
ENDBRANCH  49  63
BRANCH  50  75
ATOM     75  C   UNL     1      -5.233 -12.793  12.757  1.00  0.00     0.058 A 
ATOM     76  C   UNL     1      -5.583 -12.966  14.105  1.00  0.00     0.135 A 
ATOM     77  C   UNL     1      -5.962 -11.856  12.009  1.00  0.00     0.135 A 
ATOM     78  F   UNL     1      -4.919 -13.853  14.861  1.00  0.00    -0.206 F 
ATOM     79  C   UNL     1      -6.630 -12.255  14.685  1.00  0.00     0.059 A 
ATOM     80  C   UNL     1      -6.998 -11.117  12.572  1.00  0.00     0.059 A 
ATOM     81  F   UNL     1      -5.655 -11.639  10.720  1.00  0.00    -0.206 F 
ATOM     82  C   UNL     1      -7.333 -11.333  13.909  1.00  0.00     0.060 A 
BRANCH  82  83
ATOM     83  S   UNL     1      -8.667 -10.389  14.678  1.00  0.00     0.124 S 
ATOM     84  O   UNL     1      -9.729 -11.385  14.749  1.00  0.00    -0.237 OA
ATOM     85  O   UNL     1      -8.073  -9.996  15.952  1.00  0.00    -0.237 OA
ATOM     86  O   UNL     1      -8.888  -9.295  13.736  1.00  0.00    -0.744 OA
ENDBRANCH  82  83
ENDBRANCH  50  75
BRANCH  62  87
ATOM     87  C   UNL     1      -4.453 -19.537  11.183  1.00  0.00     0.058 A 
ATOM     88  C   UNL     1      -5.572 -19.758  10.365  1.00  0.00     0.135 A 
ATOM     89  C   UNL     1      -4.151 -20.497  12.162  1.00  0.00     0.135 A 
ATOM     90  F   UNL     1      -5.905 -18.864   9.421  1.00  0.00    -0.206 F 
ATOM     91  C   UNL     1      -6.373 -20.883  10.523  1.00  0.00     0.059 A 
ATOM     92  C   UNL     1      -4.925 -21.642  12.322  1.00  0.00     0.059 A 
ATOM     93  F   UNL     1      -3.086 -20.335  12.963  1.00  0.00    -0.206 F 
ATOM     94  C   UNL     1      -6.040 -21.820  11.504  1.00  0.00     0.060 A 
BRANCH  94  95
ATOM     95  S   UNL     1      -7.064 -23.298  11.674  1.00  0.00     0.124 S 
ATOM     96  O   UNL     1      -8.232 -22.767  12.368  1.00  0.00    -0.237 OA
ATOM     97  O   UNL     1      -7.277 -23.694  10.285  1.00  0.00    -0.237 OA
ATOM     98  O   UNL     1      -6.225 -24.203  12.454  1.00  0.00    -0.744 OA
ENDBRANCH  94  95
ENDBRANCH  62  87
ENDBRANCH  36  37
ENDBRANCH  28  31
ENDBRANCH  26  27
ENDBRANCH  25  26
ENDBRANCH   1  25
TORSDOF 19
