REMARK SMILES O=C(C[C@H]1c2ccccc2CCN1C(=O)Nc1ccccc1Br)NCCCNC(=O)c1ccc(-c2c3nc(c(-c4c(F)cc(S(=O)(=O)[O-])cc4F)c4ccc([nH]4)c(-c4c(F)cc(S(=O)(=O)[O-])cc4F)c4nc(c(-c5c(F)cc(S(=O)(=O)[O-])cc5F)c5ccc2[nH]5)C=C4)C=C3)cc1
REMARK SMILES IDX 26 1 25 2 24 3 1 4 2 5 3 7 4 8 5 9 13 10 6 11 10 12 12 13
REMARK SMILES IDX 7 14 9 15 11 16 8 17 14 18 15 19 16 20 17 22 18 23 22 24
REMARK SMILES IDX 19 25 21 26 23 27 20 28 27 29 28 30 29 31 30 33 31 34 32 35
REMARK SMILES IDX 96 36 33 37 95 38 34 39 35 40 36 41 89 42 37 43 94 44 88 45
REMARK SMILES IDX 90 46 38 47 93 48 87 49 86 50 39 52 73 53 52 54 72 55 53 56
REMARK SMILES IDX 56 57 71 58 91 59 54 60 55 61 70 63 92 64 57 65 40 66 41 67
REMARK SMILES IDX 50 68 42 69 43 70 49 71 51 72 44 73 45 74 46 75 47 76 48 77
REMARK SMILES IDX 74 78 75 79 84 80 76 81 77 82 83 83 85 84 78 85 79 86 80 87
REMARK SMILES IDX 81 88 82 89 58 90 59 91 68 92 60 93 61 94 67 95 69 96 62 97
REMARK SMILES IDX 63 98 64 99 65 100 66 101
REMARK H PARENT 24 6 16 21 28 32 90 51 56 62
REMARK Flexibility Score: inf
ROOT
ATOM      1  C   UNL     1       1.659   3.618  -0.255  1.00  0.00     0.042 C 
ENDROOT
BRANCH   1   2
ATOM      2  C   UNL     1       1.707   2.207  -0.848  1.00  0.00     0.117 C 
BRANCH   2   3
ATOM      3  N   UNL     1       2.507   1.235  -0.120  1.00  0.00    -0.356 N 
ATOM      4  O   UNL     1       0.906  -0.408  -0.204  1.00  0.00    -0.275 OA
ATOM      5  C   UNL     1       2.053  -0.059   0.067  1.00  0.00     0.222 C 
ATOM      6  H   UNL     1       3.382   1.501   0.245  1.00  0.00     0.163 HD
BRANCH   5   7
ATOM      7  C   UNL     1       3.064  -1.040   0.620  1.00  0.00     0.130 C 
BRANCH   7   8
ATOM      8  C   UNL     1       3.832  -1.862  -0.435  1.00  0.00     0.127 C 
ATOM      9  C   UNL     1       2.986  -2.706  -1.383  1.00  0.00    -0.022 A 
ATOM     10  N   UNL     1       4.859  -1.067  -1.151  1.00  0.00    -0.317 N 
ATOM     11  C   UNL     1       2.597  -4.011  -1.051  1.00  0.00     0.006 A 
ATOM     12  C   UNL     1       2.620  -2.194  -2.637  1.00  0.00    -0.041 A 
ATOM     13  C   UNL     1       4.535  -0.618  -2.520  1.00  0.00     0.127 C 
ATOM     14  C   UNL     1       1.841  -4.774  -1.944  1.00  0.00     0.000 A 
ATOM     15  C   UNL     1       1.822  -2.941  -3.509  1.00  0.00     0.004 A 
ATOM     16  C   UNL     1       3.099  -0.828  -3.004  1.00  0.00     0.057 C 
ATOM     17  C   UNL     1       1.441  -4.234  -3.165  1.00  0.00     0.000 A 
BRANCH  10  18
ATOM     18  C   UNL     1       6.140  -1.083  -0.602  1.00  0.00     0.322 C 
ATOM     19  O   UNL     1       6.402  -1.700   0.434  1.00  0.00    -0.248 OA
ATOM     20  N   UNL     1       7.192  -0.532  -1.274  1.00  0.00    -0.307 N 
ATOM     21  H   UNL     1       8.043  -1.016  -1.171  1.00  0.00     0.171 HD
BRANCH  20  22
ATOM     22  C   UNL     1       7.262   0.609  -2.085  1.00  0.00     0.057 A 
ATOM     23  C   UNL     1       8.056   0.525  -3.233  1.00  0.00     0.027 A 
ATOM     24  C   UNL     1       6.570   1.795  -1.820  1.00  0.00     0.041 A 
ATOM     25  C   UNL     1       7.992   1.528  -4.203  1.00  0.00     0.002 A 
ATOM     26  C   UNL     1       6.487   2.780  -2.803  1.00  0.00     0.018 A 
ATOM     27  Br  UNL     1       5.838   2.164  -0.110  1.00  0.00    -0.049 Br
ATOM     28  C   UNL     1       7.164   2.630  -4.010  1.00  0.00     0.001 A 
ENDBRANCH  20  22
ENDBRANCH  10  18
ENDBRANCH   7   8
ENDBRANCH   5   7
ENDBRANCH   2   3
ENDBRANCH   1   2
BRANCH   1  29
ATOM     29  C   UNL     1       2.873   4.508  -0.528  1.00  0.00     0.118 C 
BRANCH  29  30
ATOM     30  N   UNL     1       3.214   4.629  -1.937  1.00  0.00    -0.352 N 
ATOM     31  C   UNL     1       4.087   5.465  -2.587  1.00  0.00     0.251 C 
ATOM     32  H   UNL     1       2.735   4.003  -2.527  1.00  0.00     0.163 HD
ATOM     33  O   UNL     1       4.158   5.381  -3.814  1.00  0.00    -0.269 OA
BRANCH  31  34
ATOM     34  C   UNL     1       4.925   6.467  -1.879  1.00  0.00     0.039 A 
ATOM     35  C   UNL     1       5.200   7.662  -2.558  1.00  0.00     0.014 A 
ATOM     36  C   UNL     1       5.454   6.276  -0.601  1.00  0.00     0.014 A 
ATOM     37  C   UNL     1       5.894   8.691  -1.920  1.00  0.00     0.010 A 
ATOM     38  C   UNL     1       6.099   7.324   0.060  1.00  0.00     0.010 A 
ATOM     39  C   UNL     1       6.289   8.552  -0.581  1.00  0.00    -0.014 A 
BRANCH  39  40
ATOM     40  C   UNL     1       6.766   9.734   0.176  1.00  0.00     0.031 A 
ATOM     41  C   UNL     1       8.181   9.841   0.661  1.00  0.00     0.074 A 
ATOM     42  C   UNL     1       5.871  10.703   0.458  1.00  0.00     0.049 A 
ATOM     43  N   UNL     1       8.761  10.834   1.284  1.00  0.00    -0.248 NA
ATOM     44  C   UNL     1       9.052   8.678   0.437  1.00  0.00     0.031 C 
ATOM     45  C   UNL     1       4.448  10.661   0.106  1.00  0.00     0.029 A 
ATOM     46  N   UNL     1       6.016  11.908   1.095  1.00  0.00    -0.354 N 
ATOM     47  C   UNL     1      10.066  10.423   1.524  1.00  0.00     0.074 A 
ATOM     48  C   UNL     1      10.177   9.069   1.023  1.00  0.00     0.031 C 
ATOM     49  C   UNL     1       3.862  11.804   0.494  1.00  0.00     0.029 A 
ATOM     50  C   UNL     1       4.858  12.648   1.142  1.00  0.00     0.049 A 
ATOM     51  H   UNL     1       6.869  12.215   1.480  1.00  0.00     0.167 HD
ATOM     52  C   UNL     1      11.079  11.121   2.092  1.00  0.00     0.037 A 
ATOM     53  C   UNL     1       4.628  13.878   1.639  1.00  0.00     0.037 A 
ATOM     54  C   UNL     1      10.949  12.469   2.588  1.00  0.00     0.049 A 
ATOM     55  C   UNL     1       5.778  14.648   2.223  1.00  0.00     0.074 A 
ATOM     56  C   UNL     1      11.920  13.281   3.149  1.00  0.00     0.029 A 
ATOM     57  N   UNL     1       9.771  13.204   2.583  1.00  0.00    -0.354 N 
ATOM     58  N   UNL     1       7.027  14.274   2.369  1.00  0.00    -0.248 NA
ATOM     59  C   UNL     1       5.495  16.011   2.689  1.00  0.00     0.031 C 
ATOM     60  C   UNL     1      11.322  14.495   3.510  1.00  0.00     0.029 A 
ATOM     61  C   UNL     1       9.988  14.456   3.136  1.00  0.00     0.049 A 
ATOM     62  H   UNL     1       8.907  12.882   2.237  1.00  0.00     0.167 HD
ATOM     63  C   UNL     1       7.687  15.367   2.917  1.00  0.00     0.074 A 
ATOM     64  C   UNL     1       6.700  16.418   3.065  1.00  0.00     0.031 C 
ATOM     65  C   UNL     1       8.992  15.491   3.265  1.00  0.00     0.037 A 
BRANCH  52  66
ATOM     66  C   UNL     1      12.416  10.440   2.200  1.00  0.00     0.058 A 
ATOM     67  C   UNL     1      13.203  10.188   1.065  1.00  0.00     0.135 A 
ATOM     68  C   UNL     1      12.930  10.055   3.449  1.00  0.00     0.135 A 
ATOM     69  F   UNL     1      12.756  10.524  -0.156  1.00  0.00    -0.206 F 
ATOM     70  C   UNL     1      14.435   9.547   1.158  1.00  0.00     0.059 A 
ATOM     71  C   UNL     1      14.171   9.434   3.569  1.00  0.00     0.059 A 
ATOM     72  F   UNL     1      12.223  10.274   4.568  1.00  0.00    -0.206 F 
ATOM     73  C   UNL     1      14.908   9.168   2.416  1.00  0.00     0.060 A 
BRANCH  73  74
ATOM     74  S   UNL     1      16.501   8.325   2.520  1.00  0.00     0.124 S 
ATOM     75  O   UNL     1      16.157   6.994   2.029  1.00  0.00    -0.237 OA
ATOM     76  O   UNL     1      17.340   9.128   1.635  1.00  0.00    -0.237 OA
ATOM     77  O   UNL     1      16.836   8.405   3.938  1.00  0.00    -0.744 OA
ENDBRANCH  73  74
ENDBRANCH  52  66
BRANCH  53  78
ATOM     78  C   UNL     1       3.268  14.470   1.549  1.00  0.00     0.058 A 
ATOM     79  C   UNL     1       2.994  15.518   0.658  1.00  0.00     0.135 A 
ATOM     80  C   UNL     1       2.209  13.984   2.331  1.00  0.00     0.135 A 
ATOM     81  F   UNL     1       3.974  16.015  -0.113  1.00  0.00    -0.206 F 
ATOM     82  C   UNL     1       1.725  16.079   0.559  1.00  0.00     0.059 A 
ATOM     83  C   UNL     1       0.925  14.512   2.233  1.00  0.00     0.059 A 
ATOM     84  F   UNL     1       2.413  12.965   3.180  1.00  0.00    -0.206 F 
ATOM     85  C   UNL     1       0.696  15.569   1.352  1.00  0.00     0.060 A 
BRANCH  85  86
ATOM     86  S   UNL     1      -0.959  16.273   1.187  1.00  0.00     0.124 S 
ATOM     87  O   UNL     1      -0.808  17.542   1.889  1.00  0.00    -0.237 OA
ATOM     88  O   UNL     1      -1.113  16.360  -0.262  1.00  0.00    -0.237 OA
ATOM     89  O   UNL     1      -1.810  15.284   1.841  1.00  0.00    -0.744 OA
ENDBRANCH  85  86
ENDBRANCH  53  78
BRANCH  65  90
ATOM     90  C   UNL     1       9.431  16.825   3.798  1.00  0.00     0.058 A 
ATOM     91  C   UNL     1       9.076  17.261   5.083  1.00  0.00     0.135 A 
ATOM     92  C   UNL     1      10.237  17.668   3.016  1.00  0.00     0.135 A 
ATOM     93  F   UNL     1       8.301  16.495   5.867  1.00  0.00    -0.206 F 
ATOM     94  C   UNL     1       9.477  18.503   5.564  1.00  0.00     0.059 A 
ATOM     95  C   UNL     1      10.671  18.903   3.487  1.00  0.00     0.059 A 
ATOM     96  F   UNL     1      10.613  17.293   1.783  1.00  0.00    -0.206 F 
ATOM     97  C   UNL     1      10.272  19.319   4.756  1.00  0.00     0.060 A 
BRANCH  97  98
ATOM     98  S   UNL     1      10.799  20.924   5.393  1.00  0.00     0.124 S 
ATOM     99  O   UNL     1       9.584  21.716   5.231  1.00  0.00    -0.237 OA
ATOM    100  O   UNL     1      11.173  20.610   6.769  1.00  0.00    -0.237 OA
ATOM    101  O   UNL     1      11.908  21.288   4.516  1.00  0.00    -0.744 OA
ENDBRANCH  97  98
ENDBRANCH  65  90
ENDBRANCH  39  40
ENDBRANCH  31  34
ENDBRANCH  29  30
ENDBRANCH   1  29
TORSDOF 16
