REMARK SMILES Cc1cc(CC(=O)C(=O)NCCCNC(=O)c2ccc(-c3c4nc(c(-c5c(F)cc(S(=O)(=O)[O-])cc5F)c5ccc([nH]5)c(-c5c(F)cc(S(=O)(=O)[O-])cc5F)c5nc(c(-c6c(F)cc(S(=O)(=O)[O-])cc6F)c6ccc3[nH]6)C=C5)C=C4)cc2)cc2cn[nH]c12
REMARK SMILES IDX 12 1 11 2 10 3 8 4 9 5 6 7 7 8 5 9 4 10 1 11 2 12 3 13 88 14
REMARK SMILES IDX 84 15 87 16 83 17 85 18 86 19 13 21 14 22 15 23 16 25 17 26
REMARK SMILES IDX 18 27 82 28 19 29 81 30 20 31 21 32 22 33 75 34 23 35 80 36
REMARK SMILES IDX 74 37 76 38 24 39 79 40 73 41 72 42 25 44 59 45 38 46 58 47
REMARK SMILES IDX 39 48 42 49 57 50 77 51 40 52 41 53 56 55 78 56 43 57 26 58
REMARK SMILES IDX 27 59 36 60 28 61 29 62 35 63 37 64 30 65 31 66 32 67 33 68
REMARK SMILES IDX 34 69 60 70 61 71 70 72 62 73 63 74 69 75 71 76 64 77 65 78
REMARK SMILES IDX 66 79 67 80 68 81 44 82 45 83 54 84 46 85 47 86 53 87 55 88
REMARK SMILES IDX 48 89 49 90 50 91 51 92 52 93
REMARK H PARENT 10 6 87 20 14 24 76 43 42 54
REMARK Flexibility Score: inf
ROOT
ATOM      1  C   UNL     1      -0.593  -5.376  -7.485  1.00  0.00     0.042 C 
ENDROOT
BRANCH   1   2
ATOM      2  C   UNL     1       0.086  -5.367  -6.110  1.00  0.00     0.118 C 
BRANCH   2   3
ATOM      3  N   UNL     1       0.442  -4.024  -5.678  1.00  0.00    -0.349 N 
ATOM      4  C   UNL     1      -0.239  -3.159  -4.853  1.00  0.00     0.287 C 
ATOM      5  O   UNL     1       0.177  -2.022  -4.667  1.00  0.00    -0.266 OA
ATOM      6  H   UNL     1       1.297  -3.684  -6.028  1.00  0.00     0.163 HD
BRANCH   4   7
ATOM      7  C   UNL     1      -1.525  -3.607  -4.149  1.00  0.00     0.224 C 
ATOM      8  O   UNL     1      -2.241  -4.480  -4.630  1.00  0.00    -0.288 OA
BRANCH   7   9
ATOM      9  C   UNL     1      -1.915  -2.838  -2.910  1.00  0.00     0.122 C 
BRANCH   9  10
ATOM     10  C   UNL     1      -0.859  -2.768  -1.831  1.00  0.00    -0.039 A 
ATOM     11  C   UNL     1       0.990  -0.013   0.093  1.00  0.00     0.047 C 
ATOM     12  C   UNL     1       0.556  -1.373  -0.367  1.00  0.00    -0.025 A 
ATOM     13  C   UNL     1      -0.419  -1.514  -1.372  1.00  0.00     0.009 A 
ATOM     14  C   UNL     1       1.054  -2.570   0.169  1.00  0.00     0.068 A 
ATOM     15  C   UNL     1       0.640  -3.829  -0.249  1.00  0.00     0.020 A 
ATOM     16  N   UNL     1       1.992  -2.808   1.142  1.00  0.00    -0.278 N 
ATOM     17  C   UNL     1      -0.332  -3.939  -1.260  1.00  0.00     0.016 A 
ATOM     18  C   UNL     1       1.390  -4.729   0.542  1.00  0.00     0.143 A 
ATOM     19  N   UNL     1       2.204  -4.111   1.401  1.00  0.00    -0.183 NA
ATOM     20  H   UNL     1       2.469  -2.086   1.611  1.00  0.00     0.190 HD
ENDBRANCH   9  10
ENDBRANCH   7   9
ENDBRANCH   4   7
ENDBRANCH   2   3
ENDBRANCH   1   2
BRANCH   1  21
ATOM     21  C   UNL     1       0.386  -5.057  -8.609  1.00  0.00     0.118 C 
BRANCH  21  22
ATOM     22  N   UNL     1       1.381  -6.110  -8.805  1.00  0.00    -0.352 N 
ATOM     23  C   UNL     1       2.370  -6.211  -9.765  1.00  0.00     0.251 C 
ATOM     24  H   UNL     1       1.340  -6.854  -8.162  1.00  0.00     0.163 HD
ATOM     25  O   UNL     1       2.890  -7.295  -9.984  1.00  0.00    -0.269 OA
BRANCH  23  26
ATOM     26  C   UNL     1       2.790  -5.011 -10.517  1.00  0.00     0.039 A 
ATOM     27  C   UNL     1       3.220  -5.120 -11.844  1.00  0.00     0.014 A 
ATOM     28  C   UNL     1       2.795  -3.772  -9.879  1.00  0.00     0.014 A 
ATOM     29  C   UNL     1       3.601  -3.966 -12.524  1.00  0.00     0.010 A 
ATOM     30  C   UNL     1       3.028  -2.620 -10.588  1.00  0.00     0.010 A 
ATOM     31  C   UNL     1       3.492  -2.719 -11.889  1.00  0.00    -0.014 A 
BRANCH  31  32
ATOM     32  C   UNL     1       3.757  -1.487 -12.617  1.00  0.00     0.031 A 
ATOM     33  C   UNL     1       2.882  -1.314 -13.798  1.00  0.00     0.074 A 
ATOM     34  C   UNL     1       4.569  -0.506 -12.169  1.00  0.00     0.049 A 
ATOM     35  N   UNL     1       3.181  -1.557 -15.030  1.00  0.00    -0.248 NA
ATOM     36  C   UNL     1       1.452  -1.038 -13.580  1.00  0.00     0.031 C 
ATOM     37  C   UNL     1       5.220  -0.406 -10.855  1.00  0.00     0.029 A 
ATOM     38  N   UNL     1       4.929   0.663 -12.771  1.00  0.00    -0.354 N 
ATOM     39  C   UNL     1       2.071  -1.149 -15.761  1.00  0.00     0.074 A 
ATOM     40  C   UNL     1       0.978  -1.106 -14.828  1.00  0.00     0.031 C 
ATOM     41  C   UNL     1       5.713   0.842 -10.684  1.00  0.00     0.029 A 
ATOM     42  C   UNL     1       5.581   1.565 -11.935  1.00  0.00     0.049 A 
ATOM     43  H   UNL     1       4.742   0.854 -13.719  1.00  0.00     0.167 HD
ATOM     44  C   UNL     1       2.241  -0.545 -16.971  1.00  0.00     0.037 A 
ATOM     45  C   UNL     1       6.015   2.808 -12.259  1.00  0.00     0.037 A 
ATOM     46  C   UNL     1       3.608  -0.694 -17.413  1.00  0.00     0.049 A 
ATOM     47  C   UNL     1       6.227   2.817 -13.727  1.00  0.00     0.074 A 
ATOM     48  C   UNL     1       4.395  -1.700 -17.928  1.00  0.00     0.029 A 
ATOM     49  N   UNL     1       4.449   0.273 -16.924  1.00  0.00    -0.354 N 
ATOM     50  N   UNL     1       7.120   2.075 -14.326  1.00  0.00    -0.248 NA
ATOM     51  C   UNL     1       5.205   3.390 -14.596  1.00  0.00     0.031 C 
ATOM     52  C   UNL     1       5.742  -1.370 -17.588  1.00  0.00     0.029 A 
ATOM     53  C   UNL     1       5.752  -0.150 -16.917  1.00  0.00     0.049 A 
ATOM     54  H   UNL     1       4.153   1.160 -16.617  1.00  0.00     0.167 HD
ATOM     55  C   UNL     1       6.534   1.745 -15.531  1.00  0.00     0.074 A 
ATOM     56  C   UNL     1       5.459   2.710 -15.717  1.00  0.00     0.031 C 
ATOM     57  C   UNL     1       6.743   0.526 -16.105  1.00  0.00     0.037 A 
BRANCH  44  58
ATOM     58  C   UNL     1       1.382   0.585 -17.513  1.00  0.00     0.058 A 
ATOM     59  C   UNL     1       1.631   1.058 -18.821  1.00  0.00     0.135 A 
ATOM     60  C   UNL     1       0.546   1.408 -16.727  1.00  0.00     0.135 A 
ATOM     61  F   UNL     1       2.414   0.364 -19.662  1.00  0.00    -0.206 F 
ATOM     62  C   UNL     1       1.144   2.284 -19.283  1.00  0.00     0.059 A 
ATOM     63  C   UNL     1       0.010   2.607 -17.185  1.00  0.00     0.059 A 
ATOM     64  F   UNL     1       0.277   1.148 -15.444  1.00  0.00    -0.206 F 
ATOM     65  C   UNL     1       0.343   3.057 -18.450  1.00  0.00     0.060 A 
BRANCH  65  66
ATOM     66  S   UNL     1      -0.222   4.673 -19.008  1.00  0.00     0.124 S 
ATOM     67  O   UNL     1       1.033   5.412 -19.082  1.00  0.00    -0.237 OA
ATOM     68  O   UNL     1      -0.850   4.346 -20.284  1.00  0.00    -0.237 OA
ATOM     69  O   UNL     1      -1.141   5.090 -17.953  1.00  0.00    -0.744 OA
ENDBRANCH  65  66
ENDBRANCH  44  58
BRANCH  45  70
ATOM     70  C   UNL     1       5.961   4.059 -11.458  1.00  0.00     0.058 A 
ATOM     71  C   UNL     1       6.614   5.225 -11.904  1.00  0.00     0.135 A 
ATOM     72  C   UNL     1       5.010   4.232 -10.435  1.00  0.00     0.135 A 
ATOM     73  F   UNL     1       7.540   5.151 -12.872  1.00  0.00    -0.206 F 
ATOM     74  C   UNL     1       6.272   6.497 -11.436  1.00  0.00     0.059 A 
ATOM     75  C   UNL     1       4.657   5.491  -9.947  1.00  0.00     0.059 A 
ATOM     76  F   UNL     1       4.322   3.187  -9.950  1.00  0.00    -0.206 F 
ATOM     77  C   UNL     1       5.266   6.623 -10.480  1.00  0.00     0.060 A 
BRANCH  77  78
ATOM     78  S   UNL     1       4.670   8.273 -10.038  1.00  0.00     0.124 S 
ATOM     79  O   UNL     1       5.818   8.829  -9.329  1.00  0.00    -0.237 OA
ATOM     80  O   UNL     1       4.386   8.857 -11.344  1.00  0.00    -0.237 OA
ATOM     81  O   UNL     1       3.499   8.000  -9.210  1.00  0.00    -0.744 OA
ENDBRANCH  77  78
ENDBRANCH  45  70
BRANCH  57  82
ATOM     82  C   UNL     1       8.013  -0.200 -15.775  1.00  0.00     0.058 A 
ATOM     83  C   UNL     1       8.327  -0.769 -14.530  1.00  0.00     0.135 A 
ATOM     84  C   UNL     1       8.929  -0.393 -16.820  1.00  0.00     0.135 A 
ATOM     85  F   UNL     1       7.475  -0.686 -13.499  1.00  0.00    -0.206 F 
ATOM     86  C   UNL     1       9.512  -1.484 -14.331  1.00  0.00     0.059 A 
ATOM     87  C   UNL     1      10.100  -1.123 -16.653  1.00  0.00     0.059 A 
ATOM     88  F   UNL     1       8.667   0.099 -18.043  1.00  0.00    -0.206 F 
ATOM     89  C   UNL     1      10.390  -1.659 -15.402  1.00  0.00     0.060 A 
BRANCH  89  90
ATOM     90  S   UNL     1      11.890  -2.637 -15.167  1.00  0.00     0.124 S 
ATOM     91  O   UNL     1      12.668  -1.799 -14.261  1.00  0.00    -0.237 OA
ATOM     92  O   UNL     1      11.370  -3.877 -14.596  1.00  0.00    -0.237 OA
ATOM     93  O   UNL     1      12.432  -2.764 -16.518  1.00  0.00    -0.744 OA
ENDBRANCH  89  90
ENDBRANCH  57  82
ENDBRANCH  31  32
ENDBRANCH  23  26
ENDBRANCH  21  22
ENDBRANCH   1  21
TORSDOF 15
