REMARK SMILES C[C@H](Oc1ccccc1[N+](=O)[O-])C(=O)N1CCC[C@H](C(=O)NCCCNC(=O)c2ccc(-c3c4nc(c(-c5c(F)cc(S(=O)(=O)[O-])cc5F)c5ccc([nH]5)c(-c5c(F)cc(S(=O)(=O)[O-])cc5F)c5nc(c(-c6c(F)cc(S(=O)(=O)[O-])cc6F)c6ccc3[nH]6)C=C5)C=C4)cc2)C1
REMARK SMILES IDX 23 1 22 2 20 3 21 4 19 6 15 7 16 8 95 9 17 10 18 11 13 12
REMARK SMILES IDX 14 13 2 14 1 15 3 16 4 17 5 18 9 19 6 20 8 21 7 22 10 23
REMARK SMILES IDX 11 24 12 25 24 26 25 27 26 28 27 29 28 31 29 32 30 33 94 34
REMARK SMILES IDX 31 35 93 36 32 37 33 38 34 39 87 40 35 41 92 42 86 43 88 44
REMARK SMILES IDX 36 45 91 46 85 47 84 48 37 50 71 51 50 52 70 53 51 54 54 55
REMARK SMILES IDX 69 56 89 57 52 58 53 59 68 61 90 62 55 63 38 64 39 65 48 66
REMARK SMILES IDX 40 67 41 68 47 69 49 70 42 71 43 72 44 73 45 74 46 75 72 76
REMARK SMILES IDX 73 77 82 78 74 79 75 80 81 81 83 82 76 83 77 84 78 85 79 86
REMARK SMILES IDX 80 87 56 88 57 89 66 90 58 91 59 92 65 93 67 94 60 95 61 96
REMARK SMILES IDX 62 97 63 98 64 99
REMARK H PARENT 22 5 26 30 88 49 54 60
REMARK Flexibility Score: inf
ROOT
ATOM      1  C   UNL     1      -3.211   0.760   0.720  1.00  0.00     0.117 C 
ENDROOT
BRANCH   1   2
ATOM      2  N   UNL     1      -3.394  -0.545   1.309  1.00  0.00    -0.356 N 
ATOM      3  C   UNL     1      -3.088  -1.780   0.839  1.00  0.00     0.224 C 
ATOM      4  O   UNL     1      -3.207  -2.716   1.641  1.00  0.00    -0.275 OA
ATOM      5  H   UNL     1      -3.811  -0.537   2.201  1.00  0.00     0.163 HD
BRANCH   3   6
ATOM      6  C   UNL     1      -2.678  -2.088  -0.610  1.00  0.00     0.098 C 
ATOM      7  N   UNL     1      -1.560  -0.231  -1.906  1.00  0.00    -0.339 N 
ATOM      8  C   UNL     1      -2.622  -0.237  -2.906  1.00  0.00     0.119 C 
ATOM      9  C   UNL     1      -1.379  -1.444  -1.110  1.00  0.00     0.133 C 
ATOM     10  C   UNL     1      -3.958  -0.731  -2.374  1.00  0.00     0.022 C 
ATOM     11  C   UNL     1      -3.845  -2.034  -1.597  1.00  0.00     0.017 C 
BRANCH   7  12
ATOM     12  C   UNL     1      -0.806   0.933  -1.725  1.00  0.00     0.263 C 
ATOM     13  O   UNL     1      -1.317   2.051  -1.844  1.00  0.00    -0.271 OA
BRANCH  12  14
ATOM     14  C   UNL     1       0.737   0.796  -1.667  1.00  0.00     0.259 C 
ATOM     15  C   UNL     1       1.093   0.430  -3.117  1.00  0.00     0.064 C 
BRANCH  14  16
ATOM     16  O   UNL     1       1.167  -0.110  -0.654  1.00  0.00    -0.474 OA
BRANCH  16  17
ATOM     17  C   UNL     1       2.443  -0.581  -0.563  1.00  0.00     0.197 A 
ATOM     18  C   UNL     1       3.513  -0.090  -1.311  1.00  0.00     0.054 A 
ATOM     19  C   UNL     1       2.695  -1.677   0.283  1.00  0.00     0.310 A 
ATOM     20  C   UNL     1       4.721  -0.792  -1.389  1.00  0.00     0.004 A 
ATOM     21  C   UNL     1       3.910  -2.383   0.216  1.00  0.00     0.090 A 
ATOM     22  C   UNL     1       4.906  -1.960  -0.658  1.00  0.00     0.007 A 
BRANCH  19  23
ATOM     23  N   UNL     1       1.729  -2.093   1.306  1.00  0.00     0.066 N 
ATOM     24  O   UNL     1       1.775  -3.276   1.679  1.00  0.00    -0.258 OA
ATOM     25  O   UNL     1       0.970  -1.240   1.784  1.00  0.00    -0.258 OA
ENDBRANCH  19  23
ENDBRANCH  16  17
ENDBRANCH  14  16
ENDBRANCH  12  14
ENDBRANCH   7  12
ENDBRANCH   3   6
ENDBRANCH   1   2
BRANCH   1  26
ATOM     26  C   UNL     1      -4.503   1.498   0.425  1.00  0.00     0.042 C 
BRANCH  26  27
ATOM     27  C   UNL     1      -4.779   2.623   1.402  1.00  0.00     0.118 C 
BRANCH  27  28
ATOM     28  N   UNL     1      -3.803   3.706   1.317  1.00  0.00    -0.352 N 
ATOM     29  C   UNL     1      -3.978   5.062   1.151  1.00  0.00     0.251 C 
ATOM     30  H   UNL     1      -2.864   3.419   1.391  1.00  0.00     0.163 HD
ATOM     31  O   UNL     1      -3.004   5.788   1.017  1.00  0.00    -0.269 OA
BRANCH  29  32
ATOM     32  C   UNL     1      -5.343   5.632   1.094  1.00  0.00     0.039 A 
ATOM     33  C   UNL     1      -5.611   6.651   0.174  1.00  0.00     0.014 A 
ATOM     34  C   UNL     1      -6.362   5.155   1.917  1.00  0.00     0.014 A 
ATOM     35  C   UNL     1      -6.916   7.127   0.029  1.00  0.00     0.010 A 
ATOM     36  C   UNL     1      -7.675   5.536   1.683  1.00  0.00     0.010 A 
ATOM     37  C   UNL     1      -7.968   6.539   0.749  1.00  0.00    -0.014 A 
BRANCH  37  38
ATOM     38  C   UNL     1      -9.377   6.971   0.575  1.00  0.00     0.031 A 
ATOM     39  C   UNL     1     -10.145   7.497   1.760  1.00  0.00     0.074 A 
ATOM     40  C   UNL     1      -9.987   6.815  -0.617  1.00  0.00     0.049 A 
ATOM     41  N   UNL     1     -11.409   7.818   1.851  1.00  0.00    -0.248 NA
ATOM     42  C   UNL     1      -9.402   7.637   3.025  1.00  0.00     0.031 C 
ATOM     43  C   UNL     1      -9.367   6.259  -1.823  1.00  0.00     0.029 A 
ATOM     44  N   UNL     1     -11.270   7.100  -1.010  1.00  0.00    -0.354 N 
ATOM     45  C   UNL     1     -11.617   8.164   3.182  1.00  0.00     0.074 A 
ATOM     46  C   UNL     1     -10.367   7.952   3.875  1.00  0.00     0.031 C 
ATOM     47  C   UNL     1     -10.258   6.276  -2.826  1.00  0.00     0.029 A 
ATOM     48  C   UNL     1     -11.524   6.803  -2.329  1.00  0.00     0.049 A 
ATOM     49  H   UNL     1     -11.946   7.482  -0.404  1.00  0.00     0.167 HD
ATOM     50  C   UNL     1     -12.739   8.644   3.767  1.00  0.00     0.037 A 
ATOM     51  C   UNL     1     -12.653   6.939  -3.053  1.00  0.00     0.037 A 
ATOM     52  C   UNL     1     -13.961   8.905   3.055  1.00  0.00     0.049 A 
ATOM     53  C   UNL     1     -13.878   7.508  -2.389  1.00  0.00     0.074 A 
ATOM     54  C   UNL     1     -15.132   9.466   3.532  1.00  0.00     0.029 A 
ATOM     55  N   UNL     1     -14.165   8.631   1.710  1.00  0.00    -0.354 N 
ATOM     56  N   UNL     1     -14.038   7.890  -1.144  1.00  0.00    -0.248 NA
ATOM     57  C   UNL     1     -15.072   7.672  -3.228  1.00  0.00     0.031 C 
ATOM     58  C   UNL     1     -16.058   9.496   2.484  1.00  0.00     0.029 A 
ATOM     59  C   UNL     1     -15.448   8.997   1.343  1.00  0.00     0.049 A 
ATOM     60  H   UNL     1     -13.496   8.235   1.107  1.00  0.00     0.167 HD
ATOM     61  C   UNL     1     -15.342   8.364  -1.057  1.00  0.00     0.074 A 
ATOM     62  C   UNL     1     -15.922   8.231  -2.378  1.00  0.00     0.031 C 
ATOM     63  C   UNL     1     -16.000   8.865   0.018  1.00  0.00     0.037 A 
BRANCH  50  64
ATOM     64  C   UNL     1     -12.687   8.931   5.243  1.00  0.00     0.058 A 
ATOM     65  C   UNL     1     -11.921   9.987   5.764  1.00  0.00     0.135 A 
ATOM     66  C   UNL     1     -13.428   8.154   6.148  1.00  0.00     0.135 A 
ATOM     67  F   UNL     1     -11.179  10.752   4.947  1.00  0.00    -0.206 F 
ATOM     68  C   UNL     1     -11.862  10.239   7.131  1.00  0.00     0.059 A 
ATOM     69  C   UNL     1     -13.409   8.408   7.517  1.00  0.00     0.059 A 
ATOM     70  F   UNL     1     -14.177   7.131   5.706  1.00  0.00    -0.206 F 
ATOM     71  C   UNL     1     -12.609   9.443   8.000  1.00  0.00     0.060 A 
BRANCH  71  72
ATOM     72  S   UNL     1     -12.526   9.787   9.770  1.00  0.00     0.124 S 
ATOM     73  O   UNL     1     -11.200   9.276  10.103  1.00  0.00    -0.237 OA
ATOM     74  O   UNL     1     -12.674  11.238   9.814  1.00  0.00    -0.237 OA
ATOM     75  O   UNL     1     -13.646   9.029  10.317  1.00  0.00    -0.744 OA
ENDBRANCH  71  72
ENDBRANCH  50  64
BRANCH  51  76
ATOM     76  C   UNL     1     -12.664   6.565  -4.492  1.00  0.00     0.058 A 
ATOM     77  C   UNL     1     -12.730   7.550  -5.489  1.00  0.00     0.135 A 
ATOM     78  C   UNL     1     -12.589   5.226  -4.903  1.00  0.00     0.135 A 
ATOM     79  F   UNL     1     -12.808   8.845  -5.147  1.00  0.00    -0.206 F 
ATOM     80  C   UNL     1     -12.739   7.222  -6.841  1.00  0.00     0.059 A 
ATOM     81  C   UNL     1     -12.572   4.873  -6.250  1.00  0.00     0.059 A 
ATOM     82  F   UNL     1     -12.506   4.245  -3.990  1.00  0.00    -0.206 F 
ATOM     83  C   UNL     1     -12.657   5.879  -7.212  1.00  0.00     0.060 A 
BRANCH  83  84
ATOM     84  S   UNL     1     -12.618   5.467  -8.970  1.00  0.00     0.124 S 
ATOM     85  O   UNL     1     -14.004   5.706  -9.359  1.00  0.00    -0.237 OA
ATOM     86  O   UNL     1     -11.637   6.416  -9.487  1.00  0.00    -0.237 OA
ATOM     87  O   UNL     1     -12.192   4.070  -8.978  1.00  0.00    -0.744 OA
ENDBRANCH  83  84
ENDBRANCH  51  76
BRANCH  63  88
ATOM     88  C   UNL     1     -17.409   9.340  -0.195  1.00  0.00     0.058 A 
ATOM     89  C   UNL     1     -18.471   8.441  -0.372  1.00  0.00     0.135 A 
ATOM     90  C   UNL     1     -17.706  10.713  -0.162  1.00  0.00     0.135 A 
ATOM     91  F   UNL     1     -18.239   7.120  -0.417  1.00  0.00    -0.206 F 
ATOM     92  C   UNL     1     -19.779   8.887  -0.530  1.00  0.00     0.059 A 
ATOM     93  C   UNL     1     -19.010  11.179  -0.290  1.00  0.00     0.059 A 
ATOM     94  F   UNL     1     -16.727  11.613   0.017  1.00  0.00    -0.206 F 
ATOM     95  C   UNL     1     -20.039  10.259  -0.485  1.00  0.00     0.060 A 
BRANCH  95  96
ATOM     96  S   UNL     1     -21.745  10.822  -0.653  1.00  0.00     0.124 S 
ATOM     97  O   UNL     1     -21.977  10.634  -2.081  1.00  0.00    -0.237 OA
ATOM     98  O   UNL     1     -22.465   9.912   0.232  1.00  0.00    -0.237 OA
ATOM     99  O   UNL     1     -21.690  12.210  -0.203  1.00  0.00    -0.744 OA
ENDBRANCH  95  96
ENDBRANCH  63  88
ENDBRANCH  37  38
ENDBRANCH  29  32
ENDBRANCH  27  28
ENDBRANCH  26  27
ENDBRANCH   1  26
TORSDOF 18
