REMARK SMILES C[C@@H]1C(=O)NC(=O)CN1C(=O)NC1(CC(=O)NCCCNC(=O)c2ccc(-c3c4nc(c(-c5c(F)cc(S(=O)(=O)[O-])cc5F)c5ccc([nH]5)c(-c5c(F)cc(S(=O)(=O)[O-])cc5F)c5nc(c(-c6c(F)cc(S(=O)(=O)[O-])cc6F)c6ccc3[nH]6)C=C5)C=C4)cc2)CCC1
REMARK SMILES IDX 19 1 18 2 17 3 15 4 16 5 14 7 13 8 90 9 92 10 91 11 12 12
REMARK SMILES IDX 10 13 11 14 9 16 1 17 2 18 3 19 4 20 5 21 8 22 6 23 7 25
REMARK SMILES IDX 20 26 21 27 22 28 23 30 24 31 25 32 89 33 26 34 88 35 27 36
REMARK SMILES IDX 28 37 29 38 82 39 30 40 87 41 81 42 83 43 31 44 86 45 80 46
REMARK SMILES IDX 79 47 32 49 66 50 45 51 65 52 46 53 49 54 64 55 84 56 47 57
REMARK SMILES IDX 48 58 63 60 85 61 50 62 33 63 34 64 43 65 35 66 36 67 42 68
REMARK SMILES IDX 44 69 37 70 38 71 39 72 40 73 41 74 67 75 68 76 77 77 69 78
REMARK SMILES IDX 70 79 76 80 78 81 71 82 72 83 73 84 74 85 75 86 51 87 52 88
REMARK SMILES IDX 61 89 53 90 54 91 60 92 62 93 55 94 56 95 57 96 58 97 59 98
REMARK H PARENT 17 6 12 15 5 24 21 29 83 48 49 59
REMARK Flexibility Score: inf
ROOT
ATOM      1  C   UNL     1       0.581  -3.240   1.224  1.00  0.00     0.042 C 
ENDROOT
BRANCH   1   2
ATOM      2  C   UNL     1       1.162  -2.170   0.073  1.00  0.00     0.117 C 
BRANCH   2   3
ATOM      3  N   UNL     1       1.256  -0.543   0.042  1.00  0.00    -0.356 N 
ATOM      4  C   UNL     1       1.656   0.706   0.472  1.00  0.00     0.222 C 
ATOM      5  O   UNL     1       1.320   1.550  -0.398  1.00  0.00    -0.275 OA
ATOM      6  H   UNL     1       0.705  -0.322  -0.744  1.00  0.00     0.163 HD
BRANCH   4   7
ATOM      7  C   UNL     1       2.507   1.359   1.697  1.00  0.00     0.128 C 
BRANCH   7   8
ATOM      8  C   UNL     1       2.263   1.522   3.332  1.00  0.00     0.051 C 
ATOM      9  C   UNL     1       3.654   1.951   3.985  1.00  0.00     0.029 C 
ATOM     10  C   UNL     1       2.295   0.539   4.708  1.00  0.00     0.029 C 
ATOM     11  C   UNL     1       3.795   0.492   4.505  1.00  0.00     0.005 C 
BRANCH   8  12
ATOM     12  N   UNL     1       1.163   2.453   3.659  1.00  0.00    -0.332 N 
ATOM     13  C   UNL     1      -0.148   2.316   3.359  1.00  0.00     0.318 C 
ATOM     14  O   UNL     1      -0.971   3.037   3.917  1.00  0.00    -0.249 OA
ATOM     15  H   UNL     1       1.415   3.268   4.151  1.00  0.00     0.165 HD
BRANCH  13  16
ATOM     16  N   UNL     1      -0.464   1.489   2.316  1.00  0.00    -0.304 N 
ATOM     17  C   UNL     1       0.765  -0.803   2.740  1.00  0.00     0.042 C 
ATOM     18  C   UNL     1      -0.500   0.010   2.464  1.00  0.00     0.174 C 
ATOM     19  C   UNL     1      -1.484  -0.488   1.359  1.00  0.00     0.249 C 
ATOM     20  O   UNL     1      -1.266  -1.145   0.339  1.00  0.00    -0.272 OA
ATOM     21  N   UNL     1      -2.731  -0.005   1.561  1.00  0.00    -0.293 N 
ATOM     22  C   UNL     1      -1.496   2.084   1.444  1.00  0.00     0.222 C 
ATOM     23  C   UNL     1      -2.843   1.356   1.534  1.00  0.00     0.246 C 
ATOM     24  H   UNL     1      -3.505  -0.593   1.716  1.00  0.00     0.173 HD
ATOM     25  O   UNL     1      -3.923   1.875   1.278  1.00  0.00    -0.273 OA
ENDBRANCH  13  16
ENDBRANCH   8  12
ENDBRANCH   7   8
ENDBRANCH   4   7
ENDBRANCH   2   3
ENDBRANCH   1   2
BRANCH   1  26
ATOM     26  C   UNL     1      -0.874  -3.419   1.806  1.00  0.00     0.118 C 
BRANCH  26  27
ATOM     27  N   UNL     1      -1.804  -4.054   0.898  1.00  0.00    -0.352 N 
ATOM     28  C   UNL     1      -2.835  -4.915   1.205  1.00  0.00     0.251 C 
ATOM     29  H   UNL     1      -1.687  -3.846  -0.057  1.00  0.00     0.163 HD
ATOM     30  O   UNL     1      -3.213  -5.728   0.365  1.00  0.00    -0.269 OA
BRANCH  28  31
ATOM     31  C   UNL     1      -3.528  -4.862   2.519  1.00  0.00     0.039 A 
ATOM     32  C   UNL     1      -3.732  -6.052   3.226  1.00  0.00     0.014 A 
ATOM     33  C   UNL     1      -4.154  -3.688   2.954  1.00  0.00     0.014 A 
ATOM     34  C   UNL     1      -4.562  -6.069   4.355  1.00  0.00     0.010 A 
ATOM     35  C   UNL     1      -4.968  -3.702   4.099  1.00  0.00     0.010 A 
ATOM     36  C   UNL     1      -5.200  -4.898   4.798  1.00  0.00    -0.014 A 
BRANCH  36  37
ATOM     37  C   UNL     1      -6.120  -4.946   5.973  1.00  0.00     0.031 A 
ATOM     38  C   UNL     1      -7.607  -4.760   5.798  1.00  0.00     0.074 A 
ATOM     39  C   UNL     1      -5.613  -5.174   7.201  1.00  0.00     0.049 A 
ATOM     40  N   UNL     1      -8.559  -4.806   6.696  1.00  0.00    -0.248 NA
ATOM     41  C   UNL     1      -8.086  -4.471   4.437  1.00  0.00     0.031 C 
ATOM     42  C   UNL     1      -4.190  -5.346   7.500  1.00  0.00     0.029 A 
ATOM     43  N   UNL     1      -6.225  -5.306   8.423  1.00  0.00    -0.354 N 
ATOM     44  C   UNL     1      -9.746  -4.553   6.014  1.00  0.00     0.074 A 
ATOM     45  C   UNL     1      -9.388  -4.305   4.634  1.00  0.00     0.031 C 
ATOM     46  C   UNL     1      -4.040  -5.584   8.812  1.00  0.00     0.029 A 
ATOM     47  C   UNL     1      -5.350  -5.547   9.457  1.00  0.00     0.049 A 
ATOM     48  H   UNL     1      -7.199  -5.234   8.548  1.00  0.00     0.167 HD
ATOM     49  C   UNL     1     -11.017  -4.546   6.490  1.00  0.00     0.037 A 
ATOM     50  C   UNL     1      -5.573  -5.716  10.776  1.00  0.00     0.037 A 
ATOM     51  C   UNL     1     -11.361  -4.800   7.867  1.00  0.00     0.049 A 
ATOM     52  C   UNL     1      -6.990  -5.684  11.284  1.00  0.00     0.074 A 
ATOM     53  C   UNL     1     -12.617  -4.856   8.447  1.00  0.00     0.029 A 
ATOM     54  N   UNL     1     -10.444  -5.032   8.884  1.00  0.00    -0.354 N 
ATOM     55  N   UNL     1      -8.103  -5.505  10.611  1.00  0.00    -0.248 NA
ATOM     56  C   UNL     1      -7.186  -5.886  12.726  1.00  0.00     0.031 C 
ATOM     57  C   UNL     1     -12.458  -5.065   9.821  1.00  0.00     0.029 A 
ATOM     58  C   UNL     1     -11.105  -5.205  10.090  1.00  0.00     0.049 A 
ATOM     59  H   UNL     1      -9.468  -5.067   8.766  1.00  0.00     0.167 HD
ATOM     60  C   UNL     1      -9.131  -5.600  11.543  1.00  0.00     0.074 A 
ATOM     61  C   UNL     1      -8.508  -5.869  12.823  1.00  0.00     0.031 C 
ATOM     62  C   UNL     1     -10.469  -5.477  11.356  1.00  0.00     0.037 A 
BRANCH  49  63
ATOM     63  C   UNL     1     -12.134  -4.249   5.520  1.00  0.00     0.058 A 
ATOM     64  C   UNL     1     -12.491  -5.149   4.503  1.00  0.00     0.135 A 
ATOM     65  C   UNL     1     -12.892  -3.071   5.638  1.00  0.00     0.135 A 
ATOM     66  F   UNL     1     -11.799  -6.288   4.334  1.00  0.00    -0.206 F 
ATOM     67  C   UNL     1     -13.533  -4.880   3.620  1.00  0.00     0.059 A 
ATOM     68  C   UNL     1     -13.959  -2.795   4.785  1.00  0.00     0.059 A 
ATOM     69  F   UNL     1     -12.604  -2.175   6.594  1.00  0.00    -0.206 F 
ATOM     70  C   UNL     1     -14.263  -3.700   3.770  1.00  0.00     0.060 A 
BRANCH  70  71
ATOM     71  S   UNL     1     -15.617  -3.372   2.620  1.00  0.00     0.124 S 
ATOM     72  O   UNL     1     -14.890  -3.095   1.385  1.00  0.00    -0.237 OA
ATOM     73  O   UNL     1     -16.360  -4.627   2.649  1.00  0.00    -0.237 OA
ATOM     74  O   UNL     1     -16.301  -2.228   3.215  1.00  0.00    -0.744 OA
ENDBRANCH  70  71
ENDBRANCH  49  63
BRANCH  50  75
ATOM     75  C   UNL     1      -4.430  -5.943  11.703  1.00  0.00     0.058 A 
ATOM     76  C   UNL     1      -4.247  -7.175  12.348  1.00  0.00     0.135 A 
ATOM     77  C   UNL     1      -3.487  -4.932  11.954  1.00  0.00     0.135 A 
ATOM     78  F   UNL     1      -5.121  -8.173  12.148  1.00  0.00    -0.206 F 
ATOM     79  C   UNL     1      -3.185  -7.393  13.221  1.00  0.00     0.059 A 
ATOM     80  C   UNL     1      -2.400  -5.135  12.798  1.00  0.00     0.059 A 
ATOM     81  F   UNL     1      -3.603  -3.739  11.350  1.00  0.00    -0.206 F 
ATOM     82  C   UNL     1      -2.264  -6.366  13.436  1.00  0.00     0.060 A 
BRANCH  82  83
ATOM     83  S   UNL     1      -0.862  -6.674  14.533  1.00  0.00     0.124 S 
ATOM     84  O   UNL     1      -1.512  -6.710  15.838  1.00  0.00    -0.237 OA
ATOM     85  O   UNL     1      -0.358  -7.950  14.034  1.00  0.00    -0.237 OA
ATOM     86  O   UNL     1       0.010  -5.528  14.293  1.00  0.00    -0.744 OA
ENDBRANCH  82  83
ENDBRANCH  50  75
BRANCH  62  87
ATOM     87  C   UNL     1     -11.356  -5.668  12.557  1.00  0.00     0.058 A 
ATOM     88  C   UNL     1     -11.414  -4.723  13.594  1.00  0.00     0.135 A 
ATOM     89  C   UNL     1     -12.196  -6.790  12.647  1.00  0.00     0.135 A 
ATOM     90  F   UNL     1     -10.627  -3.636  13.563  1.00  0.00    -0.206 F 
ATOM     91  C   UNL     1     -12.253  -4.898  14.690  1.00  0.00     0.059 A 
ATOM     92  C   UNL     1     -13.067  -6.969  13.717  1.00  0.00     0.059 A 
ATOM     93  F   UNL     1     -12.188  -7.721  11.678  1.00  0.00    -0.206 F 
ATOM     94  C   UNL     1     -13.079  -6.023  14.740  1.00  0.00     0.060 A 
BRANCH  94  95
ATOM     95  S   UNL     1     -14.186  -6.219  16.152  1.00  0.00     0.124 S 
ATOM     96  O   UNL     1     -13.247  -6.560  17.216  1.00  0.00    -0.237 OA
ATOM     97  O   UNL     1     -14.804  -4.901  16.249  1.00  0.00    -0.237 OA
ATOM     98  O   UNL     1     -15.080  -7.296  15.737  1.00  0.00    -0.744 OA
ENDBRANCH  94  95
ENDBRANCH  62  87
ENDBRANCH  36  37
ENDBRANCH  28  31
ENDBRANCH  26  27
ENDBRANCH   1  26
TORSDOF 16
