REMARK SMILES Cc1cccc2nc(C(=O)NCC(=O)NCCCNC(=O)c3ccc(-c4c5nc(c(-c6c(F)cc(S(=O)(=O)[O-])cc6F)c6ccc([nH]6)c(-c6c(F)cc(S(=O)(=O)[O-])cc6F)c6nc(c(-c7c(F)cc(S(=O)(=O)[O-])cc7F)c7ccc4[nH]7)C=C6)C=C5)cc3)cn12
REMARK SMILES IDX 17 1 16 2 15 3 13 4 14 5 12 7 11 8 9 9 10 10 8 12 1 13 2 14
REMARK SMILES IDX 3 15 89 16 4 17 6 18 88 19 5 20 7 21 18 22 19 23 20 24 21 26
REMARK SMILES IDX 22 27 23 28 87 29 24 30 86 31 25 32 26 33 27 34 80 35 28 36
REMARK SMILES IDX 85 37 79 38 81 39 29 40 84 41 78 42 77 43 30 45 64 46 43 47
REMARK SMILES IDX 63 48 44 49 47 50 62 51 82 52 45 53 46 54 61 56 83 57 48 58
REMARK SMILES IDX 31 59 32 60 41 61 33 62 34 63 40 64 42 65 35 66 36 67 37 68
REMARK SMILES IDX 38 69 39 70 65 71 66 72 75 73 67 74 68 75 74 76 76 77 69 78
REMARK SMILES IDX 70 79 71 80 72 81 73 82 49 83 50 84 59 85 51 86 52 87 58 88
REMARK SMILES IDX 60 89 53 90 54 91 55 92 56 93 57 94
REMARK H PARENT 15 6 11 11 19 25 81 44 47 55
REMARK Flexibility Score: inf
ROOT
ATOM      1  C   UNL     1       5.398   4.813   1.575  1.00  0.00     0.042 C 
ENDROOT
BRANCH   1   2
ATOM      2  C   UNL     1       4.119   5.652   1.587  1.00  0.00     0.117 C 
BRANCH   2   3
ATOM      3  N   UNL     1       4.338   7.021   1.166  1.00  0.00    -0.355 N 
ATOM      4  C   UNL     1       4.034   7.619  -0.022  1.00  0.00     0.239 C 
ATOM      5  O   UNL     1       4.137   8.846  -0.091  1.00  0.00    -0.273 OA
ATOM      6  H   UNL     1       4.769   7.604   1.833  1.00  0.00     0.163 HD
BRANCH   4   7
ATOM      7  C   UNL     1       3.449   6.819  -1.192  1.00  0.00     0.216 C 
BRANCH   7   8
ATOM      8  N   UNL     1       4.248   5.671  -1.602  1.00  0.00    -0.342 N 
ATOM      9  C   UNL     1       3.969   4.330  -1.631  1.00  0.00     0.271 C 
ATOM     10  O   UNL     1       4.853   3.571  -2.047  1.00  0.00    -0.267 OA
ATOM     11  H   UNL     1       5.153   5.901  -1.915  1.00  0.00     0.164 HD
BRANCH   9  12
ATOM     12  C   UNL     1       2.696   3.801  -1.127  1.00  0.00     0.147 A 
ATOM     13  C   UNL     1       0.979  -0.103  -0.073  1.00  0.00     0.065 C 
ATOM     14  C   UNL     1       0.443   1.283   0.116  1.00  0.00     0.021 A 
ATOM     15  C   UNL     1      -0.740   1.518   0.724  1.00  0.00     0.022 A 
ATOM     16  N   UNL     1       1.183   2.391  -0.334  1.00  0.00    -0.304 N 
ATOM     17  C   UNL     1      -1.209   2.883   0.893  1.00  0.00     0.006 A 
ATOM     18  C   UNL     1       0.753   3.707  -0.195  1.00  0.00     0.137 A 
ATOM     19  C   UNL     1       2.414   2.458  -0.941  1.00  0.00     0.127 A 
ATOM     20  C   UNL     1      -0.492   3.932   0.451  1.00  0.00     0.048 A 
ATOM     21  N   UNL     1       1.626   4.556  -0.687  1.00  0.00    -0.223 NA
ENDBRANCH   9  12
ENDBRANCH   7   8
ENDBRANCH   4   7
ENDBRANCH   2   3
ENDBRANCH   1   2
BRANCH   1  22
ATOM     22  C   UNL     1       6.276   5.126   2.777  1.00  0.00     0.118 C 
BRANCH  22  23
ATOM     23  N   UNL     1       5.675   4.664   4.027  1.00  0.00    -0.352 N 
ATOM     24  C   UNL     1       6.190   4.699   5.303  1.00  0.00     0.251 C 
ATOM     25  H   UNL     1       4.775   4.272   3.945  1.00  0.00     0.163 HD
ATOM     26  O   UNL     1       5.714   3.970   6.168  1.00  0.00    -0.269 OA
BRANCH  24  27
ATOM     27  C   UNL     1       7.299   5.616   5.627  1.00  0.00     0.039 A 
ATOM     28  C   UNL     1       8.256   5.258   6.582  1.00  0.00     0.014 A 
ATOM     29  C   UNL     1       7.352   6.868   5.012  1.00  0.00     0.014 A 
ATOM     30  C   UNL     1       9.283   6.149   6.877  1.00  0.00     0.010 A 
ATOM     31  C   UNL     1       8.427   7.698   5.210  1.00  0.00     0.010 A 
ATOM     32  C   UNL     1       9.360   7.365   6.181  1.00  0.00    -0.014 A 
BRANCH  32  33
ATOM     33  C   UNL     1      10.499   8.251   6.354  1.00  0.00     0.031 A 
ATOM     34  C   UNL     1      11.784   7.634   5.939  1.00  0.00     0.074 A 
ATOM     35  C   UNL     1      10.381   9.563   6.647  1.00  0.00     0.049 A 
ATOM     36  N   UNL     1      12.712   7.179   6.712  1.00  0.00    -0.248 NA
ATOM     37  C   UNL     1      11.977   7.295   4.519  1.00  0.00     0.031 C 
ATOM     38  C   UNL     1       9.158  10.363   6.766  1.00  0.00     0.029 A 
ATOM     39  N   UNL     1      11.358  10.493   6.816  1.00  0.00    -0.354 N 
ATOM     40  C   UNL     1      13.731   6.761   5.865  1.00  0.00     0.074 A 
ATOM     41  C   UNL     1      13.130   6.622   4.565  1.00  0.00     0.031 C 
ATOM     42  C   UNL     1       9.475  11.678   6.765  1.00  0.00     0.029 A 
ATOM     43  C   UNL     1      10.921  11.815   6.797  1.00  0.00     0.049 A 
ATOM     44  H   UNL     1      12.304  10.250   6.942  1.00  0.00     0.167 HD
ATOM     45  C   UNL     1      15.034   6.858   6.250  1.00  0.00     0.037 A 
ATOM     46  C   UNL     1      11.702  12.930   6.782  1.00  0.00     0.037 A 
ATOM     47  C   UNL     1      15.130   7.092   7.673  1.00  0.00     0.049 A 
ATOM     48  C   UNL     1      13.034  12.518   7.307  1.00  0.00     0.074 A 
ATOM     49  C   UNL     1      14.672   6.433   8.799  1.00  0.00     0.029 A 
ATOM     50  N   UNL     1      15.427   8.371   8.085  1.00  0.00    -0.354 N 
ATOM     51  N   UNL     1      13.235  12.129   8.538  1.00  0.00    -0.248 NA
ATOM     52  C   UNL     1      14.025  12.068   6.342  1.00  0.00     0.031 C 
ATOM     53  C   UNL     1      14.252   7.467   9.686  1.00  0.00     0.029 A 
ATOM     54  C   UNL     1      14.559   8.694   9.095  1.00  0.00     0.049 A 
ATOM     55  H   UNL     1      16.135   8.950   7.720  1.00  0.00     0.167 HD
ATOM     56  C   UNL     1      14.094  11.045   8.430  1.00  0.00     0.074 A 
ATOM     57  C   UNL     1      14.605  11.101   7.060  1.00  0.00     0.031 C 
ATOM     58  C   UNL     1      14.085  10.037   9.353  1.00  0.00     0.037 A 
BRANCH  45  59
ATOM     59  C   UNL     1      16.187   7.165   5.319  1.00  0.00     0.058 A 
ATOM     60  C   UNL     1      17.499   7.138   5.838  1.00  0.00     0.135 A 
ATOM     61  C   UNL     1      16.052   7.762   4.046  1.00  0.00     0.135 A 
ATOM     62  F   UNL     1      17.749   6.590   7.038  1.00  0.00    -0.206 F 
ATOM     63  C   UNL     1      18.572   7.748   5.190  1.00  0.00     0.059 A 
ATOM     64  C   UNL     1      17.119   8.325   3.357  1.00  0.00     0.059 A 
ATOM     65  F   UNL     1      14.869   7.920   3.442  1.00  0.00    -0.206 F 
ATOM     66  C   UNL     1      18.367   8.354   3.956  1.00  0.00     0.060 A 
BRANCH  66  67
ATOM     67  S   UNL     1      19.726   9.228   3.166  1.00  0.00     0.124 S 
ATOM     68  O   UNL     1      19.925  10.344   4.083  1.00  0.00    -0.237 OA
ATOM     69  O   UNL     1      20.771   8.209   3.160  1.00  0.00    -0.237 OA
ATOM     70  O   UNL     1      19.186   9.573   1.855  1.00  0.00    -0.744 OA
ENDBRANCH  66  67
ENDBRANCH  45  59
BRANCH  46  71
ATOM     71  C   UNL     1      11.497  14.203   6.029  1.00  0.00     0.058 A 
ATOM     72  C   UNL     1      12.351  15.309   6.216  1.00  0.00     0.135 A 
ATOM     73  C   UNL     1      10.651  14.269   4.903  1.00  0.00     0.135 A 
ATOM     74  F   UNL     1      13.202  15.335   7.253  1.00  0.00    -0.206 F 
ATOM     75  C   UNL     1      12.411  16.377   5.310  1.00  0.00     0.059 A 
ATOM     76  C   UNL     1      10.686  15.327   3.992  1.00  0.00     0.059 A 
ATOM     77  F   UNL     1       9.823  13.259   4.598  1.00  0.00    -0.206 F 
ATOM     78  C   UNL     1      11.590  16.363   4.183  1.00  0.00     0.060 A 
BRANCH  78  79
ATOM     79  S   UNL     1      11.791  17.639   2.913  1.00  0.00     0.124 S 
ATOM     80  O   UNL     1      11.340  18.837   3.612  1.00  0.00    -0.237 OA
ATOM     81  O   UNL     1      13.220  17.567   2.628  1.00  0.00    -0.237 OA
ATOM     82  O   UNL     1      10.920  17.182   1.833  1.00  0.00    -0.744 OA
ENDBRANCH  78  79
ENDBRANCH  46  71
BRANCH  58  83
ATOM     83  C   UNL     1      13.354  10.247  10.655  1.00  0.00     0.058 A 
ATOM     84  C   UNL     1      11.963  10.422  10.777  1.00  0.00     0.135 A 
ATOM     85  C   UNL     1      14.082  10.073  11.841  1.00  0.00     0.135 A 
ATOM     86  F   UNL     1      11.178  10.499   9.694  1.00  0.00    -0.206 F 
ATOM     87  C   UNL     1      11.333  10.449  12.025  1.00  0.00     0.059 A 
ATOM     88  C   UNL     1      13.472  10.065  13.092  1.00  0.00     0.059 A 
ATOM     89  F   UNL     1      15.405   9.845  11.790  1.00  0.00    -0.206 F 
ATOM     90  C   UNL     1      12.097  10.262  13.178  1.00  0.00     0.060 A 
BRANCH  90  91
ATOM     91  S   UNL     1      11.275  10.215  14.785  1.00  0.00     0.124 S 
ATOM     92  O   UNL     1      10.817  11.591  14.938  1.00  0.00    -0.237 OA
ATOM     93  O   UNL     1      10.229   9.218  14.576  1.00  0.00    -0.237 OA
ATOM     94  O   UNL     1      12.337   9.807  15.702  1.00  0.00    -0.744 OA
ENDBRANCH  90  91
ENDBRANCH  58  83
ENDBRANCH  32  33
ENDBRANCH  24  27
ENDBRANCH  22  23
ENDBRANCH   1  22
TORSDOF 15
