REMARK SMILES CCc1c(C)nc(Nc2cc(Cl)ccc2C)nc1OCC(=O)NCCCNC(=O)c1ccc(-c2c3nc(c(-c4c(F)cc(S(=O)(=O)[O-])cc4F)c4ccc([nH]4)c(-c4c(F)cc(S(=O)(=O)[O-])cc4F)c4nc(c(-c5c(F)cc(S(=O)(=O)[O-])cc5F)c5ccc2[nH]5)C=C4)C=C3)cc1
REMARK SMILES IDX 24 1 23 2 21 3 22 4 20 6 19 7 18 8 3 9 4 10 5 11 6 12 17 13
REMARK SMILES IDX 7 14 2 15 1 16 8 17 9 19 10 20 15 21 11 22 14 23 16 24 12 25
REMARK SMILES IDX 13 26 25 27 26 28 27 29 28 30 29 32 30 33 31 34 95 35 32 36
REMARK SMILES IDX 94 37 33 38 34 39 35 40 88 41 36 42 93 43 87 44 89 45 37 46
REMARK SMILES IDX 92 47 86 48 85 49 38 51 72 52 51 53 71 54 52 55 55 56 70 57
REMARK SMILES IDX 90 58 53 59 54 60 69 62 91 63 56 64 39 65 40 66 49 67 41 68
REMARK SMILES IDX 42 69 48 70 50 71 43 72 44 73 45 74 46 75 47 76 73 77 74 78
REMARK SMILES IDX 83 79 75 80 76 81 82 82 84 83 77 84 78 85 79 86 80 87 81 88
REMARK SMILES IDX 57 89 58 90 67 91 59 92 60 93 66 94 68 95 61 96 62 97 63 98
REMARK SMILES IDX 64 99 65 100
REMARK H PARENT 23 5 8 18 27 31 89 50 55 61
REMARK Flexibility Score: inf
ROOT
ATOM      1  C   UNL     1      -1.019  -4.839   3.276  1.00  0.00     0.117 C 
ENDROOT
BRANCH   1   2
ATOM      2  N   UNL     1      -1.316  -4.126   2.049  1.00  0.00    -0.353 N 
ATOM      3  C   UNL     1      -0.454  -3.558   1.162  1.00  0.00     0.258 C 
ATOM      4  O   UNL     1      -0.914  -3.134   0.100  1.00  0.00    -0.271 OA
ATOM      5  H   UNL     1      -2.271  -4.041   1.828  1.00  0.00     0.163 HD
BRANCH   3   6
ATOM      6  C   UNL     1       1.050  -3.511   1.470  1.00  0.00     0.331 C 
BRANCH   6   7
ATOM      7  O   UNL     1       1.512  -2.796   2.586  1.00  0.00    -0.467 OA
BRANCH   7   8
ATOM      8  C   UNL     1       1.371  -1.470   2.820  1.00  0.00     0.222 A 
ATOM      9  C   UNL     1       0.957  -0.437   1.978  1.00  0.00     0.035 A 
ATOM     10  C   UNL     1       0.821   0.795   2.625  1.00  0.00     0.050 A 
ATOM     11  C   UNL     1       0.264   2.037   1.994  1.00  0.00     0.067 C 
ATOM     12  N   UNL     1       1.192   0.999   3.898  1.00  0.00    -0.218 NA
ATOM     13  N   UNL     1       1.736  -1.253   4.109  1.00  0.00    -0.177 NA
ATOM     14  C   UNL     1       1.645  -0.024   4.612  1.00  0.00     0.230 A 
BRANCH   9  15
ATOM     15  C   UNL     1       0.618  -0.545   0.515  1.00  0.00     0.040 C 
ATOM     16  C   UNL     1       1.375   0.377  -0.438  1.00  0.00     0.009 C 
ENDBRANCH   9  15
BRANCH  14  17
ATOM     17  N   UNL     1       2.080   0.197   5.920  1.00  0.00    -0.324 N 
ATOM     18  H   UNL     1       2.400  -0.590   6.417  1.00  0.00     0.170 HD
BRANCH  17  19
ATOM     19  C   UNL     1       2.109   1.426   6.601  1.00  0.00     0.045 A 
ATOM     20  C   UNL     1       3.354   1.958   6.973  1.00  0.00     0.047 A 
ATOM     21  C   UNL     1       0.947   2.202   6.816  1.00  0.00    -0.027 A 
ATOM     22  C   UNL     1       3.448   3.251   7.492  1.00  0.00     0.043 A 
ATOM     23  C   UNL     1       1.064   3.507   7.325  1.00  0.00     0.007 A 
ATOM     24  C   UNL     1      -0.433   1.669   6.528  1.00  0.00     0.046 C 
ATOM     25  Cl  UNL     1       4.991   3.901   7.896  1.00  0.00    -0.084 Cl
ATOM     26  C   UNL     1       2.311   4.033   7.656  1.00  0.00     0.021 A 
ENDBRANCH  17  19
ENDBRANCH  14  17
ENDBRANCH   7   8
ENDBRANCH   6   7
ENDBRANCH   3   6
ENDBRANCH   1   2
BRANCH   1  27
ATOM     27  C   UNL     1      -1.457  -4.087   4.524  1.00  0.00     0.042 C 
BRANCH  27  28
ATOM     28  C   UNL     1      -2.932  -3.692   4.558  1.00  0.00     0.118 C 
BRANCH  28  29
ATOM     29  N   UNL     1      -3.839  -4.815   4.366  1.00  0.00    -0.352 N 
ATOM     30  C   UNL     1      -4.832  -5.321   5.165  1.00  0.00     0.251 C 
ATOM     31  H   UNL     1      -3.718  -5.295   3.514  1.00  0.00     0.163 HD
ATOM     32  O   UNL     1      -5.372  -6.380   4.836  1.00  0.00    -0.269 OA
BRANCH  30  33
ATOM     33  C   UNL     1      -5.250  -4.641   6.412  1.00  0.00     0.039 A 
ATOM     34  C   UNL     1      -5.574  -5.428   7.522  1.00  0.00     0.014 A 
ATOM     35  C   UNL     1      -5.370  -3.252   6.493  1.00  0.00     0.014 A 
ATOM     36  C   UNL     1      -5.955  -4.822   8.721  1.00  0.00     0.010 A 
ATOM     37  C   UNL     1      -5.670  -2.645   7.713  1.00  0.00     0.010 A 
ATOM     38  C   UNL     1      -5.973  -3.423   8.840  1.00  0.00    -0.014 A 
BRANCH  38  39
ATOM     39  C   UNL     1      -6.303  -2.774  10.137  1.00  0.00     0.031 A 
ATOM     40  C   UNL     1      -7.526  -1.905  10.274  1.00  0.00     0.074 A 
ATOM     41  C   UNL     1      -5.478  -2.944  11.190  1.00  0.00     0.049 A 
ATOM     42  N   UNL     1      -7.971  -1.266  11.326  1.00  0.00    -0.248 NA
ATOM     43  C   UNL     1      -8.342  -1.707   9.066  1.00  0.00     0.031 C 
ATOM     44  C   UNL     1      -4.228  -3.710  11.171  1.00  0.00     0.029 A 
ATOM     45  N   UNL     1      -5.564  -2.489  12.482  1.00  0.00    -0.354 N 
ATOM     46  C   UNL     1      -9.110  -0.588  10.907  1.00  0.00     0.074 A 
ATOM     47  C   UNL     1      -9.255  -0.845   9.491  1.00  0.00     0.031 C 
ATOM     48  C   UNL     1      -3.687  -3.702  12.399  1.00  0.00     0.029 A 
ATOM     49  C   UNL     1      -4.531  -2.909  13.287  1.00  0.00     0.049 A 
ATOM     50  H   UNL     1      -6.298  -1.916  12.803  1.00  0.00     0.167 HD
ATOM     51  C   UNL     1      -9.973   0.158  11.640  1.00  0.00     0.037 A 
ATOM     52  C   UNL     1      -4.294  -2.688  14.594  1.00  0.00     0.037 A 
ATOM     53  C   UNL     1      -9.839   0.392  13.055  1.00  0.00     0.049 A 
ATOM     54  C   UNL     1      -5.280  -1.879  15.391  1.00  0.00     0.074 A 
ATOM     55  C   UNL     1     -10.685   1.093  13.897  1.00  0.00     0.029 A 
ATOM     56  N   UNL     1      -8.793  -0.071  13.839  1.00  0.00    -0.354 N 
ATOM     57  N   UNL     1      -6.386  -1.298  14.990  1.00  0.00    -0.248 NA
ATOM     58  C   UNL     1      -4.994  -1.707  16.821  1.00  0.00     0.031 C 
ATOM     59  C   UNL     1     -10.133   1.082  15.183  1.00  0.00     0.029 A 
ATOM     60  C   UNL     1      -8.966   0.337  15.152  1.00  0.00     0.049 A 
ATOM     61  H   UNL     1      -8.037  -0.611  13.511  1.00  0.00     0.167 HD
ATOM     62  C   UNL     1      -6.941  -0.716  16.124  1.00  0.00     0.074 A 
ATOM     63  C   UNL     1      -6.058  -1.030  17.228  1.00  0.00     0.031 C 
ATOM     64  C   UNL     1      -8.079   0.014  16.241  1.00  0.00     0.037 A 
BRANCH  51  65
ATOM     65  C   UNL     1     -11.152   0.762  10.924  1.00  0.00     0.058 A 
ATOM     66  C   UNL     1     -12.209  -0.031  10.450  1.00  0.00     0.135 A 
ATOM     67  C   UNL     1     -11.246   2.152  10.741  1.00  0.00     0.135 A 
ATOM     68  F   UNL     1     -12.165  -1.367  10.584  1.00  0.00    -0.206 F 
ATOM     69  C   UNL     1     -13.302   0.526   9.794  1.00  0.00     0.059 A 
ATOM     70  C   UNL     1     -12.344   2.734  10.113  1.00  0.00     0.059 A 
ATOM     71  F   UNL     1     -10.265   2.959  11.175  1.00  0.00    -0.206 F 
ATOM     72  C   UNL     1     -13.360   1.911   9.630  1.00  0.00     0.060 A 
BRANCH  72  73
ATOM     73  S   UNL     1     -14.788   2.619   8.783  1.00  0.00     0.124 S 
ATOM     74  O   UNL     1     -14.518   2.248   7.397  1.00  0.00    -0.237 OA
ATOM     75  O   UNL     1     -15.905   1.924   9.417  1.00  0.00    -0.237 OA
ATOM     76  O   UNL     1     -14.689   4.043   9.081  1.00  0.00    -0.744 OA
ENDBRANCH  72  73
ENDBRANCH  51  65
BRANCH  52  77
ATOM     77  C   UNL     1      -3.093  -3.278  15.244  1.00  0.00     0.058 A 
ATOM     78  C   UNL     1      -3.216  -4.328  16.166  1.00  0.00     0.135 A 
ATOM     79  C   UNL     1      -1.803  -2.809  14.957  1.00  0.00     0.135 A 
ATOM     80  F   UNL     1      -4.430  -4.809  16.477  1.00  0.00    -0.206 F 
ATOM     81  C   UNL     1      -2.106  -4.877  16.800  1.00  0.00     0.059 A 
ATOM     82  C   UNL     1      -0.674  -3.358  15.557  1.00  0.00     0.059 A 
ATOM     83  F   UNL     1      -1.630  -1.819  14.067  1.00  0.00    -0.206 F 
ATOM     84  C   UNL     1      -0.838  -4.384  16.488  1.00  0.00     0.060 A 
BRANCH  84  85
ATOM     85  S   UNL     1       0.602  -5.128  17.286  1.00  0.00     0.124 S 
ATOM     86  O   UNL     1       0.514  -4.568  18.629  1.00  0.00    -0.237 OA
ATOM     87  O   UNL     1       0.316  -6.555  17.168  1.00  0.00    -0.237 OA
ATOM     88  O   UNL     1       1.717  -4.653  16.473  1.00  0.00    -0.744 OA
ENDBRANCH  84  85
ENDBRANCH  52  77
BRANCH  64  89
ATOM     89  C   UNL     1      -8.448   0.488  17.620  1.00  0.00     0.058 A 
ATOM     90  C   UNL     1      -7.731   1.507  18.268  1.00  0.00     0.135 A 
ATOM     91  C   UNL     1      -9.539  -0.078  18.298  1.00  0.00     0.135 A 
ATOM     92  F   UNL     1      -6.676   2.079  17.665  1.00  0.00    -0.206 F 
ATOM     93  C   UNL     1      -8.055   1.916  19.557  1.00  0.00     0.059 A 
ATOM     94  C   UNL     1      -9.899   0.337  19.576  1.00  0.00     0.059 A 
ATOM     95  F   UNL     1     -10.268  -1.045  17.719  1.00  0.00    -0.206 F 
ATOM     96  C   UNL     1      -9.138   1.320  20.206  1.00  0.00     0.060 A 
BRANCH  96  97
ATOM     97  S   UNL     1      -9.548   1.854  21.881  1.00  0.00     0.124 S 
ATOM     98  O   UNL     1      -8.512   1.186  22.662  1.00  0.00    -0.237 OA
ATOM     99  O   UNL     1      -9.432   3.306  21.785  1.00  0.00    -0.237 OA
ATOM    100  O   UNL     1     -10.905   1.351  22.074  1.00  0.00    -0.744 OA
ENDBRANCH  96  97
ENDBRANCH  64  89
ENDBRANCH  38  39
ENDBRANCH  30  33
ENDBRANCH  28  29
ENDBRANCH  27  28
ENDBRANCH   1  27
TORSDOF 18
