REMARK SMILES Cc1nn(Cc2ccc(Cl)cc2Cl)c(C)c1NC(=O)c1c(C(=O)NCCCNC(=O)c2ccc(-c3c4nc(c(-c5c(F)cc(S(=O)(=O)[O-])cc5F)c5ccc([nH]5)c(-c5c(F)cc(S(=O)(=O)[O-])cc5F)c5nc(c(-c6c(F)cc(S(=O)(=O)[O-])cc6F)c6ccc3[nH]6)C=C5)C=C4)cc2)cnn1C
REMARK SMILES IDX 25 1 24 2 22 3 23 4 21 6 20 7 99 8 97 9 98 10 100 11 18 12
REMARK SMILES IDX 17 13 19 15 16 16 1 17 2 18 3 19 4 20 14 21 15 22 5 23 6 24
REMARK SMILES IDX 7 25 12 26 8 27 11 28 13 29 9 30 10 31 26 32 27 33 28 34
REMARK SMILES IDX 29 35 30 37 31 38 32 39 96 40 33 41 95 42 34 43 35 44 36 45
REMARK SMILES IDX 89 46 37 47 94 48 88 49 90 50 38 51 93 52 87 53 86 54 39 56
REMARK SMILES IDX 73 57 52 58 72 59 53 60 56 61 71 62 91 63 54 64 55 65 70 67
REMARK SMILES IDX 92 68 57 69 40 70 41 71 50 72 42 73 43 74 49 75 51 76 44 77
REMARK SMILES IDX 45 78 46 79 47 80 48 81 74 82 75 83 84 84 76 85 77 86 83 87
REMARK SMILES IDX 85 88 78 89 79 90 80 91 81 92 82 93 58 94 59 95 68 96 60 97
REMARK SMILES IDX 61 98 67 99 69 100 62 101 63 102 64 103 65 104 66 105
REMARK H PARENT 24 5 17 14 28 36 90 55 56 66
REMARK Flexibility Score: inf
ROOT
ATOM      1  C   UNL     1       1.375   6.977   3.407  1.00  0.00     0.118 C 
ENDROOT
BRANCH   1   2
ATOM      2  N   UNL     1       1.806   5.643   2.997  1.00  0.00    -0.352 N 
ATOM      3  C   UNL     1       2.483   5.166   1.892  1.00  0.00     0.255 C 
ATOM      4  O   UNL     1       2.980   4.044   1.995  1.00  0.00    -0.269 OA
ATOM      5  H   UNL     1       1.565   4.940   3.642  1.00  0.00     0.163 HD
BRANCH   3   6
ATOM      6  C   UNL     1       2.570   5.915   0.646  1.00  0.00     0.090 A 
ATOM      7  C   UNL     1       2.724   5.366  -0.637  1.00  0.00     0.138 A 
ATOM      8  N   UNL     1       2.714   6.438  -1.499  1.00  0.00    -0.262 N 
ATOM      9  C   UNL     1       2.605   7.308   0.407  1.00  0.00     0.149 A 
ATOM     10  N   UNL     1       2.634   7.629  -0.884  1.00  0.00    -0.180 NA
ATOM     11  C   UNL     1       2.647   6.425  -2.943  1.00  0.00     0.174 C 
BRANCH   7  12
ATOM     12  C   UNL     1       2.942   4.014  -1.106  1.00  0.00     0.274 C 
ATOM     13  N   UNL     1       2.126   2.958  -0.781  1.00  0.00    -0.317 N 
ATOM     14  H   UNL     1       2.470   2.085  -1.078  1.00  0.00     0.170 HD
ATOM     15  O   UNL     1       3.898   3.763  -1.847  1.00  0.00    -0.267 OA
BRANCH  13  16
ATOM     16  C   UNL     1       0.919   2.885  -0.119  1.00  0.00     0.085 A 
ATOM     17  C   UNL     1       0.859   0.306   0.375  1.00  0.00     0.071 C 
ATOM     18  C   UNL     1       0.372   1.707   0.472  1.00  0.00     0.083 A 
ATOM     19  N   UNL     1      -0.710   1.988   1.207  1.00  0.00    -0.175 NA
ATOM     20  N   UNL     1      -0.876   3.311   1.040  1.00  0.00    -0.263 N 
ATOM     21  C   UNL     1      -0.070   3.831   0.053  1.00  0.00     0.060 A 
ATOM     22  C   UNL     1      -0.374   5.117  -0.611  1.00  0.00     0.069 C 
BRANCH  20  23
ATOM     23  C   UNL     1      -1.638   4.061   2.033  1.00  0.00     0.181 C 
BRANCH  23  24
ATOM     24  C   UNL     1      -3.088   4.234   1.675  1.00  0.00    -0.008 A 
ATOM     25  C   UNL     1      -3.942   3.127   1.836  1.00  0.00     0.009 A 
ATOM     26  C   UNL     1      -3.641   5.438   1.206  1.00  0.00     0.047 A 
ATOM     27  C   UNL     1      -5.297   3.215   1.515  1.00  0.00     0.021 A 
ATOM     28  C   UNL     1      -4.990   5.517   0.859  1.00  0.00     0.041 A 
ATOM     29  Cl  UNL     1      -2.735   6.902   1.062  1.00  0.00    -0.084 Cl
ATOM     30  C   UNL     1      -5.811   4.406   1.014  1.00  0.00     0.042 A 
ATOM     31  Cl  UNL     1      -7.472   4.519   0.586  1.00  0.00    -0.084 Cl
ENDBRANCH  23  24
ENDBRANCH  20  23
ENDBRANCH  13  16
ENDBRANCH   7  12
ENDBRANCH   3   6
ENDBRANCH   1   2
BRANCH   1  32
ATOM     32  C   UNL     1      -0.080   7.120   3.856  1.00  0.00     0.042 C 
BRANCH  32  33
ATOM     33  C   UNL     1      -0.455   6.285   5.063  1.00  0.00     0.118 C 
BRANCH  33  34
ATOM     34  N   UNL     1       0.061   6.830   6.317  1.00  0.00    -0.352 N 
ATOM     35  C   UNL     1      -0.288   6.460   7.601  1.00  0.00     0.251 C 
ATOM     36  H   UNL     1       0.735   7.543   6.238  1.00  0.00     0.163 HD
ATOM     37  O   UNL     1      -0.069   7.222   8.545  1.00  0.00    -0.269 OA
BRANCH  35  38
ATOM     38  C   UNL     1      -0.925   5.150   7.827  1.00  0.00     0.039 A 
ATOM     39  C   UNL     1      -1.894   4.966   8.818  1.00  0.00     0.014 A 
ATOM     40  C   UNL     1      -0.538   4.086   7.017  1.00  0.00     0.014 A 
ATOM     41  C   UNL     1      -2.502   3.719   8.938  1.00  0.00     0.010 A 
ATOM     42  C   UNL     1      -1.261   2.924   7.011  1.00  0.00     0.010 A 
ATOM     43  C   UNL     1      -2.188   2.705   8.018  1.00  0.00    -0.014 A 
BRANCH  43  44
ATOM     44  C   UNL     1      -2.905   1.436   8.018  1.00  0.00     0.031 A 
ATOM     45  C   UNL     1      -4.381   1.584   7.954  1.00  0.00     0.074 A 
ATOM     46  C   UNL     1      -2.291   0.241   7.863  1.00  0.00     0.049 A 
ATOM     47  N   UNL     1      -5.229   1.330   8.893  1.00  0.00    -0.248 NA
ATOM     48  C   UNL     1      -4.973   2.265   6.788  1.00  0.00     0.031 C 
ATOM     49  C   UNL     1      -0.869  -0.028   7.617  1.00  0.00     0.029 A 
ATOM     50  N   UNL     1      -2.837  -1.001   7.776  1.00  0.00    -0.354 N 
ATOM     51  C   UNL     1      -6.482   1.556   8.337  1.00  0.00     0.074 A 
ATOM     52  C   UNL     1      -6.257   2.338   7.149  1.00  0.00     0.031 C 
ATOM     53  C   UNL     1      -0.717  -1.290   7.160  1.00  0.00     0.029 A 
ATOM     54  C   UNL     1      -1.996  -1.970   7.234  1.00  0.00     0.049 A 
ATOM     55  H   UNL     1      -3.755  -1.200   8.071  1.00  0.00     0.167 HD
ATOM     56  C   UNL     1      -7.564   0.836   8.745  1.00  0.00     0.037 A 
ATOM     57  C   UNL     1      -2.341  -3.225   6.842  1.00  0.00     0.037 A 
ATOM     58  C   UNL     1      -7.303   0.174  10.002  1.00  0.00     0.049 A 
ATOM     59  C   UNL     1      -3.608  -3.558   7.552  1.00  0.00     0.074 A 
ATOM     60  C   UNL     1      -6.867   0.604  11.243  1.00  0.00     0.029 A 
ATOM     61  N   UNL     1      -7.076  -1.183   9.983  1.00  0.00    -0.354 N 
ATOM     62  N   UNL     1      -3.688  -3.711   8.848  1.00  0.00    -0.248 NA
ATOM     63  C   UNL     1      -4.860  -3.219   6.889  1.00  0.00     0.031 C 
ATOM     64  C   UNL     1      -5.939  -0.392  11.670  1.00  0.00     0.029 A 
ATOM     65  C   UNL     1      -5.942  -1.415  10.721  1.00  0.00     0.049 A 
ATOM     66  H   UNL     1      -7.624  -1.861   9.525  1.00  0.00     0.167 HD
ATOM     67  C   UNL     1      -4.857  -3.057   9.210  1.00  0.00     0.074 A 
ATOM     68  C   UNL     1      -5.575  -2.841   7.953  1.00  0.00     0.031 C 
ATOM     69  C   UNL     1      -5.003  -2.480  10.441  1.00  0.00     0.037 A 
BRANCH  56  70
ATOM     70  C   UNL     1      -8.688   0.415   7.830  1.00  0.00     0.058 A 
ATOM     71  C   UNL     1      -9.841  -0.176   8.384  1.00  0.00     0.135 A 
ATOM     72  C   UNL     1      -8.566   0.310   6.425  1.00  0.00     0.135 A 
ATOM     73  F   UNL     1     -10.051  -0.151   9.710  1.00  0.00    -0.206 F 
ATOM     74  C   UNL     1     -10.766  -0.878   7.611  1.00  0.00     0.059 A 
ATOM     75  C   UNL     1      -9.505  -0.334   5.630  1.00  0.00     0.059 A 
ATOM     76  F   UNL     1      -7.484   0.736   5.762  1.00  0.00    -0.206 F 
ATOM     77  C   UNL     1     -10.581  -0.960   6.234  1.00  0.00     0.060 A 
BRANCH  77  78
ATOM     78  S   UNL     1     -11.722  -1.936   5.243  1.00  0.00     0.124 S 
ATOM     79  O   UNL     1     -11.400  -3.289   5.681  1.00  0.00    -0.237 OA
ATOM     80  O   UNL     1     -13.015  -1.413   5.672  1.00  0.00    -0.237 OA
ATOM     81  O   UNL     1     -11.341  -1.606   3.873  1.00  0.00    -0.744 OA
ENDBRANCH  77  78
ENDBRANCH  56  70
BRANCH  57  82
ATOM     82  C   UNL     1      -1.843  -3.987   5.659  1.00  0.00     0.058 A 
ATOM     83  C   UNL     1      -2.199  -5.334   5.450  1.00  0.00     0.135 A 
ATOM     84  C   UNL     1      -1.233  -3.341   4.563  1.00  0.00     0.135 A 
ATOM     85  F   UNL     1      -2.798  -6.032   6.427  1.00  0.00    -0.206 F 
ATOM     86  C   UNL     1      -2.017  -5.978   4.217  1.00  0.00     0.059 A 
ATOM     87  C   UNL     1      -1.030  -3.964   3.332  1.00  0.00     0.059 A 
ATOM     88  F   UNL     1      -0.894  -2.045   4.620  1.00  0.00    -0.206 F 
ATOM     89  C   UNL     1      -1.452  -5.275   3.154  1.00  0.00     0.060 A 
BRANCH  89  90
ATOM     90  S   UNL     1      -1.386  -6.027   1.509  1.00  0.00     0.124 S 
ATOM     91  O   UNL     1      -0.382  -7.069   1.691  1.00  0.00    -0.237 OA
ATOM     92  O   UNL     1      -2.758  -6.488   1.325  1.00  0.00    -0.237 OA
ATOM     93  O   UNL     1      -0.984  -4.919   0.645  1.00  0.00    -0.744 OA
ENDBRANCH  89  90
ENDBRANCH  57  82
BRANCH  69  94
ATOM     94  C   UNL     1      -3.999  -2.798  11.524  1.00  0.00     0.058 A 
ATOM     95  C   UNL     1      -2.620  -2.527  11.452  1.00  0.00     0.135 A 
ATOM     96  C   UNL     1      -4.492  -3.251  12.758  1.00  0.00     0.135 A 
ATOM     97  F   UNL     1      -2.078  -1.985  10.353  1.00  0.00    -0.206 F 
ATOM     98  C   UNL     1      -1.767  -2.746  12.537  1.00  0.00     0.059 A 
ATOM     99  C   UNL     1      -3.667  -3.442  13.863  1.00  0.00     0.059 A 
ATOM    100  F   UNL     1      -5.808  -3.468  12.918  1.00  0.00    -0.206 F 
ATOM    101  C   UNL     1      -2.301  -3.205  13.741  1.00  0.00     0.060 A 
BRANCH 101 102
ATOM    102  S   UNL     1      -1.210  -3.437  15.161  1.00  0.00     0.124 S 
ATOM    103  O   UNL     1      -0.428  -4.601  14.759  1.00  0.00    -0.237 OA
ATOM    104  O   UNL     1      -0.484  -2.172  15.215  1.00  0.00    -0.237 OA
ATOM    105  O   UNL     1      -2.136  -3.661  16.270  1.00  0.00    -0.744 OA
ENDBRANCH 101 102
ENDBRANCH  69  94
ENDBRANCH  43  44
ENDBRANCH  35  38
ENDBRANCH  33  34
ENDBRANCH  32  33
ENDBRANCH   1  32
TORSDOF 17
