REMARK SMILES Cc1ccccc1[C@@H]1[NH2+][C@@H](C(=O)NCCCNC(=O)c2ccc(-c3c4nc(c(-c5c(F)cc(S(=O)(=O)[O-])cc5F)c5ccc([nH]5)c(-c5c(F)cc(S(=O)(=O)[O-])cc5F)c5nc(c(-c6c(F)cc(S(=O)(=O)[O-])cc6F)c6ccc3[nH]6)C=C5)C=C4)cc2)CC2=c3ccccc3=N[C@@H]21
REMARK SMILES IDX 16 1 15 2 14 3 13 4 11 5 12 6 10 8 8 9 9 10 95 11 87 14
REMARK SMILES IDX 94 15 86 16 88 17 93 18 89 19 92 20 90 21 91 22 7 23 1 24
REMARK SMILES IDX 2 25 3 26 4 27 6 28 5 29 17 30 18 31 19 33 20 34 21 35 85 36
REMARK SMILES IDX 22 37 84 38 23 39 24 40 25 41 78 42 26 43 83 44 77 45 79 46
REMARK SMILES IDX 27 47 82 48 76 49 75 50 28 52 62 53 41 54 61 55 42 56 45 57
REMARK SMILES IDX 60 58 80 59 43 60 44 61 59 63 81 64 46 65 29 66 30 67 39 68
REMARK SMILES IDX 31 69 32 70 38 71 40 72 33 73 34 74 35 75 36 76 37 77 63 78
REMARK SMILES IDX 64 79 73 80 65 81 66 82 72 83 74 84 67 85 68 86 69 87 70 88
REMARK SMILES IDX 71 89 47 90 48 91 57 92 49 93 50 94 56 95 58 96 51 97 52 98
REMARK SMILES IDX 53 99 54 100 55 101
REMARK H PARENT 13 7 9 12 9 13 17 32 79 51 45 62
REMARK Flexibility Score: inf
ROOT
ATOM      1  C   UNL     1       3.323   3.773  -2.140  1.00  0.00     0.118 C 
ENDROOT
BRANCH   1   2
ATOM      2  C   UNL     1       3.563   5.011  -1.246  1.00  0.00     0.042 C 
BRANCH   2   3
ATOM      3  C   UNL     1       2.682   6.297  -1.304  1.00  0.00     0.118 C 
BRANCH   3   4
ATOM      4  N   UNL     1       1.283   6.476  -0.816  1.00  0.00    -0.351 N 
ATOM      5  C   UNL     1       0.729   6.373   0.486  1.00  0.00     0.278 C 
ATOM      6  O   UNL     1      -0.240   7.037   0.839  1.00  0.00    -0.268 OA
ATOM      7  H   UNL     1       0.632   6.704  -1.519  1.00  0.00     0.163 HD
BRANCH   5   8
ATOM      8  C   UNL     1       1.347   5.234   1.291  1.00  0.00     0.277 C 
ATOM      9  C   UNL     1       0.513   2.863   0.880  1.00  0.00     0.243 C 
ATOM     10  N   UNL     1       1.047   4.128   0.411  1.00  0.00    -0.327 N 
ATOM     11  C   UNL     1       1.709   2.323   1.807  1.00  0.00     0.196 C 
ATOM     12  H   UNL     1       0.371   4.484  -0.266  1.00  0.00     0.347 HD
ATOM     13  H   UNL     1       1.980   3.853   0.105  1.00  0.00     0.347 HD
ATOM     14  C   UNL     1       2.222   3.529   2.676  1.00  0.00    -0.024 C 
ATOM     15  N   UNL     1       2.938   1.927   1.042  1.00  0.00    -0.270 NA
ATOM     16  C   UNL     1       1.277   4.756   2.746  1.00  0.00     0.109 C 
ATOM     17  C   UNL     1       3.551   3.702   2.529  1.00  0.00     0.002 A 
ATOM     18  C   UNL     1       3.890   2.699   1.488  1.00  0.00     0.066 A 
ATOM     19  C   UNL     1       4.364   4.896   2.668  1.00  0.00     0.010 A 
ATOM     20  C   UNL     1       5.264   2.807   0.914  1.00  0.00     0.028 A 
ATOM     21  C   UNL     1       5.500   5.015   1.960  1.00  0.00     0.001 A 
ATOM     22  C   UNL     1       5.982   3.925   1.132  1.00  0.00     0.002 A 
BRANCH   9  23
ATOM     23  C   UNL     1      -0.175   2.300  -0.408  1.00  0.00     0.015 A 
ATOM     24  C   UNL     1      -1.656   0.590   0.785  1.00  0.00     0.045 C 
ATOM     25  C   UNL     1      -1.188   1.325  -0.433  1.00  0.00    -0.042 A 
ATOM     26  C   UNL     1      -1.981   1.147  -1.606  1.00  0.00     0.004 A 
ATOM     27  C   UNL     1      -1.849   1.954  -2.733  1.00  0.00     0.000 A 
ATOM     28  C   UNL     1      -0.074   3.072  -1.612  1.00  0.00     0.010 A 
ATOM     29  C   UNL     1      -0.903   2.946  -2.716  1.00  0.00     0.001 A 
ENDBRANCH   9  23
ENDBRANCH   5   8
ENDBRANCH   3   4
ENDBRANCH   2   3
ENDBRANCH   1   2
BRANCH   1  30
ATOM     30  N   UNL     1       4.532   3.338  -2.854  1.00  0.00    -0.352 N 
ATOM     31  C   UNL     1       5.009   2.022  -2.899  1.00  0.00     0.251 C 
ATOM     32  H   UNL     1       5.045   4.024  -3.338  1.00  0.00     0.163 HD
ATOM     33  O   UNL     1       6.047   1.662  -2.406  1.00  0.00    -0.269 OA
BRANCH  31  34
ATOM     34  C   UNL     1       4.128   1.084  -3.635  1.00  0.00     0.039 A 
ATOM     35  C   UNL     1       4.280   1.008  -5.029  1.00  0.00     0.014 A 
ATOM     36  C   UNL     1       2.931   0.775  -3.011  1.00  0.00     0.014 A 
ATOM     37  C   UNL     1       3.154   0.972  -5.825  1.00  0.00     0.010 A 
ATOM     38  C   UNL     1       1.810   0.778  -3.794  1.00  0.00     0.010 A 
ATOM     39  C   UNL     1       1.934   0.995  -5.172  1.00  0.00    -0.014 A 
BRANCH  39  40
ATOM     40  C   UNL     1       0.693   1.267  -5.851  1.00  0.00     0.031 A 
ATOM     41  C   UNL     1      -0.070   0.108  -6.293  1.00  0.00     0.074 A 
ATOM     42  C   UNL     1       0.274   2.546  -5.867  1.00  0.00     0.049 A 
ATOM     43  N   UNL     1      -1.012   0.144  -7.157  1.00  0.00    -0.248 NA
ATOM     44  C   UNL     1       0.244  -1.240  -5.829  1.00  0.00     0.031 C 
ATOM     45  C   UNL     1      -1.047   3.101  -6.137  1.00  0.00     0.029 A 
ATOM     46  N   UNL     1       1.100   3.672  -5.766  1.00  0.00    -0.354 N 
ATOM     47  C   UNL     1      -1.659  -1.069  -7.078  1.00  0.00     0.074 A 
ATOM     48  C   UNL     1      -0.742  -1.940  -6.389  1.00  0.00     0.031 C 
ATOM     49  C   UNL     1      -0.912   4.411  -6.429  1.00  0.00     0.029 A 
ATOM     50  C   UNL     1       0.515   4.658  -6.577  1.00  0.00     0.049 A 
ATOM     51  H   UNL     1       1.923   3.755  -5.233  1.00  0.00     0.167 HD
ATOM     52  C   UNL     1      -2.976  -1.108  -7.424  1.00  0.00     0.037 A 
ATOM     53  C   UNL     1       1.128   4.932  -7.772  1.00  0.00     0.037 A 
ATOM     54  C   UNL     1      -3.386   0.210  -7.932  1.00  0.00     0.049 A 
ATOM     55  C   UNL     1       0.297   4.499  -8.978  1.00  0.00     0.074 A 
ATOM     56  C   UNL     1      -4.052   1.299  -7.391  1.00  0.00     0.029 A 
ATOM     57  N   UNL     1      -2.739   0.697  -9.053  1.00  0.00    -0.354 N 
ATOM     58  N   UNL     1      -0.729   3.688  -8.922  1.00  0.00    -0.248 NA
ATOM     59  C   UNL     1       0.570   4.933 -10.344  1.00  0.00     0.031 C 
ATOM     60  C   UNL     1      -3.784   2.441  -8.214  1.00  0.00     0.029 A 
ATOM     61  C   UNL     1      -2.960   2.043  -9.252  1.00  0.00     0.049 A 
ATOM     62  H   UNL     1      -2.182   0.143  -9.646  1.00  0.00     0.167 HD
ATOM     63  C   UNL     1      -1.244   3.480 -10.174  1.00  0.00     0.074 A 
ATOM     64  C   UNL     1      -0.369   4.261 -11.035  1.00  0.00     0.031 C 
ATOM     65  C   UNL     1      -2.329   2.673 -10.407  1.00  0.00     0.037 A 
BRANCH  52  66
ATOM     66  C   UNL     1      -3.935  -2.217  -7.045  1.00  0.00     0.058 A 
ATOM     67  C   UNL     1      -5.322  -1.960  -6.997  1.00  0.00     0.135 A 
ATOM     68  C   UNL     1      -3.578  -3.536  -6.686  1.00  0.00     0.135 A 
ATOM     69  F   UNL     1      -5.829  -0.780  -7.378  1.00  0.00    -0.206 F 
ATOM     70  C   UNL     1      -6.258  -2.899  -6.561  1.00  0.00     0.059 A 
ATOM     71  C   UNL     1      -4.489  -4.478  -6.200  1.00  0.00     0.059 A 
ATOM     72  F   UNL     1      -2.338  -4.006  -6.851  1.00  0.00    -0.206 F 
ATOM     73  C   UNL     1      -5.832  -4.151  -6.142  1.00  0.00     0.060 A 
BRANCH  73  74
ATOM     74  S   UNL     1      -7.056  -5.346  -5.581  1.00  0.00     0.124 S 
ATOM     75  O   UNL     1      -7.697  -4.632  -4.481  1.00  0.00    -0.237 OA
ATOM     76  O   UNL     1      -7.868  -5.531  -6.779  1.00  0.00    -0.237 OA
ATOM     77  O   UNL     1      -6.252  -6.499  -5.186  1.00  0.00    -0.744 OA
ENDBRANCH  73  74
ENDBRANCH  52  66
BRANCH  53  78
ATOM     78  C   UNL     1       2.629   4.881  -7.665  1.00  0.00     0.058 A 
ATOM     79  C   UNL     1       3.264   5.685  -6.688  1.00  0.00     0.135 A 
ATOM     80  C   UNL     1       3.402   3.853  -8.224  1.00  0.00     0.135 A 
ATOM     81  F   UNL     1       2.587   6.682  -6.091  1.00  0.00    -0.206 F 
ATOM     82  C   UNL     1       4.552   5.426  -6.224  1.00  0.00     0.059 A 
ATOM     83  C   UNL     1       4.709   3.585  -7.783  1.00  0.00     0.059 A 
ATOM     84  F   UNL     1       2.873   3.040  -9.149  1.00  0.00    -0.206 F 
ATOM     85  C   UNL     1       5.267   4.363  -6.766  1.00  0.00     0.060 A 
BRANCH  85  86
ATOM     86  S   UNL     1       6.907   3.972  -6.096  1.00  0.00     0.124 S 
ATOM     87  O   UNL     1       6.931   4.734  -4.847  1.00  0.00    -0.237 OA
ATOM     88  O   UNL     1       6.867   2.527  -5.934  1.00  0.00    -0.237 OA
ATOM     89  O   UNL     1       7.782   4.457  -7.156  1.00  0.00    -0.744 OA
ENDBRANCH  85  86
ENDBRANCH  53  78
BRANCH  65  90
ATOM     90  C   UNL     1      -2.864   2.338 -11.784  1.00  0.00     0.058 A 
ATOM     91  C   UNL     1      -2.948   3.271 -12.826  1.00  0.00     0.135 A 
ATOM     92  C   UNL     1      -3.382   1.051 -12.084  1.00  0.00     0.135 A 
ATOM     93  F   UNL     1      -2.635   4.561 -12.625  1.00  0.00    -0.206 F 
ATOM     94  C   UNL     1      -3.383   2.919 -14.107  1.00  0.00     0.059 A 
ATOM     95  C   UNL     1      -3.877   0.696 -13.330  1.00  0.00     0.059 A 
ATOM     96  F   UNL     1      -3.409   0.055 -11.192  1.00  0.00    -0.206 F 
ATOM     97  C   UNL     1      -3.829   1.622 -14.352  1.00  0.00     0.060 A 
BRANCH  97  98
ATOM     98  S   UNL     1      -4.358   1.148 -16.003  1.00  0.00     0.124 S 
ATOM     99  O   UNL     1      -5.189   2.281 -16.399  1.00  0.00    -0.237 OA
ATOM    100  O   UNL     1      -3.078   1.027 -16.693  1.00  0.00    -0.237 OA
ATOM    101  O   UNL     1      -5.076  -0.104 -15.788  1.00  0.00    -0.744 OA
ENDBRANCH  97  98
ENDBRANCH  65  90
ENDBRANCH  39  40
ENDBRANCH  31  34
ENDBRANCH   1  30
TORSDOF 14
