REMARK SMILES CC(C)[N@@H+](C)Cc1cc2c(cc1Cl)C=C(C(=O)NCCCNC(=O)c1ccc(-c3c4nc(c(-c5c(F)cc(S(=O)(=O)[O-])cc5F)c5ccc([nH]5)c(-c5c(F)cc(S(=O)(=O)[O-])cc5F)c5nc(c(-c6c(F)cc(S(=O)(=O)[O-])cc6F)c6ccc3[nH]6)C=C5)C=C4)cc1)[C@@H](C(F)(F)F)O2
REMARK SMILES IDX 20 1 19 2 18 3 16 4 17 5 15 7 7 8 8 9 12 10 9 11 11 12 13 13
REMARK SMILES IDX 10 14 96 15 14 16 91 17 6 18 4 19 5 20 2 22 1 23 3 24 92 25
REMARK SMILES IDX 93 26 94 27 95 28 21 29 22 30 23 31 24 33 25 34 26 35 90 36
REMARK SMILES IDX 27 37 89 38 28 39 29 40 30 41 83 42 31 43 88 44 82 45 84 46
REMARK SMILES IDX 32 47 87 48 81 49 80 50 33 52 67 53 46 54 66 55 47 56 50 57
REMARK SMILES IDX 65 58 85 59 48 60 49 61 64 63 86 64 51 65 34 66 35 67 44 68
REMARK SMILES IDX 36 69 37 70 43 71 45 72 38 73 39 74 40 75 41 76 42 77 68 78
REMARK SMILES IDX 69 79 78 80 70 81 71 82 77 83 79 84 72 85 73 86 74 87 75 88
REMARK SMILES IDX 76 89 52 90 53 91 62 92 54 93 55 94 61 95 63 96 56 97 57 98
REMARK SMILES IDX 58 99 59 100 60 101
REMARK H PARENT 18 6 4 21 22 32 84 51 50 62
REMARK Flexibility Score: inf
ROOT
ATOM      1  C   UNL     1       3.401  -7.200   6.318  1.00  0.00     0.042 C 
ENDROOT
BRANCH   1   2
ATOM      2  C   UNL     1       3.658  -7.352   4.827  1.00  0.00     0.118 C 
BRANCH   2   3
ATOM      3  N   UNL     1       2.620  -8.132   4.169  1.00  0.00    -0.352 N 
ATOM      4  C   UNL     1       1.507  -7.887   3.441  1.00  0.00     0.251 C 
ATOM      5  O   UNL     1       0.885  -8.891   3.078  1.00  0.00    -0.270 OA
ATOM      6  H   UNL     1       2.768  -9.099   4.286  1.00  0.00     0.163 HD
BRANCH   4   7
ATOM      7  C   UNL     1       1.017  -6.535   3.049  1.00  0.00     0.067 C 
ATOM      8  C   UNL     1      -1.442  -2.723   0.861  1.00  0.00     0.029 A 
ATOM      9  C   UNL     1      -0.451  -2.819   1.853  1.00  0.00     0.058 A 
ATOM     10  C   UNL     1      -2.121  -3.901   0.503  1.00  0.00     0.050 A 
ATOM     11  C   UNL     1      -0.046  -4.056   2.342  1.00  0.00     0.128 A 
ATOM     12  C   UNL     1      -1.728  -5.144   1.022  1.00  0.00     0.033 A 
ATOM     13  Cl  UNL     1      -3.492  -3.899  -0.551  1.00  0.00    -0.084 Cl
ATOM     14  C   UNL     1      -0.661  -5.228   1.916  1.00  0.00     0.019 A 
ATOM     15  O   UNL     1       0.976  -4.054   3.247  1.00  0.00    -0.475 OA
ATOM     16  C   UNL     1      -0.172  -6.506   2.415  1.00  0.00     0.025 C 
ATOM     17  C   UNL     1       1.788  -5.261   3.265  1.00  0.00     0.314 C 
BRANCH   8  18
ATOM     18  C   UNL     1      -1.700  -1.366   0.241  1.00  0.00     0.300 C 
BRANCH  18  19
ATOM     19  N   UNL     1      -0.990  -1.039  -1.006  1.00  0.00    -0.332 N 
ATOM     20  C   UNL     1      -1.486  -1.748  -2.177  1.00  0.00     0.333 C 
ATOM     21  H   UNL     1      -1.272  -0.061  -1.072  1.00  0.00     0.348 HD
BRANCH  19  22
ATOM     22  C   UNL     1       0.471  -0.864  -1.010  1.00  0.00     0.177 C 
ATOM     23  C   UNL     1       0.950   0.178   0.007  1.00  0.00     0.075 C 
ATOM     24  C   UNL     1       1.321  -2.137  -0.916  1.00  0.00     0.075 C 
ENDBRANCH  19  22
ENDBRANCH  18  19
ENDBRANCH   8  18
BRANCH  17  25
ATOM     25  C   UNL     1       2.963  -5.097   2.279  1.00  0.00     0.429 C 
ATOM     26  F   UNL     1       3.824  -4.146   2.719  1.00  0.00    -0.167 F 
ATOM     27  F   UNL     1       3.687  -6.233   2.135  1.00  0.00    -0.167 F 
ATOM     28  F   UNL     1       2.561  -4.735   1.040  1.00  0.00    -0.167 F 
ENDBRANCH  17  25
ENDBRANCH   4   7
ENDBRANCH   2   3
ENDBRANCH   1   2
BRANCH   1  29
ATOM     29  C   UNL     1       3.706  -8.475   7.096  1.00  0.00     0.118 C 
BRANCH  29  30
ATOM     30  N   UNL     1       5.130  -8.807   7.077  1.00  0.00    -0.352 N 
ATOM     31  C   UNL     1       6.065  -8.780   8.084  1.00  0.00     0.251 C 
ATOM     32  H   UNL     1       5.474  -9.098   6.202  1.00  0.00     0.163 HD
ATOM     33  O   UNL     1       7.258  -8.876   7.806  1.00  0.00    -0.269 OA
BRANCH  31  34
ATOM     34  C   UNL     1       5.638  -8.619   9.489  1.00  0.00     0.039 A 
ATOM     35  C   UNL     1       4.511  -9.290   9.960  1.00  0.00     0.014 A 
ATOM     36  C   UNL     1       6.369  -7.790  10.346  1.00  0.00     0.014 A 
ATOM     37  C   UNL     1       3.999  -8.976  11.211  1.00  0.00     0.010 A 
ATOM     38  C   UNL     1       5.912  -7.562  11.648  1.00  0.00     0.010 A 
ATOM     39  C   UNL     1       4.692  -8.111  12.073  1.00  0.00    -0.014 A 
BRANCH  39  40
ATOM     40  C   UNL     1       4.102  -7.804  13.403  1.00  0.00     0.031 A 
ATOM     41  C   UNL     1       3.680  -6.402  13.755  1.00  0.00     0.074 A 
ATOM     42  C   UNL     1       3.860  -8.819  14.256  1.00  0.00     0.049 A 
ATOM     43  N   UNL     1       3.091  -5.970  14.841  1.00  0.00    -0.248 NA
ATOM     44  C   UNL     1       3.955  -5.346  12.767  1.00  0.00     0.031 C 
ATOM     45  C   UNL     1       4.218 -10.221  14.018  1.00  0.00     0.029 A 
ATOM     46  N   UNL     1       3.217  -8.845  15.467  1.00  0.00    -0.354 N 
ATOM     47  C   UNL     1       2.947  -4.597  14.679  1.00  0.00     0.074 A 
ATOM     48  C   UNL     1       3.533  -4.260  13.400  1.00  0.00     0.031 C 
ATOM     49  C   UNL     1       3.717 -10.977  15.004  1.00  0.00     0.029 A 
ATOM     50  C   UNL     1       3.067 -10.111  15.981  1.00  0.00     0.049 A 
ATOM     51  H   UNL     1       2.895  -8.035  15.924  1.00  0.00     0.167 HD
ATOM     52  C   UNL     1       2.366  -3.702  15.514  1.00  0.00     0.037 A 
ATOM     53  C   UNL     1       2.476 -10.533  17.116  1.00  0.00     0.037 A 
ATOM     54  C   UNL     1       1.755  -4.050  16.770  1.00  0.00     0.049 A 
ATOM     55  C   UNL     1       1.861  -9.519  18.035  1.00  0.00     0.074 A 
ATOM     56  C   UNL     1       1.128  -3.219  17.682  1.00  0.00     0.029 A 
ATOM     57  N   UNL     1       1.687  -5.335  17.289  1.00  0.00    -0.354 N 
ATOM     58  N   UNL     1       1.748  -8.223  17.868  1.00  0.00    -0.248 NA
ATOM     59  C   UNL     1       1.313 -10.017  19.302  1.00  0.00     0.031 C 
ATOM     60  C   UNL     1       0.711  -3.996  18.767  1.00  0.00     0.029 A 
ATOM     61  C   UNL     1       1.044  -5.317  18.516  1.00  0.00     0.049 A 
ATOM     62  H   UNL     1       2.043  -6.141  16.850  1.00  0.00     0.167 HD
ATOM     63  C   UNL     1       1.118  -7.749  19.011  1.00  0.00     0.074 A 
ATOM     64  C   UNL     1       0.852  -8.900  19.851  1.00  0.00     0.031 C 
ATOM     65  C   UNL     1       0.797  -6.474  19.339  1.00  0.00     0.037 A 
BRANCH  52  66
ATOM     66  C   UNL     1       2.371  -2.256  15.104  1.00  0.00     0.058 A 
ATOM     67  C   UNL     1       1.530  -1.774  14.088  1.00  0.00     0.135 A 
ATOM     68  C   UNL     1       3.195  -1.330  15.765  1.00  0.00     0.135 A 
ATOM     69  F   UNL     1       0.735  -2.619  13.412  1.00  0.00    -0.206 F 
ATOM     70  C   UNL     1       1.520  -0.430  13.729  1.00  0.00     0.059 A 
ATOM     71  C   UNL     1       3.185   0.023  15.437  1.00  0.00     0.059 A 
ATOM     72  F   UNL     1       4.019  -1.737  16.743  1.00  0.00    -0.206 F 
ATOM     73  C   UNL     1       2.352   0.461  14.409  1.00  0.00     0.060 A 
BRANCH  73  74
ATOM     74  S   UNL     1       2.325   2.202  13.929  1.00  0.00     0.124 S 
ATOM     75  O   UNL     1       3.012   2.159  12.642  1.00  0.00    -0.237 OA
ATOM     76  O   UNL     1       0.895   2.488  13.874  1.00  0.00    -0.237 OA
ATOM     77  O   UNL     1       3.054   2.864  15.007  1.00  0.00    -0.744 OA
ENDBRANCH  73  74
ENDBRANCH  52  66
BRANCH  53  78
ATOM     78  C   UNL     1       2.447 -11.984  17.432  1.00  0.00     0.058 A 
ATOM     79  C   UNL     1       1.252 -12.714  17.360  1.00  0.00     0.135 A 
ATOM     80  C   UNL     1       3.623 -12.681  17.753  1.00  0.00     0.135 A 
ATOM     81  F   UNL     1       0.102 -12.090  17.063  1.00  0.00    -0.206 F 
ATOM     82  C   UNL     1       1.223 -14.085  17.590  1.00  0.00     0.059 A 
ATOM     83  C   UNL     1       3.623 -14.056  17.963  1.00  0.00     0.059 A 
ATOM     84  F   UNL     1       4.794 -12.029  17.819  1.00  0.00    -0.206 F 
ATOM     85  C   UNL     1       2.417 -14.749  17.883  1.00  0.00     0.060 A 
BRANCH  85  86
ATOM     86  S   UNL     1       2.383 -16.542  18.098  1.00  0.00     0.124 S 
ATOM     87  O   UNL     1       1.764 -16.668  19.412  1.00  0.00    -0.237 OA
ATOM     88  O   UNL     1       1.569 -16.971  16.964  1.00  0.00    -0.237 OA
ATOM     89  O   UNL     1       3.792 -16.915  18.023  1.00  0.00    -0.744 OA
ENDBRANCH  85  86
ENDBRANCH  53  78
BRANCH  65  90
ATOM     90  C   UNL     1       0.126  -6.252  20.663  1.00  0.00     0.058 A 
ATOM     91  C   UNL     1       0.854  -6.290  21.862  1.00  0.00     0.135 A 
ATOM     92  C   UNL     1      -1.238  -5.927  20.729  1.00  0.00     0.135 A 
ATOM     93  F   UNL     1       2.159  -6.604  21.850  1.00  0.00    -0.206 F 
ATOM     94  C   UNL     1       0.250  -6.019  23.084  1.00  0.00     0.059 A 
ATOM     95  C   UNL     1      -1.858  -5.633  21.939  1.00  0.00     0.059 A 
ATOM     96  F   UNL     1      -1.974  -5.872  19.608  1.00  0.00    -0.206 F 
ATOM     97  C   UNL     1      -1.106  -5.686  23.112  1.00  0.00     0.060 A 
BRANCH  97  98
ATOM     98  S   UNL     1      -1.863  -5.284  24.701  1.00  0.00     0.124 S 
ATOM     99  O   UNL     1      -1.954  -6.600  25.324  1.00  0.00    -0.237 OA
ATOM    100  O   UNL     1      -0.888  -4.370  25.288  1.00  0.00    -0.237 OA
ATOM    101  O   UNL     1      -3.136  -4.677  24.326  1.00  0.00    -0.744 OA
ENDBRANCH  97  98
ENDBRANCH  65  90
ENDBRANCH  39  40
ENDBRANCH  31  34
ENDBRANCH  29  30
ENDBRANCH   1  29
TORSDOF 17
