REMARK SMILES CC1(C)[C@H](C(=O)Nc2ccc(NC(=O)C[NH+]3CCCCC3)cc2)[C@@H]1C(=O)NCCCNC(=O)c1ccc(-c2c3nc(c(-c4c(F)cc(S(=O)(=O)[O-])cc4F)c4ccc([nH]4)c(-c4c(F)cc(S(=O)(=O)[O-])cc4F)c4nc(c(-c5c(F)cc(S(=O)(=O)[O-])cc5F)c5ccc2[nH]5)C=C4)C=C3)cc1
REMARK SMILES IDX 28 1 27 2 25 3 26 4 24 6 1 7 2 8 3 9 4 10 5 11 6 12 7 13
REMARK SMILES IDX 8 15 9 16 23 17 10 18 22 19 11 20 12 21 13 22 14 24 15 25
REMARK SMILES IDX 16 26 17 27 21 28 18 30 20 31 19 32 29 33 30 34 31 35 32 36
REMARK SMILES IDX 33 38 34 39 35 40 99 41 36 42 98 43 37 44 38 45 39 46 92 47
REMARK SMILES IDX 40 48 97 49 91 50 93 51 41 52 96 53 90 54 89 55 42 57 76 58
REMARK SMILES IDX 55 59 75 60 56 61 59 62 74 63 94 64 57 65 58 66 73 68 95 69
REMARK SMILES IDX 60 70 43 71 44 72 53 73 45 74 46 75 52 76 54 77 47 78 48 79
REMARK SMILES IDX 49 80 50 81 51 82 77 83 78 84 87 85 79 86 80 87 86 88 88 89
REMARK SMILES IDX 81 90 82 91 83 92 84 93 85 94 61 95 62 96 71 97 63 98 64 99
REMARK SMILES IDX 70 100 72 101 65 102 66 103 67 104 68 105 69 106
REMARK H PARENT 27 5 7 14 12 23 16 29 31 37 93 56 59 67
REMARK Flexibility Score: inf
ROOT
ATOM      1  C   UNL     1      -3.731   0.891   0.001  1.00  0.00     0.117 C 
ENDROOT
BRANCH   1   2
ATOM      2  N   UNL     1      -2.827   1.137   1.109  1.00  0.00    -0.356 N 
ATOM      3  C   UNL     1      -1.556   0.660   1.291  1.00  0.00     0.224 C 
ATOM      4  O   UNL     1      -0.914   0.990   2.276  1.00  0.00    -0.275 OA
ATOM      5  H   UNL     1      -3.172   1.722   1.822  1.00  0.00     0.163 HD
BRANCH   3   6
ATOM      6  C   UNL     1      -1.064  -0.374   0.361  1.00  0.00     0.098 C 
ATOM      7  C   UNL     1       0.943  -1.943  -0.190  1.00  0.00     0.013 C 
ATOM      8  C   UNL     1       0.398  -0.533  -0.073  1.00  0.00    -0.011 C 
ATOM      9  C   UNL     1       1.452   0.427   0.388  1.00  0.00     0.013 C 
ATOM     10  C   UNL     1      -0.681  -0.173  -1.079  1.00  0.00     0.098 C 
BRANCH  10  11
ATOM     11  C   UNL     1      -0.818   1.012  -1.984  1.00  0.00     0.228 C 
ATOM     12  O   UNL     1      -0.897   0.767  -3.190  1.00  0.00    -0.274 OA
ATOM     13  N   UNL     1      -1.173   2.273  -1.582  1.00  0.00    -0.326 N 
ATOM     14  H   UNL     1      -1.952   2.653  -2.048  1.00  0.00     0.169 HD
BRANCH  13  15
ATOM     15  C   UNL     1      -0.604   3.101  -0.619  1.00  0.00     0.041 A 
ATOM     16  C   UNL     1      -1.459   3.822   0.201  1.00  0.00     0.028 A 
ATOM     17  C   UNL     1       0.768   3.274  -0.498  1.00  0.00     0.028 A 
ATOM     18  C   UNL     1      -0.946   4.519   1.292  1.00  0.00     0.028 A 
ATOM     19  C   UNL     1       1.282   4.031   0.562  1.00  0.00     0.028 A 
ATOM     20  C   UNL     1       0.426   4.641   1.485  1.00  0.00     0.041 A 
BRANCH  20  21
ATOM     21  N   UNL     1       1.016   5.301   2.577  1.00  0.00    -0.321 N 
ATOM     22  C   UNL     1       0.551   6.258   3.441  1.00  0.00     0.279 C 
ATOM     23  H   UNL     1       1.943   5.022   2.756  1.00  0.00     0.170 HD
ATOM     24  O   UNL     1       1.259   6.540   4.417  1.00  0.00    -0.268 OA
BRANCH  22  25
ATOM     25  C   UNL     1      -0.768   7.011   3.207  1.00  0.00     0.363 C 
BRANCH  25  26
ATOM     26  N   UNL     1      -0.844   7.498   1.820  1.00  0.00    -0.327 N 
ATOM     27  C   UNL     1      -2.213   7.738   1.363  1.00  0.00     0.262 C 
ATOM     28  C   UNL     1       0.018   8.657   1.581  1.00  0.00     0.262 C 
ATOM     29  H   UNL     1      -0.483   6.733   1.250  1.00  0.00     0.348 HD
ATOM     30  C   UNL     1      -2.199   7.946  -0.153  1.00  0.00     0.062 C 
ATOM     31  C   UNL     1       0.096   8.949   0.082  1.00  0.00     0.062 C 
ATOM     32  C   UNL     1      -1.289   9.107  -0.540  1.00  0.00     0.012 C 
ENDBRANCH  25  26
ENDBRANCH  22  25
ENDBRANCH  20  21
ENDBRANCH  13  15
ENDBRANCH  10  11
ENDBRANCH   3   6
ENDBRANCH   1   2
BRANCH   1  33
ATOM     33  C   UNL     1      -5.187   0.818   0.426  1.00  0.00     0.042 C 
BRANCH  33  34
ATOM     34  C   UNL     1      -5.722   2.076   1.100  1.00  0.00     0.118 C 
BRANCH  34  35
ATOM     35  N   UNL     1      -5.725   3.256   0.242  1.00  0.00    -0.352 N 
ATOM     36  C   UNL     1      -6.767   4.013  -0.241  1.00  0.00     0.251 C 
ATOM     37  H   UNL     1      -4.832   3.561  -0.037  1.00  0.00     0.163 HD
ATOM     38  O   UNL     1      -6.532   4.919  -1.036  1.00  0.00    -0.269 OA
BRANCH  36  39
ATOM     39  C   UNL     1      -8.161   3.713   0.155  1.00  0.00     0.039 A 
ATOM     40  C   UNL     1      -9.155   3.697  -0.827  1.00  0.00     0.014 A 
ATOM     41  C   UNL     1      -8.488   3.420   1.479  1.00  0.00     0.014 A 
ATOM     42  C   UNL     1     -10.449   3.285  -0.497  1.00  0.00     0.010 A 
ATOM     43  C   UNL     1      -9.744   2.908   1.784  1.00  0.00     0.010 A 
ATOM     44  C   UNL     1     -10.740   2.829   0.799  1.00  0.00    -0.014 A 
BRANCH  44  45
ATOM     45  C   UNL     1     -12.065   2.249   1.144  1.00  0.00     0.031 A 
ATOM     46  C   UNL     1     -12.906   2.864   2.230  1.00  0.00     0.074 A 
ATOM     47  C   UNL     1     -12.466   1.107   0.549  1.00  0.00     0.049 A 
ATOM     48  N   UNL     1     -14.039   2.448   2.734  1.00  0.00    -0.248 NA
ATOM     49  C   UNL     1     -12.384   4.087   2.861  1.00  0.00     0.031 C 
ATOM     50  C   UNL     1     -11.707   0.365  -0.460  1.00  0.00     0.029 A 
ATOM     51  N   UNL     1     -13.605   0.359   0.720  1.00  0.00    -0.354 N 
ATOM     52  C   UNL     1     -14.347   3.336   3.758  1.00  0.00     0.074 A 
ATOM     53  C   UNL     1     -13.255   4.280   3.839  1.00  0.00     0.031 C 
ATOM     54  C   UNL     1     -12.409  -0.716  -0.834  1.00  0.00     0.029 A 
ATOM     55  C   UNL     1     -13.650  -0.768  -0.067  1.00  0.00     0.049 A 
ATOM     56  H   UNL     1     -14.322   0.606   1.348  1.00  0.00     0.167 HD
ATOM     57  C   UNL     1     -15.450   3.376   4.544  1.00  0.00     0.037 A 
ATOM     58  C   UNL     1     -14.580  -1.738  -0.160  1.00  0.00     0.037 A 
ATOM     59  C   UNL     1     -16.553   2.459   4.430  1.00  0.00     0.049 A 
ATOM     60  C   UNL     1     -15.820  -1.648   0.684  1.00  0.00     0.074 A 
ATOM     61  C   UNL     1     -17.758   2.471   5.111  1.00  0.00     0.029 A 
ATOM     62  N   UNL     1     -16.585   1.361   3.582  1.00  0.00    -0.354 N 
ATOM     63  N   UNL     1     -16.137  -0.750   1.587  1.00  0.00    -0.248 NA
ATOM     64  C   UNL     1     -16.833  -2.694   0.492  1.00  0.00     0.031 C 
ATOM     65  C   UNL     1     -18.502   1.358   4.704  1.00  0.00     0.029 A 
ATOM     66  C   UNL     1     -17.779   0.676   3.738  1.00  0.00     0.049 A 
ATOM     67  H   UNL     1     -15.865   1.106   2.961  1.00  0.00     0.167 HD
ATOM     68  C   UNL     1     -17.392  -1.113   2.060  1.00  0.00     0.074 A 
ATOM     69  C   UNL     1     -17.783  -2.304   1.332  1.00  0.00     0.031 C 
ATOM     70  C   UNL     1     -18.152  -0.513   3.010  1.00  0.00     0.037 A 
BRANCH  57  71
ATOM     71  C   UNL     1     -15.510   4.452   5.595  1.00  0.00     0.058 A 
ATOM     72  C   UNL     1     -15.646   5.809   5.258  1.00  0.00     0.135 A 
ATOM     73  C   UNL     1     -15.424   4.123   6.958  1.00  0.00     0.135 A 
ATOM     74  F   UNL     1     -15.720   6.182   3.970  1.00  0.00    -0.206 F 
ATOM     75  C   UNL     1     -15.642   6.805   6.229  1.00  0.00     0.059 A 
ATOM     76  C   UNL     1     -15.449   5.101   7.949  1.00  0.00     0.059 A 
ATOM     77  F   UNL     1     -15.297   2.842   7.338  1.00  0.00    -0.206 F 
ATOM     78  C   UNL     1     -15.534   6.441   7.572  1.00  0.00     0.060 A 
BRANCH  78  79
ATOM     79  S   UNL     1     -15.496   7.745   8.820  1.00  0.00     0.124 S 
ATOM     80  O   UNL     1     -14.137   8.255   8.662  1.00  0.00    -0.237 OA
ATOM     81  O   UNL     1     -16.562   8.636   8.376  1.00  0.00    -0.237 OA
ATOM     82  O   UNL     1     -15.758   7.031  10.065  1.00  0.00    -0.744 OA
ENDBRANCH  78  79
ENDBRANCH  57  71
BRANCH  58  83
ATOM     83  C   UNL     1     -14.377  -2.855  -1.119  1.00  0.00     0.058 A 
ATOM     84  C   UNL     1     -15.105  -2.917  -2.316  1.00  0.00     0.135 A 
ATOM     85  C   UNL     1     -13.410  -3.846  -0.888  1.00  0.00     0.135 A 
ATOM     86  F   UNL     1     -16.045  -1.996  -2.577  1.00  0.00    -0.206 F 
ATOM     87  C   UNL     1     -14.880  -3.919  -3.254  1.00  0.00     0.059 A 
ATOM     88  C   UNL     1     -13.152  -4.846  -1.821  1.00  0.00     0.059 A 
ATOM     89  F   UNL     1     -12.675  -3.820   0.235  1.00  0.00    -0.206 F 
ATOM     90  C   UNL     1     -13.893  -4.874  -3.002  1.00  0.00     0.060 A 
BRANCH  90  91
ATOM     91  S   UNL     1     -13.543  -6.114  -4.268  1.00  0.00     0.124 S 
ATOM     92  O   UNL     1     -14.700  -6.993  -4.148  1.00  0.00    -0.237 OA
ATOM     93  O   UNL     1     -13.480  -5.303  -5.481  1.00  0.00    -0.237 OA
ATOM     94  O   UNL     1     -12.269  -6.681  -3.838  1.00  0.00    -0.744 OA
ENDBRANCH  90  91
ENDBRANCH  58  83
BRANCH  70  95
ATOM     95  C   UNL     1     -19.492  -1.125   3.310  1.00  0.00     0.058 A 
ATOM     96  C   UNL     1     -19.608  -2.325   4.028  1.00  0.00     0.135 A 
ATOM     97  C   UNL     1     -20.674  -0.478   2.917  1.00  0.00     0.135 A 
ATOM     98  F   UNL     1     -18.508  -2.987   4.422  1.00  0.00    -0.206 F 
ATOM     99  C   UNL     1     -20.851  -2.874   4.328  1.00  0.00     0.059 A 
ATOM    100  C   UNL     1     -21.927  -0.995   3.227  1.00  0.00     0.059 A 
ATOM    101  F   UNL     1     -20.618   0.678   2.236  1.00  0.00    -0.206 F 
ATOM    102  C   UNL     1     -22.005  -2.201   3.924  1.00  0.00     0.060 A 
BRANCH 102 103
ATOM    103  S   UNL     1     -23.613  -2.906   4.345  1.00  0.00     0.124 S 
ATOM    104  O   UNL     1     -23.709  -4.006   3.391  1.00  0.00    -0.237 OA
ATOM    105  O   UNL     1     -23.430  -3.291   5.741  1.00  0.00    -0.237 OA
ATOM    106  O   UNL     1     -24.538  -1.799   4.122  1.00  0.00    -0.744 OA
ENDBRANCH 102 103
ENDBRANCH  70  95
ENDBRANCH  44  45
ENDBRANCH  36  39
ENDBRANCH  34  35
ENDBRANCH  33  34
ENDBRANCH   1  33
TORSDOF 18
