REMARK SMILES CCC([NH3+])(CC)C(=O)N1CCC[N@H+](CC(=O)NCCCNC(=O)c2ccc(-c3c4nc(c(-c5c(F)cc(S(=O)(=O)[O-])cc5F)c5ccc([nH]5)c(-c5c(F)cc(S(=O)(=O)[O-])cc5F)c5nc(c(-c6c(F)cc(S(=O)(=O)[O-])cc6F)c6ccc3[nH]6)C=C5)C=C4)cc2)CC1
REMARK SMILES IDX 15 1 16 2 17 3 14 5 13 6 90 8 91 9 9 10 7 11 8 12 3 13 2 14
REMARK SMILES IDX 1 15 4 16 5 20 6 21 10 22 11 23 12 25 18 27 19 28 20 29
REMARK SMILES IDX 21 30 22 31 23 33 24 34 25 35 89 36 26 37 88 38 27 39 28 40
REMARK SMILES IDX 29 41 82 42 30 43 87 44 81 45 83 46 31 47 86 48 80 49 79 50
REMARK SMILES IDX 32 52 66 53 45 54 65 55 46 56 49 57 64 58 84 59 47 60 48 61
REMARK SMILES IDX 63 63 85 64 50 65 33 66 34 67 43 68 35 69 36 70 42 71 44 72
REMARK SMILES IDX 37 73 38 74 39 75 40 76 41 77 67 78 68 79 77 80 69 81 70 82
REMARK SMILES IDX 76 83 78 84 71 85 72 86 73 87 74 88 75 89 51 90 52 91 61 92
REMARK SMILES IDX 53 93 54 94 60 95 62 96 55 97 56 98 57 99 58 100 59 101
REMARK H PARENT 17 4 13 7 4 17 4 18 4 19 21 32 83 51 49 62
REMARK Flexibility Score: 90.00
ROOT
ATOM      1  C   UNL     1       3.950   1.878  -5.464  1.00  0.00     0.275 C 
ATOM      2  O   UNL     1       3.014   2.473  -6.008  1.00  0.00    -0.269 OA
ATOM      3  N   UNL     1       3.683   0.646  -4.933  1.00  0.00    -0.351 N 
ATOM      4  H   UNL     1       2.732   0.475  -4.740  1.00  0.00     0.163 HD
ENDROOT
BRANCH   1   5
ATOM      5  C   UNL     1       5.345   2.497  -5.385  1.00  0.00     0.363 C 
BRANCH   5   6
ATOM      6  N   UNL     1       5.503   3.529  -4.358  1.00  0.00    -0.326 N 
ATOM      7  H   UNL     1       6.497   3.649  -4.553  1.00  0.00     0.348 HD
BRANCH   6   8
ATOM      8  C   UNL     1       5.596   3.155  -2.963  1.00  0.00     0.284 C 
BRANCH   8   9
ATOM      9  C   UNL     1       4.336   2.709  -2.208  1.00  0.00     0.181 C 
BRANCH   9  10
ATOM     10  N   UNL     1       3.060   3.433  -2.267  1.00  0.00    -0.331 N 
BRANCH  10  11
ATOM     11  C   UNL     1       2.107   2.943  -1.351  1.00  0.00     0.284 C 
ATOM     12  O   UNL     1       2.514   2.311  -0.365  1.00  0.00    -0.268 OA
BRANCH  11  13
ATOM     13  C   UNL     1       0.538   2.969  -1.643  1.00  0.00     0.173 C 
BRANCH  13  14
ATOM     14  C   UNL     1      -0.248   2.424  -0.397  1.00  0.00     0.075 C 
ATOM     15  C   UNL     1      -0.133   0.940  -0.091  1.00  0.00     0.011 C 
ENDBRANCH  13  14
BRANCH  13  16
ATOM     16  N   UNL     1       0.287   2.066  -2.802  1.00  0.00    -0.345 N 
ATOM     17  H   UNL     1      -0.710   2.058  -3.018  1.00  0.00     0.345 HD
ATOM     18  H   UNL     1       0.592   1.121  -2.569  1.00  0.00     0.345 HD
ATOM     19  H   UNL     1       0.808   2.401  -3.613  1.00  0.00     0.345 HD
ENDBRANCH  13  16
BRANCH  13  20
ATOM     20  C   UNL     1      -0.102   4.338  -1.964  1.00  0.00     0.075 C 
ATOM     21  C   UNL     1       0.296   5.444  -0.993  1.00  0.00     0.011 C 
ENDBRANCH  13  20
ENDBRANCH  11  13
ENDBRANCH  10  11
BRANCH  10  22
ATOM     22  C   UNL     1       2.775   4.333  -3.379  1.00  0.00     0.126 C 
BRANCH  22  23
ATOM     23  C   UNL     1       3.854   5.346  -3.727  1.00  0.00     0.083 CG0
ATOM     24  G   UNL     1       4.983   4.852  -4.624  1.00  0.00     0.000 G0
ENDBRANCH  22  23
ENDBRANCH  10  22
ENDBRANCH   9  10
ENDBRANCH   8   9
ENDBRANCH   6   8
BRANCH   6  25
ATOM     25  C   UNL     1       4.983   4.852  -4.624  1.00  0.00     0.264 CG0
ATOM     26  G   UNL     1       3.854   5.346  -3.727  1.00  0.00     0.000 G0
ENDBRANCH   6  25
ENDBRANCH   5   6
ENDBRANCH   1   5
BRANCH   3  27
ATOM     27  C   UNL     1       4.581  -0.453  -4.607  1.00  0.00     0.118 C 
BRANCH  27  28
ATOM     28  C   UNL     1       4.678  -0.825  -3.124  1.00  0.00     0.042 C 
BRANCH  28  29
ATOM     29  C   UNL     1       3.350  -1.084  -2.400  1.00  0.00     0.118 C 
BRANCH  29  30
ATOM     30  N   UNL     1       2.985  -2.494  -2.421  1.00  0.00    -0.352 N 
ATOM     31  C   UNL     1       2.849  -3.400  -1.389  1.00  0.00     0.251 C 
ATOM     32  H   UNL     1       2.805  -2.861  -3.317  1.00  0.00     0.163 HD
ATOM     33  O   UNL     1       2.801  -4.598  -1.666  1.00  0.00    -0.269 OA
BRANCH  31  34
ATOM     34  C   UNL     1       2.744  -2.976   0.034  1.00  0.00     0.039 A 
ATOM     35  C   UNL     1       3.322  -3.756   1.040  1.00  0.00     0.014 A 
ATOM     36  C   UNL     1       1.986  -1.869   0.405  1.00  0.00     0.014 A 
ATOM     37  C   UNL     1       3.178  -3.396   2.392  1.00  0.00     0.010 A 
ATOM     38  C   UNL     1       1.899  -1.469   1.748  1.00  0.00     0.010 A 
ATOM     39  C   UNL     1       2.483  -2.231   2.766  1.00  0.00    -0.014 A 
BRANCH  39  40
ATOM     40  C   UNL     1       2.409  -1.792   4.196  1.00  0.00     0.031 A 
ATOM     41  C   UNL     1       1.093  -1.654   4.932  1.00  0.00     0.074 A 
ATOM     42  C   UNL     1       3.543  -1.447   4.841  1.00  0.00     0.049 A 
ATOM     43  N   UNL     1       0.880  -1.353   6.192  1.00  0.00    -0.248 NA
ATOM     44  C   UNL     1      -0.139  -1.845   4.154  1.00  0.00     0.031 C 
ATOM     45  C   UNL     1       4.876  -1.403   4.237  1.00  0.00     0.029 A 
ATOM     46  N   UNL     1       3.759  -1.061   6.143  1.00  0.00    -0.354 N 
ATOM     47  C   UNL     1      -0.502  -1.311   6.354  1.00  0.00     0.074 A 
ATOM     48  C   UNL     1      -1.077  -1.564   5.050  1.00  0.00     0.031 C 
ATOM     49  C   UNL     1       5.773  -1.051   5.172  1.00  0.00     0.029 A 
ATOM     50  C   UNL     1       5.082  -0.830   6.440  1.00  0.00     0.049 A 
ATOM     51  H   UNL     1       3.034  -0.960   6.802  1.00  0.00     0.167 HD
ATOM     52  C   UNL     1      -1.228  -1.111   7.483  1.00  0.00     0.037 A 
ATOM     53  C   UNL     1       5.684  -0.499   7.599  1.00  0.00     0.037 A 
ATOM     54  C   UNL     1      -0.663  -0.890   8.793  1.00  0.00     0.049 A 
ATOM     55  C   UNL     1       4.871  -0.362   8.856  1.00  0.00     0.074 A 
ATOM     56  C   UNL     1      -1.321  -0.793  10.009  1.00  0.00     0.029 A 
ATOM     57  N   UNL     1       0.686  -0.725   9.060  1.00  0.00    -0.354 N 
ATOM     58  N   UNL     1       3.574  -0.467   9.014  1.00  0.00    -0.248 NA
ATOM     59  C   UNL     1       5.607  -0.085  10.099  1.00  0.00     0.031 C 
ATOM     60  C   UNL     1      -0.373  -0.534  11.006  1.00  0.00     0.029 A 
ATOM     61  C   UNL     1       0.880  -0.511  10.417  1.00  0.00     0.049 A 
ATOM     62  H   UNL     1       1.403  -0.755   8.386  1.00  0.00     0.167 HD
ATOM     63  C   UNL     1       3.342  -0.295  10.375  1.00  0.00     0.074 A 
ATOM     64  C   UNL     1       4.633  -0.091  10.998  1.00  0.00     0.031 C 
ATOM     65  C   UNL     1       2.163  -0.311  11.043  1.00  0.00     0.037 A 
BRANCH  52  66
ATOM     66  C   UNL     1      -2.731  -1.155   7.373  1.00  0.00     0.058 A 
ATOM     67  C   UNL     1      -3.412  -2.361   7.135  1.00  0.00     0.135 A 
ATOM     68  C   UNL     1      -3.506  -0.002   7.585  1.00  0.00     0.135 A 
ATOM     69  F   UNL     1      -2.724  -3.495   6.926  1.00  0.00    -0.206 F 
ATOM     70  C   UNL     1      -4.801  -2.417   7.079  1.00  0.00     0.059 A 
ATOM     71  C   UNL     1      -4.898  -0.040   7.560  1.00  0.00     0.059 A 
ATOM     72  F   UNL     1      -2.911   1.176   7.830  1.00  0.00    -0.206 F 
ATOM     73  C   UNL     1      -5.536  -1.250   7.291  1.00  0.00     0.060 A 
BRANCH  73  74
ATOM     74  S   UNL     1      -7.339  -1.344   7.230  1.00  0.00     0.124 S 
ATOM     75  O   UNL     1      -7.576  -1.450   5.794  1.00  0.00    -0.237 OA
ATOM     76  O   UNL     1      -7.618  -2.546   8.008  1.00  0.00    -0.237 OA
ATOM     77  O   UNL     1      -7.766  -0.090   7.846  1.00  0.00    -0.744 OA
ENDBRANCH  73  74
ENDBRANCH  52  66
BRANCH  53  78
ATOM     78  C   UNL     1       7.162  -0.347   7.637  1.00  0.00     0.058 A 
ATOM     79  C   UNL     1       7.969  -1.337   8.216  1.00  0.00     0.135 A 
ATOM     80  C   UNL     1       7.796   0.769   7.070  1.00  0.00     0.135 A 
ATOM     81  F   UNL     1       7.405  -2.419   8.775  1.00  0.00    -0.206 F 
ATOM     82  C   UNL     1       9.354  -1.224   8.242  1.00  0.00     0.059 A 
ATOM     83  C   UNL     1       9.181   0.894   7.065  1.00  0.00     0.059 A 
ATOM     84  F   UNL     1       7.067   1.734   6.489  1.00  0.00    -0.206 F 
ATOM     85  C   UNL     1       9.952  -0.105   7.660  1.00  0.00     0.060 A 
BRANCH  85  86
ATOM     86  S   UNL     1      11.755   0.001   7.638  1.00  0.00     0.124 S 
ATOM     87  O   UNL     1      12.044   0.370   9.019  1.00  0.00    -0.237 OA
ATOM     88  O   UNL     1      12.138  -1.352   7.245  1.00  0.00    -0.237 OA
ATOM     89  O   UNL     1      12.017   1.032   6.639  1.00  0.00    -0.744 OA
ENDBRANCH  85  86
ENDBRANCH  53  78
BRANCH  65  90
ATOM     90  C   UNL     1       2.206  -0.133  12.536  1.00  0.00     0.058 A 
ATOM     91  C   UNL     1       2.478   1.113  13.124  1.00  0.00     0.135 A 
ATOM     92  C   UNL     1       1.939  -1.214  13.391  1.00  0.00     0.135 A 
ATOM     93  F   UNL     1       2.746   2.179  12.354  1.00  0.00    -0.206 F 
ATOM     94  C   UNL     1       2.509   1.274  14.506  1.00  0.00     0.059 A 
ATOM     95  C   UNL     1       1.942  -1.071  14.776  1.00  0.00     0.059 A 
ATOM     96  F   UNL     1       1.664  -2.426  12.882  1.00  0.00    -0.206 F 
ATOM     97  C   UNL     1       2.242   0.175  15.325  1.00  0.00     0.060 A 
BRANCH  97  98
ATOM     98  S   UNL     1       2.264   0.399  17.117  1.00  0.00     0.124 S 
ATOM     99  O   UNL     1       3.696   0.448  17.389  1.00  0.00    -0.237 OA
ATOM    100  O   UNL     1       1.543   1.657  17.286  1.00  0.00    -0.237 OA
ATOM    101  O   UNL     1       1.569  -0.784  17.616  1.00  0.00    -0.744 OA
ENDBRANCH  97  98
ENDBRANCH  65  90
ENDBRANCH  39  40
ENDBRANCH  31  34
ENDBRANCH  29  30
ENDBRANCH  28  29
ENDBRANCH  27  28
ENDBRANCH   3  27
TORSDOF 19
