REMARK SMILES Cc1ccccc1NC(=O)c1ccccc1NC(=O)CCC(=O)NCCCNC(=O)c1ccc(-c2c3nc(c(-c4c(F)cc(S(=O)(=O)[O-])cc4F)c4ccc([nH]4)c(-c4c(F)cc(S(=O)(=O)[O-])cc4F)c4nc(c(-c5c(F)cc(S(=O)(=O)[O-])cc5F)c5ccc2[nH]5)C=C4)C=C3)cc1
REMARK SMILES IDX 25 1 24 2 22 3 23 4 21 6 20 7 18 8 17 9 19 11 16 12 11 13
REMARK SMILES IDX 12 14 13 15 15 16 14 17 9 18 8 19 10 21 7 22 1 23 2 24 3 25
REMARK SMILES IDX 4 26 6 27 5 28 26 29 27 30 28 31 29 32 30 34 31 35 32 36
REMARK SMILES IDX 96 37 33 38 95 39 34 40 35 41 36 42 89 43 37 44 94 45 88 46
REMARK SMILES IDX 90 47 38 48 93 49 87 50 86 51 39 53 73 54 52 55 72 56 53 57
REMARK SMILES IDX 56 58 71 59 91 60 54 61 55 62 70 64 92 65 57 66 40 67 41 68
REMARK SMILES IDX 50 69 42 70 43 71 49 72 51 73 44 74 45 75 46 76 47 77 48 78
REMARK SMILES IDX 74 79 75 80 84 81 76 82 77 83 83 84 85 85 78 86 79 87 80 88
REMARK SMILES IDX 81 89 82 90 58 91 59 92 68 93 60 94 61 95 67 96 69 97 62 98
REMARK SMILES IDX 63 99 64 100 65 101 66 102
REMARK H PARENT 24 5 17 10 8 20 28 33 90 52 56 63
REMARK Flexibility Score: inf
ROOT
ATOM      1  C   UNL     1       2.143   1.701   3.860  1.00  0.00     0.117 C 
ENDROOT
BRANCH   1   2
ATOM      2  N   UNL     1       0.956   2.551   3.677  1.00  0.00    -0.356 N 
ATOM      3  C   UNL     1      -0.201   2.796   4.367  1.00  0.00     0.220 C 
ATOM      4  O   UNL     1      -0.780   3.880   4.235  1.00  0.00    -0.275 OA
ATOM      5  H   UNL     1       1.007   3.079   2.847  1.00  0.00     0.163 HD
BRANCH   3   6
ATOM      6  C   UNL     1      -0.858   1.747   5.241  1.00  0.00     0.110 C 
BRANCH   6   7
ATOM      7  C   UNL     1      -1.932   0.917   4.524  1.00  0.00     0.110 C 
BRANCH   7   8
ATOM      8  C   UNL     1      -1.540   0.568   3.114  1.00  0.00     0.224 C 
ATOM      9  N   UNL     1      -1.758   1.380   2.046  1.00  0.00    -0.325 N 
ATOM     10  H   UNL     1      -1.260   1.069   1.256  1.00  0.00     0.169 HD
ATOM     11  O   UNL     1      -0.897  -0.479   2.953  1.00  0.00    -0.275 OA
BRANCH   9  12
ATOM     12  C   UNL     1      -2.502   2.548   1.753  1.00  0.00     0.054 A 
ATOM     13  C   UNL     1      -2.276   3.258   0.546  1.00  0.00     0.063 A 
ATOM     14  C   UNL     1      -2.730   4.594   0.457  1.00  0.00     0.016 A 
ATOM     15  C   UNL     1      -3.540   5.159   1.434  1.00  0.00     0.001 A 
ATOM     16  C   UNL     1      -3.453   3.075   2.637  1.00  0.00     0.027 A 
ATOM     17  C   UNL     1      -3.963   4.369   2.487  1.00  0.00     0.002 A 
BRANCH  13  18
ATOM     18  C   UNL     1      -1.615   2.766  -0.725  1.00  0.00     0.257 C 
ATOM     19  N   UNL     1      -0.933   1.567  -0.769  1.00  0.00    -0.322 N 
ATOM     20  H   UNL     1       0.046   1.625  -0.861  1.00  0.00     0.170 HD
ATOM     21  O   UNL     1      -1.680   3.456  -1.747  1.00  0.00    -0.269 OA
BRANCH  19  22
ATOM     22  C   UNL     1      -1.474   0.270  -0.698  1.00  0.00     0.044 A 
ATOM     23  C   UNL     1       0.873  -0.700  -0.394  1.00  0.00     0.046 C 
ATOM     24  C   UNL     1      -0.622  -0.837  -0.519  1.00  0.00    -0.027 A 
ATOM     25  C   UNL     1      -1.197  -2.102  -0.315  1.00  0.00     0.005 A 
ATOM     26  C   UNL     1      -2.582  -2.265  -0.314  1.00  0.00     0.000 A 
ATOM     27  C   UNL     1      -2.861   0.093  -0.715  1.00  0.00     0.026 A 
ATOM     28  C   UNL     1      -3.413  -1.170  -0.522  1.00  0.00     0.002 A 
ENDBRANCH  19  22
ENDBRANCH  13  18
ENDBRANCH   9  12
ENDBRANCH   7   8
ENDBRANCH   6   7
ENDBRANCH   3   6
ENDBRANCH   1   2
BRANCH   1  29
ATOM     29  C   UNL     1       3.158   1.387   2.618  1.00  0.00     0.042 C 
BRANCH  29  30
ATOM     30  C   UNL     1       4.094   2.546   2.009  1.00  0.00     0.118 C 
BRANCH  30  31
ATOM     31  N   UNL     1       5.019   2.458   0.679  1.00  0.00    -0.352 N 
ATOM     32  C   UNL     1       5.310   3.022  -0.643  1.00  0.00     0.251 C 
ATOM     33  H   UNL     1       5.651   1.715   0.819  1.00  0.00     0.163 HD
ATOM     34  O   UNL     1       6.543   3.119  -0.826  1.00  0.00    -0.269 OA
BRANCH  32  35
ATOM     35  C   UNL     1       4.489   3.550  -1.913  1.00  0.00     0.039 A 
ATOM     36  C   UNL     1       4.809   4.795  -2.551  1.00  0.00     0.014 A 
ATOM     37  C   UNL     1       3.400   2.934  -2.535  1.00  0.00     0.014 A 
ATOM     38  C   UNL     1       3.805   5.565  -3.308  1.00  0.00     0.010 A 
ATOM     39  C   UNL     1       2.416   3.685  -3.304  1.00  0.00     0.010 A 
ATOM     40  C   UNL     1       2.491   5.078  -3.492  1.00  0.00    -0.014 A 
BRANCH  40  41
ATOM     41  C   UNL     1       1.217   5.974  -3.458  1.00  0.00     0.031 A 
ATOM     42  C   UNL     1       0.366   6.339  -4.622  1.00  0.00     0.074 A 
ATOM     43  C   UNL     1       0.611   6.491  -2.339  1.00  0.00     0.049 A 
ATOM     44  N   UNL     1       0.081   7.559  -4.991  1.00  0.00    -0.248 NA
ATOM     45  C   UNL     1      -0.472   5.322  -5.244  1.00  0.00     0.031 C 
ATOM     46  C   UNL     1      -0.599   7.321  -2.165  1.00  0.00     0.029 A 
ATOM     47  N   UNL     1       1.003   6.394  -1.019  1.00  0.00    -0.354 N 
ATOM     48  C   UNL     1      -1.133   7.495  -5.671  1.00  0.00     0.074 A 
ATOM     49  C   UNL     1      -1.363   6.077  -5.898  1.00  0.00     0.031 C 
ATOM     50  C   UNL     1      -0.577   7.918  -0.954  1.00  0.00     0.029 A 
ATOM     51  C   UNL     1       0.646   7.529  -0.285  1.00  0.00     0.049 A 
ATOM     52  H   UNL     1       1.477   5.618  -0.640  1.00  0.00     0.167 HD
ATOM     53  C   UNL     1      -2.018   8.546  -5.756  1.00  0.00     0.037 A 
ATOM     54  C   UNL     1       1.607   8.334   0.284  1.00  0.00     0.037 A 
ATOM     55  C   UNL     1      -1.744   9.588  -4.756  1.00  0.00     0.049 A 
ATOM     56  C   UNL     1       1.711   9.662  -0.419  1.00  0.00     0.074 A 
ATOM     57  C   UNL     1      -2.455   9.982  -3.629  1.00  0.00     0.029 A 
ATOM     58  N   UNL     1      -0.509  10.221  -4.667  1.00  0.00    -0.354 N 
ATOM     59  N   UNL     1       0.898  10.044  -1.356  1.00  0.00    -0.248 NA
ATOM     60  C   UNL     1       2.775  10.636  -0.184  1.00  0.00     0.031 C 
ATOM     61  C   UNL     1      -1.633  10.820  -2.845  1.00  0.00     0.029 A 
ATOM     62  C   UNL     1      -0.415  10.942  -3.488  1.00  0.00     0.049 A 
ATOM     63  H   UNL     1       0.200  10.164  -5.348  1.00  0.00     0.167 HD
ATOM     64  C   UNL     1       1.381  11.171  -1.959  1.00  0.00     0.074 A 
ATOM     65  C   UNL     1       2.503  11.557  -1.126  1.00  0.00     0.031 C 
ATOM     66  C   UNL     1       0.813  11.636  -3.111  1.00  0.00     0.037 A 
BRANCH  53  67
ATOM     67  C   UNL     1      -3.358   8.491  -6.517  1.00  0.00     0.058 A 
ATOM     68  C   UNL     1      -4.432   9.380  -6.261  1.00  0.00     0.135 A 
ATOM     69  C   UNL     1      -3.606   7.601  -7.585  1.00  0.00     0.135 A 
ATOM     70  F   UNL     1      -4.315  10.406  -5.408  1.00  0.00    -0.206 F 
ATOM     71  C   UNL     1      -5.678   9.295  -6.899  1.00  0.00     0.059 A 
ATOM     72  C   UNL     1      -4.856   7.466  -8.209  1.00  0.00     0.059 A 
ATOM     73  F   UNL     1      -2.619   6.859  -8.110  1.00  0.00    -0.206 F 
ATOM     74  C   UNL     1      -5.895   8.312  -7.851  1.00  0.00     0.060 A 
BRANCH  74  75
ATOM     75  S   UNL     1      -7.514   8.193  -8.641  1.00  0.00     0.124 S 
ATOM     76  O   UNL     1      -8.414   8.077  -7.497  1.00  0.00    -0.237 OA
ATOM     77  O   UNL     1      -7.589   9.450  -9.379  1.00  0.00    -0.237 OA
ATOM     78  O   UNL     1      -7.405   6.992  -9.466  1.00  0.00    -0.744 OA
ENDBRANCH  74  75
ENDBRANCH  53  67
BRANCH  54  79
ATOM     79  C   UNL     1       2.836   7.633   0.873  1.00  0.00     0.058 A 
ATOM     80  C   UNL     1       2.575   6.881   2.031  1.00  0.00     0.135 A 
ATOM     81  C   UNL     1       3.565   6.971  -0.091  1.00  0.00     0.135 A 
ATOM     82  F   UNL     1       2.343   7.508   3.190  1.00  0.00    -0.206 F 
ATOM     83  C   UNL     1       2.395   5.501   1.974  1.00  0.00     0.059 A 
ATOM     84  C   UNL     1       3.301   5.609  -0.183  1.00  0.00     0.059 A 
ATOM     85  F   UNL     1       3.957   7.625  -1.199  1.00  0.00    -0.206 F 
ATOM     86  C   UNL     1       2.607   4.882   0.759  1.00  0.00     0.060 A 
BRANCH  86  87
ATOM     87  S   UNL     1       1.599   3.411   0.233  1.00  0.00     0.124 S 
ATOM     88  O   UNL     1       0.724   3.237   1.360  1.00  0.00    -0.237 OA
ATOM     89  O   UNL     1       0.905   3.871  -0.959  1.00  0.00    -0.237 OA
ATOM     90  O   UNL     1       2.467   2.281  -0.022  1.00  0.00    -0.744 OA
ENDBRANCH  86  87
ENDBRANCH  54  79
BRANCH  66  91
ATOM     91  C   UNL     1       1.268  12.828  -3.915  1.00  0.00     0.058 A 
ATOM     92  C   UNL     1       2.579  13.328  -3.944  1.00  0.00     0.135 A 
ATOM     93  C   UNL     1       0.345  13.495  -4.759  1.00  0.00     0.135 A 
ATOM     94  F   UNL     1       3.582  12.707  -3.308  1.00  0.00    -0.206 F 
ATOM     95  C   UNL     1       2.926  14.473  -4.665  1.00  0.00     0.059 A 
ATOM     96  C   UNL     1       0.684  14.601  -5.532  1.00  0.00     0.059 A 
ATOM     97  F   UNL     1      -0.931  13.095  -4.861  1.00  0.00    -0.206 F 
ATOM     98  C   UNL     1       1.968  15.112  -5.445  1.00  0.00     0.060 A 
BRANCH  98  99
ATOM     99  S   UNL     1       2.413  16.589  -6.374  1.00  0.00     0.124 S 
ATOM    100  O   UNL     1       2.264  17.627  -5.358  1.00  0.00    -0.237 OA
ATOM    101  O   UNL     1       3.784  16.306  -6.789  1.00  0.00    -0.237 OA
ATOM    102  O   UNL     1       1.433  16.619  -7.455  1.00  0.00    -0.744 OA
ENDBRANCH  98  99
ENDBRANCH  66  91
ENDBRANCH  40  41
ENDBRANCH  32  35
ENDBRANCH  30  31
ENDBRANCH  29  30
ENDBRANCH   1  29
TORSDOF 18
