REMARK SMILES COc1ccc(OC)c(/C=N/[NH+]=C2/NC(=O)[C@@H](CC(=O)NCCCNC(=O)c3ccc(-c4c5nc(c(-c6c(F)cc(S(=O)(=O)[O-])cc6F)c6ccc([nH]6)c(-c6c(F)cc(S(=O)(=O)[O-])cc6F)c6nc(c(-c7c(F)cc(S(=O)(=O)[O-])cc7F)c7ccc4[nH]7)C=C6)C=C5)cc3)S2)c1
REMARK SMILES IDX 22 1 21 2 19 3 20 4 18 6 17 7 12 8 13 9 14 11 94 12 15 13
REMARK SMILES IDX 16 15 11 16 10 17 9 18 3 19 4 20 95 21 5 22 6 23 2 24 1 25
REMARK SMILES IDX 7 26 8 27 23 28 24 29 25 30 26 31 27 33 28 34 29 35 93 36
REMARK SMILES IDX 30 37 92 38 31 39 32 40 33 41 86 42 34 43 91 44 85 45 87 46
REMARK SMILES IDX 35 47 90 48 84 49 83 50 36 52 70 53 49 54 69 55 50 56 53 57
REMARK SMILES IDX 68 58 88 59 51 60 52 61 67 63 89 64 54 65 37 66 38 67 47 68
REMARK SMILES IDX 39 69 40 70 46 71 48 72 41 73 42 74 43 75 44 76 45 77 71 78
REMARK SMILES IDX 72 79 81 80 73 81 74 82 80 83 82 84 75 85 76 86 77 87 78 88
REMARK SMILES IDX 79 89 55 90 56 91 65 92 57 93 58 94 64 95 66 96 59 97 60 98
REMARK SMILES IDX 61 99 62 100 63 101
REMARK H PARENT 21 5 12 10 14 14 25 32 87 51 53 62
REMARK Flexibility Score: inf
ROOT
ATOM      1  C   UNL     1       6.758   1.855  -0.520  1.00  0.00     0.117 C 
ENDROOT
BRANCH   1   2
ATOM      2  N   UNL     1       6.695   0.611  -1.273  1.00  0.00    -0.356 N 
ATOM      3  C   UNL     1       7.641  -0.038  -2.015  1.00  0.00     0.221 C 
ATOM      4  O   UNL     1       7.414  -1.205  -2.343  1.00  0.00    -0.275 OA
ATOM      5  H   UNL     1       5.820   0.160  -1.242  1.00  0.00     0.163 HD
BRANCH   3   6
ATOM      6  C   UNL     1       8.939   0.630  -2.435  1.00  0.00     0.127 C 
BRANCH   6   7
ATOM      7  C   UNL     1       8.955   1.319  -3.806  1.00  0.00     0.183 C 
ATOM      8  N   UNL     1       5.899   3.530  -4.273  1.00  0.00    -0.142 N 
ATOM      9  C   UNL     1       7.042   2.936  -4.297  1.00  0.00     0.337 C 
ATOM     10  H   UNL     1       5.779   4.471  -4.012  1.00  0.00     0.343 HD
ATOM     11  N   UNL     1       8.156   3.568  -3.869  1.00  0.00    -0.202 N 
ATOM     12  S   UNL     1       7.400   1.295  -4.739  1.00  0.00    -0.020 SA
ATOM     13  C   UNL     1       9.256   2.799  -3.621  1.00  0.00     0.322 C 
ATOM     14  H   UNL     1       8.174   4.544  -3.740  1.00  0.00     0.316 HD
ATOM     15  O   UNL     1      10.311   3.243  -3.206  1.00  0.00    -0.246 OA
BRANCH   8  16
ATOM     16  N   UNL     1       4.851   2.699  -4.657  1.00  0.00    -0.093 NA
ATOM     17  C   UNL     1       3.777   2.955  -3.990  1.00  0.00     0.170 C 
BRANCH  17  18
ATOM     18  C   UNL     1       2.515   2.297  -4.311  1.00  0.00     0.042 A 
ATOM     19  C   UNL     1       0.833   0.691  -3.610  1.00  0.00     0.119 A 
ATOM     20  C   UNL     1       0.055   1.081  -4.699  1.00  0.00     0.050 A 
ATOM     21  C   UNL     1       2.087   1.270  -3.443  1.00  0.00     0.060 A 
ATOM     22  C   UNL     1       0.499   2.081  -5.574  1.00  0.00     0.051 A 
ATOM     23  C   UNL     1       1.725   2.727  -5.378  1.00  0.00     0.128 A 
BRANCH  19  24
ATOM     24  O   UNL     1       0.269  -0.245  -2.789  1.00  0.00    -0.497 OA
ATOM     25  C   UNL     1       0.736  -0.311  -1.446  1.00  0.00     0.278 C 
ENDBRANCH  19  24
BRANCH  23  26
ATOM     26  O   UNL     1       1.962   3.715  -6.288  1.00  0.00    -0.496 OA
ATOM     27  C   UNL     1       2.950   4.704  -6.036  1.00  0.00     0.278 C 
ENDBRANCH  23  26
ENDBRANCH  17  18
ENDBRANCH   8  16
ENDBRANCH   6   7
ENDBRANCH   3   6
ENDBRANCH   1   2
BRANCH   1  28
ATOM     28  C   UNL     1       5.641   2.875  -0.822  1.00  0.00     0.042 C 
BRANCH  28  29
ATOM     29  C   UNL     1       4.198   2.517  -0.408  1.00  0.00     0.118 C 
BRANCH  29  30
ATOM     30  N   UNL     1       3.528   3.607   0.309  1.00  0.00    -0.352 N 
ATOM     31  C   UNL     1       2.545   4.541   0.063  1.00  0.00     0.251 C 
ATOM     32  H   UNL     1       3.879   3.697   1.224  1.00  0.00     0.163 HD
ATOM     33  O   UNL     1       2.343   5.359   0.966  1.00  0.00    -0.269 OA
BRANCH  31  34
ATOM     34  C   UNL     1       1.714   4.689  -1.168  1.00  0.00     0.039 A 
ATOM     35  C   UNL     1       1.588   5.962  -1.735  1.00  0.00     0.014 A 
ATOM     36  C   UNL     1       0.816   3.731  -1.616  1.00  0.00     0.014 A 
ATOM     37  C   UNL     1       0.662   6.235  -2.779  1.00  0.00     0.010 A 
ATOM     38  C   UNL     1      -0.058   3.997  -2.716  1.00  0.00     0.010 A 
ATOM     39  C   UNL     1      -0.128   5.241  -3.380  1.00  0.00    -0.014 A 
BRANCH  39  40
ATOM     40  C   UNL     1      -0.948   5.462  -4.675  1.00  0.00     0.031 A 
ATOM     41  C   UNL     1      -2.286   4.753  -4.943  1.00  0.00     0.074 A 
ATOM     42  C   UNL     1      -0.498   6.209  -5.722  1.00  0.00     0.049 A 
ATOM     43  N   UNL     1      -2.938   4.586  -6.078  1.00  0.00    -0.248 NA
ATOM     44  C   UNL     1      -2.978   4.162  -3.791  1.00  0.00     0.031 C 
ATOM     45  C   UNL     1       0.714   7.027  -5.758  1.00  0.00     0.029 A 
ATOM     46  N   UNL     1      -0.996   6.352  -7.014  1.00  0.00    -0.354 N 
ATOM     47  C   UNL     1      -4.075   3.832  -5.784  1.00  0.00     0.074 A 
ATOM     48  C   UNL     1      -3.994   3.531  -4.367  1.00  0.00     0.031 C 
ATOM     49  C   UNL     1       0.901   7.519  -6.991  1.00  0.00     0.029 A 
ATOM     50  C   UNL     1      -0.151   7.032  -7.871  1.00  0.00     0.049 A 
ATOM     51  H   UNL     1      -1.873   6.001  -7.293  1.00  0.00     0.167 HD
ATOM     52  C   UNL     1      -5.120   3.457  -6.575  1.00  0.00     0.037 A 
ATOM     53  C   UNL     1      -0.149   7.237  -9.207  1.00  0.00     0.037 A 
ATOM     54  C   UNL     1      -5.336   3.847  -7.951  1.00  0.00     0.049 A 
ATOM     55  C   UNL     1      -1.281   6.788 -10.085  1.00  0.00     0.074 A 
ATOM     56  C   UNL     1      -6.450   3.599  -8.745  1.00  0.00     0.029 A 
ATOM     57  N   UNL     1      -4.460   4.575  -8.734  1.00  0.00    -0.354 N 
ATOM     58  N   UNL     1      -2.346   6.104  -9.762  1.00  0.00    -0.248 NA
ATOM     59  C   UNL     1      -1.234   7.182 -11.506  1.00  0.00     0.031 C 
ATOM     60  C   UNL     1      -6.239   4.157 -10.010  1.00  0.00     0.029 A 
ATOM     61  C   UNL     1      -5.009   4.784  -9.995  1.00  0.00     0.049 A 
ATOM     62  H   UNL     1      -3.578   4.899  -8.442  1.00  0.00     0.167 HD
ATOM     63  C   UNL     1      -3.130   6.061 -10.911  1.00  0.00     0.074 A 
ATOM     64  C   UNL     1      -2.406   6.750 -11.953  1.00  0.00     0.031 C 
ATOM     65  C   UNL     1      -4.360   5.515 -11.052  1.00  0.00     0.037 A 
BRANCH  52  66
ATOM     66  C   UNL     1      -6.195   2.589  -5.961  1.00  0.00     0.058 A 
ATOM     67  C   UNL     1      -7.106   3.098  -5.023  1.00  0.00     0.135 A 
ATOM     68  C   UNL     1      -6.376   1.262  -6.392  1.00  0.00     0.135 A 
ATOM     69  F   UNL     1      -6.992   4.363  -4.589  1.00  0.00    -0.206 F 
ATOM     70  C   UNL     1      -8.120   2.309  -4.490  1.00  0.00     0.059 A 
ATOM     71  C   UNL     1      -7.406   0.465  -5.897  1.00  0.00     0.059 A 
ATOM     72  F   UNL     1      -5.559   0.733  -7.317  1.00  0.00    -0.206 F 
ATOM     73  C   UNL     1      -8.258   0.991  -4.928  1.00  0.00     0.060 A 
BRANCH  73  74
ATOM     74  S   UNL     1      -9.566  -0.027  -4.211  1.00  0.00     0.124 S 
ATOM     75  O   UNL     1      -8.982  -0.377  -2.919  1.00  0.00    -0.237 OA
ATOM     76  O   UNL     1     -10.696   0.896  -4.164  1.00  0.00    -0.237 OA
ATOM     77  O   UNL     1      -9.699  -1.128  -5.160  1.00  0.00    -0.744 OA
ENDBRANCH  73  74
ENDBRANCH  52  66
BRANCH  53  78
ATOM     78  C   UNL     1       1.000   7.949  -9.835  1.00  0.00     0.058 A 
ATOM     79  C   UNL     1       0.888   9.291 -10.223  1.00  0.00     0.135 A 
ATOM     80  C   UNL     1       2.219   7.295 -10.070  1.00  0.00     0.135 A 
ATOM     81  F   UNL     1      -0.265   9.950 -10.030  1.00  0.00    -0.206 F 
ATOM     82  C   UNL     1       1.940   9.959 -10.839  1.00  0.00     0.059 A 
ATOM     83  C   UNL     1       3.293   7.947 -10.668  1.00  0.00     0.059 A 
ATOM     84  F   UNL     1       2.376   6.013  -9.705  1.00  0.00    -0.206 F 
ATOM     85  C   UNL     1       3.140   9.278 -11.056  1.00  0.00     0.060 A 
BRANCH  85  86
ATOM     86  S   UNL     1       4.511  10.175 -11.818  1.00  0.00     0.124 S 
ATOM     87  O   UNL     1       4.051  10.301 -13.196  1.00  0.00    -0.237 OA
ATOM     88  O   UNL     1       4.537  11.408 -11.038  1.00  0.00    -0.237 OA
ATOM     89  O   UNL     1       5.650   9.287 -11.610  1.00  0.00    -0.744 OA
ENDBRANCH  85  86
ENDBRANCH  53  78
BRANCH  65  90
ATOM     90  C   UNL     1      -5.104   5.727 -12.344  1.00  0.00     0.058 A 
ATOM     91  C   UNL     1      -4.790   5.029 -13.520  1.00  0.00     0.135 A 
ATOM     92  C   UNL     1      -6.210   6.595 -12.380  1.00  0.00     0.135 A 
ATOM     93  F   UNL     1      -3.735   4.200 -13.552  1.00  0.00    -0.206 F 
ATOM     94  C   UNL     1      -5.548   5.178 -14.681  1.00  0.00     0.059 A 
ATOM     95  C   UNL     1      -6.992   6.745 -13.523  1.00  0.00     0.059 A 
ATOM     96  F   UNL     1      -6.555   7.293 -11.287  1.00  0.00    -0.206 F 
ATOM     97  C   UNL     1      -6.654   6.031 -14.670  1.00  0.00     0.060 A 
BRANCH  97  98
ATOM     98  S   UNL     1      -7.681   6.151 -16.154  1.00  0.00     0.124 S 
ATOM     99  O   UNL     1      -6.839   6.955 -17.034  1.00  0.00    -0.237 OA
ATOM    100  O   UNL     1      -7.843   4.752 -16.538  1.00  0.00    -0.237 OA
ATOM    101  O   UNL     1      -8.895   6.806 -15.677  1.00  0.00    -0.744 OA
ENDBRANCH  97  98
ENDBRANCH  65  90
ENDBRANCH  39  40
ENDBRANCH  31  34
ENDBRANCH  29  30
ENDBRANCH  28  29
ENDBRANCH   1  28
TORSDOF 18
