REMARK SMILES Cc1csc(=O)n1CCCC(=O)N1CC[C@H](C(=O)NCCCNC(=O)c2ccc(-c3c4nc(c(-c5c(F)cc(S(=O)(=O)[O-])cc5F)c5ccc([nH]5)c(-c5c(F)cc(S(=O)(=O)[O-])cc5F)c5nc(c(-c6c(F)cc(S(=O)(=O)[O-])cc6F)c6ccc3[nH]6)C=C5)C=C4)cc2)[C@@H]1C
REMARK SMILES IDX 20 1 19 2 17 3 18 4 16 6 13 7 14 8 92 9 15 10 93 11 11 12
REMARK SMILES IDX 12 13 10 14 9 15 8 16 7 17 1 18 2 19 3 20 4 21 5 22 6 23
REMARK SMILES IDX 21 24 22 25 23 26 24 27 25 29 26 30 27 31 91 32 28 33 90 34
REMARK SMILES IDX 29 35 30 36 31 37 84 38 32 39 89 40 83 41 85 42 33 43 88 44
REMARK SMILES IDX 82 45 81 46 34 48 68 49 47 50 67 51 48 52 51 53 66 54 86 55
REMARK SMILES IDX 49 56 50 57 65 59 87 60 52 61 35 62 36 63 45 64 37 65 38 66
REMARK SMILES IDX 44 67 46 68 39 69 40 70 41 71 42 72 43 73 69 74 70 75 79 76
REMARK SMILES IDX 71 77 72 78 78 79 80 80 73 81 74 82 75 83 76 84 77 85 53 86
REMARK SMILES IDX 54 87 63 88 55 89 56 90 62 91 64 92 57 93 58 94 59 95 60 96
REMARK SMILES IDX 61 97
REMARK H PARENT 19 5 23 28 85 47 51 58
REMARK Flexibility Score: inf
ROOT
ATOM      1  C   UNL     1      -1.280  -2.317   7.316  1.00  0.00     0.117 C 
ENDROOT
BRANCH   1   2
ATOM      2  N   UNL     1      -0.368  -1.277   6.897  1.00  0.00    -0.356 N 
ATOM      3  C   UNL     1       0.251  -1.065   5.714  1.00  0.00     0.225 C 
ATOM      4  O   UNL     1       1.007  -0.089   5.652  1.00  0.00    -0.275 OA
ATOM      5  H   UNL     1      -0.164  -0.610   7.591  1.00  0.00     0.163 HD
BRANCH   3   6
ATOM      6  C   UNL     1      -0.012  -1.867   4.449  1.00  0.00     0.102 C 
ATOM      7  N   UNL     1      -2.046  -2.494   3.349  1.00  0.00    -0.339 N 
ATOM      8  C   UNL     1      -1.610  -3.662   4.080  1.00  0.00     0.120 C 
ATOM      9  C   UNL     1      -1.178  -1.348   3.593  1.00  0.00     0.094 C 
ATOM     10  C   UNL     1      -0.167  -3.386   4.464  1.00  0.00     0.037 C 
ATOM     11  C   UNL     1      -1.909  -0.107   4.097  1.00  0.00     0.032 C 
BRANCH   7  12
ATOM     12  C   UNL     1      -3.343  -2.439   2.903  1.00  0.00     0.222 C 
ATOM     13  O   UNL     1      -4.268  -2.812   3.634  1.00  0.00    -0.275 OA
BRANCH  12  14
ATOM     14  C   UNL     1      -3.616  -2.227   1.420  1.00  0.00     0.102 C 
BRANCH  14  15
ATOM     15  C   UNL     1      -3.045  -1.133   0.529  1.00  0.00     0.032 C 
BRANCH  15  16
ATOM     16  C   UNL     1      -1.575  -0.744   0.359  1.00  0.00     0.127 C 
BRANCH  16  17
ATOM     17  N   UNL     1      -0.472  -1.688   0.135  1.00  0.00    -0.303 N 
ATOM     18  C   UNL     1       1.107   0.252  -0.315  1.00  0.00     0.065 C 
ATOM     19  C   UNL     1       0.806  -1.206  -0.185  1.00  0.00     0.029 A 
ATOM     20  C   UNL     1       1.730  -2.163  -0.341  1.00  0.00     0.091 A 
ATOM     21  S   UNL     1       1.084  -3.739  -0.081  1.00  0.00    -0.082 S 
ATOM     22  C   UNL     1      -0.528  -3.077   0.268  1.00  0.00     0.307 A 
ATOM     23  O   UNL     1      -1.443  -3.803   0.559  1.00  0.00    -0.257 OA
ENDBRANCH  16  17
ENDBRANCH  15  16
ENDBRANCH  14  15
ENDBRANCH  12  14
ENDBRANCH   7  12
ENDBRANCH   3   6
ENDBRANCH   1   2
BRANCH   1  24
ATOM     24  C   UNL     1      -0.537  -3.489   7.961  1.00  0.00     0.042 C 
BRANCH  24  25
ATOM     25  C   UNL     1      -0.323  -3.256   9.446  1.00  0.00     0.118 C 
BRANCH  25  26
ATOM     26  N   UNL     1      -1.587  -3.292  10.180  1.00  0.00    -0.352 N 
ATOM     27  C   UNL     1      -1.817  -2.965  11.498  1.00  0.00     0.251 C 
ATOM     28  H   UNL     1      -2.373  -3.589   9.668  1.00  0.00     0.163 HD
ATOM     29  O   UNL     1      -2.840  -3.332  12.064  1.00  0.00    -0.269 OA
BRANCH  27  30
ATOM     30  C   UNL     1      -0.790  -2.192  12.212  1.00  0.00     0.039 A 
ATOM     31  C   UNL     1      -0.329  -2.619  13.455  1.00  0.00     0.014 A 
ATOM     32  C   UNL     1      -0.219  -1.095  11.567  1.00  0.00     0.014 A 
ATOM     33  C   UNL     1       0.791  -1.997  13.996  1.00  0.00     0.010 A 
ATOM     34  C   UNL     1       0.968  -0.579  12.036  1.00  0.00     0.010 A 
ATOM     35  C   UNL     1       1.470  -1.007  13.260  1.00  0.00    -0.014 A 
BRANCH  35  36
ATOM     36  C   UNL     1       2.783  -0.544  13.716  1.00  0.00     0.031 A 
ATOM     37  C   UNL     1       3.718  -1.644  14.082  1.00  0.00     0.074 A 
ATOM     38  C   UNL     1       3.207   0.739  13.674  1.00  0.00     0.049 A 
ATOM     39  N   UNL     1       4.045  -2.022  15.273  1.00  0.00    -0.248 NA
ATOM     40  C   UNL     1       4.210  -2.545  13.026  1.00  0.00     0.031 C 
ATOM     41  C   UNL     1       2.532   1.892  13.064  1.00  0.00     0.029 A 
ATOM     42  N   UNL     1       4.386   1.278  14.104  1.00  0.00    -0.354 N 
ATOM     43  C   UNL     1       4.994  -3.027  15.110  1.00  0.00     0.074 A 
ATOM     44  C   UNL     1       4.895  -3.446  13.737  1.00  0.00     0.031 C 
ATOM     45  C   UNL     1       3.398   2.923  12.953  1.00  0.00     0.029 A 
ATOM     46  C   UNL     1       4.614   2.578  13.665  1.00  0.00     0.049 A 
ATOM     47  H   UNL     1       5.021   0.788  14.675  1.00  0.00     0.167 HD
ATOM     48  C   UNL     1       5.967  -3.213  16.046  1.00  0.00     0.037 A 
ATOM     49  C   UNL     1       5.701   3.353  13.896  1.00  0.00     0.037 A 
ATOM     50  C   UNL     1       5.676  -2.445  17.231  1.00  0.00     0.049 A 
ATOM     51  C   UNL     1       6.341   2.853  15.133  1.00  0.00     0.074 A 
ATOM     52  C   UNL     1       4.825  -2.541  18.309  1.00  0.00     0.029 A 
ATOM     53  N   UNL     1       6.110  -1.147  17.162  1.00  0.00    -0.354 N 
ATOM     54  N   UNL     1       5.770   2.910  16.306  1.00  0.00    -0.248 NA
ATOM     55  C   UNL     1       7.481   1.950  15.039  1.00  0.00     0.031 C 
ATOM     56  C   UNL     1       4.624  -1.206  18.775  1.00  0.00     0.029 A 
ATOM     57  C   UNL     1       5.390  -0.338  17.999  1.00  0.00     0.049 A 
ATOM     58  H   UNL     1       6.845  -0.836  16.585  1.00  0.00     0.167 HD
ATOM     59  C   UNL     1       6.186   1.760  16.945  1.00  0.00     0.074 A 
ATOM     60  C   UNL     1       7.360   1.312  16.206  1.00  0.00     0.031 C 
ATOM     61  C   UNL     1       5.360   1.096  17.802  1.00  0.00     0.037 A 
BRANCH  48  62
ATOM     62  C   UNL     1       7.389  -3.659  15.767  1.00  0.00     0.058 A 
ATOM     63  C   UNL     1       8.256  -3.906  16.856  1.00  0.00     0.135 A 
ATOM     64  C   UNL     1       8.019  -3.550  14.508  1.00  0.00     0.135 A 
ATOM     65  F   UNL     1       7.771  -4.029  18.102  1.00  0.00    -0.206 F 
ATOM     66  C   UNL     1       9.645  -3.963  16.714  1.00  0.00     0.059 A 
ATOM     67  C   UNL     1       9.397  -3.652  14.338  1.00  0.00     0.059 A 
ATOM     68  F   UNL     1       7.344  -3.240  13.396  1.00  0.00    -0.206 F 
ATOM     69  C   UNL     1      10.206  -3.819  15.450  1.00  0.00     0.060 A 
BRANCH  69  70
ATOM     70  S   UNL     1      11.999  -3.802  15.271  1.00  0.00     0.124 S 
ATOM     71  O   UNL     1      12.346  -2.539  15.912  1.00  0.00    -0.237 OA
ATOM     72  O   UNL     1      12.386  -5.013  15.987  1.00  0.00    -0.237 OA
ATOM     73  O   UNL     1      12.191  -3.849  13.824  1.00  0.00    -0.744 OA
ENDBRANCH  69  70
ENDBRANCH  48  62
BRANCH  49  74
ATOM     74  C   UNL     1       6.324   4.372  13.020  1.00  0.00     0.058 A 
ATOM     75  C   UNL     1       7.199   5.349  13.525  1.00  0.00     0.135 A 
ATOM     76  C   UNL     1       6.296   4.222  11.619  1.00  0.00     0.135 A 
ATOM     77  F   UNL     1       7.298   5.546  14.848  1.00  0.00    -0.206 F 
ATOM     78  C   UNL     1       8.038   6.098  12.693  1.00  0.00     0.059 A 
ATOM     79  C   UNL     1       7.122   4.958  10.770  1.00  0.00     0.059 A 
ATOM     80  F   UNL     1       5.527   3.283  11.046  1.00  0.00    -0.206 F 
ATOM     81  C   UNL     1       8.009   5.878  11.316  1.00  0.00     0.060 A 
BRANCH  81  82
ATOM     82  S   UNL     1       9.217   6.714  10.260  1.00  0.00     0.124 S 
ATOM     83  O   UNL     1       8.766   8.100  10.324  1.00  0.00    -0.237 OA
ATOM     84  O   UNL     1      10.476   6.421  10.937  1.00  0.00    -0.237 OA
ATOM     85  O   UNL     1       9.043   6.062   8.964  1.00  0.00    -0.744 OA
ENDBRANCH  81  82
ENDBRANCH  49  74
BRANCH  61  86
ATOM     86  C   UNL     1       4.274   1.883  18.474  1.00  0.00     0.058 A 
ATOM     87  C   UNL     1       3.151   2.429  17.831  1.00  0.00     0.135 A 
ATOM     88  C   UNL     1       4.348   2.020  19.869  1.00  0.00     0.135 A 
ATOM     89  F   UNL     1       2.969   2.276  16.512  1.00  0.00    -0.206 F 
ATOM     90  C   UNL     1       2.162   3.111  18.544  1.00  0.00     0.059 A 
ATOM     91  C   UNL     1       3.362   2.668  20.602  1.00  0.00     0.059 A 
ATOM     92  F   UNL     1       5.378   1.480  20.543  1.00  0.00    -0.206 F 
ATOM     93  C   UNL     1       2.277   3.224  19.931  1.00  0.00     0.060 A 
BRANCH  93  94
ATOM     94  S   UNL     1       0.970   4.052  20.862  1.00  0.00     0.124 S 
ATOM     95  O   UNL     1       1.165   5.449  20.490  1.00  0.00    -0.237 OA
ATOM     96  O   UNL     1      -0.239   3.420  20.343  1.00  0.00    -0.237 OA
ATOM     97  O   UNL     1       1.284   3.727  22.252  1.00  0.00    -0.744 OA
ENDBRANCH  93  94
ENDBRANCH  61  86
ENDBRANCH  35  36
ENDBRANCH  27  30
ENDBRANCH  25  26
ENDBRANCH  24  25
ENDBRANCH   1  24
TORSDOF 18
