REMARK SMILES C[C@@]12CCC[C@](C)(C(=O)NCCCNC(=O)c3ccc(-c4c5nc(c(-c6c(F)cc(S(=O)(=O)[O-])cc6F)c6ccc([nH]6)c(-c6c(F)cc(S(=O)(=O)[O-])cc6F)c6nc(c(-c7c(F)cc(S(=O)(=O)[O-])cc7F)c7ccc4[nH]7)C=C6)C=C5)cc3)[C@H]1CC[C@@]13C=C(CO)[C@@H](CC[C@@H]12)C3
REMARK SMILES IDX 12 1 11 2 10 3 8 4 9 5 6 7 1 8 2 9 3 10 83 11 94 12 4 13
REMARK SMILES IDX 84 14 86 15 93 16 5 17 7 18 85 19 87 20 95 21 92 22 88 23
REMARK SMILES IDX 91 24 89 25 90 26 13 28 14 29 15 30 16 32 17 33 18 34 82 35
REMARK SMILES IDX 19 36 81 37 20 38 21 39 22 40 75 41 23 42 80 43 74 44 76 45
REMARK SMILES IDX 24 46 79 47 73 48 72 49 25 51 59 52 38 53 58 54 39 55 42 56
REMARK SMILES IDX 57 57 77 58 40 59 41 60 56 62 78 63 43 64 26 65 27 66 36 67
REMARK SMILES IDX 28 68 29 69 35 70 37 71 30 72 31 73 32 74 33 75 34 76 60 77
REMARK SMILES IDX 61 78 70 79 62 80 63 81 69 82 71 83 64 84 65 85 66 86 67 87
REMARK SMILES IDX 68 88 44 89 45 90 54 91 46 92 47 93 53 94 55 95 48 96 49 97
REMARK SMILES IDX 50 98 51 99 52 100
REMARK H PARENT 10 6 90 27 14 31 76 50 42 61
REMARK Flexibility Score: inf
ROOT
ATOM      1  C   UNL     1       2.138   3.459  -1.396  1.00  0.00     0.042 C 
ENDROOT
BRANCH   1   2
ATOM      2  C   UNL     1       2.959   2.223  -1.748  1.00  0.00     0.117 C 
BRANCH   2   3
ATOM      3  N   UNL     1       3.877   1.835  -0.678  1.00  0.00    -0.356 N 
ATOM      4  C   UNL     1       3.992   0.728   0.118  1.00  0.00     0.226 C 
ATOM      5  O   UNL     1       4.892   0.761   0.962  1.00  0.00    -0.274 OA
ATOM      6  H   UNL     1       4.560   2.518  -0.490  1.00  0.00     0.163 HD
BRANCH   4   7
ATOM      7  C   UNL     1       3.086  -0.522  -0.047  1.00  0.00     0.050 C 
ATOM      8  C   UNL     1       0.501  -1.830  -1.084  1.00  0.00     0.012 C 
ATOM      9  C   UNL     1       0.700  -1.539   0.447  1.00  0.00    -0.025 C 
ATOM     10  C   UNL     1       1.373  -2.753   1.133  1.00  0.00     0.007 C 
ATOM     11  C   UNL     1       1.653  -0.321   0.633  1.00  0.00     0.010 C 
ATOM     12  C   UNL     1      -0.750  -1.313   1.012  1.00  0.00     0.005 C 
ATOM     13  C   UNL     1       2.839  -2.985   0.746  1.00  0.00     0.002 C 
ATOM     14  C   UNL     1       0.960   1.019   0.396  1.00  0.00     0.006 C 
ATOM     15  C   UNL     1      -1.353   0.139   0.852  1.00  0.00    -0.008 C 
ATOM     16  C   UNL     1      -1.340  -1.937   2.275  1.00  0.00     0.006 C 
ATOM     17  C   UNL     1       3.702  -1.712   0.768  1.00  0.00     0.017 C 
ATOM     18  C   UNL     1       3.251  -0.944  -1.534  1.00  0.00     0.022 C 
ATOM     19  C   UNL     1      -0.342   1.220   1.150  1.00  0.00     0.012 C 
ATOM     20  C   UNL     1      -2.040   0.082  -0.482  1.00  0.00    -0.018 C 
ATOM     21  C   UNL     1      -2.637   0.376   1.689  1.00  0.00     0.019 C 
ATOM     22  C   UNL     1      -2.893  -2.033   1.997  1.00  0.00     0.008 C 
ATOM     23  C   UNL     1      -3.169  -0.640  -0.303  1.00  0.00    -0.045 C 
ATOM     24  C   UNL     1      -3.472  -0.804   1.206  1.00  0.00     0.018 C 
BRANCH  23  25
ATOM     25  C   UNL     1      -3.982  -1.248  -1.392  1.00  0.00     0.187 C 
BRANCH  25  26
ATOM     26  O   UNL     1      -3.143  -2.037  -2.234  1.00  0.00    -0.392 OA
ATOM     27  H   UNL     1      -2.455  -1.475  -2.623  1.00  0.00     0.211 HD
ENDBRANCH  25  26
ENDBRANCH  23  25
ENDBRANCH   4   7
ENDBRANCH   2   3
ENDBRANCH   1   2
BRANCH   1  28
ATOM     28  C   UNL     1       2.948   4.734  -1.413  1.00  0.00     0.118 C 
BRANCH  28  29
ATOM     29  N   UNL     1       3.025   5.287  -2.749  1.00  0.00    -0.352 N 
ATOM     30  C   UNL     1       2.519   6.474  -3.221  1.00  0.00     0.251 C 
ATOM     31  H   UNL     1       3.506   4.738  -3.410  1.00  0.00     0.163 HD
ATOM     32  O   UNL     1       2.433   6.641  -4.434  1.00  0.00    -0.269 OA
BRANCH  30  33
ATOM     33  C   UNL     1       2.070   7.534  -2.284  1.00  0.00     0.039 A 
ATOM     34  C   UNL     1       1.013   8.362  -2.669  1.00  0.00     0.014 A 
ATOM     35  C   UNL     1       2.703   7.754  -1.056  1.00  0.00     0.014 A 
ATOM     36  C   UNL     1       0.594   9.392  -1.825  1.00  0.00     0.010 A 
ATOM     37  C   UNL     1       2.204   8.698  -0.164  1.00  0.00     0.010 A 
ATOM     38  C   UNL     1       1.177   9.562  -0.557  1.00  0.00    -0.014 A 
BRANCH  38  39
ATOM     39  C   UNL     1       0.763  10.684   0.324  1.00  0.00     0.031 A 
ATOM     40  C   UNL     1       1.756  11.752   0.710  1.00  0.00     0.074 A 
ATOM     41  C   UNL     1      -0.505  10.742   0.775  1.00  0.00     0.049 A 
ATOM     42  N   UNL     1       1.568  12.837   1.418  1.00  0.00    -0.248 NA
ATOM     43  C   UNL     1       3.150  11.566   0.271  1.00  0.00     0.031 C 
ATOM     44  C   UNL     1      -1.536   9.730   0.533  1.00  0.00     0.029 A 
ATOM     45  N   UNL     1      -1.148  11.698   1.519  1.00  0.00    -0.354 N 
ATOM     46  C   UNL     1       2.813  13.450   1.514  1.00  0.00     0.074 A 
ATOM     47  C   UNL     1       3.763  12.584   0.856  1.00  0.00     0.031 C 
ATOM     48  C   UNL     1      -2.694  10.144   1.072  1.00  0.00     0.029 A 
ATOM     49  C   UNL     1      -2.482  11.434   1.719  1.00  0.00     0.049 A 
ATOM     50  H   UNL     1      -0.697  12.497   1.876  1.00  0.00     0.167 HD
ATOM     51  C   UNL     1       3.133  14.645   2.067  1.00  0.00     0.037 A 
ATOM     52  C   UNL     1      -3.432  12.162   2.339  1.00  0.00     0.037 A 
ATOM     53  C   UNL     1       2.175  15.520   2.689  1.00  0.00     0.049 A 
ATOM     54  C   UNL     1      -3.064  13.505   2.906  1.00  0.00     0.074 A 
ATOM     55  C   UNL     1       2.378  16.778   3.228  1.00  0.00     0.029 A 
ATOM     56  N   UNL     1       0.828  15.228   2.853  1.00  0.00    -0.354 N 
ATOM     57  N   UNL     1      -1.896  14.103   2.921  1.00  0.00    -0.248 NA
ATOM     58  C   UNL     1      -4.147  14.281   3.524  1.00  0.00     0.031 C 
ATOM     59  C   UNL     1       1.162  17.230   3.752  1.00  0.00     0.029 A 
ATOM     60  C   UNL     1       0.191  16.275   3.497  1.00  0.00     0.049 A 
ATOM     61  H   UNL     1       0.390  14.398   2.554  1.00  0.00     0.167 HD
ATOM     62  C   UNL     1      -2.107  15.334   3.532  1.00  0.00     0.074 A 
ATOM     63  C   UNL     1      -3.520  15.403   3.848  1.00  0.00     0.031 C 
ATOM     64  C   UNL     1      -1.216  16.319   3.808  1.00  0.00     0.037 A 
BRANCH  51  65
ATOM     65  C   UNL     1       4.574  15.078   2.007  1.00  0.00     0.058 A 
ATOM     66  C   UNL     1       5.187  15.438   0.795  1.00  0.00     0.135 A 
ATOM     67  C   UNL     1       5.346  15.158   3.177  1.00  0.00     0.135 A 
ATOM     68  F   UNL     1       4.502  15.363  -0.357  1.00  0.00    -0.206 F 
ATOM     69  C   UNL     1       6.520  15.831   0.741  1.00  0.00     0.059 A 
ATOM     70  C   UNL     1       6.674  15.577   3.150  1.00  0.00     0.059 A 
ATOM     71  F   UNL     1       4.814  14.824   4.363  1.00  0.00    -0.206 F 
ATOM     72  C   UNL     1       7.256  15.897   1.924  1.00  0.00     0.060 A 
BRANCH  72  73
ATOM     73  S   UNL     1       8.984  16.415   1.836  1.00  0.00     0.124 S 
ATOM     74  O   UNL     1       9.612  15.234   1.253  1.00  0.00    -0.237 OA
ATOM     75  O   UNL     1       8.915  17.588   0.972  1.00  0.00    -0.237 OA
ATOM     76  O   UNL     1       9.329  16.685   3.230  1.00  0.00    -0.744 OA
ENDBRANCH  72  73
ENDBRANCH  51  65
BRANCH  52  77
ATOM     77  C   UNL     1      -4.828  11.654   2.409  1.00  0.00     0.058 A 
ATOM     78  C   UNL     1      -5.852  12.248   1.657  1.00  0.00     0.135 A 
ATOM     79  C   UNL     1      -5.162  10.553   3.212  1.00  0.00     0.135 A 
ATOM     80  F   UNL     1      -5.584  13.305   0.875  1.00  0.00    -0.206 F 
ATOM     81  C   UNL     1      -7.162  11.782   1.712  1.00  0.00     0.059 A 
ATOM     82  C   UNL     1      -6.458  10.052   3.263  1.00  0.00     0.059 A 
ATOM     83  F   UNL     1      -4.214   9.935   3.934  1.00  0.00    -0.206 F 
ATOM     84  C   UNL     1      -7.455  10.681   2.517  1.00  0.00     0.060 A 
BRANCH  84  85
ATOM     85  S   UNL     1      -9.147  10.049   2.542  1.00  0.00     0.124 S 
ATOM     86  O   UNL     1      -9.825  11.059   3.346  1.00  0.00    -0.237 OA
ATOM     87  O   UNL     1      -9.488  10.026   1.123  1.00  0.00    -0.237 OA
ATOM     88  O   UNL     1      -9.004   8.736   3.165  1.00  0.00    -0.744 OA
ENDBRANCH  84  85
ENDBRANCH  52  77
BRANCH  64  89
ATOM     89  C   UNL     1      -1.754  17.559   4.466  1.00  0.00     0.058 A 
ATOM     90  C   UNL     1      -2.182  17.558   5.803  1.00  0.00     0.135 A 
ATOM     91  C   UNL     1      -1.835  18.765   3.752  1.00  0.00     0.135 A 
ATOM     92  F   UNL     1      -2.127  16.430   6.529  1.00  0.00    -0.206 F 
ATOM     93  C   UNL     1      -2.718  18.696   6.394  1.00  0.00     0.059 A 
ATOM     94  C   UNL     1      -2.339  19.924   4.333  1.00  0.00     0.059 A 
ATOM     95  F   UNL     1      -1.422  18.826   2.476  1.00  0.00    -0.206 F 
ATOM     96  C   UNL     1      -2.800  19.873   5.648  1.00  0.00     0.060 A 
BRANCH  96  97
ATOM     97  S   UNL     1      -3.510  21.342   6.420  1.00  0.00     0.124 S 
ATOM     98  O   UNL     1      -4.935  21.029   6.384  1.00  0.00    -0.237 OA
ATOM     99  O   UNL     1      -2.892  21.333   7.742  1.00  0.00    -0.237 OA
ATOM    100  O   UNL     1      -3.082  22.427   5.542  1.00  0.00    -0.744 OA
ENDBRANCH  96  97
ENDBRANCH  64  89
ENDBRANCH  38  39
ENDBRANCH  30  33
ENDBRANCH  28  29
ENDBRANCH   1  28
TORSDOF 15
