REMARK SMILES C[C@H](C(=O)NCCCNC(=O)c1ccc(-c2c3nc(c(-c4c(F)cc(S(=O)(=O)[O-])cc4F)c4ccc([nH]4)c(-c4c(F)cc(S(=O)(=O)[O-])cc4F)c4nc(c(-c5c(F)cc(S(=O)(=O)[O-])cc5F)c5ccc2[nH]5)C=C4)C=C3)cc1)[C@H](C)[S@@](=O)c1cccs1
REMARK SMILES IDX 7 1 6 2 5 3 3 4 4 5 2 7 1 8 78 9 79 10 80 11 81 12 82 13
REMARK SMILES IDX 83 14 86 15 84 16 85 17 8 18 9 19 10 20 11 22 12 23 13 24
REMARK SMILES IDX 77 25 14 26 76 27 15 28 16 29 17 30 70 31 18 32 75 33 69 34
REMARK SMILES IDX 71 35 19 36 74 37 68 38 67 39 20 41 54 42 33 43 53 44 34 45
REMARK SMILES IDX 37 46 52 47 72 48 35 49 36 50 51 52 73 53 38 54 21 55 22 56
REMARK SMILES IDX 31 57 23 58 24 59 30 60 32 61 25 62 26 63 27 64 28 65 29 66
REMARK SMILES IDX 55 67 56 68 65 69 57 70 58 71 64 72 66 73 59 74 60 75 61 76
REMARK SMILES IDX 62 77 63 78 39 79 40 80 49 81 41 82 42 83 48 84 50 85 43 86
REMARK SMILES IDX 44 87 45 88 46 89 47 90
REMARK H PARENT 5 6 9 21 71 40 37 51
REMARK Flexibility Score: inf
ROOT
ATOM      1  C   UNL     1      -3.536  -2.583   0.613  1.00  0.00     0.042 C 
ENDROOT
BRANCH   1   2
ATOM      2  C   UNL     1      -3.861  -1.448  -0.343  1.00  0.00     0.117 C 
BRANCH   2   3
ATOM      3  N   UNL     1      -3.463  -0.166   0.191  1.00  0.00    -0.356 N 
ATOM      4  C   UNL     1      -2.449   0.679  -0.122  1.00  0.00     0.224 C 
ATOM      5  O   UNL     1      -2.371   1.680   0.602  1.00  0.00    -0.275 OA
ATOM      6  H   UNL     1      -4.037   0.156   0.923  1.00  0.00     0.163 HD
BRANCH   4   7
ATOM      7  C   UNL     1      -1.526   0.512  -1.355  1.00  0.00     0.091 C 
ATOM      8  C   UNL     1      -0.517   1.675  -1.318  1.00  0.00     0.019 C 
BRANCH   7   9
ATOM      9  C   UNL     1      -0.843  -0.877  -1.517  1.00  0.00     0.094 C 
ATOM     10  C   UNL     1       0.679  -0.995  -1.363  1.00  0.00     0.023 C 
BRANCH   9  11
ATOM     11  S   UNL     1      -1.421  -1.779  -3.079  1.00  0.00     0.067 S 
ATOM     12  O   UNL     1      -2.859  -1.376  -3.269  1.00  0.00    -0.253 OA
BRANCH  11  13
ATOM     13  C   UNL     1      -0.608  -0.918  -4.352  1.00  0.00     0.091 A 
ATOM     14  C   UNL     1      -1.073   0.245  -4.921  1.00  0.00     0.029 A 
ATOM     15  S   UNL     1       0.640  -1.637  -5.259  1.00  0.00    -0.135 S 
ATOM     16  C   UNL     1      -0.445   0.507  -6.172  1.00  0.00     0.013 A 
ATOM     17  C   UNL     1       0.450  -0.485  -6.513  1.00  0.00     0.066 A 
ENDBRANCH  11  13
ENDBRANCH   9  11
ENDBRANCH   7   9
ENDBRANCH   4   7
ENDBRANCH   2   3
ENDBRANCH   1   2
BRANCH   1  18
ATOM     18  C   UNL     1      -4.619  -2.768   1.657  1.00  0.00     0.118 C 
BRANCH  18  19
ATOM     19  N   UNL     1      -5.867  -3.237   1.063  1.00  0.00    -0.352 N 
ATOM     20  C   UNL     1      -6.551  -4.407   1.270  1.00  0.00     0.251 C 
ATOM     21  H   UNL     1      -6.279  -2.621   0.416  1.00  0.00     0.163 HD
ATOM     22  O   UNL     1      -7.460  -4.725   0.503  1.00  0.00    -0.269 OA
BRANCH  20  23
ATOM     23  C   UNL     1      -6.186  -5.283   2.398  1.00  0.00     0.039 A 
ATOM     24  C   UNL     1      -6.188  -6.667   2.216  1.00  0.00     0.014 A 
ATOM     25  C   UNL     1      -5.835  -4.736   3.634  1.00  0.00     0.014 A 
ATOM     26  C   UNL     1      -5.776  -7.496   3.260  1.00  0.00     0.010 A 
ATOM     27  C   UNL     1      -5.315  -5.551   4.627  1.00  0.00     0.010 A 
ATOM     28  C   UNL     1      -5.299  -6.942   4.459  1.00  0.00    -0.014 A 
BRANCH  28  29
ATOM     29  C   UNL     1      -4.800  -7.796   5.564  1.00  0.00     0.031 A 
ATOM     30  C   UNL     1      -5.473  -7.745   6.910  1.00  0.00     0.074 A 
ATOM     31  C   UNL     1      -3.704  -8.555   5.374  1.00  0.00     0.049 A 
ATOM     32  N   UNL     1      -5.141  -8.348   8.021  1.00  0.00    -0.248 NA
ATOM     33  C   UNL     1      -6.654  -6.872   7.035  1.00  0.00     0.031 C 
ATOM     34  C   UNL     1      -2.933  -8.635   4.130  1.00  0.00     0.029 A 
ATOM     35  N   UNL     1      -3.039  -9.397   6.229  1.00  0.00    -0.354 N 
ATOM     36  C   UNL     1      -6.053  -7.912   8.975  1.00  0.00     0.074 A 
ATOM     37  C   UNL     1      -6.915  -6.949   8.330  1.00  0.00     0.031 C 
ATOM     38  C   UNL     1      -1.920  -9.499   4.294  1.00  0.00     0.029 A 
ATOM     39  C   UNL     1      -1.939 -10.000   5.665  1.00  0.00     0.049 A 
ATOM     40  H   UNL     1      -3.322  -9.555   7.158  1.00  0.00     0.167 HD
ATOM     41  C   UNL     1      -6.176  -8.303  10.264  1.00  0.00     0.037 A 
ATOM     42  C   UNL     1      -1.041 -10.852   6.196  1.00  0.00     0.037 A 
ATOM     43  C   UNL     1      -5.334  -9.292  10.883  1.00  0.00     0.049 A 
ATOM     44  C   UNL     1      -1.211 -11.287   7.626  1.00  0.00     0.074 A 
ATOM     45  C   UNL     1      -5.420  -9.815  12.160  1.00  0.00     0.029 A 
ATOM     46  N   UNL     1      -4.250  -9.905  10.269  1.00  0.00    -0.354 N 
ATOM     47  N   UNL     1      -2.123 -10.920   8.495  1.00  0.00    -0.248 NA
ATOM     48  C   UNL     1      -0.238 -12.256   8.146  1.00  0.00     0.031 C 
ATOM     49  C   UNL     1      -4.355 -10.704  12.338  1.00  0.00     0.029 A 
ATOM     50  C   UNL     1      -3.643 -10.783  11.151  1.00  0.00     0.049 A 
ATOM     51  H   UNL     1      -3.957  -9.741   9.344  1.00  0.00     0.167 HD
ATOM     52  C   UNL     1      -1.850 -11.632   9.657  1.00  0.00     0.074 A 
ATOM     53  C   UNL     1      -0.696 -12.461   9.374  1.00  0.00     0.031 C 
ATOM     54  C   UNL     1      -2.495 -11.603  10.850  1.00  0.00     0.037 A 
BRANCH  41  55
ATOM     55  C   UNL     1      -7.261  -7.668  11.092  1.00  0.00     0.058 A 
ATOM     56  C   UNL     1      -8.621  -7.925  10.854  1.00  0.00     0.135 A 
ATOM     57  C   UNL     1      -6.934  -6.829  12.169  1.00  0.00     0.135 A 
ATOM     58  F   UNL     1      -8.994  -8.704   9.826  1.00  0.00    -0.206 F 
ATOM     59  C   UNL     1      -9.618  -7.356  11.641  1.00  0.00     0.059 A 
ATOM     60  C   UNL     1      -7.913  -6.274  12.989  1.00  0.00     0.059 A 
ATOM     61  F   UNL     1      -5.650  -6.544  12.439  1.00  0.00    -0.206 F 
ATOM     62  C   UNL     1      -9.253  -6.537  12.710  1.00  0.00     0.060 A 
BRANCH  62  63
ATOM     63  S   UNL     1     -10.559  -5.832  13.737  1.00  0.00     0.124 S 
ATOM     64  O   UNL     1     -11.143  -4.846  12.832  1.00  0.00    -0.237 OA
ATOM     65  O   UNL     1     -11.390  -6.996  14.026  1.00  0.00    -0.237 OA
ATOM     66  O   UNL     1      -9.835  -5.282  14.879  1.00  0.00    -0.744 OA
ENDBRANCH  62  63
ENDBRANCH  41  55
BRANCH  42  67
ATOM     67  C   UNL     1       0.080 -11.360   5.361  1.00  0.00     0.058 A 
ATOM     68  C   UNL     1       0.123 -12.698   4.941  1.00  0.00     0.135 A 
ATOM     69  C   UNL     1       1.113 -10.509   4.937  1.00  0.00     0.135 A 
ATOM     70  F   UNL     1      -0.838 -13.552   5.323  1.00  0.00    -0.206 F 
ATOM     71  C   UNL     1       1.155 -13.178   4.141  1.00  0.00     0.059 A 
ATOM     72  C   UNL     1       2.141 -10.959   4.114  1.00  0.00     0.059 A 
ATOM     73  F   UNL     1       1.109  -9.216   5.294  1.00  0.00    -0.206 F 
ATOM     74  C   UNL     1       2.158 -12.299   3.728  1.00  0.00     0.060 A 
BRANCH  74  75
ATOM     75  S   UNL     1       3.458 -12.918   2.639  1.00  0.00     0.124 S 
ATOM     76  O   UNL     1       4.226 -13.762   3.547  1.00  0.00    -0.237 OA
ATOM     77  O   UNL     1       2.690 -13.616   1.612  1.00  0.00    -0.237 OA
ATOM     78  O   UNL     1       4.128 -11.700   2.190  1.00  0.00    -0.744 OA
ENDBRANCH  74  75
ENDBRANCH  42  67
BRANCH  54  79
ATOM     79  C   UNL     1      -1.993 -12.517  11.932  1.00  0.00     0.058 A 
ATOM     80  C   UNL     1      -0.780 -12.280  12.597  1.00  0.00     0.135 A 
ATOM     81  C   UNL     1      -2.768 -13.611  12.351  1.00  0.00     0.135 A 
ATOM     82  F   UNL     1       0.002 -11.251  12.232  1.00  0.00    -0.206 F 
ATOM     83  C   UNL     1      -0.341 -13.110  13.623  1.00  0.00     0.059 A 
ATOM     84  C   UNL     1      -2.364 -14.435  13.396  1.00  0.00     0.059 A 
ATOM     85  F   UNL     1      -3.943 -13.875  11.757  1.00  0.00    -0.206 F 
ATOM     86  C   UNL     1      -1.142 -14.183  14.018  1.00  0.00     0.060 A 
BRANCH  86  87
ATOM     87  S   UNL     1      -0.575 -15.232  15.372  1.00  0.00     0.124 S 
ATOM     88  O   UNL     1       0.515 -15.967  14.739  1.00  0.00    -0.237 OA
ATOM     89  O   UNL     1      -0.178 -14.252  16.379  1.00  0.00    -0.237 OA
ATOM     90  O   UNL     1      -1.755 -16.024  15.707  1.00  0.00    -0.744 OA
ENDBRANCH  86  87
ENDBRANCH  54  79
ENDBRANCH  28  29
ENDBRANCH  20  23
ENDBRANCH  18  19
ENDBRANCH   1  18
TORSDOF 16
