REMARK SMILES N#C/C(=C/c1cc2c(cc1Br)OCO2)C(=O)NCCCNC(=O)c1ccc(-c2c3nc(c(-c4c(F)cc(S(=O)(=O)[O-])cc4F)c4ccc([nH]4)c(-c4c(F)cc(S(=O)(=O)[O-])cc4F)c4nc(c(-c5c(F)cc(S(=O)(=O)[O-])cc5F)c5ccc2[nH]5)C=C4)C=C3)cc1
REMARK SMILES IDX 20 1 19 2 18 3 17 4 15 5 16 6 3 8 4 9 2 10 1 11 5 12 6 13
REMARK SMILES IDX 10 14 7 15 9 16 11 17 8 18 14 19 12 20 13 21 21 22 22 23
REMARK SMILES IDX 23 25 24 26 25 27 89 28 26 29 88 30 27 31 28 32 29 33 82 34
REMARK SMILES IDX 30 35 87 36 81 37 83 38 31 39 86 40 80 41 79 42 32 44 66 45
REMARK SMILES IDX 45 46 65 47 46 48 49 49 64 50 84 51 47 52 48 53 63 55 85 56
REMARK SMILES IDX 50 57 33 58 34 59 43 60 35 61 36 62 42 63 44 64 37 65 38 66
REMARK SMILES IDX 39 67 40 68 41 69 67 70 68 71 77 72 69 73 70 74 76 75 78 76
REMARK SMILES IDX 71 77 72 78 73 79 74 80 75 81 51 82 52 83 61 84 53 85 54 86
REMARK SMILES IDX 60 87 62 88 55 89 56 90 57 91 58 92 59 93
REMARK H PARENT 17 7 21 24 83 43 49 54
REMARK Flexibility Score: inf
ROOT
ATOM      1  C   UNL     1       8.619  -0.050   2.676  1.00  0.00     0.118 C 
ENDROOT
BRANCH   1   2
ATOM      2  C   UNL     1       7.662   1.037   2.224  1.00  0.00     0.042 C 
BRANCH   2   3
ATOM      3  C   UNL     1       6.630   0.556   1.240  1.00  0.00     0.118 C 
BRANCH   3   4
ATOM      4  N   UNL     1       5.658  -0.384   1.721  1.00  0.00    -0.351 N 
ATOM      5  C   UNL     1       4.443  -0.682   1.187  1.00  0.00     0.261 C 
ATOM      6  O   UNL     1       3.791  -1.575   1.730  1.00  0.00    -0.268 OA
ATOM      7  H   UNL     1       5.900  -0.873   2.540  1.00  0.00     0.163 HD
BRANCH   5   8
ATOM      8  C   UNL     1       3.850   0.065   0.031  1.00  0.00     0.117 C 
ATOM      9  C   UNL     1       4.369   0.561  -1.121  1.00  0.00     0.034 C 
BRANCH   8  10
ATOM     10  C   UNL     1       2.330   0.065   0.031  1.00  0.00     0.105 C 
ATOM     11  N   UNL     1       1.069   0.065   0.031  1.00  0.00    -0.192 NA
ENDBRANCH   8  10
BRANCH   9  12
ATOM     12  C   UNL     1       5.747   0.623  -1.635  1.00  0.00    -0.006 A 
ATOM     13  C   UNL     1       6.367   1.888  -1.605  1.00  0.00     0.060 A 
ATOM     14  C   UNL     1       6.498  -0.508  -2.044  1.00  0.00     0.029 A 
ATOM     15  C   UNL     1       7.730   1.946  -1.798  1.00  0.00     0.166 A 
ATOM     16  C   UNL     1       7.873  -0.403  -2.297  1.00  0.00     0.067 A 
ATOM     17  Br  UNL     1       5.706  -2.229  -2.189  1.00  0.00    -0.050 Br
ATOM     18  C   UNL     1       8.464   0.830  -2.120  1.00  0.00     0.166 A 
ATOM     19  O   UNL     1       8.510   3.040  -1.595  1.00  0.00    -0.454 OA
ATOM     20  O   UNL     1       9.797   1.094  -2.172  1.00  0.00    -0.454 OA
ATOM     21  C   UNL     1       9.825   2.445  -1.665  1.00  0.00     0.468 C 
ENDBRANCH   9  12
ENDBRANCH   5   8
ENDBRANCH   3   4
ENDBRANCH   2   3
ENDBRANCH   1   2
BRANCH   1  22
ATOM     22  N   UNL     1       9.461  -0.603   1.614  1.00  0.00    -0.352 N 
ATOM     23  C   UNL     1      10.788  -0.436   1.282  1.00  0.00     0.251 C 
ATOM     24  H   UNL     1       8.982  -1.221   1.015  1.00  0.00     0.163 HD
ATOM     25  O   UNL     1      11.223  -0.999   0.277  1.00  0.00    -0.269 OA
BRANCH  23  26
ATOM     26  C   UNL     1      11.682   0.439   2.072  1.00  0.00     0.039 A 
ATOM     27  C   UNL     1      12.713   1.143   1.437  1.00  0.00     0.014 A 
ATOM     28  C   UNL     1      11.524   0.574   3.445  1.00  0.00     0.014 A 
ATOM     29  C   UNL     1      13.507   2.035   2.171  1.00  0.00     0.010 A 
ATOM     30  C   UNL     1      12.172   1.589   4.126  1.00  0.00     0.010 A 
ATOM     31  C   UNL     1      13.211   2.300   3.517  1.00  0.00    -0.014 A 
BRANCH  31  32
ATOM     32  C   UNL     1      14.009   3.226   4.362  1.00  0.00     0.031 A 
ATOM     33  C   UNL     1      14.601   2.716   5.657  1.00  0.00     0.074 A 
ATOM     34  C   UNL     1      14.108   4.531   4.041  1.00  0.00     0.049 A 
ATOM     35  N   UNL     1      15.163   3.380   6.633  1.00  0.00    -0.248 NA
ATOM     36  C   UNL     1      14.476   1.271   5.921  1.00  0.00     0.031 C 
ATOM     37  C   UNL     1      13.528   5.165   2.856  1.00  0.00     0.029 A 
ATOM     38  N   UNL     1      14.732   5.563   4.695  1.00  0.00    -0.354 N 
ATOM     39  C   UNL     1      15.390   2.447   7.641  1.00  0.00     0.074 A 
ATOM     40  C   UNL     1      14.834   1.193   7.192  1.00  0.00     0.031 C 
ATOM     41  C   UNL     1      13.864   6.466   2.842  1.00  0.00     0.029 A 
ATOM     42  C   UNL     1      14.646   6.767   4.037  1.00  0.00     0.049 A 
ATOM     43  H   UNL     1      15.197   5.452   5.555  1.00  0.00     0.167 HD
ATOM     44  C   UNL     1      16.041   2.606   8.819  1.00  0.00     0.037 A 
ATOM     45  C   UNL     1      15.152   7.972   4.360  1.00  0.00     0.037 A 
ATOM     46  C   UNL     1      16.681   3.832   9.208  1.00  0.00     0.049 A 
ATOM     47  C   UNL     1      15.948   8.110   5.630  1.00  0.00     0.074 A 
ATOM     48  C   UNL     1      17.460   4.083  10.323  1.00  0.00     0.029 A 
ATOM     49  N   UNL     1      16.635   5.010   8.476  1.00  0.00    -0.354 N 
ATOM     50  N   UNL     1      16.204   7.206   6.546  1.00  0.00    -0.248 NA
ATOM     51  C   UNL     1      16.534   9.429   5.903  1.00  0.00     0.031 C 
ATOM     52  C   UNL     1      17.863   5.423  10.278  1.00  0.00     0.029 A 
ATOM     53  C   UNL     1      17.369   5.993   9.114  1.00  0.00     0.049 A 
ATOM     54  H   UNL     1      16.150   5.128   7.627  1.00  0.00     0.167 HD
ATOM     55  C   UNL     1      17.017   7.835   7.483  1.00  0.00     0.074 A 
ATOM     56  C   UNL     1      17.208   9.195   7.021  1.00  0.00     0.031 C 
ATOM     57  C   UNL     1      17.561   7.333   8.620  1.00  0.00     0.037 A 
BRANCH  44  58
ATOM     58  C   UNL     1      16.102   1.421   9.746  1.00  0.00     0.058 A 
ATOM     59  C   UNL     1      16.822   0.258   9.423  1.00  0.00     0.135 A 
ATOM     60  C   UNL     1      15.414   1.440  10.970  1.00  0.00     0.135 A 
ATOM     61  F   UNL     1      17.488   0.177   8.259  1.00  0.00    -0.206 F 
ATOM     62  C   UNL     1      16.808  -0.862  10.247  1.00  0.00     0.059 A 
ATOM     63  C   UNL     1      15.416   0.343  11.828  1.00  0.00     0.059 A 
ATOM     64  F   UNL     1      14.712   2.524  11.336  1.00  0.00    -0.206 F 
ATOM     65  C   UNL     1      16.094  -0.813  11.444  1.00  0.00     0.060 A 
BRANCH  65  66
ATOM     66  S   UNL     1      16.058  -2.284  12.489  1.00  0.00     0.124 S 
ATOM     67  O   UNL     1      15.113  -3.129  11.765  1.00  0.00    -0.237 OA
ATOM     68  O   UNL     1      17.449  -2.724  12.462  1.00  0.00    -0.237 OA
ATOM     69  O   UNL     1      15.590  -1.775  13.774  1.00  0.00    -0.744 OA
ENDBRANCH  65  66
ENDBRANCH  44  58
BRANCH  45  70
ATOM     70  C   UNL     1      14.996   9.117   3.425  1.00  0.00     0.058 A 
ATOM     71  C   UNL     1      16.091   9.573   2.675  1.00  0.00     0.135 A 
ATOM     72  C   UNL     1      13.762   9.755   3.233  1.00  0.00     0.135 A 
ATOM     73  F   UNL     1      17.293   8.995   2.825  1.00  0.00    -0.206 F 
ATOM     74  C   UNL     1      15.974  10.630   1.778  1.00  0.00     0.059 A 
ATOM     75  C   UNL     1      13.614  10.800   2.325  1.00  0.00     0.059 A 
ATOM     76  F   UNL     1      12.679   9.342   3.910  1.00  0.00    -0.206 F 
ATOM     77  C   UNL     1      14.728  11.235   1.607  1.00  0.00     0.060 A 
BRANCH  77  78
ATOM     78  S   UNL     1      14.575  12.563   0.393  1.00  0.00     0.124 S 
ATOM     79  O   UNL     1      15.262  13.659   1.067  1.00  0.00    -0.237 OA
ATOM     80  O   UNL     1      15.257  11.998  -0.766  1.00  0.00    -0.237 OA
ATOM     81  O   UNL     1      13.130  12.717   0.246  1.00  0.00    -0.744 OA
ENDBRANCH  77  78
ENDBRANCH  45  70
BRANCH  57  82
ATOM     82  C   UNL     1      18.466   8.237   9.406  1.00  0.00     0.058 A 
ATOM     83  C   UNL     1      17.968   9.306  10.166  1.00  0.00     0.135 A 
ATOM     84  C   UNL     1      19.850   7.999   9.431  1.00  0.00     0.135 A 
ATOM     85  F   UNL     1      16.652   9.576  10.172  1.00  0.00    -0.206 F 
ATOM     86  C   UNL     1      18.815  10.130  10.899  1.00  0.00     0.059 A 
ATOM     87  C   UNL     1      20.712   8.793  10.179  1.00  0.00     0.059 A 
ATOM     88  F   UNL     1      20.374   6.979   8.733  1.00  0.00    -0.206 F 
ATOM     89  C   UNL     1      20.186   9.866  10.897  1.00  0.00     0.060 A 
BRANCH  89  90
ATOM     90  S   UNL     1      21.276  10.929  11.867  1.00  0.00     0.124 S 
ATOM     91  O   UNL     1      21.343  12.121  11.027  1.00  0.00    -0.237 OA
ATOM     92  O   UNL     1      20.539  11.076  13.118  1.00  0.00    -0.237 OA
ATOM     93  O   UNL     1      22.509  10.155  11.960  1.00  0.00    -0.744 OA
ENDBRANCH  89  90
ENDBRANCH  57  82
ENDBRANCH  31  32
ENDBRANCH  23  26
ENDBRANCH   1  22
TORSDOF 15
