REMARK SMILES Cc1ccc(C)c(N2CCN(C(=O)[C@@H]3[C@H](C(=O)NCCCNC(=O)c4ccc(-c5c6nc(c(-c7c(F)cc(S(=O)(=O)[O-])cc7F)c7ccc([nH]7)c(-c7c(F)cc(S(=O)(=O)[O-])cc7F)c7nc(c(-c8c(F)cc(S(=O)(=O)[O-])cc8F)c8ccc5[nH]8)C=C7)C=C6)cc4)C3(C)C)CC2)c1
REMARK SMILES IDX 20 1 19 2 18 3 16 4 17 5 15 7 14 8 91 9 92 10 93 11 12 12
REMARK SMILES IDX 8 13 9 14 95 15 10 16 94 17 11 18 13 19 7 20 1 21 2 22 3 23
REMARK SMILES IDX 96 24 4 25 5 26 6 27 21 28 22 29 23 30 24 32 25 33 26 34
REMARK SMILES IDX 90 35 27 36 89 37 28 38 29 39 30 40 83 41 31 42 88 43 82 44
REMARK SMILES IDX 84 45 32 46 87 47 81 48 80 49 33 51 67 52 46 53 66 54 47 55
REMARK SMILES IDX 50 56 65 57 85 58 48 59 49 60 64 62 86 63 51 64 34 65 35 66
REMARK SMILES IDX 44 67 36 68 37 69 43 70 45 71 38 72 39 73 40 74 41 75 42 76
REMARK SMILES IDX 68 77 69 78 78 79 70 80 71 81 77 82 79 83 72 84 73 85 74 86
REMARK SMILES IDX 75 87 76 88 52 89 53 90 62 91 54 92 55 93 61 94 63 95 56 96
REMARK SMILES IDX 57 97 58 98 59 99 60 100
REMARK H PARENT 18 6 22 31 84 50 50 61
REMARK Flexibility Score: inf
ROOT
ATOM      1  C   UNL     1       1.079   6.994  -3.194  1.00  0.00     0.042 C 
ENDROOT
BRANCH   1   2
ATOM      2  C   UNL     1       0.651   7.316  -1.758  1.00  0.00     0.117 C 
BRANCH   2   3
ATOM      3  N   UNL     1      -0.273   8.428  -1.643  1.00  0.00    -0.356 N 
ATOM      4  C   UNL     1      -1.578   8.499  -1.222  1.00  0.00     0.224 C 
ATOM      5  O   UNL     1      -2.077   9.598  -1.102  1.00  0.00    -0.275 OA
ATOM      6  H   UNL     1       0.106   9.294  -1.918  1.00  0.00     0.163 HD
BRANCH   4   7
ATOM      7  C   UNL     1      -2.321   7.248  -0.924  1.00  0.00     0.098 C 
ATOM      8  C   UNL     1      -3.688   7.210  -0.254  1.00  0.00     0.098 C 
ATOM      9  C   UNL     1      -3.559   6.806  -1.710  1.00  0.00    -0.011 C 
ATOM     10  C   UNL     1      -3.639   5.310  -1.988  1.00  0.00     0.013 C 
ATOM     11  C   UNL     1      -4.201   7.595  -2.816  1.00  0.00     0.013 C 
BRANCH   8  12
ATOM     12  C   UNL     1      -4.110   8.344   0.635  1.00  0.00     0.227 C 
ATOM     13  N   UNL     1      -5.181  12.274   0.160  1.00  0.00    -0.368 N 
ATOM     14  C   UNL     1      -5.098  11.627   1.468  1.00  0.00     0.138 C 
ATOM     15  C   UNL     1      -4.494  11.589  -0.938  1.00  0.00     0.138 C 
ATOM     16  C   UNL     1      -5.602  10.174   1.340  1.00  0.00     0.141 C 
ATOM     17  C   UNL     1      -4.949  10.114  -1.014  1.00  0.00     0.141 C 
ATOM     18  N   UNL     1      -4.901   9.426   0.277  1.00  0.00    -0.339 N 
ATOM     19  O   UNL     1      -3.830   8.163   1.824  1.00  0.00    -0.275 OA
BRANCH  13  20
ATOM     20  C   UNL     1      -5.498  13.608  -0.005  1.00  0.00     0.040 A 
ATOM     21  C   UNL     1      -8.162  15.500  -1.998  1.00  0.00     0.044 C 
ATOM     22  C   UNL     1      -6.983  15.225  -1.116  1.00  0.00    -0.049 A 
ATOM     23  C   UNL     1      -6.368  16.263  -0.422  1.00  0.00     0.004 A 
ATOM     24  C   UNL     1      -6.529  13.917  -0.914  1.00  0.00     0.029 A 
ATOM     25  C   UNL     1      -5.323  15.989   0.457  1.00  0.00     0.006 A 
ATOM     26  C   UNL     1      -4.872  14.671   0.670  1.00  0.00    -0.028 A 
ATOM     27  C   UNL     1      -3.732  14.484   1.631  1.00  0.00     0.046 C 
ENDBRANCH  13  20
ENDBRANCH   8  12
ENDBRANCH   4   7
ENDBRANCH   2   3
ENDBRANCH   1   2
BRANCH   1  28
ATOM     28  C   UNL     1       1.743   8.145  -3.940  1.00  0.00     0.118 C 
BRANCH  28  29
ATOM     29  N   UNL     1       3.009   8.618  -3.357  1.00  0.00    -0.352 N 
ATOM     30  C   UNL     1       3.705   9.808  -3.568  1.00  0.00     0.251 C 
ATOM     31  H   UNL     1       3.430   7.998  -2.718  1.00  0.00     0.163 HD
ATOM     32  O   UNL     1       4.906   9.862  -3.319  1.00  0.00    -0.269 OA
BRANCH  30  33
ATOM     33  C   UNL     1       2.998  11.007  -4.071  1.00  0.00     0.039 A 
ATOM     34  C   UNL     1       3.601  12.175  -4.531  1.00  0.00     0.014 A 
ATOM     35  C   UNL     1       1.628  11.011  -3.951  1.00  0.00     0.014 A 
ATOM     36  C   UNL     1       2.778  13.278  -4.813  1.00  0.00     0.010 A 
ATOM     37  C   UNL     1       0.871  11.860  -4.685  1.00  0.00     0.010 A 
ATOM     38  C   UNL     1       1.384  13.113  -4.845  1.00  0.00    -0.014 A 
BRANCH  38  39
ATOM     39  C   UNL     1       0.440  14.097  -5.335  1.00  0.00     0.031 A 
ATOM     40  C   UNL     1       0.743  14.479  -6.724  1.00  0.00     0.074 A 
ATOM     41  C   UNL     1      -0.718  14.437  -4.721  1.00  0.00     0.049 A 
ATOM     42  N   UNL     1       1.470  15.481  -7.082  1.00  0.00    -0.248 NA
ATOM     43  C   UNL     1       0.484  13.513  -7.806  1.00  0.00     0.031 C 
ATOM     44  C   UNL     1      -1.337  13.889  -3.508  1.00  0.00     0.029 A 
ATOM     45  N   UNL     1      -1.636  15.361  -5.122  1.00  0.00    -0.354 N 
ATOM     46  C   UNL     1       1.458  15.448  -8.465  1.00  0.00     0.074 A 
ATOM     47  C   UNL     1       1.143  14.090  -8.814  1.00  0.00     0.031 C 
ATOM     48  C   UNL     1      -2.608  14.351  -3.396  1.00  0.00     0.029 A 
ATOM     49  C   UNL     1      -2.855  15.324  -4.444  1.00  0.00     0.049 A 
ATOM     50  H   UNL     1      -1.452  16.008  -5.841  1.00  0.00     0.167 HD
ATOM     51  C   UNL     1       1.341  16.608  -9.167  1.00  0.00     0.037 A 
ATOM     52  C   UNL     1      -3.974  16.034  -4.767  1.00  0.00     0.037 A 
ATOM     53  C   UNL     1       1.592  17.749  -8.304  1.00  0.00     0.049 A 
ATOM     54  C   UNL     1      -3.515  17.207  -5.566  1.00  0.00     0.074 A 
ATOM     55  C   UNL     1       2.609  18.093  -7.429  1.00  0.00     0.029 A 
ATOM     56  N   UNL     1       0.511  18.515  -7.927  1.00  0.00    -0.354 N 
ATOM     57  N   UNL     1      -2.783  18.172  -5.075  1.00  0.00    -0.248 NA
ATOM     58  C   UNL     1      -3.432  17.030  -7.009  1.00  0.00     0.031 C 
ATOM     59  C   UNL     1       1.946  18.632  -6.286  1.00  0.00     0.029 A 
ATOM     60  C   UNL     1       0.582  18.698  -6.569  1.00  0.00     0.049 A 
ATOM     61  H   UNL     1      -0.187  18.868  -8.525  1.00  0.00     0.167 HD
ATOM     62  C   UNL     1      -1.822  18.410  -6.047  1.00  0.00     0.074 A 
ATOM     63  C   UNL     1      -2.306  17.711  -7.240  1.00  0.00     0.031 C 
ATOM     64  C   UNL     1      -0.579  18.876  -5.726  1.00  0.00     0.037 A 
BRANCH  51  65
ATOM     65  C   UNL     1       0.599  16.736 -10.480  1.00  0.00     0.058 A 
ATOM     66  C   UNL     1       0.624  17.982 -11.140  1.00  0.00     0.135 A 
ATOM     67  C   UNL     1      -0.332  15.802 -10.992  1.00  0.00     0.135 A 
ATOM     68  F   UNL     1       1.467  18.949 -10.745  1.00  0.00    -0.206 F 
ATOM     69  C   UNL     1      -0.260  18.303 -12.167  1.00  0.00     0.059 A 
ATOM     70  C   UNL     1      -1.184  16.083 -12.052  1.00  0.00     0.059 A 
ATOM     71  F   UNL     1      -0.536  14.598 -10.452  1.00  0.00    -0.206 F 
ATOM     72  C   UNL     1      -1.167  17.348 -12.610  1.00  0.00     0.060 A 
BRANCH  72  73
ATOM     73  S   UNL     1      -2.339  17.774 -13.904  1.00  0.00     0.124 S 
ATOM     74  O   UNL     1      -3.193  18.734 -13.216  1.00  0.00    -0.237 OA
ATOM     75  O   UNL     1      -1.458  18.318 -14.932  1.00  0.00    -0.237 OA
ATOM     76  O   UNL     1      -2.958  16.492 -14.230  1.00  0.00    -0.744 OA
ENDBRANCH  72  73
ENDBRANCH  51  65
BRANCH  52  77
ATOM     77  C   UNL     1      -5.394  15.566  -4.802  1.00  0.00     0.058 A 
ATOM     78  C   UNL     1      -6.444  16.449  -5.136  1.00  0.00     0.135 A 
ATOM     79  C   UNL     1      -5.730  14.199  -4.792  1.00  0.00     0.135 A 
ATOM     80  F   UNL     1      -6.227  17.773  -5.179  1.00  0.00    -0.206 F 
ATOM     81  C   UNL     1      -7.729  16.003  -5.480  1.00  0.00     0.059 A 
ATOM     82  C   UNL     1      -7.005  13.731  -5.122  1.00  0.00     0.059 A 
ATOM     83  F   UNL     1      -4.810  13.258  -4.536  1.00  0.00    -0.206 F 
ATOM     84  C   UNL     1      -7.997  14.636  -5.481  1.00  0.00     0.060 A 
BRANCH  84  85
ATOM     85  S   UNL     1      -9.639  14.043  -5.953  1.00  0.00     0.124 S 
ATOM     86  O   UNL     1     -10.473  14.583  -4.885  1.00  0.00    -0.237 OA
ATOM     87  O   UNL     1      -9.821  14.643  -7.270  1.00  0.00    -0.237 OA
ATOM     88  O   UNL     1      -9.489  12.589  -5.948  1.00  0.00    -0.744 OA
ENDBRANCH  84  85
ENDBRANCH  52  77
BRANCH  64  89
ATOM     89  C   UNL     1      -0.330  19.441  -4.349  1.00  0.00     0.058 A 
ATOM     90  C   UNL     1      -0.443  18.728  -3.141  1.00  0.00     0.135 A 
ATOM     91  C   UNL     1       0.224  20.729  -4.278  1.00  0.00     0.135 A 
ATOM     92  F   UNL     1      -0.867  17.456  -3.125  1.00  0.00    -0.206 F 
ATOM     93  C   UNL     1      -0.051  19.287  -1.919  1.00  0.00     0.059 A 
ATOM     94  C   UNL     1       0.653  21.290  -3.080  1.00  0.00     0.059 A 
ATOM     95  F   UNL     1       0.409  21.444  -5.401  1.00  0.00    -0.206 F 
ATOM     96  C   UNL     1       0.502  20.568  -1.900  1.00  0.00     0.060 A 
BRANCH  96  97
ATOM     97  S   UNL     1       1.081  21.269  -0.339  1.00  0.00     0.124 S 
ATOM     98  O   UNL     1      -0.170  21.503   0.376  1.00  0.00    -0.237 OA
ATOM     99  O   UNL     1       1.927  20.205   0.194  1.00  0.00    -0.237 OA
ATOM    100  O   UNL     1       1.797  22.475  -0.749  1.00  0.00    -0.744 OA
ENDBRANCH  96  97
ENDBRANCH  64  89
ENDBRANCH  38  39
ENDBRANCH  30  33
ENDBRANCH  28  29
ENDBRANCH   1  28
TORSDOF 15
