REMARK SMILES CN1C(=O)C[C@@H](C(=O)NCCCNC(=O)c2ccc(-c3c4nc(c(-c5c(F)cc(S(=O)(=O)[O-])cc5F)c5ccc([nH]5)c(-c5c(F)cc(S(=O)(=O)[O-])cc5F)c5nc(c(-c6c(F)cc(S(=O)(=O)[O-])cc6F)c6ccc3[nH]6)C=C5)C=C4)cc2)C12CCN(c1ccc(Cl)cn1)CC2
REMARK SMILES IDX 12 1 11 2 10 3 9 4 7 5 8 6 6 8 1 9 2 10 3 11 82 12 4 13 5 14
REMARK SMILES IDX 83 15 94 16 84 17 93 18 85 19 86 20 87 21 92 22 88 23 91 24
REMARK SMILES IDX 89 25 90 26 13 27 14 28 15 30 16 31 17 32 81 33 18 34 80 35
REMARK SMILES IDX 19 36 20 37 21 38 74 39 22 40 79 41 73 42 75 43 23 44 78 45
REMARK SMILES IDX 72 46 71 47 24 49 58 50 37 51 57 52 38 53 41 54 56 55 76 56
REMARK SMILES IDX 39 57 40 58 55 60 77 61 42 62 25 63 26 64 35 65 27 66 28 67
REMARK SMILES IDX 34 68 36 69 29 70 30 71 31 72 32 73 33 74 59 75 60 76 69 77
REMARK SMILES IDX 61 78 62 79 68 80 70 81 63 82 64 83 65 84 66 85 67 86 43 87
REMARK SMILES IDX 44 88 53 89 45 90 46 91 52 92 54 93 47 94 48 95 49 96 50 97
REMARK SMILES IDX 51 98
REMARK H PARENT 9 7 13 29 75 48 41 59
REMARK Flexibility Score: inf
ROOT
ATOM      1  C   UNL     1      -2.362   1.395   3.501  1.00  0.00     0.118 C 
ENDROOT
BRANCH   1   2
ATOM      2  C   UNL     1      -1.140   0.752   2.856  1.00  0.00     0.042 C 
BRANCH   2   3
ATOM      3  C   UNL     1      -0.966  -0.723   3.208  1.00  0.00     0.117 C 
BRANCH   3   4
ATOM      4  N   UNL     1      -2.057  -1.570   2.746  1.00  0.00    -0.356 N 
ATOM      5  C   UNL     1      -2.166  -2.536   1.805  1.00  0.00     0.226 C 
ATOM      6  O   UNL     1      -3.264  -3.104   1.745  1.00  0.00    -0.275 OA
ATOM      7  H   UNL     1      -2.901  -1.403   3.224  1.00  0.00     0.163 HD
BRANCH   5   8
ATOM      8  C   UNL     1      -1.080  -2.943   0.812  1.00  0.00     0.113 C 
ATOM      9  C   UNL     1       1.260  -0.192  -0.137  1.00  0.00     0.147 C 
ATOM     10  N   UNL     1       0.612  -1.420   0.287  1.00  0.00    -0.339 N 
ATOM     11  C   UNL     1       1.191  -2.295   1.193  1.00  0.00     0.223 C 
ATOM     12  C   UNL     1      -0.659  -1.914  -0.265  1.00  0.00     0.058 C 
ATOM     13  O   UNL     1       2.287  -2.186   1.723  1.00  0.00    -0.275 OA
ATOM     14  C   UNL     1       0.217  -3.405   1.476  1.00  0.00     0.116 C 
ATOM     15  C   UNL     1      -1.692  -0.794  -0.524  1.00  0.00     0.051 C 
ATOM     16  C   UNL     1      -0.345  -2.648  -1.612  1.00  0.00     0.051 C 
ATOM     17  C   UNL     1      -2.914  -1.293  -1.280  1.00  0.00     0.120 C 
ATOM     18  C   UNL     1      -1.597  -3.056  -2.404  1.00  0.00     0.120 C 
ATOM     19  N   UNL     1      -2.443  -1.887  -2.512  1.00  0.00    -0.356 N 
BRANCH  19  20
ATOM     20  C   UNL     1      -2.950  -1.483  -3.722  1.00  0.00     0.128 A 
ATOM     21  C   UNL     1      -2.985  -0.122  -4.043  1.00  0.00     0.048 A 
ATOM     22  N   UNL     1      -3.393  -2.415  -4.590  1.00  0.00    -0.238 NA
ATOM     23  C   UNL     1      -3.503   0.300  -5.265  1.00  0.00     0.026 A 
ATOM     24  C   UNL     1      -3.926  -1.981  -5.761  1.00  0.00     0.134 A 
ATOM     25  C   UNL     1      -3.999  -0.651  -6.138  1.00  0.00     0.059 A 
ATOM     26  Cl  UNL     1      -4.677  -0.190  -7.644  1.00  0.00    -0.083 Cl
ENDBRANCH  19  20
ENDBRANCH   5   8
ENDBRANCH   3   4
ENDBRANCH   2   3
ENDBRANCH   1   2
BRANCH   1  27
ATOM     27  N   UNL     1      -2.188   1.541   4.939  1.00  0.00    -0.352 N 
ATOM     28  C   UNL     1      -1.876   2.661   5.671  1.00  0.00     0.251 C 
ATOM     29  H   UNL     1      -2.312   0.717   5.463  1.00  0.00     0.163 HD
ATOM     30  O   UNL     1      -1.457   2.534   6.818  1.00  0.00    -0.269 OA
BRANCH  28  31
ATOM     31  C   UNL     1      -2.034   4.009   5.081  1.00  0.00     0.039 A 
ATOM     32  C   UNL     1      -1.065   4.983   5.334  1.00  0.00     0.014 A 
ATOM     33  C   UNL     1      -3.154   4.324   4.307  1.00  0.00     0.014 A 
ATOM     34  C   UNL     1      -1.188   6.250   4.757  1.00  0.00     0.010 A 
ATOM     35  C   UNL     1      -3.231   5.556   3.664  1.00  0.00     0.010 A 
ATOM     36  C   UNL     1      -2.251   6.535   3.885  1.00  0.00    -0.014 A 
BRANCH  36  37
ATOM     37  C   UNL     1      -2.354   7.843   3.185  1.00  0.00     0.031 A 
ATOM     38  C   UNL     1      -3.538   8.741   3.427  1.00  0.00     0.074 A 
ATOM     39  C   UNL     1      -1.420   8.185   2.276  1.00  0.00     0.049 A 
ATOM     40  N   UNL     1      -3.852   9.869   2.844  1.00  0.00    -0.248 NA
ATOM     41  C   UNL     1      -4.511   8.299   4.439  1.00  0.00     0.031 C 
ATOM     42  C   UNL     1      -0.248   7.379   1.924  1.00  0.00     0.029 A 
ATOM     43  N   UNL     1      -1.313   9.291   1.470  1.00  0.00    -0.354 N 
ATOM     44  C   UNL     1      -5.060  10.264   3.406  1.00  0.00     0.074 A 
ATOM     45  C   UNL     1      -5.451   9.228   4.337  1.00  0.00     0.031 C 
ATOM     46  C   UNL     1       0.468   8.026   0.991  1.00  0.00     0.029 A 
ATOM     47  C   UNL     1      -0.216   9.267   0.641  1.00  0.00     0.049 A 
ATOM     48  H   UNL     1      -1.961  10.032   1.484  1.00  0.00     0.167 HD
ATOM     49  C   UNL     1      -5.767  11.399   3.183  1.00  0.00     0.037 A 
ATOM     50  C   UNL     1       0.185  10.136  -0.308  1.00  0.00     0.037 A 
ATOM     51  C   UNL     1      -5.360  12.433   2.268  1.00  0.00     0.049 A 
ATOM     52  C   UNL     1      -0.632  11.374  -0.558  1.00  0.00     0.074 A 
ATOM     53  C   UNL     1      -5.973  13.648   2.015  1.00  0.00     0.029 A 
ATOM     54  N   UNL     1      -4.242  12.373   1.448  1.00  0.00    -0.354 N 
ATOM     55  N   UNL     1      -1.736  11.765   0.033  1.00  0.00    -0.248 NA
ATOM     56  C   UNL     1      -0.153  12.287  -1.605  1.00  0.00     0.031 C 
ATOM     57  C   UNL     1      -5.260  14.295   1.001  1.00  0.00     0.029 A 
ATOM     58  C   UNL     1      -4.168  13.511   0.662  1.00  0.00     0.049 A 
ATOM     59  H   UNL     1      -3.596  11.630   1.427  1.00  0.00     0.167 HD
ATOM     60  C   UNL     1      -2.073  12.979  -0.557  1.00  0.00     0.074 A 
ATOM     61  C   UNL     1      -1.044  13.266  -1.535  1.00  0.00     0.031 C 
ATOM     62  C   UNL     1      -3.139  13.781  -0.313  1.00  0.00     0.037 A 
BRANCH  49  63
ATOM     63  C   UNL     1      -7.056  11.581   3.940  1.00  0.00     0.058 A 
ATOM     64  C   UNL     1      -7.074  11.802   5.327  1.00  0.00     0.135 A 
ATOM     65  C   UNL     1      -8.288  11.573   3.265  1.00  0.00     0.135 A 
ATOM     66  F   UNL     1      -5.928  11.806   6.027  1.00  0.00    -0.206 F 
ATOM     67  C   UNL     1      -8.267  11.975   6.022  1.00  0.00     0.059 A 
ATOM     68  C   UNL     1      -9.491  11.777   3.935  1.00  0.00     0.059 A 
ATOM     69  F   UNL     1      -8.331  11.367   1.940  1.00  0.00    -0.206 F 
ATOM     70  C   UNL     1      -9.471  11.962   5.317  1.00  0.00     0.060 A 
BRANCH  70  71
ATOM     71  S   UNL     1     -11.008  12.192   6.235  1.00  0.00     0.124 S 
ATOM     72  O   UNL     1     -11.105  10.929   6.960  1.00  0.00    -0.237 OA
ATOM     73  O   UNL     1     -10.712  13.367   7.047  1.00  0.00    -0.237 OA
ATOM     74  O   UNL     1     -12.005  12.391   5.187  1.00  0.00    -0.744 OA
ENDBRANCH  70  71
ENDBRANCH  49  63
BRANCH  50  75
ATOM     75  C   UNL     1       1.424   9.865  -1.087  1.00  0.00     0.058 A 
ATOM     76  C   UNL     1       2.569  10.658  -0.923  1.00  0.00     0.135 A 
ATOM     77  C   UNL     1       1.493   8.800  -2.000  1.00  0.00     0.135 A 
ATOM     78  F   UNL     1       2.551  11.692  -0.069  1.00  0.00    -0.206 F 
ATOM     79  C   UNL     1       3.734  10.415  -1.644  1.00  0.00     0.059 A 
ATOM     80  C   UNL     1       2.655   8.520  -2.711  1.00  0.00     0.059 A 
ATOM     81  F   UNL     1       0.430   8.000  -2.184  1.00  0.00    -0.206 F 
ATOM     82  C   UNL     1       3.768   9.340  -2.533  1.00  0.00     0.060 A 
BRANCH  82  83
ATOM     83  S   UNL     1       5.302   9.002  -3.424  1.00  0.00     0.124 S 
ATOM     84  O   UNL     1       5.343  10.111  -4.369  1.00  0.00    -0.237 OA
ATOM     85  O   UNL     1       6.291   9.037  -2.352  1.00  0.00    -0.237 OA
ATOM     86  O   UNL     1       5.067   7.684  -4.006  1.00  0.00    -0.744 OA
ENDBRANCH  82  83
ENDBRANCH  50  75
BRANCH  62  87
ATOM     87  C   UNL     1      -3.245  15.054  -1.108  1.00  0.00     0.058 A 
ATOM     88  C   UNL     1      -3.575  15.043  -2.473  1.00  0.00     0.135 A 
ATOM     89  C   UNL     1      -3.073  16.301  -0.486  1.00  0.00     0.135 A 
ATOM     90  F   UNL     1      -3.742  13.877  -3.118  1.00  0.00    -0.206 F 
ATOM     91  C   UNL     1      -3.712  16.222  -3.197  1.00  0.00     0.059 A 
ATOM     92  C   UNL     1      -3.236  17.494  -1.184  1.00  0.00     0.059 A 
ATOM     93  F   UNL     1      -2.765  16.370   0.819  1.00  0.00    -0.206 F 
ATOM     94  C   UNL     1      -3.546  17.444  -2.542  1.00  0.00     0.060 A 
BRANCH  94  95
ATOM     95  S   UNL     1      -3.772  18.966  -3.486  1.00  0.00     0.124 S 
ATOM     96  O   UNL     1      -2.582  18.968  -4.330  1.00  0.00    -0.237 OA
ATOM     97  O   UNL     1      -5.036  18.721  -4.172  1.00  0.00    -0.237 OA
ATOM     98  O   UNL     1      -3.813  20.001  -2.457  1.00  0.00    -0.744 OA
ENDBRANCH  94  95
ENDBRANCH  62  87
ENDBRANCH  36  37
ENDBRANCH  28  31
ENDBRANCH   1  27
TORSDOF 14
