REMARK SMILES CC1(C)[C@H](C(=O)NCCCNC(=O)c2ccc(-c3c4nc(c(-c5c(F)cc(S(=O)(=O)[O-])cc5F)c5ccc([nH]5)c(-c5c(F)cc(S(=O)(=O)[O-])cc5F)c5nc(c(-c6c(F)cc(S(=O)(=O)[O-])cc6F)c6ccc3[nH]6)C=C5)C=C4)cc2)[C@@H]1c1nc2ccc(F)cc2s1
REMARK SMILES IDX 10 1 9 2 8 3 7 4 5 5 6 6 4 8 1 9 2 10 3 11 80 12 81 13 82 14
REMARK SMILES IDX 90 15 83 16 89 17 84 18 88 19 85 20 86 21 87 22 11 23 12 24
REMARK SMILES IDX 13 26 14 27 15 28 79 29 16 30 78 31 17 32 18 33 19 34 72 35
REMARK SMILES IDX 20 36 77 37 71 38 73 39 21 40 76 41 70 42 69 43 22 45 56 46
REMARK SMILES IDX 35 47 55 48 36 49 39 50 54 51 74 52 37 53 38 54 53 56 75 57
REMARK SMILES IDX 40 58 23 59 24 60 33 61 25 62 26 63 32 64 34 65 27 66 28 67
REMARK SMILES IDX 29 68 30 69 31 70 57 71 58 72 67 73 59 74 60 75 66 76 68 77
REMARK SMILES IDX 61 78 62 79 63 80 64 81 65 82 41 83 42 84 51 85 43 86 44 87
REMARK SMILES IDX 50 88 52 89 45 90 46 91 47 92 48 93 49 94
REMARK H PARENT 7 7 11 25 73 44 39 55
REMARK Flexibility Score: inf
ROOT
ATOM      1  C   UNL     1      -0.777   5.187  -1.802  1.00  0.00     0.118 C 
ENDROOT
BRANCH   1   2
ATOM      2  C   UNL     1      -0.256   4.053  -0.945  1.00  0.00     0.042 C 
BRANCH   2   3
ATOM      3  C   UNL     1      -1.347   3.094  -0.510  1.00  0.00     0.117 C 
BRANCH   3   4
ATOM      4  N   UNL     1      -1.692   2.119  -1.504  1.00  0.00    -0.356 N 
ATOM      5  C   UNL     1      -1.635   0.756  -1.515  1.00  0.00     0.224 C 
ATOM      6  O   UNL     1      -2.041   0.227  -2.553  1.00  0.00    -0.275 OA
ATOM      7  H   UNL     1      -2.035   2.509  -2.340  1.00  0.00     0.163 HD
BRANCH   5   8
ATOM      8  C   UNL     1      -1.151  -0.167  -0.451  1.00  0.00     0.095 C 
ATOM      9  C   UNL     1       0.977  -1.448   0.176  1.00  0.00     0.013 C 
ATOM     10  C   UNL     1       0.217  -0.137   0.252  1.00  0.00    -0.013 C 
ATOM     11  C   UNL     1       1.144   1.041   0.095  1.00  0.00     0.013 C 
ATOM     12  C   UNL     1      -1.084  -0.115   1.044  1.00  0.00     0.068 C 
BRANCH  12  13
ATOM     13  C   UNL     1      -1.762   0.958   1.881  1.00  0.00     0.098 A 
ATOM     14  N   UNL     1      -3.073   0.948   1.972  1.00  0.00    -0.241 NA
ATOM     15  S   UNL     1      -0.980   2.140   2.848  1.00  0.00    -0.118 S 
ATOM     16  C   UNL     1      -3.505   2.118   2.570  1.00  0.00     0.082 A 
ATOM     17  C   UNL     1      -2.489   2.968   3.016  1.00  0.00     0.057 A 
ATOM     18  C   UNL     1      -4.848   2.525   2.710  1.00  0.00     0.033 A 
ATOM     19  C   UNL     1      -2.762   4.254   3.507  1.00  0.00     0.060 A 
ATOM     20  C   UNL     1      -5.134   3.797   3.214  1.00  0.00     0.041 A 
ATOM     21  C   UNL     1      -4.099   4.646   3.579  1.00  0.00     0.124 A 
ATOM     22  F   UNL     1      -4.395   5.875   4.023  1.00  0.00    -0.207 F 
ENDBRANCH  12  13
ENDBRANCH   5   8
ENDBRANCH   3   4
ENDBRANCH   2   3
ENDBRANCH   1   2
BRANCH   1  23
ATOM     23  N   UNL     1      -1.639   6.093  -1.050  1.00  0.00    -0.352 N 
ATOM     24  C   UNL     1      -1.429   7.392  -0.651  1.00  0.00     0.251 C 
ATOM     25  H   UNL     1      -2.508   5.713  -0.786  1.00  0.00     0.163 HD
ATOM     26  O   UNL     1      -2.181   7.900   0.173  1.00  0.00    -0.269 OA
BRANCH  24  27
ATOM     27  C   UNL     1      -0.290   8.161  -1.198  1.00  0.00     0.039 A 
ATOM     28  C   UNL     1       0.420   9.025  -0.359  1.00  0.00     0.014 A 
ATOM     29  C   UNL     1       0.079   8.033  -2.538  1.00  0.00     0.014 A 
ATOM     30  C   UNL     1       1.543   9.695  -0.850  1.00  0.00     0.010 A 
ATOM     31  C   UNL     1       1.262   8.602  -2.988  1.00  0.00     0.010 A 
ATOM     32  C   UNL     1       1.999   9.454  -2.156  1.00  0.00    -0.014 A 
BRANCH  32  33
ATOM     33  C   UNL     1       3.221  10.102  -2.696  1.00  0.00     0.031 A 
ATOM     34  C   UNL     1       3.118  10.981  -3.916  1.00  0.00     0.074 A 
ATOM     35  C   UNL     1       4.422   9.844  -2.141  1.00  0.00     0.049 A 
ATOM     36  N   UNL     1       4.071  11.539  -4.615  1.00  0.00    -0.248 NA
ATOM     37  C   UNL     1       1.764  11.238  -4.441  1.00  0.00     0.031 C 
ATOM     38  C   UNL     1       4.654   8.976  -0.983  1.00  0.00     0.029 A 
ATOM     39  N   UNL     1       5.679  10.278  -2.483  1.00  0.00    -0.354 N 
ATOM     40  C   UNL     1       3.436  12.198  -5.662  1.00  0.00     0.074 A 
ATOM     41  C   UNL     1       2.024  11.913  -5.550  1.00  0.00     0.031 C 
ATOM     42  C   UNL     1       5.966   8.963  -0.697  1.00  0.00     0.029 A 
ATOM     43  C   UNL     1       6.676   9.779  -1.676  1.00  0.00     0.049 A 
ATOM     44  H   UNL     1       5.851  10.888  -3.236  1.00  0.00     0.167 HD
ATOM     45  C   UNL     1       3.976  12.997  -6.612  1.00  0.00     0.037 A 
ATOM     46  C   UNL     1       8.011   9.952  -1.729  1.00  0.00     0.037 A 
ATOM     47  C   UNL     1       5.379  13.302  -6.697  1.00  0.00     0.049 A 
ATOM     48  C   UNL     1       8.589  10.828  -2.811  1.00  0.00     0.074 A 
ATOM     49  C   UNL     1       6.025  14.131  -7.596  1.00  0.00     0.029 A 
ATOM     50  N   UNL     1       6.352  12.796  -5.847  1.00  0.00    -0.354 N 
ATOM     51  N   UNL     1       7.967  11.482  -3.763  1.00  0.00    -0.248 NA
ATOM     52  C   UNL     1      10.049  10.995  -2.822  1.00  0.00     0.031 C 
ATOM     53  C   UNL     1       7.394  14.093  -7.318  1.00  0.00     0.029 A 
ATOM     54  C   UNL     1       7.595  13.286  -6.210  1.00  0.00     0.049 A 
ATOM     55  H   UNL     1       6.183  12.181  -5.097  1.00  0.00     0.167 HD
ATOM     56  C   UNL     1       8.955  12.169  -4.460  1.00  0.00     0.074 A 
ATOM     57  C   UNL     1      10.213  11.858  -3.815  1.00  0.00     0.031 C 
ATOM     58  C   UNL     1       8.833  12.986  -5.535  1.00  0.00     0.037 A 
BRANCH  45  59
ATOM     59  C   UNL     1       3.048  13.617  -7.620  1.00  0.00     0.058 A 
ATOM     60  C   UNL     1       2.135  14.620  -7.256  1.00  0.00     0.135 A 
ATOM     61  C   UNL     1       3.108  13.248  -8.973  1.00  0.00     0.135 A 
ATOM     62  F   UNL     1       2.020  14.999  -5.973  1.00  0.00    -0.206 F 
ATOM     63  C   UNL     1       1.302  15.222  -8.194  1.00  0.00     0.059 A 
ATOM     64  C   UNL     1       2.306  13.858  -9.934  1.00  0.00     0.059 A 
ATOM     65  F   UNL     1       3.959  12.290  -9.376  1.00  0.00    -0.206 F 
ATOM     66  C   UNL     1       1.400  14.838  -9.532  1.00  0.00     0.060 A 
BRANCH  66  67
ATOM     67  S   UNL     1       0.335  15.655 -10.739  1.00  0.00     0.124 S 
ATOM     68  O   UNL     1      -0.972  15.107 -10.392  1.00  0.00    -0.237 OA
ATOM     69  O   UNL     1       0.535  17.066 -10.423  1.00  0.00    -0.237 OA
ATOM     70  O   UNL     1       0.877  15.219 -12.022  1.00  0.00    -0.744 OA
ENDBRANCH  66  67
ENDBRANCH  45  59
BRANCH  46  71
ATOM     71  C   UNL     1       8.898   9.298  -0.728  1.00  0.00     0.058 A 
ATOM     72  C   UNL     1       9.614  10.060   0.209  1.00  0.00     0.135 A 
ATOM     73  C   UNL     1       9.070   7.905  -0.701  1.00  0.00     0.135 A 
ATOM     74  F   UNL     1       9.486  11.396   0.224  1.00  0.00    -0.206 F 
ATOM     75  C   UNL     1      10.496   9.471   1.109  1.00  0.00     0.059 A 
ATOM     76  C   UNL     1       9.923   7.290   0.210  1.00  0.00     0.059 A 
ATOM     77  F   UNL     1       8.395   7.126  -1.561  1.00  0.00    -0.206 F 
ATOM     78  C   UNL     1      10.646   8.084   1.099  1.00  0.00     0.060 A 
BRANCH  78  79
ATOM     79  S   UNL     1      11.789   7.329   2.276  1.00  0.00     0.124 S 
ATOM     80  O   UNL     1      13.080   7.712   1.718  1.00  0.00    -0.237 OA
ATOM     81  O   UNL     1      11.414   7.980   3.527  1.00  0.00    -0.237 OA
ATOM     82  O   UNL     1      11.462   5.908   2.195  1.00  0.00    -0.744 OA
ENDBRANCH  78  79
ENDBRANCH  46  71
BRANCH  58  83
ATOM     83  C   UNL     1      10.079  13.653  -6.050  1.00  0.00     0.058 A 
ATOM     84  C   UNL     1      11.070  12.941  -6.740  1.00  0.00     0.135 A 
ATOM     85  C   UNL     1      10.245  15.041  -5.907  1.00  0.00     0.135 A 
ATOM     86  F   UNL     1      10.963  11.612  -6.899  1.00  0.00    -0.206 F 
ATOM     87  C   UNL     1      12.194  13.579  -7.255  1.00  0.00     0.059 A 
ATOM     88  C   UNL     1      11.344  15.703  -6.441  1.00  0.00     0.059 A 
ATOM     89  F   UNL     1       9.319  15.770  -5.263  1.00  0.00    -0.206 F 
ATOM     90  C   UNL     1      12.319  14.961  -7.106  1.00  0.00     0.060 A 
BRANCH  90  91
ATOM     91  S   UNL     1      13.758  15.781  -7.823  1.00  0.00     0.124 S 
ATOM     92  O   UNL     1      14.822  15.350  -6.922  1.00  0.00    -0.237 OA
ATOM     93  O   UNL     1      13.799  15.218  -9.168  1.00  0.00    -0.237 OA
ATOM     94  O   UNL     1      13.413  17.198  -7.753  1.00  0.00    -0.744 OA
ENDBRANCH  90  91
ENDBRANCH  58  83
ENDBRANCH  32  33
ENDBRANCH  24  27
ENDBRANCH   1  23
TORSDOF 14
