REMARK SMILES O=C(Cc1csc(NC(=O)CS[C@@H]2CCS(=O)(=O)C2)n1)NCCCNC(=O)c1ccc(-c2c3nc(c(-c4c(F)cc(S(=O)(=O)[O-])cc4F)c4ccc([nH]4)c(-c4c(F)cc(S(=O)(=O)[O-])cc4F)c4nc(c(-c5c(F)cc(S(=O)(=O)[O-])cc5F)c5ccc2[nH]5)C=C4)C=C3)cc1
REMARK SMILES IDX 22 1 21 2 1 3 2 4 3 6 4 7 5 8 20 9 6 10 7 11 8 12 9 13 10 15
REMARK SMILES IDX 11 16 12 17 13 18 14 19 19 20 15 21 16 22 17 23 18 24 23 25
REMARK SMILES IDX 24 26 25 27 26 28 27 30 28 31 29 32 93 33 30 34 92 35 31 36
REMARK SMILES IDX 32 37 33 38 86 39 34 40 91 41 85 42 87 43 35 44 90 45 84 46
REMARK SMILES IDX 83 47 36 49 70 50 49 51 69 52 50 53 53 54 68 55 88 56 51 57
REMARK SMILES IDX 52 58 67 60 89 61 54 62 37 63 38 64 47 65 39 66 40 67 46 68
REMARK SMILES IDX 48 69 41 70 42 71 43 72 44 73 45 74 71 75 72 76 81 77 73 78
REMARK SMILES IDX 74 79 80 80 82 81 75 82 76 83 77 84 78 85 79 86 55 87 56 88
REMARK SMILES IDX 65 89 57 90 58 91 64 92 66 93 59 94 60 95 61 96 62 97 63 98
REMARK H PARENT 21 5 8 14 25 29 87 48 53 59
REMARK Flexibility Score: inf
ROOT
ATOM      1  C   UNL     1       2.100   1.800   1.760  1.00  0.00     0.117 C 
ENDROOT
BRANCH   1   2
ATOM      2  N   UNL     1       2.756   0.941   0.798  1.00  0.00    -0.356 N 
ATOM      3  O   UNL     1       0.880  -0.219   0.146  1.00  0.00    -0.275 OA
ATOM      4  C   UNL     1       2.084   0.002   0.044  1.00  0.00     0.226 C 
ATOM      5  H   UNL     1       3.729   1.032   0.676  1.00  0.00     0.163 HD
BRANCH   4   6
ATOM      6  C   UNL     1       2.975  -0.807  -0.881  1.00  0.00     0.157 C 
BRANCH   6   7
ATOM      7  C   UNL     1       3.542  -0.016  -2.017  1.00  0.00     0.063 A 
ATOM      8  C   UNL     1       4.094  -0.550  -3.167  1.00  0.00     0.093 A 
ATOM      9  N   UNL     1       3.598   1.370  -1.958  1.00  0.00    -0.224 NA
ATOM     10  S   UNL     1       4.530   0.710  -4.236  1.00  0.00    -0.105 S 
ATOM     11  C   UNL     1       4.178   1.854  -3.031  1.00  0.00     0.189 A 
BRANCH  11  12
ATOM     12  N   UNL     1       4.390   3.199  -3.154  1.00  0.00    -0.301 N 
ATOM     13  C   UNL     1       5.215   3.946  -3.932  1.00  0.00     0.236 C 
ATOM     14  H   UNL     1       3.828   3.739  -2.553  1.00  0.00     0.172 HD
ATOM     15  O   UNL     1       5.147   5.178  -3.809  1.00  0.00    -0.274 OA
BRANCH  13  16
ATOM     16  C   UNL     1       6.218   3.374  -4.909  1.00  0.00     0.170 C 
BRANCH  16  17
ATOM     17  S   UNL     1       7.495   2.353  -4.109  1.00  0.00    -0.148 SA
BRANCH  17  18
ATOM     18  C   UNL     1       8.498   3.580  -3.186  1.00  0.00     0.063 C 
ATOM     19  C   UNL     1       9.292   4.515  -4.105  1.00  0.00     0.031 C 
ATOM     20  C   UNL     1       9.567   2.820  -2.387  1.00  0.00     0.151 C 
ATOM     21  C   UNL     1      10.365   3.672  -4.791  1.00  0.00     0.138 C 
ATOM     22  S   UNL     1      10.890   2.495  -3.552  1.00  0.00     0.151 S 
ATOM     23  O   UNL     1      10.744   1.157  -4.091  1.00  0.00    -0.229 OA
ATOM     24  O   UNL     1      12.137   2.958  -2.983  1.00  0.00    -0.229 OA
ENDBRANCH  17  18
ENDBRANCH  16  17
ENDBRANCH  13  16
ENDBRANCH  11  12
ENDBRANCH   6   7
ENDBRANCH   4   6
ENDBRANCH   1   2
BRANCH   1  25
ATOM     25  C   UNL     1       2.445   1.431   3.197  1.00  0.00     0.042 C 
BRANCH  25  26
ATOM     26  C   UNL     1       3.930   1.514   3.538  1.00  0.00     0.118 C 
BRANCH  26  27
ATOM     27  N   UNL     1       4.477   2.856   3.403  1.00  0.00    -0.352 N 
ATOM     28  C   UNL     1       5.189   3.623   4.292  1.00  0.00     0.251 C 
ATOM     29  H   UNL     1       4.310   3.284   2.532  1.00  0.00     0.163 HD
ATOM     30  O   UNL     1       5.432   4.793   4.003  1.00  0.00    -0.269 OA
BRANCH  28  31
ATOM     31  C   UNL     1       5.643   3.074   5.592  1.00  0.00     0.039 A 
ATOM     32  C   UNL     1       5.583   3.898   6.720  1.00  0.00     0.014 A 
ATOM     33  C   UNL     1       6.159   1.781   5.710  1.00  0.00     0.014 A 
ATOM     34  C   UNL     1       5.987   3.409   7.965  1.00  0.00     0.010 A 
ATOM     35  C   UNL     1       6.481   1.266   6.966  1.00  0.00     0.010 A 
ATOM     36  C   UNL     1       6.407   2.075   8.109  1.00  0.00    -0.014 A 
BRANCH  36  37
ATOM     37  C   UNL     1       6.758   1.532   9.450  1.00  0.00     0.031 A 
ATOM     38  C   UNL     1       8.153   1.043   9.746  1.00  0.00     0.074 A 
ATOM     39  C   UNL     1       5.806   1.455  10.402  1.00  0.00     0.049 A 
ATOM     40  N   UNL     1       8.639   0.562  10.862  1.00  0.00    -0.248 NA
ATOM     41  C   UNL     1       9.122   1.077   8.640  1.00  0.00     0.031 C 
ATOM     42  C   UNL     1       4.402   1.836  10.225  1.00  0.00     0.029 A 
ATOM     43  N   UNL     1       5.870   1.036  11.708  1.00  0.00    -0.354 N 
ATOM     44  C   UNL     1       9.963   0.234  10.594  1.00  0.00     0.074 A 
ATOM     45  C   UNL     1      10.187   0.512   9.192  1.00  0.00     0.031 C 
ATOM     46  C   UNL     1       3.750   1.672  11.387  1.00  0.00     0.029 A 
ATOM     47  C   UNL     1       4.675   1.139  12.382  1.00  0.00     0.049 A 
ATOM     48  H   UNL     1       6.694   0.693  12.124  1.00  0.00     0.167 HD
ATOM     49  C   UNL     1      10.914  -0.229  11.441  1.00  0.00     0.037 A 
ATOM     50  C   UNL     1       4.356   0.840  13.657  1.00  0.00     0.037 A 
ATOM     51  C   UNL     1      10.690  -0.492  12.841  1.00  0.00     0.049 A 
ATOM     52  C   UNL     1       5.430   0.329  14.579  1.00  0.00     0.074 A 
ATOM     53  C   UNL     1      11.601  -0.912  13.794  1.00  0.00     0.029 A 
ATOM     54  N   UNL     1       9.468  -0.369  13.487  1.00  0.00    -0.354 N 
ATOM     55  N   UNL     1       6.697   0.098  14.325  1.00  0.00    -0.248 NA
ATOM     56  C   UNL     1       5.035   0.050  15.966  1.00  0.00     0.031 C 
ATOM     57  C   UNL     1      10.920  -1.096  15.002  1.00  0.00     0.029 A 
ATOM     58  C   UNL     1       9.597  -0.728  14.820  1.00  0.00     0.049 A 
ATOM     59  H   UNL     1       8.632  -0.070  13.062  1.00  0.00     0.167 HD
ATOM     60  C   UNL     1       7.255  -0.325  15.527  1.00  0.00     0.074 A 
ATOM     61  C   UNL     1       6.192  -0.298  16.511  1.00  0.00     0.031 C 
ATOM     62  C   UNL     1       8.531  -0.701  15.792  1.00  0.00     0.037 A 
BRANCH  49  63
ATOM     63  C   UNL     1      12.291  -0.480  10.882  1.00  0.00     0.058 A 
ATOM     64  C   UNL     1      13.121   0.573  10.461  1.00  0.00     0.135 A 
ATOM     65  C   UNL     1      12.806  -1.784  10.806  1.00  0.00     0.135 A 
ATOM     66  F   UNL     1      12.678   1.840  10.497  1.00  0.00    -0.206 F 
ATOM     67  C   UNL     1      14.397   0.339   9.958  1.00  0.00     0.059 A 
ATOM     68  C   UNL     1      14.093  -2.039  10.337  1.00  0.00     0.059 A 
ATOM     69  F   UNL     1      12.060  -2.830  11.195  1.00  0.00    -0.206 F 
ATOM     70  C   UNL     1      14.875  -0.971   9.902  1.00  0.00     0.060 A 
BRANCH  70  71
ATOM     71  S   UNL     1      16.537  -1.253   9.256  1.00  0.00     0.124 S 
ATOM     72  O   UNL     1      16.349  -0.971   7.836  1.00  0.00    -0.237 OA
ATOM     73  O   UNL     1      17.329  -0.276   9.996  1.00  0.00    -0.237 OA
ATOM     74  O   UNL     1      16.799  -2.650   9.588  1.00  0.00    -0.744 OA
ENDBRANCH  70  71
ENDBRANCH  49  63
BRANCH  50  75
ATOM     75  C   UNL     1       2.965   1.045  14.145  1.00  0.00     0.058 A 
ATOM     76  C   UNL     1       2.664   2.042  15.085  1.00  0.00     0.135 A 
ATOM     77  C   UNL     1       1.906   0.252  13.675  1.00  0.00     0.135 A 
ATOM     78  F   UNL     1       3.642   2.823  15.569  1.00  0.00    -0.206 F 
ATOM     79  C   UNL     1       1.371   2.232  15.559  1.00  0.00     0.059 A 
ATOM     80  C   UNL     1       0.598   0.443  14.111  1.00  0.00     0.059 A 
ATOM     81  F   UNL     1       2.135  -0.705  12.762  1.00  0.00    -0.206 F 
ATOM     82  C   UNL     1       0.343   1.429  15.063  1.00  0.00     0.060 A 
BRANCH  82  83
ATOM     83  S   UNL     1      -1.340   1.714  15.653  1.00  0.00     0.124 S 
ATOM     84  O   UNL     1      -1.264   1.205  17.017  1.00  0.00    -0.237 OA
ATOM     85  O   UNL     1      -1.470   3.161  15.516  1.00  0.00    -0.237 OA
ATOM     86  O   UNL     1      -2.156   0.929  14.730  1.00  0.00    -0.744 OA
ENDBRANCH  82  83
ENDBRANCH  50  75
BRANCH  62  87
ATOM     87  C   UNL     1       8.858  -1.077  17.213  1.00  0.00     0.058 A 
ATOM     88  C   UNL     1       8.357  -2.247  17.807  1.00  0.00     0.135 A 
ATOM     89  C   UNL     1       9.700  -0.261  17.988  1.00  0.00     0.135 A 
ATOM     90  F   UNL     1       7.546  -3.063  17.114  1.00  0.00    -0.206 F 
ATOM     91  C   UNL     1       8.640  -2.571  19.130  1.00  0.00     0.059 A 
ATOM     92  C   UNL     1      10.025  -0.584  19.302  1.00  0.00     0.059 A 
ATOM     93  F   UNL     1      10.220   0.862  17.468  1.00  0.00    -0.206 F 
ATOM     94  C   UNL     1       9.473  -1.730  19.871  1.00  0.00     0.060 A 
BRANCH  94  95
ATOM     95  S   UNL     1       9.830  -2.159  21.588  1.00  0.00     0.124 S 
ATOM     96  O   UNL     1       8.560  -1.852  22.238  1.00  0.00    -0.237 OA
ATOM     97  O   UNL     1      10.167  -3.576  21.492  1.00  0.00    -0.237 OA
ATOM     98  O   UNL     1      10.942  -1.279  21.935  1.00  0.00    -0.744 OA
ENDBRANCH  94  95
ENDBRANCH  62  87
ENDBRANCH  36  37
ENDBRANCH  28  31
ENDBRANCH  26  27
ENDBRANCH  25  26
ENDBRANCH   1  25
TORSDOF 18
