REMARK SMILES O=C(NCCCNC(=O)c1cccc(CSc2nc(-c3ccccc3)n[nH]2)c1)c1ccc(-c2c3nc(c(-c4c(F)cc(S(=O)(=O)[O-])cc4F)c4ccc([nH]4)c(-c4c(F)cc(S(=O)(=O)[O-])cc4F)c4nc(c(-c5c(F)cc(S(=O)(=O)[O-])cc5F)c5ccc2[nH]5)C=C4)C=C3)cc1
REMARK SMILES IDX 5 1 4 2 3 3 1 4 2 5 29 7 30 8 94 9 31 10 93 11 32 12 33 13
REMARK SMILES IDX 34 14 87 15 35 16 92 17 86 18 88 19 36 20 91 21 85 22 84 23
REMARK SMILES IDX 37 25 71 26 50 27 70 28 51 29 54 30 69 31 89 32 52 33 53 34
REMARK SMILES IDX 68 36 90 37 55 38 38 39 39 40 48 41 40 42 41 43 47 44 49 45
REMARK SMILES IDX 42 46 43 47 44 48 45 49 46 50 72 51 73 52 82 53 74 54 75 55
REMARK SMILES IDX 81 56 83 57 76 58 77 59 78 60 79 61 80 62 56 63 57 64 66 65
REMARK SMILES IDX 58 66 59 67 65 68 67 69 60 70 61 71 62 72 63 73 64 74 6 75
REMARK SMILES IDX 7 76 8 77 9 79 10 80 11 81 28 82 12 83 14 84 13 85 15 86
REMARK SMILES IDX 16 87 17 88 18 89 27 90 19 91 26 92 20 94 21 95 25 96 22 97
REMARK SMILES IDX 24 98 23 99
REMARK H PARENT 3 6 88 24 54 35 7 78 27 93
REMARK Flexibility Score: inf
ROOT
ATOM      1  C   UNL     1       4.985  -1.766   1.781  1.00  0.00     0.042 C 
ENDROOT
BRANCH   1   2
ATOM      2  C   UNL     1       4.613  -1.312   0.378  1.00  0.00     0.118 C 
BRANCH   2   3
ATOM      3  N   UNL     1       3.176  -1.139   0.202  1.00  0.00    -0.352 N 
ATOM      4  O   UNL     1       1.211  -0.058   0.045  1.00  0.00    -0.269 OA
ATOM      5  C   UNL     1       2.438  -0.001  -0.016  1.00  0.00     0.251 C 
ATOM      6  H   UNL     1       2.652  -1.971   0.246  1.00  0.00     0.163 HD
BRANCH   5   7
ATOM      7  C   UNL     1       3.106   1.288  -0.297  1.00  0.00     0.039 A 
ATOM      8  C   UNL     1       4.213   1.353  -1.145  1.00  0.00     0.014 A 
ATOM      9  C   UNL     1       2.601   2.458   0.278  1.00  0.00     0.014 A 
ATOM     10  C   UNL     1       4.912   2.547  -1.283  1.00  0.00     0.010 A 
ATOM     11  C   UNL     1       3.247   3.679   0.055  1.00  0.00     0.010 A 
ATOM     12  C   UNL     1       4.429   3.727  -0.699  1.00  0.00    -0.014 A 
BRANCH  12  13
ATOM     13  C   UNL     1       5.145   5.006  -0.940  1.00  0.00     0.031 A 
ATOM     14  C   UNL     1       5.778   5.769   0.191  1.00  0.00     0.074 A 
ATOM     15  C   UNL     1       5.241   5.465  -2.204  1.00  0.00     0.049 A 
ATOM     16  N   UNL     1       6.436   6.900   0.153  1.00  0.00    -0.248 NA
ATOM     17  C   UNL     1       5.650   5.196   1.540  1.00  0.00     0.031 C 
ATOM     18  C   UNL     1       4.658   4.815  -3.382  1.00  0.00     0.029 A 
ATOM     19  N   UNL     1       5.870   6.570  -2.715  1.00  0.00    -0.354 N 
ATOM     20  C   UNL     1       6.782   7.186   1.469  1.00  0.00     0.074 A 
ATOM     21  C   UNL     1       6.240   6.121   2.286  1.00  0.00     0.031 C 
ATOM     22  C   UNL     1       4.991   5.508  -4.479  1.00  0.00     0.029 A 
ATOM     23  C   UNL     1       5.754   6.685  -4.080  1.00  0.00     0.049 A 
ATOM     24  H   UNL     1       6.357   7.219  -2.158  1.00  0.00     0.167 HD
ATOM     25  C   UNL     1       7.493   8.236   1.948  1.00  0.00     0.037 A 
ATOM     26  C   UNL     1       6.194   7.641  -4.920  1.00  0.00     0.037 A 
ATOM     27  C   UNL     1       8.042   9.284   1.123  1.00  0.00     0.049 A 
ATOM     28  C   UNL     1       6.963   8.802  -4.363  1.00  0.00     0.074 A 
ATOM     29  C   UNL     1       8.803  10.374   1.509  1.00  0.00     0.029 A 
ATOM     30  N   UNL     1       7.886   9.375  -0.253  1.00  0.00    -0.354 N 
ATOM     31  N   UNL     1       7.301   9.043  -3.118  1.00  0.00    -0.248 NA
ATOM     32  C   UNL     1       7.408   9.823  -5.319  1.00  0.00     0.031 C 
ATOM     33  C   UNL     1       9.072  11.145   0.373  1.00  0.00     0.029 A 
ATOM     34  C   UNL     1       8.520  10.512  -0.729  1.00  0.00     0.049 A 
ATOM     35  H   UNL     1       7.397   8.727  -0.810  1.00  0.00     0.167 HD
ATOM     36  C   UNL     1       8.012  10.236  -3.143  1.00  0.00     0.074 A 
ATOM     37  C   UNL     1       8.069  10.659  -4.529  1.00  0.00     0.031 C 
ATOM     38  C   UNL     1       8.566  10.919  -2.112  1.00  0.00     0.037 A 
BRANCH  25  39
ATOM     39  C   UNL     1       7.702   8.319   3.436  1.00  0.00     0.058 A 
ATOM     40  C   UNL     1       8.575   7.450   4.110  1.00  0.00     0.135 A 
ATOM     41  C   UNL     1       7.048   9.304   4.194  1.00  0.00     0.135 A 
ATOM     42  F   UNL     1       9.217   6.481   3.438  1.00  0.00    -0.206 F 
ATOM     43  C   UNL     1       8.768   7.535   5.486  1.00  0.00     0.059 A 
ATOM     44  C   UNL     1       7.245   9.424   5.567  1.00  0.00     0.059 A 
ATOM     45  F   UNL     1       6.204  10.163   3.600  1.00  0.00    -0.206 F 
ATOM     46  C   UNL     1       8.095   8.524   6.207  1.00  0.00     0.060 A 
BRANCH  46  47
ATOM     47  S   UNL     1       8.348   8.615   7.992  1.00  0.00     0.124 S 
ATOM     48  O   UNL     1       7.582   7.460   8.453  1.00  0.00    -0.237 OA
ATOM     49  O   UNL     1       9.798   8.499   8.110  1.00  0.00    -0.237 OA
ATOM     50  O   UNL     1       7.795   9.917   8.348  1.00  0.00    -0.744 OA
ENDBRANCH  46  47
ENDBRANCH  25  39
BRANCH  26  51
ATOM     51  C   UNL     1       5.904   7.528  -6.373  1.00  0.00     0.058 A 
ATOM     52  C   UNL     1       6.920   7.234  -7.292  1.00  0.00     0.135 A 
ATOM     53  C   UNL     1       4.596   7.667  -6.863  1.00  0.00     0.135 A 
ATOM     54  F   UNL     1       8.187   7.096  -6.871  1.00  0.00    -0.206 F 
ATOM     55  C   UNL     1       6.652   7.086  -8.649  1.00  0.00     0.059 A 
ATOM     56  C   UNL     1       4.298   7.498  -8.210  1.00  0.00     0.059 A 
ATOM     57  F   UNL     1       3.586   7.930  -6.019  1.00  0.00    -0.206 F 
ATOM     58  C   UNL     1       5.336   7.215  -9.097  1.00  0.00     0.060 A 
BRANCH  58  59
ATOM     59  S   UNL     1       4.987   6.956 -10.850  1.00  0.00     0.124 S 
ATOM     60  O   UNL     1       5.492   8.192 -11.435  1.00  0.00    -0.237 OA
ATOM     61  O   UNL     1       5.755   5.750 -11.142  1.00  0.00    -0.237 OA
ATOM     62  O   UNL     1       3.537   6.788 -10.881  1.00  0.00    -0.744 OA
ENDBRANCH  58  59
ENDBRANCH  26  51
BRANCH  38  63
ATOM     63  C   UNL     1       9.306  12.183  -2.446  1.00  0.00     0.058 A 
ATOM     64  C   UNL     1       8.630  13.360  -2.804  1.00  0.00     0.135 A 
ATOM     65  C   UNL     1      10.707  12.228  -2.369  1.00  0.00     0.135 A 
ATOM     66  F   UNL     1       7.291  13.366  -2.901  1.00  0.00    -0.206 F 
ATOM     67  C   UNL     1       9.318  14.533  -3.093  1.00  0.00     0.059 A 
ATOM     68  C   UNL     1      11.415  13.396  -2.630  1.00  0.00     0.059 A 
ATOM     69  F   UNL     1      11.401  11.131  -2.024  1.00  0.00    -0.206 F 
ATOM     70  C   UNL     1      10.712  14.541  -3.003  1.00  0.00     0.060 A 
BRANCH  70  71
ATOM     71  S   UNL     1      11.594  16.078  -3.349  1.00  0.00     0.124 S 
ATOM     72  O   UNL     1      11.517  16.139  -4.804  1.00  0.00    -0.237 OA
ATOM     73  O   UNL     1      10.796  17.066  -2.630  1.00  0.00    -0.237 OA
ATOM     74  O   UNL     1      12.924  15.837  -2.799  1.00  0.00    -0.744 OA
ENDBRANCH  70  71
ENDBRANCH  38  63
ENDBRANCH  12  13
ENDBRANCH   5   7
ENDBRANCH   2   3
ENDBRANCH   1   2
BRANCH   1  75
ATOM     75  C   UNL     1       4.456  -3.145   2.144  1.00  0.00     0.118 C 
BRANCH  75  76
ATOM     76  N   UNL     1       4.999  -4.194   1.290  1.00  0.00    -0.352 N 
ATOM     77  C   UNL     1       5.864  -5.216   1.594  1.00  0.00     0.251 C 
ATOM     78  H   UNL     1       4.700  -4.165   0.353  1.00  0.00     0.163 HD
ATOM     79  O   UNL     1       6.341  -5.906   0.698  1.00  0.00    -0.269 OA
BRANCH  77  80
ATOM     80  C   UNL     1       6.215  -5.494   3.001  1.00  0.00     0.040 A 
ATOM     81  C   UNL     1       7.549  -5.706   3.350  1.00  0.00     0.014 A 
ATOM     82  C   UNL     1       5.214  -5.589   3.969  1.00  0.00     0.018 A 
ATOM     83  C   UNL     1       7.881  -5.942   4.685  1.00  0.00     0.001 A 
ATOM     84  C   UNL     1       5.537  -5.793   5.315  1.00  0.00    -0.037 A 
ATOM     85  C   UNL     1       6.883  -5.966   5.665  1.00  0.00     0.004 A 
BRANCH  84  86
ATOM     86  C   UNL     1       4.432  -5.823   6.340  1.00  0.00     0.113 C 
BRANCH  86  87
ATOM     87  S   UNL     1       4.170  -7.451   7.087  1.00  0.00    -0.082 SA
BRANCH  87  88
ATOM     88  C   UNL     1       3.737  -8.412   5.729  1.00  0.00     0.184 A 
ATOM     89  N   UNL     1       3.389  -8.056   4.518  1.00  0.00    -0.201 NA
ATOM     90  N   UNL     1       3.745  -9.764   5.826  1.00  0.00    -0.254 N 
ATOM     91  C   UNL     1       3.196  -9.266   3.881  1.00  0.00     0.182 A 
ATOM     92  N   UNL     1       3.368 -10.339   4.675  1.00  0.00    -0.153 NA
ATOM     93  H   UNL     1       3.995 -10.261   6.638  1.00  0.00     0.192 HD
BRANCH  91  94
ATOM     94  C   UNL     1       2.844  -9.370   2.473  1.00  0.00     0.021 A 
ATOM     95  C   UNL     1       1.880 -10.298   2.055  1.00  0.00     0.012 A 
ATOM     96  C   UNL     1       3.487  -8.576   1.516  1.00  0.00     0.012 A 
ATOM     97  C   UNL     1       1.561 -10.428   0.701  1.00  0.00     0.001 A 
ATOM     98  C   UNL     1       3.178  -8.717   0.160  1.00  0.00     0.001 A 
ATOM     99  C   UNL     1       2.215  -9.641  -0.246  1.00  0.00     0.000 A 
ENDBRANCH  91  94
ENDBRANCH  87  88
ENDBRANCH  86  87
ENDBRANCH  84  86
ENDBRANCH  77  80
ENDBRANCH  75  76
ENDBRANCH   1  75
TORSDOF 17
