REMARK SMILES O=C(NCCCNC(=O)[C@@H]1C=C[C@@H](Nc2ccc3ccccc3n2)C1)c1ccc(-c2c3nc(c(-c4c(F)cc(S(=O)(=O)[O-])cc4F)c4ccc([nH]4)c(-c4c(F)cc(S(=O)(=O)[O-])cc4F)c4nc(c(-c5c(F)cc(S(=O)(=O)[O-])cc5F)c5ccc2[nH]5)C=C4)C=C3)cc1
REMARK SMILES IDX 4 1 3 2 1 3 2 4 26 6 27 7 91 8 28 9 90 10 29 11 30 12 31 13
REMARK SMILES IDX 84 14 32 15 89 16 83 17 85 18 33 19 88 20 82 21 81 22 34 24
REMARK SMILES IDX 68 25 47 26 67 27 48 28 51 29 66 30 86 31 49 32 50 33 65 35
REMARK SMILES IDX 87 36 52 37 35 38 36 39 45 40 37 41 38 42 44 43 46 44 39 45
REMARK SMILES IDX 40 46 41 47 42 48 43 49 69 50 70 51 79 52 71 53 72 54 78 55
REMARK SMILES IDX 80 56 73 57 74 58 75 59 76 60 77 61 53 62 54 63 63 64 55 65
REMARK SMILES IDX 56 66 62 67 64 68 57 69 58 70 59 71 60 72 61 73 5 74 6 75
REMARK SMILES IDX 7 76 8 77 9 79 10 80 11 81 25 82 12 83 13 84 14 85 15 87
REMARK SMILES IDX 16 88 24 89 17 90 23 91 18 92 22 93 19 94 21 95 20 96
REMARK H PARENT 3 5 85 23 51 34 7 78 14 86
REMARK Flexibility Score: inf
ROOT
ATOM      1  C   UNL     1       9.641  -6.407   6.751  1.00  0.00     0.118 C 
ENDROOT
BRANCH   1   2
ATOM      2  N   UNL     1      10.264  -5.502   7.708  1.00  0.00    -0.352 N 
ATOM      3  O   UNL     1      10.999  -4.795   9.711  1.00  0.00    -0.269 OA
ATOM      4  C   UNL     1      10.745  -5.748   8.967  1.00  0.00     0.251 C 
ATOM      5  H   UNL     1      10.352  -4.570   7.404  1.00  0.00     0.163 HD
BRANCH   4   6
ATOM      6  C   UNL     1      10.958  -7.131   9.441  1.00  0.00     0.039 A 
ATOM      7  C   UNL     1      11.502  -8.100   8.593  1.00  0.00     0.014 A 
ATOM      8  C   UNL     1      10.664  -7.454  10.769  1.00  0.00     0.014 A 
ATOM      9  C   UNL     1      11.626  -9.415   9.029  1.00  0.00     0.010 A 
ATOM     10  C   UNL     1      10.874  -8.756  11.232  1.00  0.00     0.010 A 
ATOM     11  C   UNL     1      11.335  -9.753  10.359  1.00  0.00    -0.014 A 
BRANCH  11  12
ATOM     12  C   UNL     1      11.582 -11.138  10.834  1.00  0.00     0.031 A 
ATOM     13  C   UNL     1      10.450 -12.008  11.304  1.00  0.00     0.074 A 
ATOM     14  C   UNL     1      12.845 -11.608  10.832  1.00  0.00     0.049 A 
ATOM     15  N   UNL     1      10.491 -13.229  11.773  1.00  0.00    -0.248 NA
ATOM     16  C   UNL     1       9.098 -11.432  11.249  1.00  0.00     0.031 C 
ATOM     17  C   UNL     1      14.024 -10.849  10.405  1.00  0.00     0.029 A 
ATOM     18  N   UNL     1      13.352 -12.830  11.191  1.00  0.00    -0.354 N 
ATOM     19  C   UNL     1       9.179 -13.562  12.087  1.00  0.00     0.074 A 
ATOM     20  C   UNL     1       8.368 -12.402  11.781  1.00  0.00     0.031 C 
ATOM     21  C   UNL     1      15.109 -11.631  10.495  1.00  0.00     0.029 A 
ATOM     22  C   UNL     1      14.716 -12.922  11.047  1.00  0.00     0.049 A 
ATOM     23  H   UNL     1      12.793 -13.570  11.520  1.00  0.00     0.167 HD
ATOM     24  C   UNL     1       8.698 -14.731  12.577  1.00  0.00     0.037 A 
ATOM     25  C   UNL     1      15.564 -13.924  11.348  1.00  0.00     0.037 A 
ATOM     26  C   UNL     1       9.518 -15.880  12.871  1.00  0.00     0.049 A 
ATOM     27  C   UNL     1      15.010 -15.197  11.919  1.00  0.00     0.074 A 
ATOM     28  C   UNL     1       9.124 -17.119  13.344  1.00  0.00     0.029 A 
ATOM     29  N   UNL     1      10.898 -15.929  12.727  1.00  0.00    -0.354 N 
ATOM     30  N   UNL     1      13.762 -15.505  12.183  1.00  0.00    -0.248 NA
ATOM     31  C   UNL     1      15.974 -16.259  12.233  1.00  0.00     0.031 C 
ATOM     32  C   UNL     1      10.270 -17.901  13.533  1.00  0.00     0.029 A 
ATOM     33  C   UNL     1      11.373 -17.169  13.123  1.00  0.00     0.049 A 
ATOM     34  H   UNL     1      11.457 -15.191  12.393  1.00  0.00     0.167 HD
ATOM     35  C   UNL     1      13.789 -16.804  12.675  1.00  0.00     0.074 A 
ATOM     36  C   UNL     1      15.175 -17.227  12.659  1.00  0.00     0.031 C 
ATOM     37  C   UNL     1      12.757 -17.576  13.098  1.00  0.00     0.037 A 
BRANCH  24  38
ATOM     38  C   UNL     1       7.220 -14.816  12.850  1.00  0.00     0.058 A 
ATOM     39  C   UNL     1       6.275 -14.851  11.811  1.00  0.00     0.135 A 
ATOM     40  C   UNL     1       6.741 -14.887  14.169  1.00  0.00     0.135 A 
ATOM     41  F   UNL     1       6.673 -14.776  10.531  1.00  0.00    -0.206 F 
ATOM     42  C   UNL     1       4.910 -14.912  12.071  1.00  0.00     0.059 A 
ATOM     43  C   UNL     1       5.380 -14.977  14.451  1.00  0.00     0.059 A 
ATOM     44  F   UNL     1       7.598 -14.863  15.201  1.00  0.00    -0.206 F 
ATOM     45  C   UNL     1       4.471 -14.967  13.395  1.00  0.00     0.060 A 
BRANCH  45  46
ATOM     46  S   UNL     1       2.695 -15.009  13.711  1.00  0.00     0.124 S 
ATOM     47  O   UNL     1       2.308 -13.643  13.368  1.00  0.00    -0.237 OA
ATOM     48  O   UNL     1       2.237 -16.044  12.789  1.00  0.00    -0.237 OA
ATOM     49  O   UNL     1       2.607 -15.350  15.127  1.00  0.00    -0.744 OA
ENDBRANCH  45  46
ENDBRANCH  24  38
BRANCH  25  50
ATOM     50  C   UNL     1      17.021 -13.746  11.114  1.00  0.00     0.058 A 
ATOM     51  C   UNL     1      17.681 -14.445  10.094  1.00  0.00     0.135 A 
ATOM     52  C   UNL     1      17.771 -12.837  11.877  1.00  0.00     0.135 A 
ATOM     53  F   UNL     1      17.007 -15.328   9.341  1.00  0.00    -0.206 F 
ATOM     54  C   UNL     1      19.035 -14.253   9.839  1.00  0.00     0.059 A 
ATOM     55  C   UNL     1      19.119 -12.607  11.624  1.00  0.00     0.059 A 
ATOM     56  F   UNL     1      17.181 -12.130  12.853  1.00  0.00    -0.206 F 
ATOM     57  C   UNL     1      19.744 -13.326  10.606  1.00  0.00     0.060 A 
BRANCH  57  58
ATOM     58  S   UNL     1      21.485 -13.038  10.224  1.00  0.00     0.124 S 
ATOM     59  O   UNL     1      22.102 -14.259  10.728  1.00  0.00    -0.237 OA
ATOM     60  O   UNL     1      21.459 -12.886   8.773  1.00  0.00    -0.237 OA
ATOM     61  O   UNL     1      21.795 -11.820  10.968  1.00  0.00    -0.744 OA
ENDBRANCH  57  58
ENDBRANCH  25  50
BRANCH  37  62
ATOM     62  C   UNL     1      13.083 -18.974  13.546  1.00  0.00     0.058 A 
ATOM     63  C   UNL     1      13.733 -19.230  14.763  1.00  0.00     0.135 A 
ATOM     64  C   UNL     1      12.692 -20.076  12.766  1.00  0.00     0.135 A 
ATOM     65  F   UNL     1      14.135 -18.212  15.541  1.00  0.00    -0.206 F 
ATOM     66  C   UNL     1      14.002 -20.528  15.183  1.00  0.00     0.059 A 
ATOM     67  C   UNL     1      12.927 -21.383  13.180  1.00  0.00     0.059 A 
ATOM     68  F   UNL     1      12.061 -19.886  11.597  1.00  0.00    -0.206 F 
ATOM     69  C   UNL     1      13.592 -21.599  14.386  1.00  0.00     0.060 A 
BRANCH  69  70
ATOM     70  S   UNL     1      13.912 -23.280  14.961  1.00  0.00     0.124 S 
ATOM     71  O   UNL     1      15.349 -23.398  14.740  1.00  0.00    -0.237 OA
ATOM     72  O   UNL     1      13.487 -23.218  16.356  1.00  0.00    -0.237 OA
ATOM     73  O   UNL     1      13.074 -24.101  14.093  1.00  0.00    -0.744 OA
ENDBRANCH  69  70
ENDBRANCH  37  62
ENDBRANCH  11  12
ENDBRANCH   4   6
ENDBRANCH   1   2
BRANCH   1  74
ATOM     74  C   UNL     1       8.161  -6.104   6.558  1.00  0.00     0.042 C 
BRANCH  74  75
ATOM     75  C   UNL     1       7.900  -4.770   5.868  1.00  0.00     0.117 C 
BRANCH  75  76
ATOM     76  N   UNL     1       8.248  -4.793   4.460  1.00  0.00    -0.356 N 
ATOM     77  C   UNL     1       7.488  -4.907   3.340  1.00  0.00     0.227 C 
ATOM     78  H   UNL     1       9.213  -4.710   4.284  1.00  0.00     0.163 HD
ATOM     79  O   UNL     1       8.081  -4.794   2.259  1.00  0.00    -0.274 OA
BRANCH  77  80
ATOM     80  C   UNL     1       5.980  -5.188   3.349  1.00  0.00     0.103 C 
ATOM     81  C   UNL     1       5.106  -4.188   4.040  1.00  0.00    -0.016 C 
ATOM     82  C   UNL     1       5.577  -6.522   3.980  1.00  0.00     0.046 C 
ATOM     83  C   UNL     1       4.413  -4.747   5.041  1.00  0.00    -0.006 C 
ATOM     84  C   UNL     1       4.787  -6.178   5.253  1.00  0.00     0.104 C 
BRANCH  84  85
ATOM     85  N   UNL     1       3.621  -7.006   5.349  1.00  0.00    -0.364 N 
ATOM     86  H   UNL     1       3.004  -7.084   4.586  1.00  0.00     0.162 HD
BRANCH  85  87
ATOM     87  C   UNL     1       3.369  -7.694   6.520  1.00  0.00     0.127 A 
ATOM     88  C   UNL     1       2.925  -9.006   6.436  1.00  0.00     0.047 A 
ATOM     89  N   UNL     1       3.636  -7.108   7.706  1.00  0.00    -0.231 NA
ATOM     90  C   UNL     1       2.755  -9.746   7.601  1.00  0.00     0.014 A 
ATOM     91  C   UNL     1       3.428  -7.805   8.843  1.00  0.00     0.073 A 
ATOM     92  C   UNL     1       2.997  -9.147   8.837  1.00  0.00     0.000 A 
ATOM     93  C   UNL     1       3.636  -7.198  10.077  1.00  0.00     0.029 A 
ATOM     94  C   UNL     1       2.817  -9.847  10.043  1.00  0.00     0.010 A 
ATOM     95  C   UNL     1       3.438  -7.884  11.281  1.00  0.00     0.002 A 
ATOM     96  C   UNL     1       3.035  -9.214  11.263  1.00  0.00     0.001 A 
ENDBRANCH  85  87
ENDBRANCH  84  85
ENDBRANCH  77  80
ENDBRANCH  75  76
ENDBRANCH  74  75
ENDBRANCH   1  74
TORSDOF 15
