REMARK SMILES CCc1cc(/C=C/C(=O)NCCCNC(=O)c2ccc(-c3c4nc(c(-c5c(F)cc(S(=O)(=O)[O-])cc5F)c5ccc([nH]5)c(-c5c(F)cc(S(=O)(=O)[O-])cc5F)c5nc(c(-c6c(F)cc(S(=O)(=O)[O-])cc6F)c6ccc3[nH]6)C=C5)C=C4)cc2)cc(C(=O)c2ccccc2)c1
REMARK SMILES IDX 12 1 11 2 10 3 8 4 9 5 7 7 6 8 5 9 3 10 4 11 93 12 84 13
REMARK SMILES IDX 83 14 2 15 1 16 85 17 86 18 87 19 88 20 92 21 89 22 91 23
REMARK SMILES IDX 90 24 13 25 14 26 15 27 16 29 17 30 18 31 82 32 19 33 81 34
REMARK SMILES IDX 20 35 21 36 22 37 75 38 23 39 80 40 74 41 76 42 24 43 79 44
REMARK SMILES IDX 73 45 72 46 25 48 59 49 38 50 58 51 39 52 42 53 57 54 77 55
REMARK SMILES IDX 40 56 41 57 56 59 78 60 43 61 26 62 27 63 36 64 28 65 29 66
REMARK SMILES IDX 35 67 37 68 30 69 31 70 32 71 33 72 34 73 60 74 61 75 70 76
REMARK SMILES IDX 62 77 63 78 69 79 71 80 64 81 65 82 66 83 67 84 68 85 44 86
REMARK SMILES IDX 45 87 54 88 46 89 47 90 53 91 55 92 48 93 49 94 50 95 51 96
REMARK SMILES IDX 52 97
REMARK H PARENT 10 6 14 28 76 47 42 58
REMARK Flexibility Score: inf
ROOT
ATOM      1  C   UNL     1      -0.299  -7.402   5.588  1.00  0.00     0.042 C 
ENDROOT
BRANCH   1   2
ATOM      2  C   UNL     1       0.740  -7.728   4.517  1.00  0.00     0.118 C 
BRANCH   2   3
ATOM      3  N   UNL     1       0.120  -8.132   3.267  1.00  0.00    -0.352 N 
ATOM      4  C   UNL     1       0.020  -7.484   2.077  1.00  0.00     0.244 C 
ATOM      5  O   UNL     1      -0.426  -8.079   1.098  1.00  0.00    -0.270 OA
ATOM      6  H   UNL     1      -0.297  -9.024   3.285  1.00  0.00     0.163 HD
BRANCH   4   7
ATOM      7  C   UNL     1       0.510  -6.098   1.909  1.00  0.00     0.072 C 
ATOM      8  C   UNL     1       0.285  -5.098   2.774  1.00  0.00     0.014 C 
BRANCH   8   9
ATOM      9  C   UNL     1       0.708  -3.710   2.559  1.00  0.00    -0.024 A 
ATOM     10  C   UNL     1       0.898  -1.730   1.130  1.00  0.00    -0.047 A 
ATOM     11  C   UNL     1       0.565  -3.082   1.314  1.00  0.00     0.011 A 
ATOM     12  C   UNL     1       1.388  -1.011   2.227  1.00  0.00     0.016 A 
ATOM     13  C   UNL     1       1.498  -1.612   3.489  1.00  0.00     0.023 A 
ATOM     14  C   UNL     1       1.171  -2.963   3.647  1.00  0.00     0.020 A 
BRANCH  10  15
ATOM     15  C   UNL     1       0.660  -1.116  -0.231  1.00  0.00     0.032 C 
ATOM     16  C   UNL     1       1.074   0.339  -0.412  1.00  0.00     0.009 C 
ENDBRANCH  10  15
BRANCH  13  17
ATOM     17  C   UNL     1       1.982  -0.850   4.675  1.00  0.00     0.193 C 
ATOM     18  O   UNL     1       2.526  -1.446   5.601  1.00  0.00    -0.289 OA
BRANCH  17  19
ATOM     19  C   UNL     1       1.861   0.627   4.735  1.00  0.00     0.022 A 
ATOM     20  C   UNL     1       2.963   1.369   5.170  1.00  0.00     0.012 A 
ATOM     21  C   UNL     1       0.682   1.280   4.353  1.00  0.00     0.012 A 
ATOM     22  C   UNL     1       2.907   2.763   5.167  1.00  0.00     0.001 A 
ATOM     23  C   UNL     1       0.632   2.675   4.349  1.00  0.00     0.001 A 
ATOM     24  C   UNL     1       1.747   3.414   4.746  1.00  0.00     0.000 A 
ENDBRANCH  17  19
ENDBRANCH  13  17
ENDBRANCH   8   9
ENDBRANCH   4   7
ENDBRANCH   2   3
ENDBRANCH   1   2
BRANCH   1  25
ATOM     25  C   UNL     1      -1.011  -8.631   6.148  1.00  0.00     0.118 C 
BRANCH  25  26
ATOM     26  N   UNL     1      -0.109  -9.491   6.900  1.00  0.00    -0.352 N 
ATOM     27  C   UNL     1      -0.160  -9.897   8.210  1.00  0.00     0.251 C 
ATOM     28  H   UNL     1       0.658  -9.835   6.388  1.00  0.00     0.163 HD
ATOM     29  O   UNL     1       0.826 -10.433   8.709  1.00  0.00    -0.269 OA
BRANCH  27  30
ATOM     30  C   UNL     1      -1.382  -9.694   9.020  1.00  0.00     0.039 A 
ATOM     31  C   UNL     1      -1.246  -9.322  10.361  1.00  0.00     0.014 A 
ATOM     32  C   UNL     1      -2.653  -9.924   8.485  1.00  0.00     0.014 A 
ATOM     33  C   UNL     1      -2.384  -9.137  11.150  1.00  0.00     0.010 A 
ATOM     34  C   UNL     1      -3.787  -9.673   9.254  1.00  0.00     0.010 A 
ATOM     35  C   UNL     1      -3.665  -9.286  10.596  1.00  0.00    -0.014 A 
BRANCH  35  36
ATOM     36  C   UNL     1      -4.887  -9.050  11.407  1.00  0.00     0.031 A 
ATOM     37  C   UNL     1      -5.838 -10.182  11.689  1.00  0.00     0.074 A 
ATOM     38  C   UNL     1      -5.170  -7.804  11.834  1.00  0.00     0.049 A 
ATOM     39  N   UNL     1      -6.990 -10.159  12.307  1.00  0.00    -0.248 NA
ATOM     40  C   UNL     1      -5.455 -11.512  11.187  1.00  0.00     0.031 C 
ATOM     41  C   UNL     1      -4.347  -6.618  11.584  1.00  0.00     0.029 A 
ATOM     42  N   UNL     1      -6.232  -7.323  12.557  1.00  0.00    -0.354 N 
ATOM     43  C   UNL     1      -7.477 -11.460  12.255  1.00  0.00     0.074 A 
ATOM     44  C   UNL     1      -6.517 -12.238  11.502  1.00  0.00     0.031 C 
ATOM     45  C   UNL     1      -4.926  -5.552  12.160  1.00  0.00     0.029 A 
ATOM     46  C   UNL     1      -6.176  -5.969  12.787  1.00  0.00     0.049 A 
ATOM     47  H   UNL     1      -6.966  -7.894  12.880  1.00  0.00     0.167 HD
ATOM     48  C   UNL     1      -8.608 -11.965  12.804  1.00  0.00     0.037 A 
ATOM     49  C   UNL     1      -7.037  -5.153  13.425  1.00  0.00     0.037 A 
ATOM     50  C   UNL     1      -9.544 -11.188  13.575  1.00  0.00     0.049 A 
ATOM     51  C   UNL     1      -8.284  -5.738  14.032  1.00  0.00     0.074 A 
ATOM     52  C   UNL     1     -10.693 -11.614  14.219  1.00  0.00     0.029 A 
ATOM     53  N   UNL     1      -9.438  -9.824  13.809  1.00  0.00    -0.354 N 
ATOM     54  N   UNL     1      -8.701  -6.981  14.019  1.00  0.00    -0.248 NA
ATOM     55  C   UNL     1      -9.173  -4.811  14.746  1.00  0.00     0.031 C 
ATOM     56  C   UNL     1     -11.301 -10.501  14.810  1.00  0.00     0.029 A 
ATOM     57  C   UNL     1     -10.508  -9.389  14.574  1.00  0.00     0.049 A 
ATOM     58  H   UNL     1      -8.709  -9.250  13.479  1.00  0.00     0.167 HD
ATOM     59  C   UNL     1      -9.888  -6.992  14.743  1.00  0.00     0.074 A 
ATOM     60  C   UNL     1     -10.114  -5.632  15.191  1.00  0.00     0.031 C 
ATOM     61  C   UNL     1     -10.714  -8.032  15.015  1.00  0.00     0.037 A 
BRANCH  48  62
ATOM     62  C   UNL     1      -8.893 -13.427  12.594  1.00  0.00     0.058 A 
ATOM     63  C   UNL     1      -8.127 -14.424  13.219  1.00  0.00     0.135 A 
ATOM     64  C   UNL     1      -9.963 -13.839  11.782  1.00  0.00     0.135 A 
ATOM     65  F   UNL     1      -7.084 -14.088  13.994  1.00  0.00    -0.206 F 
ATOM     66  C   UNL     1      -8.390 -15.776  13.023  1.00  0.00     0.059 A 
ATOM     67  C   UNL     1     -10.262 -15.186  11.594  1.00  0.00     0.059 A 
ATOM     68  F   UNL     1     -10.730 -12.930  11.161  1.00  0.00    -0.206 F 
ATOM     69  C   UNL     1      -9.459 -16.148  12.206  1.00  0.00     0.060 A 
BRANCH  69  70
ATOM     70  S   UNL     1      -9.787 -17.906  11.961  1.00  0.00     0.124 S 
ATOM     71  O   UNL     1      -8.696 -18.284  11.068  1.00  0.00    -0.237 OA
ATOM     72  O   UNL     1      -9.703 -18.432  13.320  1.00  0.00    -0.237 OA
ATOM     73  O   UNL     1     -11.120 -17.924  11.366  1.00  0.00    -0.744 OA
ENDBRANCH  69  70
ENDBRANCH  48  62
BRANCH  49  74
ATOM     74  C   UNL     1      -6.736  -3.702  13.542  1.00  0.00     0.058 A 
ATOM     75  C   UNL     1      -6.371  -3.140  14.774  1.00  0.00     0.135 A 
ATOM     76  C   UNL     1      -6.786  -2.854  12.425  1.00  0.00     0.135 A 
ATOM     77  F   UNL     1      -6.315  -3.909  15.872  1.00  0.00    -0.206 F 
ATOM     78  C   UNL     1      -6.082  -1.785  14.900  1.00  0.00     0.059 A 
ATOM     79  C   UNL     1      -6.477  -1.500  12.521  1.00  0.00     0.059 A 
ATOM     80  F   UNL     1      -7.112  -3.346  11.220  1.00  0.00    -0.206 F 
ATOM     81  C   UNL     1      -6.135  -0.973  13.765  1.00  0.00     0.060 A 
BRANCH  81  82
ATOM     82  S   UNL     1      -5.711   0.775  13.930  1.00  0.00     0.124 S 
ATOM     83  O   UNL     1      -6.890   1.300  14.607  1.00  0.00    -0.237 OA
ATOM     84  O   UNL     1      -4.488   0.721  14.725  1.00  0.00    -0.237 OA
ATOM     85  O   UNL     1      -5.531   1.207  12.547  1.00  0.00    -0.744 OA
ENDBRANCH  81  82
ENDBRANCH  49  74
BRANCH  61  86
ATOM     86  C   UNL     1     -11.924  -7.749  15.861  1.00  0.00     0.058 A 
ATOM     87  C   UNL     1     -13.032  -7.054  15.354  1.00  0.00     0.135 A 
ATOM     88  C   UNL     1     -11.993  -8.225  17.181  1.00  0.00     0.135 A 
ATOM     89  F   UNL     1     -13.012  -6.573  14.101  1.00  0.00    -0.206 F 
ATOM     90  C   UNL     1     -14.159  -6.819  16.134  1.00  0.00     0.059 A 
ATOM     91  C   UNL     1     -13.121  -8.024  17.970  1.00  0.00     0.059 A 
ATOM     92  F   UNL     1     -10.964  -8.905  17.710  1.00  0.00    -0.206 F 
ATOM     93  C   UNL     1     -14.195  -7.309  17.441  1.00  0.00     0.060 A 
BRANCH  93  94
ATOM     94  S   UNL     1     -15.678  -7.027  18.432  1.00  0.00     0.124 S 
ATOM     95  O   UNL     1     -15.539  -5.615  18.772  1.00  0.00    -0.237 OA
ATOM     96  O   UNL     1     -16.748  -7.351  17.494  1.00  0.00    -0.237 OA
ATOM     97  O   UNL     1     -15.525  -7.959  19.545  1.00  0.00    -0.744 OA
ENDBRANCH  93  94
ENDBRANCH  61  86
ENDBRANCH  35  36
ENDBRANCH  27  30
ENDBRANCH  25  26
ENDBRANCH   1  25
TORSDOF 17
