REMARK SMILES CC[C@@H]1CCC[C@@](Cc2cccc(O)c2)(C(=O)NCCCNC(=O)c2ccc(-c3c4nc(c(-c5c(F)cc(S(=O)(=O)[O-])cc5F)c5ccc([nH]5)c(-c5c(F)cc(S(=O)(=O)[O-])cc5F)c5nc(c(-c6c(F)cc(S(=O)(=O)[O-])cc6F)c6ccc3[nH]6)C=C5)C=C4)cc2)C1
REMARK SMILES IDX 20 1 19 2 18 3 16 4 17 5 7 7 3 8 4 9 91 10 5 11 6 12 2 13
REMARK SMILES IDX 1 14 8 15 9 16 10 17 15 18 11 19 13 20 12 21 14 22 21 24
REMARK SMILES IDX 22 25 23 26 24 28 25 29 26 30 90 31 27 32 89 33 28 34 29 35
REMARK SMILES IDX 30 36 83 37 31 38 88 39 82 40 84 41 32 42 87 43 81 44 80 45
REMARK SMILES IDX 33 47 67 48 46 49 66 50 47 51 50 52 65 53 85 54 48 55 49 56
REMARK SMILES IDX 64 58 86 59 51 60 34 61 35 62 44 63 36 64 37 65 43 66 45 67
REMARK SMILES IDX 38 68 39 69 40 70 41 71 42 72 68 73 69 74 78 75 70 76 71 77
REMARK SMILES IDX 77 78 79 79 72 80 73 81 74 82 75 83 76 84 52 85 53 86 62 87
REMARK SMILES IDX 54 88 55 89 61 90 63 91 56 92 57 93 58 94 59 95 60 96
REMARK H PARENT 18 6 14 23 22 27 84 46 50 57
REMARK Flexibility Score: inf
ROOT
ATOM      1  C   UNL     1       2.322   3.285   7.427  1.00  0.00     0.042 C 
ENDROOT
BRANCH   1   2
ATOM      2  C   UNL     1       2.219   3.764   6.002  1.00  0.00     0.117 C 
BRANCH   2   3
ATOM      3  N   UNL     1       2.770   2.883   5.002  1.00  0.00    -0.356 N 
ATOM      4  C   UNL     1       2.298   2.631   3.750  1.00  0.00     0.226 C 
ATOM      5  O   UNL     1       3.148   2.300   2.915  1.00  0.00    -0.274 OA
ATOM      6  H   UNL     1       3.591   2.403   5.257  1.00  0.00     0.163 HD
BRANCH   4   7
ATOM      7  C   UNL     1       0.794   2.748   3.371  1.00  0.00     0.053 C 
ATOM      8  C   UNL     1       0.765   0.318   2.380  1.00  0.00    -0.010 C 
ATOM      9  C   UNL     1      -0.035  -0.163   3.600  1.00  0.00     0.003 C 
ATOM     10  C   UNL     1       0.564   1.827   2.117  1.00  0.00     0.020 C 
ATOM     11  C   UNL     1       0.116   0.747   4.809  1.00  0.00     0.001 C 
ATOM     12  C   UNL     1      -0.180   2.203   4.444  1.00  0.00     0.017 C 
BRANCH   8  13
ATOM     13  C   UNL     1       0.380  -0.547   1.161  1.00  0.00     0.000 C 
ATOM     14  C   UNL     1       1.032  -0.121  -0.146  1.00  0.00     0.004 C 
ENDBRANCH   8  13
BRANCH   7  15
ATOM     15  C   UNL     1       0.465   4.204   2.877  1.00  0.00     0.052 C 
BRANCH  15  16
ATOM     16  C   UNL     1       0.534   5.357   3.853  1.00  0.00    -0.043 A 
ATOM     17  C   UNL     1       1.701   6.133   3.967  1.00  0.00     0.004 A 
ATOM     18  C   UNL     1      -0.536   5.625   4.719  1.00  0.00     0.049 A 
ATOM     19  C   UNL     1       1.831   7.078   4.993  1.00  0.00     0.004 A 
ATOM     20  C   UNL     1      -0.393   6.561   5.742  1.00  0.00     0.115 A 
ATOM     21  C   UNL     1       0.790   7.275   5.900  1.00  0.00     0.046 A 
BRANCH  20  22
ATOM     22  O   UNL     1      -1.436   6.716   6.606  1.00  0.00    -0.508 OA
ATOM     23  H   UNL     1      -1.376   7.335   7.307  1.00  0.00     0.293 HD
ENDBRANCH  20  22
ENDBRANCH  15  16
ENDBRANCH   7  15
ENDBRANCH   4   7
ENDBRANCH   2   3
ENDBRANCH   1   2
BRANCH   1  24
ATOM     24  C   UNL     1       3.715   3.468   7.997  1.00  0.00     0.118 C 
BRANCH  24  25
ATOM     25  N   UNL     1       4.171   4.861   7.960  1.00  0.00    -0.352 N 
ATOM     26  C   UNL     1       4.413   5.756   8.972  1.00  0.00     0.251 C 
ATOM     27  H   UNL     1       4.332   5.214   7.055  1.00  0.00     0.163 HD
ATOM     28  O   UNL     1       4.567   6.947   8.709  1.00  0.00    -0.269 OA
BRANCH  26  29
ATOM     29  C   UNL     1       4.466   5.285  10.368  1.00  0.00     0.039 A 
ATOM     30  C   UNL     1       3.939   6.077  11.390  1.00  0.00     0.014 A 
ATOM     31  C   UNL     1       5.019   4.039  10.662  1.00  0.00     0.014 A 
ATOM     32  C   UNL     1       3.887   5.571  12.689  1.00  0.00     0.010 A 
ATOM     33  C   UNL     1       4.829   3.481  11.914  1.00  0.00     0.010 A 
ATOM     34  C   UNL     1       4.283   4.248  12.950  1.00  0.00    -0.014 A 
BRANCH  34  35
ATOM     35  C   UNL     1       4.167   3.644  14.298  1.00  0.00     0.031 A 
ATOM     36  C   UNL     1       5.396   3.103  14.981  1.00  0.00     0.074 A 
ATOM     37  C   UNL     1       2.951   3.506  14.863  1.00  0.00     0.049 A 
ATOM     38  N   UNL     1       5.495   2.459  16.114  1.00  0.00    -0.248 NA
ATOM     39  C   UNL     1       6.680   3.268  14.276  1.00  0.00     0.031 C 
ATOM     40  C   UNL     1       1.682   3.922  14.259  1.00  0.00     0.029 A 
ATOM     41  N   UNL     1       2.580   2.969  16.068  1.00  0.00    -0.354 N 
ATOM     42  C   UNL     1       6.839   2.126  16.242  1.00  0.00     0.074 A 
ATOM     43  C   UNL     1       7.504   2.567  15.038  1.00  0.00     0.031 C 
ATOM     44  C   UNL     1       0.680   3.662  15.113  1.00  0.00     0.029 A 
ATOM     45  C   UNL     1       1.226   3.020  16.303  1.00  0.00     0.049 A 
ATOM     46  H   UNL     1       3.223   2.583  16.706  1.00  0.00     0.167 HD
ATOM     47  C   UNL     1       7.469   1.540  17.286  1.00  0.00     0.037 A 
ATOM     48  C   UNL     1       0.508   2.593  17.360  1.00  0.00     0.037 A 
ATOM     49  C   UNL     1       6.801   1.143  18.496  1.00  0.00     0.049 A 
ATOM     50  C   UNL     1       1.233   1.962  18.517  1.00  0.00     0.074 A 
ATOM     51  C   UNL     1       7.350   0.607  19.646  1.00  0.00     0.029 A 
ATOM     52  N   UNL     1       5.433   1.243  18.712  1.00  0.00    -0.354 N 
ATOM     53  N   UNL     1       2.517   1.726  18.657  1.00  0.00    -0.248 NA
ATOM     54  C   UNL     1       0.416   1.546  19.664  1.00  0.00     0.031 C 
ATOM     55  C   UNL     1       6.308   0.336  20.539  1.00  0.00     0.029 A 
ATOM     56  C   UNL     1       5.117   0.756  19.968  1.00  0.00     0.049 A 
ATOM     57  H   UNL     1       4.785   1.606  18.067  1.00  0.00     0.167 HD
ATOM     58  C   UNL     1       2.664   1.157  19.917  1.00  0.00     0.074 A 
ATOM     59  C   UNL     1       1.341   1.103  20.505  1.00  0.00     0.031 C 
ATOM     60  C   UNL     1       3.790   0.716  20.532  1.00  0.00     0.037 A 
BRANCH  47  61
ATOM     61  C   UNL     1       8.952   1.309  17.168  1.00  0.00     0.058 A 
ATOM     62  C   UNL     1       9.867   2.375  17.143  1.00  0.00     0.135 A 
ATOM     63  C   UNL     1       9.469   0.005  17.104  1.00  0.00     0.135 A 
ATOM     64  F   UNL     1       9.429   3.644  17.181  1.00  0.00    -0.206 F 
ATOM     65  C   UNL     1      11.236   2.158  17.026  1.00  0.00     0.059 A 
ATOM     66  C   UNL     1      10.838  -0.237  17.020  1.00  0.00     0.059 A 
ATOM     67  F   UNL     1       8.642  -1.052  17.119  1.00  0.00    -0.206 F 
ATOM     68  C   UNL     1      11.712   0.848  16.967  1.00  0.00     0.060 A 
BRANCH  68  69
ATOM     69  S   UNL     1      13.492   0.586  16.829  1.00  0.00     0.124 S 
ATOM     70  O   UNL     1      13.743   1.013  15.456  1.00  0.00    -0.237 OA
ATOM     71  O   UNL     1      14.017   1.463  17.871  1.00  0.00    -0.237 OA
ATOM     72  O   UNL     1      13.647  -0.843  17.079  1.00  0.00    -0.744 OA
ENDBRANCH  68  69
ENDBRANCH  47  61
BRANCH  48  73
ATOM     73  C   UNL     1      -0.968   2.779  17.384  1.00  0.00     0.058 A 
ATOM     74  C   UNL     1      -1.566   3.692  18.265  1.00  0.00     0.135 A 
ATOM     75  C   UNL     1      -1.808   2.065  16.516  1.00  0.00     0.135 A 
ATOM     76  F   UNL     1      -0.806   4.398  19.117  1.00  0.00    -0.206 F 
ATOM     77  C   UNL     1      -2.944   3.875  18.303  1.00  0.00     0.059 A 
ATOM     78  C   UNL     1      -3.188   2.251  16.514  1.00  0.00     0.059 A 
ATOM     79  F   UNL     1      -1.286   1.195  15.638  1.00  0.00    -0.206 F 
ATOM     80  C   UNL     1      -3.747   3.151  17.420  1.00  0.00     0.060 A 
BRANCH  80  81
ATOM     81  S   UNL     1      -5.531   3.431  17.446  1.00  0.00     0.124 S 
ATOM     82  O   UNL     1      -5.910   2.796  18.703  1.00  0.00    -0.237 OA
ATOM     83  O   UNL     1      -5.612   4.888  17.417  1.00  0.00    -0.237 OA
ATOM     84  O   UNL     1      -5.994   2.761  16.235  1.00  0.00    -0.744 OA
ENDBRANCH  80  81
ENDBRANCH  48  73
BRANCH  60  85
ATOM     85  C   UNL     1       3.643   0.166  21.924  1.00  0.00     0.058 A 
ATOM     86  C   UNL     1       3.027  -1.071  22.167  1.00  0.00     0.135 A 
ATOM     87  C   UNL     1       4.168   0.866  23.022  1.00  0.00     0.135 A 
ATOM     88  F   UNL     1       2.504  -1.777  21.152  1.00  0.00    -0.206 F 
ATOM     89  C   UNL     1       2.909  -1.581  23.455  1.00  0.00     0.059 A 
ATOM     90  C   UNL     1       4.091   0.359  24.315  1.00  0.00     0.059 A 
ATOM     91  F   UNL     1       4.780   2.048  22.843  1.00  0.00    -0.206 F 
ATOM     92  C   UNL     1       3.446  -0.859  24.522  1.00  0.00     0.060 A 
BRANCH  92  93
ATOM     93  S   UNL     1       3.308  -1.545  26.185  1.00  0.00     0.124 S 
ATOM     94  O   UNL     1       1.890  -1.349  26.467  1.00  0.00    -0.237 OA
ATOM     95  O   UNL     1       3.730  -2.929  25.988  1.00  0.00    -0.237 OA
ATOM     96  O   UNL     1       4.224  -0.723  26.970  1.00  0.00    -0.744 OA
ENDBRANCH  92  93
ENDBRANCH  60  85
ENDBRANCH  34  35
ENDBRANCH  26  29
ENDBRANCH  24  25
ENDBRANCH   1  24
TORSDOF 17
