REMARK SMILES O=C(CSc1cccs1)N[C@H]1CCCCC[C@H]1C(=O)NCCCNC(=O)c1ccc(-c2c3nc(c(-c4c(F)cc(S(=O)(=O)[O-])cc4F)c4ccc([nH]4)c(-c4c(F)cc(S(=O)(=O)[O-])cc4F)c4nc(c(-c5c(F)cc(S(=O)(=O)[O-])cc5F)c5ccc2[nH]5)C=C4)C=C3)cc1
REMARK SMILES IDX 21 1 20 2 18 3 19 4 17 6 11 7 10 9 1 10 2 11 3 13 4 14 5 15
REMARK SMILES IDX 6 16 9 17 7 18 8 19 16 20 15 21 14 22 13 23 12 24 22 26
REMARK SMILES IDX 23 27 24 28 25 29 26 31 27 32 28 33 92 34 29 35 91 36 30 37
REMARK SMILES IDX 31 38 32 39 85 40 33 41 90 42 84 43 86 44 34 45 89 46 83 47
REMARK SMILES IDX 82 48 35 50 69 51 48 52 68 53 49 54 52 55 67 56 87 57 50 58
REMARK SMILES IDX 51 59 66 61 88 62 53 63 36 64 37 65 46 66 38 67 39 68 45 69
REMARK SMILES IDX 47 70 40 71 41 72 42 73 43 74 44 75 70 76 71 77 80 78 72 79
REMARK SMILES IDX 73 80 79 81 81 82 74 83 75 84 76 85 77 86 78 87 54 88 55 89
REMARK SMILES IDX 64 90 56 91 57 92 63 93 65 94 58 95 59 96 60 97 61 98 62 99
REMARK H PARENT 20 5 10 12 24 30 86 49 52 60
REMARK Flexibility Score: 100.00
ROOT
ATOM      1  C   UNL     1       0.110   5.359   2.016  1.00  0.00     0.117 C 
ENDROOT
BRANCH   1   2
ATOM      2  N   UNL     1      -0.356   4.017   2.285  1.00  0.00    -0.356 N 
ATOM      3  C   UNL     1       0.289   2.829   2.366  1.00  0.00     0.225 C 
ATOM      4  O   UNL     1      -0.436   1.851   2.602  1.00  0.00    -0.275 OA
ATOM      5  H   UNL     1      -1.327   3.955   2.438  1.00  0.00     0.163 HD
BRANCH   3   6
ATOM      6  C   UNL     1       1.798   2.600   2.167  1.00  0.00     0.101 C 
BRANCH   6   7
ATOM      7  C   UNL     1       2.341   2.624   0.718  1.00  0.00     0.094 CG0
ATOM      8  G   UNL     1       3.580   3.496   0.457  1.00  0.00     0.000 G0
BRANCH   7   9
ATOM      9  N   UNL     1       1.277   2.602  -0.294  1.00  0.00    -0.352 N 
ATOM     10  O   UNL     1       1.770   4.461  -1.561  1.00  0.00    -0.274 OA
ATOM     11  C   UNL     1       1.063   3.486  -1.328  1.00  0.00     0.230 C 
ATOM     12  H   UNL     1       0.634   1.860  -0.223  1.00  0.00     0.163 HD
BRANCH  11  13
ATOM     13  C   UNL     1      -0.206   3.215  -2.128  1.00  0.00     0.175 C 
BRANCH  13  14
ATOM     14  S   UNL     1       0.085   2.021  -3.456  1.00  0.00    -0.105 SA
BRANCH  14  15
ATOM     15  C   UNL     1       1.291   2.890  -4.392  1.00  0.00     0.060 A 
ATOM     16  C   UNL     1       1.122   4.086  -5.056  1.00  0.00     0.027 A 
ATOM     17  S   UNL     1       2.885   2.292  -4.547  1.00  0.00    -0.137 S 
ATOM     18  C   UNL     1       2.334   4.539  -5.658  1.00  0.00     0.013 A 
ATOM     19  C   UNL     1       3.374   3.661  -5.447  1.00  0.00     0.066 A 
ENDBRANCH  14  15
ENDBRANCH  13  14
ENDBRANCH  11  13
ENDBRANCH   7   9
ENDBRANCH   6   7
BRANCH   6  20
ATOM     20  C   UNL     1       2.732   3.079   3.290  1.00  0.00     0.015 C 
BRANCH  20  21
ATOM     21  C   UNL     1       3.065   4.555   3.448  1.00  0.00     0.001 C 
BRANCH  21  22
ATOM     22  C   UNL     1       3.840   5.246   2.326  1.00  0.00     0.000 C 
BRANCH  22  23
ATOM     23  C   UNL     1       3.490   4.958   0.868  1.00  0.00     0.002 C 
BRANCH  23  24
ATOM     24  C   UNL     1       3.580   3.496   0.457  1.00  0.00     0.026 CG0
ATOM     25  G   UNL     1       2.341   2.624   0.718  1.00  0.00     0.000 G0
ENDBRANCH  23  24
ENDBRANCH  22  23
ENDBRANCH  21  22
ENDBRANCH  20  21
ENDBRANCH   6  20
ENDBRANCH   3   6
ENDBRANCH   1   2
BRANCH   1  26
ATOM     26  C   UNL     1      -0.284   5.867   0.641  1.00  0.00     0.042 C 
BRANCH  26  27
ATOM     27  C   UNL     1      -1.560   6.685   0.638  1.00  0.00     0.118 C 
BRANCH  27  28
ATOM     28  N   UNL     1      -1.356   8.028   1.163  1.00  0.00    -0.352 N 
ATOM     29  C   UNL     1      -1.150   9.235   0.534  1.00  0.00     0.251 C 
ATOM     30  H   UNL     1      -1.369   8.083   2.146  1.00  0.00     0.163 HD
ATOM     31  O   UNL     1      -0.780  10.190   1.216  1.00  0.00    -0.269 OA
BRANCH  29  32
ATOM     32  C   UNL     1      -1.344   9.409  -0.928  1.00  0.00     0.039 A 
ATOM     33  C   UNL     1      -0.565  10.354  -1.608  1.00  0.00     0.014 A 
ATOM     34  C   UNL     1      -2.325   8.713  -1.632  1.00  0.00     0.014 A 
ATOM     35  C   UNL     1      -0.735  10.550  -2.985  1.00  0.00     0.010 A 
ATOM     36  C   UNL     1      -2.403   8.812  -3.018  1.00  0.00     0.010 A 
ATOM     37  C   UNL     1      -1.633   9.754  -3.712  1.00  0.00    -0.014 A 
BRANCH  37  38
ATOM     38  C   UNL     1      -1.835   9.915  -5.178  1.00  0.00     0.031 A 
ATOM     39  C   UNL     1      -3.213  10.224  -5.716  1.00  0.00     0.074 A 
ATOM     40  C   UNL     1      -0.812   9.705  -6.031  1.00  0.00     0.049 A 
ATOM     41  N   UNL     1      -3.631  10.258  -6.955  1.00  0.00    -0.248 NA
ATOM     42  C   UNL     1      -4.271  10.485  -4.725  1.00  0.00     0.031 C 
ATOM     43  C   UNL     1       0.556   9.351  -5.646  1.00  0.00     0.029 A 
ATOM     44  N   UNL     1      -0.768   9.747  -7.403  1.00  0.00    -0.354 N 
ATOM     45  C   UNL     1      -5.000  10.501  -6.888  1.00  0.00     0.074 A 
ATOM     46  C   UNL     1      -5.352  10.549  -5.487  1.00  0.00     0.031 C 
ATOM     47  C   UNL     1       1.310   9.239  -6.752  1.00  0.00     0.029 A 
ATOM     48  C   UNL     1       0.473   9.465  -7.925  1.00  0.00     0.049 A 
ATOM     49  H   UNL     1      -1.551   9.960  -7.960  1.00  0.00     0.167 HD
ATOM     50  C   UNL     1      -5.880  10.697  -7.899  1.00  0.00     0.037 A 
ATOM     51  C   UNL     1       0.887   9.388  -9.205  1.00  0.00     0.037 A 
ATOM     52  C   UNL     1      -5.512  10.714  -9.290  1.00  0.00     0.049 A 
ATOM     53  C   UNL     1      -0.100   9.645 -10.312  1.00  0.00     0.074 A 
ATOM     54  C   UNL     1      -6.311  10.979 -10.388  1.00  0.00     0.029 A 
ATOM     55  N   UNL     1      -4.235  10.469  -9.773  1.00  0.00    -0.354 N 
ATOM     56  N   UNL     1      -1.379   9.922 -10.227  1.00  0.00    -0.248 NA
ATOM     57  C   UNL     1       0.412   9.582 -11.688  1.00  0.00     0.031 C 
ATOM     58  C   UNL     1      -5.524  10.860 -11.539  1.00  0.00     0.029 A 
ATOM     59  C   UNL     1      -4.226  10.563 -11.154  1.00  0.00     0.049 A 
ATOM     60  H   UNL     1      -3.451  10.258  -9.216  1.00  0.00     0.167 HD
ATOM     61  C   UNL     1      -1.819  10.091 -11.536  1.00  0.00     0.074 A 
ATOM     62  C   UNL     1      -0.667   9.897 -12.392  1.00  0.00     0.031 C 
ATOM     63  C   UNL     1      -3.065  10.379 -11.988  1.00  0.00     0.037 A 
BRANCH  50  64
ATOM     64  C   UNL     1      -7.324  10.924  -7.537  1.00  0.00     0.058 A 
ATOM     65  C   UNL     1      -7.750  12.102  -6.902  1.00  0.00     0.135 A 
ATOM     66  C   UNL     1      -8.300   9.964  -7.851  1.00  0.00     0.135 A 
ATOM     67  F   UNL     1      -6.859  13.048  -6.564  1.00  0.00    -0.206 F 
ATOM     68  C   UNL     1      -9.082  12.303  -6.557  1.00  0.00     0.059 A 
ATOM     69  C   UNL     1      -9.644  10.158  -7.544  1.00  0.00     0.059 A 
ATOM     70  F   UNL     1      -7.951   8.819  -8.460  1.00  0.00    -0.206 F 
ATOM     71  C   UNL     1     -10.022  11.324  -6.880  1.00  0.00     0.060 A 
BRANCH  71  72
ATOM     72  S   UNL     1     -11.748  11.598  -6.426  1.00  0.00     0.124 S 
ATOM     73  O   UNL     1     -11.704  11.380  -4.982  1.00  0.00    -0.237 OA
ATOM     74  O   UNL     1     -11.966  12.981  -6.848  1.00  0.00    -0.237 OA
ATOM     75  O   UNL     1     -12.467  10.592  -7.192  1.00  0.00    -0.744 OA
ENDBRANCH  71  72
ENDBRANCH  50  64
BRANCH  51  76
ATOM     76  C   UNL     1       2.311   9.079  -9.507  1.00  0.00     0.058 A 
ATOM     77  C   UNL     1       3.166  10.066 -10.021  1.00  0.00     0.135 A 
ATOM     78  C   UNL     1       2.852   7.806  -9.268  1.00  0.00     0.135 A 
ATOM     79  F   UNL     1       2.695  11.297 -10.270  1.00  0.00    -0.206 F 
ATOM     80  C   UNL     1       4.501   9.799 -10.305  1.00  0.00     0.059 A 
ATOM     81  C   UNL     1       4.190   7.521  -9.522  1.00  0.00     0.059 A 
ATOM     82  F   UNL     1       2.083   6.833  -8.754  1.00  0.00    -0.206 F 
ATOM     83  C   UNL     1       5.005   8.522 -10.050  1.00  0.00     0.060 A 
BRANCH  83  84
ATOM     84  S   UNL     1       6.753   8.200 -10.373  1.00  0.00     0.124 S 
ATOM     85  O   UNL     1       6.774   8.138 -11.830  1.00  0.00    -0.237 OA
ATOM     86  O   UNL     1       7.395   9.366  -9.774  1.00  0.00    -0.237 OA
ATOM     87  O   UNL     1       6.993   6.937  -9.682  1.00  0.00    -0.744 OA
ENDBRANCH  83  84
ENDBRANCH  51  76
BRANCH  63  88
ATOM     88  C   UNL     1      -3.245  10.537 -13.472  1.00  0.00     0.058 A 
ATOM     89  C   UNL     1      -3.245   9.431 -14.335  1.00  0.00     0.135 A 
ATOM     90  C   UNL     1      -3.486  11.805 -14.026  1.00  0.00     0.135 A 
ATOM     91  F   UNL     1      -3.014   8.199 -13.854  1.00  0.00    -0.206 F 
ATOM     92  C   UNL     1      -3.461   9.578 -15.701  1.00  0.00     0.059 A 
ATOM     93  C   UNL     1      -3.730  11.972 -15.385  1.00  0.00     0.059 A 
ATOM     94  F   UNL     1      -3.507  12.894 -13.241  1.00  0.00    -0.206 F 
ATOM     95  C   UNL     1      -3.706  10.852 -16.216  1.00  0.00     0.060 A 
BRANCH  95  96
ATOM     96  S   UNL     1      -4.030  11.023 -17.984  1.00  0.00     0.124 S 
ATOM     97  O   UNL     1      -2.695  10.846 -18.545  1.00  0.00    -0.237 OA
ATOM     98  O   UNL     1      -4.973   9.938 -18.236  1.00  0.00    -0.237 OA
ATOM     99  O   UNL     1      -4.586  12.368 -18.099  1.00  0.00    -0.744 OA
ENDBRANCH  95  96
ENDBRANCH  63  88
ENDBRANCH  37  38
ENDBRANCH  29  32
ENDBRANCH  27  28
ENDBRANCH  26  27
ENDBRANCH   1  26
TORSDOF 17
