REMARK SMILES CCc1ccc2[nH]c(C(=O)c3cc(C)ccn3)c(CC(=O)NCCCNC(=O)c3ccc(-c4c5nc(c(-c6c(F)cc(S(=O)(=O)[O-])cc6F)c6ccc([nH]6)c(-c6c(F)cc(S(=O)(=O)[O-])cc6F)c6nc(c(-c7c(F)cc(S(=O)(=O)[O-])cc7F)c7ccc4[nH]7)C=C6)C=C5)cc3)c2c1
REMARK SMILES IDX 24 1 23 2 22 3 20 4 21 5 19 7 18 8 3 9 4 10 96 11 5 12 95 13
REMARK SMILES IDX 6 14 7 15 8 16 2 18 1 19 9 20 10 21 11 22 12 23 17 24 13 25
REMARK SMILES IDX 16 26 14 27 15 28 25 29 26 30 27 31 28 33 29 34 30 35 94 36
REMARK SMILES IDX 31 37 93 38 32 39 33 40 34 41 87 42 35 43 92 44 86 45 88 46
REMARK SMILES IDX 36 47 91 48 85 49 84 50 37 52 71 53 50 54 70 55 51 56 54 57
REMARK SMILES IDX 69 58 89 59 52 60 53 61 68 63 90 64 55 65 38 66 39 67 48 68
REMARK SMILES IDX 40 69 41 70 47 71 49 72 42 73 43 74 44 75 45 76 46 77 72 78
REMARK SMILES IDX 73 79 82 80 74 81 75 82 81 83 83 84 76 85 77 86 78 87 79 88
REMARK SMILES IDX 80 89 56 90 57 91 66 92 58 93 59 94 65 95 67 96 60 97 61 98
REMARK SMILES IDX 62 99 63 100 64 101
REMARK H PARENT 22 6 7 17 26 32 88 51 54 62
REMARK Flexibility Score: inf
ROOT
ATOM      1  C   UNL     1      -0.829  -0.411   5.332  1.00  0.00     0.042 C 
ENDROOT
BRANCH   1   2
ATOM      2  C   UNL     1      -0.046   0.851   4.988  1.00  0.00     0.117 C 
BRANCH   2   3
ATOM      3  N   UNL     1       0.849   1.277   6.044  1.00  0.00    -0.356 N 
ATOM      4  C   UNL     1       2.209   1.183   6.128  1.00  0.00     0.224 C 
ATOM      5  O   UNL     1       2.755   1.830   7.027  1.00  0.00    -0.275 OA
ATOM      6  H   UNL     1       0.410   1.698   6.819  1.00  0.00     0.163 HD
BRANCH   4   7
ATOM      7  C   UNL     1       3.021   0.428   5.082  1.00  0.00     0.138 C 
BRANCH   7   8
ATOM      8  C   UNL     1       2.689  -1.036   4.954  1.00  0.00    -0.002 A 
ATOM      9  C   UNL     1       1.144  -2.059   1.581  1.00  0.00    -0.048 A 
ATOM     10  C   UNL     1       0.919  -3.391   1.952  1.00  0.00     0.006 A 
ATOM     11  C   UNL     1       1.762  -1.199   2.503  1.00  0.00     0.014 A 
ATOM     12  C   UNL     1       1.289  -3.884   3.210  1.00  0.00     0.027 A 
ATOM     13  C   UNL     1       2.127  -1.661   3.789  1.00  0.00     0.004 A 
ATOM     14  C   UNL     1       1.887  -2.992   4.105  1.00  0.00     0.046 A 
ATOM     15  N   UNL     1       2.320  -3.186   5.394  1.00  0.00    -0.352 N 
ATOM     16  C   UNL     1       2.899  -2.041   5.902  1.00  0.00     0.093 A 
ATOM     17  H   UNL     1       2.230  -4.031   5.890  1.00  0.00     0.167 HD
BRANCH   9  18
ATOM     18  C   UNL     1       0.673  -1.607   0.215  1.00  0.00     0.032 C 
ATOM     19  C   UNL     1       1.016  -0.179  -0.196  1.00  0.00     0.009 C 
ENDBRANCH   9  18
BRANCH  16  20
ATOM     20  C   UNL     1       3.571  -1.937   7.195  1.00  0.00     0.227 C 
ATOM     21  O   UNL     1       4.142  -0.916   7.575  1.00  0.00    -0.285 OA
BRANCH  20  22
ATOM     22  C   UNL     1       3.652  -3.132   8.075  1.00  0.00     0.113 A 
ATOM     23  C   UNL     1       4.415  -4.228   7.682  1.00  0.00     0.036 A 
ATOM     24  N   UNL     1       2.994  -3.053   9.258  1.00  0.00    -0.253 NA
ATOM     25  C   UNL     1       4.508  -5.317   8.552  1.00  0.00    -0.047 A 
ATOM     26  C   UNL     1       3.123  -4.105  10.091  1.00  0.00     0.112 A 
ATOM     27  C   UNL     1       5.322  -6.525   8.201  1.00  0.00     0.044 C 
ATOM     28  C   UNL     1       3.856  -5.242   9.786  1.00  0.00     0.023 A 
ENDBRANCH  20  22
ENDBRANCH  16  20
ENDBRANCH   7   8
ENDBRANCH   4   7
ENDBRANCH   2   3
ENDBRANCH   1   2
BRANCH   1  29
ATOM     29  C   UNL     1      -1.836  -0.246   6.466  1.00  0.00     0.118 C 
BRANCH  29  30
ATOM     30  N   UNL     1      -2.898   0.694   6.144  1.00  0.00    -0.352 N 
ATOM     31  C   UNL     1      -4.262   0.557   6.198  1.00  0.00     0.251 C 
ATOM     32  H   UNL     1      -2.587   1.575   5.835  1.00  0.00     0.163 HD
ATOM     33  O   UNL     1      -4.963   1.442   5.710  1.00  0.00    -0.269 OA
BRANCH  31  34
ATOM     34  C   UNL     1      -4.903  -0.628   6.819  1.00  0.00     0.039 A 
ATOM     35  C   UNL     1      -6.090  -1.111   6.254  1.00  0.00     0.014 A 
ATOM     36  C   UNL     1      -4.406  -1.216   7.984  1.00  0.00     0.014 A 
ATOM     37  C   UNL     1      -6.755  -2.195   6.835  1.00  0.00     0.010 A 
ATOM     38  C   UNL     1      -5.033  -2.339   8.526  1.00  0.00     0.010 A 
ATOM     39  C   UNL     1      -6.224  -2.827   7.970  1.00  0.00    -0.014 A 
BRANCH  39  40
ATOM     40  C   UNL     1      -6.929  -3.966   8.612  1.00  0.00     0.031 A 
ATOM     41  C   UNL     1      -7.511  -3.811   9.992  1.00  0.00     0.074 A 
ATOM     42  C   UNL     1      -7.010  -5.152   7.978  1.00  0.00     0.049 A 
ATOM     43  N   UNL     1      -8.117  -4.698  10.739  1.00  0.00    -0.248 NA
ATOM     44  C   UNL     1      -7.368  -2.491  10.625  1.00  0.00     0.031 C 
ATOM     45  C   UNL     1      -6.456  -5.442   6.654  1.00  0.00     0.029 A 
ATOM     46  N   UNL     1      -7.587  -6.335   8.364  1.00  0.00    -0.354 N 
ATOM     47  C   UNL     1      -8.399  -4.054  11.939  1.00  0.00     0.074 A 
ATOM     48  C   UNL     1      -7.865  -2.713  11.832  1.00  0.00     0.031 C 
ATOM     49  C   UNL     1      -6.747  -6.712   6.327  1.00  0.00     0.029 A 
ATOM     50  C   UNL     1      -7.481  -7.333   7.426  1.00  0.00     0.049 A 
ATOM     51  H   UNL     1      -8.036  -6.457   9.232  1.00  0.00     0.167 HD
ATOM     52  C   UNL     1      -9.056  -4.529  13.025  1.00  0.00     0.037 A 
ATOM     53  C   UNL     1      -7.933  -8.602   7.446  1.00  0.00     0.037 A 
ATOM     54  C   UNL     1      -9.626  -5.848  13.113  1.00  0.00     0.049 A 
ATOM     55  C   UNL     1      -8.700  -9.094   8.640  1.00  0.00     0.074 A 
ATOM     56  C   UNL     1     -10.361  -6.404  14.145  1.00  0.00     0.029 A 
ATOM     57  N   UNL     1      -9.530  -6.816  12.125  1.00  0.00    -0.354 N 
ATOM     58  N   UNL     1      -8.996  -8.459   9.749  1.00  0.00    -0.248 NA
ATOM     59  C   UNL     1      -9.205 -10.473   8.582  1.00  0.00     0.031 C 
ATOM     60  C   UNL     1     -10.692  -7.718  13.789  1.00  0.00     0.029 A 
ATOM     61  C   UNL     1     -10.188  -7.968  12.523  1.00  0.00     0.049 A 
ATOM     62  H   UNL     1      -9.062  -6.702  11.266  1.00  0.00     0.167 HD
ATOM     63  C   UNL     1      -9.749  -9.347  10.507  1.00  0.00     0.074 A 
ATOM     64  C   UNL     1      -9.862 -10.566   9.731  1.00  0.00     0.031 C 
ATOM     65  C   UNL     1     -10.302  -9.167  11.732  1.00  0.00     0.037 A 
BRANCH  52  66
ATOM     66  C   UNL     1      -9.182  -3.607  14.205  1.00  0.00     0.058 A 
ATOM     67  C   UNL     1     -10.031  -2.489  14.182  1.00  0.00     0.135 A 
ATOM     68  C   UNL     1      -8.426  -3.830  15.367  1.00  0.00     0.135 A 
ATOM     69  F   UNL     1     -10.765  -2.221  13.090  1.00  0.00    -0.206 F 
ATOM     70  C   UNL     1     -10.090  -1.597  15.248  1.00  0.00     0.059 A 
ATOM     71  C   UNL     1      -8.488  -2.965  16.456  1.00  0.00     0.059 A 
ATOM     72  F   UNL     1      -7.600  -4.886  15.444  1.00  0.00    -0.206 F 
ATOM     73  C   UNL     1      -9.304  -1.837  16.376  1.00  0.00     0.060 A 
BRANCH  73  74
ATOM     74  S   UNL     1      -9.352  -0.654  17.739  1.00  0.00     0.124 S 
ATOM     75  O   UNL     1      -8.466   0.394  17.241  1.00  0.00    -0.237 OA
ATOM     76  O   UNL     1     -10.767  -0.305  17.809  1.00  0.00    -0.237 OA
ATOM     77  O   UNL     1      -8.843  -1.423  18.870  1.00  0.00    -0.744 OA
ENDBRANCH  73  74
ENDBRANCH  52  66
BRANCH  53  78
ATOM     78  C   UNL     1      -7.721  -9.473   6.262  1.00  0.00     0.058 A 
ATOM     79  C   UNL     1      -8.778  -9.749   5.382  1.00  0.00     0.135 A 
ATOM     80  C   UNL     1      -6.460 -10.008   5.963  1.00  0.00     0.135 A 
ATOM     81  F   UNL     1     -10.002  -9.262   5.633  1.00  0.00    -0.206 F 
ATOM     82  C   UNL     1      -8.594 -10.529   4.246  1.00  0.00     0.059 A 
ATOM     83  C   UNL     1      -6.247 -10.777   4.823  1.00  0.00     0.059 A 
ATOM     84  F   UNL     1      -5.415  -9.758   6.767  1.00  0.00    -0.206 F 
ATOM     85  C   UNL     1      -7.322 -11.034   3.972  1.00  0.00     0.060 A 
BRANCH  85  86
ATOM     86  S   UNL     1      -7.074 -11.980   2.453  1.00  0.00     0.124 S 
ATOM     87  O   UNL     1      -7.667 -13.264   2.806  1.00  0.00    -0.237 OA
ATOM     88  O   UNL     1      -7.806 -11.186   1.471  1.00  0.00    -0.237 OA
ATOM     89  O   UNL     1      -5.623 -11.976   2.292  1.00  0.00    -0.744 OA
ENDBRANCH  85  86
ENDBRANCH  53  78
BRANCH  65  90
ATOM     90  C   UNL     1     -11.118 -10.298  12.289  1.00  0.00     0.058 A 
ATOM     91  C   UNL     1     -10.518 -11.448  12.822  1.00  0.00     0.135 A 
ATOM     92  C   UNL     1     -12.519 -10.211  12.320  1.00  0.00     0.135 A 
ATOM     93  F   UNL     1      -9.182 -11.581  12.809  1.00  0.00    -0.206 F 
ATOM     94  C   UNL     1     -11.281 -12.487  13.347  1.00  0.00     0.059 A 
ATOM     95  C   UNL     1     -13.301 -11.228  12.858  1.00  0.00     0.059 A 
ATOM     96  F   UNL     1     -13.140  -9.127  11.830  1.00  0.00    -0.206 F 
ATOM     97  C   UNL     1     -12.672 -12.369  13.357  1.00  0.00     0.060 A 
BRANCH  97  98
ATOM     98  S   UNL     1     -13.656 -13.710  14.062  1.00  0.00     0.124 S 
ATOM     99  O   UNL     1     -13.659 -14.675  12.968  1.00  0.00    -0.237 OA
ATOM    100  O   UNL     1     -12.880 -14.088  15.239  1.00  0.00    -0.237 OA
ATOM    101  O   UNL     1     -14.939 -13.073  14.344  1.00  0.00    -0.744 OA
ENDBRANCH  97  98
ENDBRANCH  65  90
ENDBRANCH  39  40
ENDBRANCH  31  34
ENDBRANCH  29  30
ENDBRANCH   1  29
TORSDOF 17
