REMARK SMILES Cc1cccc(-c2cccc(O)c2)c1C(=O)NCCCNC(=O)c1ccc(-c2c3nc(c(-c4c(F)cc(S(=O)(=O)[O-])cc4F)c4ccc([nH]4)c(-c4c(F)cc(S(=O)(=O)[O-])cc4F)c4nc(c(-c5c(F)cc(S(=O)(=O)[O-])cc5F)c5ccc2[nH]5)C=C4)C=C3)cc1
REMARK SMILES IDX 19 1 18 2 17 3 15 4 16 5 14 7 1 8 2 9 3 10 4 11 6 12 5 13
REMARK SMILES IDX 7 14 8 15 13 16 9 17 11 18 10 19 12 20 20 22 21 23 22 24
REMARK SMILES IDX 23 26 24 27 25 28 89 29 26 30 88 31 27 32 28 33 29 34 82 35
REMARK SMILES IDX 30 36 87 37 81 38 83 39 31 40 86 41 80 42 79 43 32 45 66 46
REMARK SMILES IDX 45 47 65 48 46 49 49 50 64 51 84 52 47 53 48 54 63 56 85 57
REMARK SMILES IDX 50 58 33 59 34 60 43 61 35 62 36 63 42 64 44 65 37 66 38 67
REMARK SMILES IDX 39 68 40 69 41 70 67 71 68 72 77 73 69 74 70 75 76 76 78 77
REMARK SMILES IDX 71 78 72 79 73 80 74 81 75 82 51 83 52 84 61 85 53 86 54 87
REMARK SMILES IDX 60 88 62 89 55 90 56 91 57 92 58 93 59 94
REMARK H PARENT 17 6 12 21 21 25 83 44 49 55
REMARK Flexibility Score: inf
ROOT
ATOM      1  C   UNL     1       4.540  -0.222   0.373  1.00  0.00     0.042 C 
ENDROOT
BRANCH   1   2
ATOM      2  C   UNL     1       3.197   0.368   1.095  1.00  0.00     0.118 C 
BRANCH   2   3
ATOM      3  N   UNL     1       2.383   1.375   0.364  1.00  0.00    -0.352 N 
ATOM      4  C   UNL     1       1.085   1.641  -0.050  1.00  0.00     0.252 C 
ATOM      5  O   UNL     1       0.835   2.775  -0.459  1.00  0.00    -0.269 OA
ATOM      6  H   UNL     1       2.969   2.111   0.072  1.00  0.00     0.163 HD
BRANCH   4   7
ATOM      7  C   UNL     1      -0.032   0.643  -0.067  1.00  0.00     0.050 A 
ATOM      8  C   UNL     1       1.518  -1.152  -1.061  1.00  0.00     0.045 C 
ATOM      9  C   UNL     1       0.251  -0.707  -0.381  1.00  0.00    -0.038 A 
ATOM     10  C   UNL     1      -0.725  -1.697  -0.179  1.00  0.00     0.004 A 
ATOM     11  C   UNL     1      -2.025  -1.354   0.150  1.00  0.00     0.001 A 
ATOM     12  C   UNL     1      -1.406   1.025   0.121  1.00  0.00    -0.005 A 
ATOM     13  C   UNL     1      -2.369  -0.012   0.232  1.00  0.00     0.009 A 
BRANCH  12  14
ATOM     14  C   UNL     1      -1.985   2.405   0.134  1.00  0.00    -0.014 A 
ATOM     15  C   UNL     1      -1.917   3.255  -0.988  1.00  0.00     0.009 A 
ATOM     16  C   UNL     1      -2.793   2.837   1.205  1.00  0.00     0.055 A 
ATOM     17  C   UNL     1      -2.571   4.498  -1.015  1.00  0.00     0.004 A 
ATOM     18  C   UNL     1      -3.464   4.062   1.163  1.00  0.00     0.116 A 
ATOM     19  C   UNL     1      -3.348   4.906   0.066  1.00  0.00     0.046 A 
BRANCH  18  20
ATOM     20  O   UNL     1      -4.255   4.396   2.227  1.00  0.00    -0.508 OA
ATOM     21  H   UNL     1      -4.717   5.211   2.229  1.00  0.00     0.293 HD
ENDBRANCH  18  20
ENDBRANCH  12  14
ENDBRANCH   4   7
ENDBRANCH   2   3
ENDBRANCH   1   2
BRANCH   1  22
ATOM     22  C   UNL     1       5.933   0.488   0.724  1.00  0.00     0.118 C 
BRANCH  22  23
ATOM     23  N   UNL     1       7.331   0.195   0.057  1.00  0.00    -0.352 N 
ATOM     24  C   UNL     1       8.556   0.938  -0.237  1.00  0.00     0.251 C 
ATOM     25  H   UNL     1       7.397  -0.741  -0.242  1.00  0.00     0.163 HD
ATOM     26  O   UNL     1       9.543   0.523   0.398  1.00  0.00    -0.269 OA
BRANCH  24  27
ATOM     27  C   UNL     1       8.918   2.106  -1.249  1.00  0.00     0.039 A 
ATOM     28  C   UNL     1       9.847   3.137  -0.884  1.00  0.00     0.014 A 
ATOM     29  C   UNL     1       8.340   2.334  -2.491  1.00  0.00     0.014 A 
ATOM     30  C   UNL     1       9.721   4.489  -1.408  1.00  0.00     0.010 A 
ATOM     31  C   UNL     1       8.203   3.667  -3.004  1.00  0.00     0.010 A 
ATOM     32  C   UNL     1       8.694   4.790  -2.319  1.00  0.00    -0.014 A 
BRANCH  32  33
ATOM     33  C   UNL     1       7.931   6.117  -2.370  1.00  0.00     0.031 A 
ATOM     34  C   UNL     1       8.151   7.081  -3.444  1.00  0.00     0.074 A 
ATOM     35  C   UNL     1       6.876   6.536  -1.601  1.00  0.00     0.049 A 
ATOM     36  N   UNL     1       8.356   8.348  -3.274  1.00  0.00    -0.248 NA
ATOM     37  C   UNL     1       8.014   6.660  -4.824  1.00  0.00     0.031 C 
ATOM     38  C   UNL     1       5.965   7.695  -1.653  1.00  0.00     0.029 A 
ATOM     39  N   UNL     1       6.303   5.892  -0.531  1.00  0.00    -0.354 N 
ATOM     40  C   UNL     1       8.044   8.930  -4.485  1.00  0.00     0.074 A 
ATOM     41  C   UNL     1       8.057   7.840  -5.445  1.00  0.00     0.031 C 
ATOM     42  C   UNL     1       5.301   7.813  -0.477  1.00  0.00     0.029 A 
ATOM     43  C   UNL     1       5.778   6.772   0.409  1.00  0.00     0.049 A 
ATOM     44  H   UNL     1       6.267   4.912  -0.440  1.00  0.00     0.167 HD
ATOM     45  C   UNL     1       7.498  10.184  -4.568  1.00  0.00     0.037 A 
ATOM     46  C   UNL     1       6.364   6.840   1.651  1.00  0.00     0.037 A 
ATOM     47  C   UNL     1       7.046  10.686  -3.253  1.00  0.00     0.049 A 
ATOM     48  C   UNL     1       7.152   8.124   1.754  1.00  0.00     0.074 A 
ATOM     49  C   UNL     1       5.798  10.956  -2.702  1.00  0.00     0.029 A 
ATOM     50  N   UNL     1       7.918  10.707  -2.177  1.00  0.00    -0.354 N 
ATOM     51  N   UNL     1       6.970   9.125   0.941  1.00  0.00    -0.248 NA
ATOM     52  C   UNL     1       8.249   8.374   2.687  1.00  0.00     0.031 C 
ATOM     53  C   UNL     1       5.947  11.158  -1.296  1.00  0.00     0.029 A 
ATOM     54  C   UNL     1       7.287  11.031  -0.987  1.00  0.00     0.049 A 
ATOM     55  H   UNL     1       8.881  10.514  -2.249  1.00  0.00     0.167 HD
ATOM     56  C   UNL     1       7.960  10.044   1.095  1.00  0.00     0.074 A 
ATOM     57  C   UNL     1       8.709   9.561   2.245  1.00  0.00     0.031 C 
ATOM     58  C   UNL     1       8.091  11.094   0.231  1.00  0.00     0.037 A 
BRANCH  45  59
ATOM     59  C   UNL     1       7.094  10.817  -5.896  1.00  0.00     0.058 A 
ATOM     60  C   UNL     1       6.181  11.890  -5.971  1.00  0.00     0.135 A 
ATOM     61  C   UNL     1       7.634  10.437  -7.146  1.00  0.00     0.135 A 
ATOM     62  F   UNL     1       5.701  12.482  -4.870  1.00  0.00    -0.206 F 
ATOM     63  C   UNL     1       5.753  12.447  -7.181  1.00  0.00     0.059 A 
ATOM     64  C   UNL     1       7.164  10.916  -8.372  1.00  0.00     0.059 A 
ATOM     65  F   UNL     1       8.711   9.642  -7.230  1.00  0.00    -0.206 F 
ATOM     66  C   UNL     1       6.225  11.932  -8.381  1.00  0.00     0.060 A 
BRANCH  66  67
ATOM     67  S   UNL     1       5.689  12.676  -9.932  1.00  0.00     0.124 S 
ATOM     68  O   UNL     1       4.236  12.570  -9.845  1.00  0.00    -0.237 OA
ATOM     69  O   UNL     1       6.235  14.025  -9.824  1.00  0.00    -0.237 OA
ATOM     70  O   UNL     1       6.311  11.833 -10.949  1.00  0.00    -0.744 OA
ENDBRANCH  66  67
ENDBRANCH  45  59
BRANCH  46  71
ATOM     71  C   UNL     1       6.782   5.481   2.278  1.00  0.00     0.058 A 
ATOM     72  C   UNL     1       5.689   4.629   2.546  1.00  0.00     0.135 A 
ATOM     73  C   UNL     1       7.783   4.853   1.561  1.00  0.00     0.135 A 
ATOM     74  F   UNL     1       4.977   4.802   3.667  1.00  0.00    -0.206 F 
ATOM     75  C   UNL     1       5.256   3.674   1.619  1.00  0.00     0.059 A 
ATOM     76  C   UNL     1       7.355   3.919   0.611  1.00  0.00     0.059 A 
ATOM     77  F   UNL     1       8.966   5.468   1.378  1.00  0.00    -0.206 F 
ATOM     78  C   UNL     1       6.046   3.486   0.505  1.00  0.00     0.060 A 
BRANCH  78  79
ATOM     79  S   UNL     1       5.246   3.016  -1.224  1.00  0.00     0.124 S 
ATOM     80  O   UNL     1       3.862   2.885  -0.800  1.00  0.00    -0.237 OA
ATOM     81  O   UNL     1       5.458   4.145  -2.092  1.00  0.00    -0.237 OA
ATOM     82  O   UNL     1       5.848   1.769  -1.664  1.00  0.00    -0.744 OA
ENDBRANCH  78  79
ENDBRANCH  46  71
BRANCH  58  83
ATOM     83  C   UNL     1       9.029  12.252   0.439  1.00  0.00     0.058 A 
ATOM     84  C   UNL     1       9.359  12.741   1.714  1.00  0.00     0.135 A 
ATOM     85  C   UNL     1       9.527  13.010  -0.648  1.00  0.00     0.135 A 
ATOM     86  F   UNL     1       8.815  12.215   2.822  1.00  0.00    -0.206 F 
ATOM     87  C   UNL     1      10.225  13.818   1.897  1.00  0.00     0.059 A 
ATOM     88  C   UNL     1      10.354  14.112  -0.490  1.00  0.00     0.059 A 
ATOM     89  F   UNL     1       9.235  12.719  -1.922  1.00  0.00    -0.206 F 
ATOM     90  C   UNL     1      10.732  14.485   0.786  1.00  0.00     0.060 A 
BRANCH  90  91
ATOM     91  S   UNL     1      11.861  15.862   1.021  1.00  0.00     0.124 S 
ATOM     92  O   UNL     1      11.219  16.614   2.095  1.00  0.00    -0.237 OA
ATOM     93  O   UNL     1      13.092  15.166   1.383  1.00  0.00    -0.237 OA
ATOM     94  O   UNL     1      11.872  16.523  -0.280  1.00  0.00    -0.744 OA
ENDBRANCH  90  91
ENDBRANCH  58  83
ENDBRANCH  32  33
ENDBRANCH  24  27
ENDBRANCH  22  23
ENDBRANCH   1  22
TORSDOF 15
