REMARK SMILES Cc1ccc(F)cc1NC(=O)c1nn(C)cc1C(=O)NCCCNC(=O)c1ccc(-c2c3nc(c(-c4c(F)cc(S(=O)(=O)[O-])cc4F)c4ccc([nH]4)c(-c4c(F)cc(S(=O)(=O)[O-])cc4F)c4nc(c(-c5c(F)cc(S(=O)(=O)[O-])cc5F)c5ccc2[nH]5)C=C4)C=C3)cc1
REMARK SMILES IDX 22 1 21 2 20 3 18 4 19 5 17 7 12 8 13 9 14 10 16 11 15 12
REMARK SMILES IDX 10 13 9 14 11 16 8 17 1 18 2 19 3 20 4 21 7 22 5 23 6 24
REMARK SMILES IDX 23 25 24 26 25 27 26 29 27 30 28 31 92 32 29 33 91 34 30 35
REMARK SMILES IDX 31 36 32 37 85 38 33 39 90 40 84 41 86 42 34 43 89 44 83 45
REMARK SMILES IDX 82 46 35 48 69 49 48 50 68 51 49 52 52 53 67 54 87 55 50 56
REMARK SMILES IDX 51 57 66 59 88 60 53 61 36 62 37 63 46 64 38 65 39 66 45 67
REMARK SMILES IDX 47 68 40 69 41 70 42 71 43 72 44 73 70 74 71 75 80 76 72 77
REMARK SMILES IDX 73 78 79 79 81 80 74 81 75 82 76 83 77 84 78 85 54 86 55 87
REMARK SMILES IDX 64 88 56 89 57 90 63 91 65 92 58 93 59 94 60 95 61 96 62 97
REMARK H PARENT 20 6 9 15 24 28 86 47 52 58
REMARK Flexibility Score: inf
ROOT
ATOM      1  C   UNL     1      -4.033  -0.242  -2.250  1.00  0.00     0.042 C 
ENDROOT
BRANCH   1   2
ATOM      2  C   UNL     1      -3.579  -1.563  -2.865  1.00  0.00     0.118 C 
BRANCH   2   3
ATOM      3  N   UNL     1      -2.138  -1.739  -2.891  1.00  0.00    -0.352 N 
ATOM      4  C   UNL     1      -1.253  -2.488  -2.156  1.00  0.00     0.255 C 
ATOM      5  O   UNL     1      -0.075  -2.435  -2.518  1.00  0.00    -0.269 OA
ATOM      6  H   UNL     1      -1.698  -1.203  -3.590  1.00  0.00     0.163 HD
BRANCH   4   7
ATOM      7  C   UNL     1      -1.638  -3.278  -0.994  1.00  0.00     0.090 A 
ATOM      8  C   UNL     1      -0.732  -3.767   0.018  1.00  0.00     0.163 A 
ATOM      9  N   UNL     1      -1.381  -4.473   0.965  1.00  0.00    -0.167 NA
ATOM     10  N   UNL     1      -2.660  -4.434   0.588  1.00  0.00    -0.274 N 
ATOM     11  C   UNL     1      -2.864  -3.771  -0.586  1.00  0.00     0.123 A 
ATOM     12  C   UNL     1      -3.664  -5.054   1.420  1.00  0.00     0.173 C 
BRANCH   8  13
ATOM     13  C   UNL     1       0.722  -3.592   0.120  1.00  0.00     0.277 C 
ATOM     14  N   UNL     1       1.295  -2.340   0.238  1.00  0.00    -0.320 N 
ATOM     15  H   UNL     1       2.279  -2.360   0.220  1.00  0.00     0.170 HD
ATOM     16  O   UNL     1       1.489  -4.560   0.096  1.00  0.00    -0.267 OA
BRANCH  14  17
ATOM     17  C   UNL     1       0.767  -1.041   0.379  1.00  0.00     0.047 A 
ATOM     18  C   UNL     1       3.059  -0.001  -0.234  1.00  0.00     0.046 C 
ATOM     19  C   UNL     1       1.589   0.074   0.091  1.00  0.00    -0.027 A 
ATOM     20  C   UNL     1       1.027   1.369   0.112  1.00  0.00     0.008 A 
ATOM     21  C   UNL     1      -0.311   1.567   0.435  1.00  0.00     0.039 A 
ATOM     22  C   UNL     1      -0.548  -0.810   0.792  1.00  0.00     0.065 A 
ATOM     23  C   UNL     1      -1.080   0.475   0.791  1.00  0.00     0.125 A 
ATOM     24  F   UNL     1      -2.362   0.653   1.134  1.00  0.00    -0.207 F 
ENDBRANCH  14  17
ENDBRANCH   8  13
ENDBRANCH   4   7
ENDBRANCH   2   3
ENDBRANCH   1   2
BRANCH   1  25
ATOM     25  C   UNL     1      -3.714   1.001  -3.084  1.00  0.00     0.118 C 
BRANCH  25  26
ATOM     26  N   UNL     1      -4.270   0.934  -4.430  1.00  0.00    -0.352 N 
ATOM     27  C   UNL     1      -5.241   1.667  -5.064  1.00  0.00     0.251 C 
ATOM     28  H   UNL     1      -3.873   0.228  -4.990  1.00  0.00     0.163 HD
ATOM     29  O   UNL     1      -5.678   1.243  -6.133  1.00  0.00    -0.269 OA
BRANCH  27  30
ATOM     30  C   UNL     1      -5.769   2.937  -4.512  1.00  0.00     0.039 A 
ATOM     31  C   UNL     1      -7.112   3.255  -4.752  1.00  0.00     0.014 A 
ATOM     32  C   UNL     1      -4.955   3.862  -3.855  1.00  0.00     0.014 A 
ATOM     33  C   UNL     1      -7.643   4.466  -4.298  1.00  0.00     0.010 A 
ATOM     34  C   UNL     1      -5.502   5.043  -3.343  1.00  0.00     0.010 A 
ATOM     35  C   UNL     1      -6.850   5.361  -3.564  1.00  0.00    -0.014 A 
BRANCH  35  36
ATOM     36  C   UNL     1      -7.431   6.617  -3.015  1.00  0.00     0.031 A 
ATOM     37  C   UNL     1      -6.955   7.964  -3.493  1.00  0.00     0.074 A 
ATOM     38  C   UNL     1      -8.364   6.540  -2.045  1.00  0.00     0.049 A 
ATOM     39  N   UNL     1      -7.337   9.157  -3.110  1.00  0.00    -0.248 NA
ATOM     40  C   UNL     1      -5.895   7.977  -4.514  1.00  0.00     0.031 C 
ATOM     41  C   UNL     1      -8.861   5.298  -1.446  1.00  0.00     0.029 A 
ATOM     42  N   UNL     1      -9.056   7.524  -1.383  1.00  0.00    -0.354 N 
ATOM     43  C   UNL     1      -6.555  10.058  -3.824  1.00  0.00     0.074 A 
ATOM     44  C   UNL     1      -5.651   9.275  -4.638  1.00  0.00     0.031 C 
ATOM     45  C   UNL     1      -9.786   5.594  -0.520  1.00  0.00     0.029 A 
ATOM     46  C   UNL     1      -9.933   7.043  -0.438  1.00  0.00     0.049 A 
ATOM     47  H   UNL     1      -8.936   8.484  -1.567  1.00  0.00     0.167 HD
ATOM     48  C   UNL     1      -6.601  11.412  -3.816  1.00  0.00     0.037 A 
ATOM     49  C   UNL     1     -10.760   7.694   0.403  1.00  0.00     0.037 A 
ATOM     50  C   UNL     1      -7.533  12.188  -3.038  1.00  0.00     0.049 A 
ATOM     51  C   UNL     1     -10.828   9.195   0.351  1.00  0.00     0.074 A 
ATOM     52  C   UNL     1      -7.717  13.561  -3.034  1.00  0.00     0.029 A 
ATOM     53  N   UNL     1      -8.436  11.663  -2.126  1.00  0.00    -0.354 N 
ATOM     54  N   UNL     1     -10.141  10.025  -0.396  1.00  0.00    -0.248 NA
ATOM     55  C   UNL     1     -11.792   9.848   1.248  1.00  0.00     0.031 C 
ATOM     56  C   UNL     1      -8.705  13.869  -2.093  1.00  0.00     0.029 A 
ATOM     57  C   UNL     1      -9.165  12.685  -1.540  1.00  0.00     0.049 A 
ATOM     58  H   UNL     1      -8.544  10.705  -1.925  1.00  0.00     0.167 HD
ATOM     59  C   UNL     1     -10.600  11.297  -0.071  1.00  0.00     0.074 A 
ATOM     60  C   UNL     1     -11.640  11.124   0.922  1.00  0.00     0.031 C 
ATOM     61  C   UNL     1     -10.194  12.499  -0.549  1.00  0.00     0.037 A 
BRANCH  48  62
ATOM     62  C   UNL     1      -5.624  12.157  -4.686  1.00  0.00     0.058 A 
ATOM     63  C   UNL     1      -5.762  12.196  -6.082  1.00  0.00     0.135 A 
ATOM     64  C   UNL     1      -4.581  12.901  -4.110  1.00  0.00     0.135 A 
ATOM     65  F   UNL     1      -6.734  11.493  -6.685  1.00  0.00    -0.206 F 
ATOM     66  C   UNL     1      -4.893  12.934  -6.878  1.00  0.00     0.059 A 
ATOM     67  C   UNL     1      -3.713  13.665  -4.886  1.00  0.00     0.059 A 
ATOM     68  F   UNL     1      -4.403  12.898  -2.780  1.00  0.00    -0.206 F 
ATOM     69  C   UNL     1      -3.872  13.668  -6.271  1.00  0.00     0.060 A 
BRANCH  69  70
ATOM     70  S   UNL     1      -2.772  14.646  -7.316  1.00  0.00     0.124 S 
ATOM     71  O   UNL     1      -1.943  13.606  -7.918  1.00  0.00    -0.237 OA
ATOM     72  O   UNL     1      -3.706  15.312  -8.218  1.00  0.00    -0.237 OA
ATOM     73  O   UNL     1      -2.090  15.521  -6.368  1.00  0.00    -0.744 OA
ENDBRANCH  69  70
ENDBRANCH  48  62
BRANCH  49  74
ATOM     74  C   UNL     1     -11.605   6.927   1.356  1.00  0.00     0.058 A 
ATOM     75  C   UNL     1     -12.992   6.831   1.178  1.00  0.00     0.135 A 
ATOM     76  C   UNL     1     -11.039   6.274   2.461  1.00  0.00     0.135 A 
ATOM     77  F   UNL     1     -13.579   7.443   0.138  1.00  0.00    -0.206 F 
ATOM     78  C   UNL     1     -13.795   6.134   2.075  1.00  0.00     0.059 A 
ATOM     79  C   UNL     1     -11.817   5.550   3.358  1.00  0.00     0.059 A 
ATOM     80  F   UNL     1      -9.713   6.319   2.663  1.00  0.00    -0.206 F 
ATOM     81  C   UNL     1     -13.197   5.497   3.164  1.00  0.00     0.060 A 
BRANCH  81  82
ATOM     82  S   UNL     1     -14.239   4.560   4.303  1.00  0.00     0.124 S 
ATOM     83  O   UNL     1     -14.846   5.627   5.090  1.00  0.00    -0.237 OA
ATOM     84  O   UNL     1     -15.132   3.849   3.393  1.00  0.00    -0.237 OA
ATOM     85  O   UNL     1     -13.281   3.716   5.012  1.00  0.00    -0.744 OA
ENDBRANCH  81  82
ENDBRANCH  49  74
BRANCH  61  86
ATOM     86  C   UNL     1     -10.889  13.719  -0.012  1.00  0.00     0.058 A 
ATOM     87  C   UNL     1     -10.653  14.183   1.292  1.00  0.00     0.135 A 
ATOM     88  C   UNL     1     -11.786  14.441  -0.815  1.00  0.00     0.135 A 
ATOM     89  F   UNL     1      -9.809  13.524   2.101  1.00  0.00    -0.206 F 
ATOM     90  C   UNL     1     -11.309  15.303   1.793  1.00  0.00     0.059 A 
ATOM     91  C   UNL     1     -12.433  15.579  -0.343  1.00  0.00     0.059 A 
ATOM     92  F   UNL     1     -12.038  14.046  -2.073  1.00  0.00    -0.206 F 
ATOM     93  C   UNL     1     -12.201  15.992   0.969  1.00  0.00     0.060 A 
BRANCH  93  94
ATOM     94  S   UNL     1     -13.043  17.447   1.627  1.00  0.00     0.124 S 
ATOM     95  O   UNL     1     -14.072  16.838   2.462  1.00  0.00    -0.237 OA
ATOM     96  O   UNL     1     -11.972  18.136   2.341  1.00  0.00    -0.237 OA
ATOM     97  O   UNL     1     -13.526  18.128   0.429  1.00  0.00    -0.744 OA
ENDBRANCH  93  94
ENDBRANCH  61  86
ENDBRANCH  35  36
ENDBRANCH  27  30
ENDBRANCH  25  26
ENDBRANCH   1  25
TORSDOF 15
