REMARK SMILES C[C@@H](CNC(=O)N(C)CC(C)(C)O)C(=O)NCCCNC(=O)c1ccc(-c2c3nc(c(-c4c(F)cc(S(=O)(=O)[O-])cc4F)c4ccc([nH]4)c(-c4c(F)cc(S(=O)(=O)[O-])cc4F)c4nc(c(-c5c(F)cc(S(=O)(=O)[O-])cc5F)c5ccc2[nH]5)C=C4)C=C3)cc1
REMARK SMILES IDX 14 1 15 2 16 3 2 5 1 6 3 7 4 8 5 9 6 11 7 12 8 13 9 14 10 15
REMARK SMILES IDX 11 16 12 17 13 18 17 20 18 21 19 22 20 23 21 24 22 26 23 27
REMARK SMILES IDX 24 28 88 29 25 30 87 31 26 32 27 33 28 34 81 35 29 36 86 37
REMARK SMILES IDX 80 38 82 39 30 40 85 41 79 42 78 43 31 45 65 46 44 47 64 48
REMARK SMILES IDX 45 49 48 50 63 51 83 52 46 53 47 54 62 56 84 57 49 58 32 59
REMARK SMILES IDX 33 60 42 61 34 62 35 63 41 64 43 65 36 66 37 67 38 68 39 69
REMARK SMILES IDX 40 70 66 71 67 72 76 73 68 74 69 75 75 76 77 77 70 78 71 79
REMARK SMILES IDX 72 80 73 81 74 82 50 83 51 84 60 85 52 86 53 87 59 88 61 89
REMARK SMILES IDX 54 90 55 91 56 92 57 93 58 94
REMARK H PARENT 16 4 4 10 13 19 20 25 82 44 48 55
REMARK Flexibility Score: inf
ROOT
ATOM      1  C   UNL     1      -0.722   0.609  -1.396  1.00  0.00     0.224 C 
ATOM      2  O   UNL     1      -1.321   1.626  -1.760  1.00  0.00    -0.275 OA
ATOM      3  N   UNL     1      -1.472  -0.467  -1.029  1.00  0.00    -0.356 N 
ATOM      4  H   UNL     1      -2.413  -0.272  -0.815  1.00  0.00     0.163 HD
ENDROOT
BRANCH   1   5
ATOM      5  C   UNL     1       0.803   0.609  -1.337  1.00  0.00     0.094 C 
ATOM      6  C   UNL     1       1.350   0.137   0.015  1.00  0.00     0.020 C 
BRANCH   5   7
ATOM      7  C   UNL     1       1.535   0.033  -2.565  1.00  0.00     0.130 C 
BRANCH   7   8
ATOM      8  N   UNL     1       1.163  -1.310  -2.961  1.00  0.00    -0.337 N 
ATOM      9  C   UNL     1       0.264  -1.906  -3.758  1.00  0.00     0.317 C 
ATOM     10  H   UNL     1       1.736  -1.978  -2.518  1.00  0.00     0.165 HD
ATOM     11  O   UNL     1       0.095  -3.099  -3.483  1.00  0.00    -0.249 OA
BRANCH   9  12
ATOM     12  N   UNL     1      -0.434  -1.296  -4.752  1.00  0.00    -0.325 N 
ATOM     13  C   UNL     1      -0.331   0.088  -5.182  1.00  0.00     0.148 C 
BRANCH  12  14
ATOM     14  C   UNL     1      -1.358  -2.131  -5.556  1.00  0.00     0.155 C 
BRANCH  14  15
ATOM     15  C   UNL     1      -0.738  -3.206  -6.508  1.00  0.00     0.077 C 
ATOM     16  C   UNL     1      -0.344  -4.511  -5.803  1.00  0.00     0.043 C 
ATOM     17  C   UNL     1      -1.770  -3.560  -7.592  1.00  0.00     0.043 C 
BRANCH  15  18
ATOM     18  O   UNL     1       0.396  -2.658  -7.196  1.00  0.00    -0.389 OA
ATOM     19  H   UNL     1       1.080  -2.417  -6.552  1.00  0.00     0.211 HD
ENDBRANCH  15  18
ENDBRANCH  14  15
ENDBRANCH  12  14
ENDBRANCH   9  12
ENDBRANCH   7   8
ENDBRANCH   5   7
ENDBRANCH   1   5
BRANCH   3  20
ATOM     20  C   UNL     1      -1.083  -1.858  -0.910  1.00  0.00     0.117 C 
BRANCH  20  21
ATOM     21  C   UNL     1      -1.546  -2.541   0.358  1.00  0.00     0.042 C 
BRANCH  21  22
ATOM     22  C   UNL     1      -3.028  -2.873   0.355  1.00  0.00     0.118 C 
BRANCH  22  23
ATOM     23  N   UNL     1      -3.416  -3.784  -0.719  1.00  0.00    -0.352 N 
ATOM     24  C   UNL     1      -3.985  -5.035  -0.681  1.00  0.00     0.251 C 
ATOM     25  H   UNL     1      -3.239  -3.443  -1.625  1.00  0.00     0.163 HD
ATOM     26  O   UNL     1      -4.104  -5.677  -1.717  1.00  0.00    -0.269 OA
BRANCH  24  27
ATOM     27  C   UNL     1      -4.429  -5.614   0.605  1.00  0.00     0.039 A 
ATOM     28  C   UNL     1      -4.237  -6.978   0.836  1.00  0.00     0.014 A 
ATOM     29  C   UNL     1      -5.034  -4.821   1.580  1.00  0.00     0.014 A 
ATOM     30  C   UNL     1      -4.592  -7.525   2.071  1.00  0.00     0.010 A 
ATOM     31  C   UNL     1      -5.261  -5.335   2.848  1.00  0.00     0.010 A 
ATOM     32  C   UNL     1      -5.071  -6.699   3.102  1.00  0.00    -0.014 A 
BRANCH  32  33
ATOM     33  C   UNL     1      -5.421  -7.249   4.436  1.00  0.00     0.031 A 
ATOM     34  C   UNL     1      -6.829  -7.111   4.957  1.00  0.00     0.074 A 
ATOM     35  C   UNL     1      -4.465  -7.821   5.194  1.00  0.00     0.049 A 
ATOM     36  N   UNL     1      -7.323  -7.484   6.109  1.00  0.00    -0.248 NA
ATOM     37  C   UNL     1      -7.802  -6.429   4.086  1.00  0.00     0.031 C 
ATOM     38  C   UNL     1      -3.053  -7.950   4.825  1.00  0.00     0.029 A 
ATOM     39  N   UNL     1      -4.535  -8.402   6.434  1.00  0.00    -0.354 N 
ATOM     40  C   UNL     1      -8.650  -7.069   6.104  1.00  0.00     0.074 A 
ATOM     41  C   UNL     1      -8.865  -6.349   4.871  1.00  0.00     0.031 C 
ATOM     42  C   UNL     1      -2.401  -8.606   5.798  1.00  0.00     0.029 A 
ATOM     43  C   UNL     1      -3.336  -8.911   6.875  1.00  0.00     0.049 A 
ATOM     44  H   UNL     1      -5.366  -8.450   6.960  1.00  0.00     0.167 HD
ATOM     45  C   UNL     1      -9.615  -7.299   7.026  1.00  0.00     0.037 A 
ATOM     46  C   UNL     1      -3.029  -9.554   8.018  1.00  0.00     0.037 A 
ATOM     47  C   UNL     1      -9.400  -8.049   8.235  1.00  0.00     0.049 A 
ATOM     48  C   UNL     1      -4.123  -9.820   9.016  1.00  0.00     0.074 A 
ATOM     49  C   UNL     1     -10.318  -8.390   9.212  1.00  0.00     0.029 A 
ATOM     50  N   UNL     1      -8.179  -8.578   8.631  1.00  0.00    -0.354 N 
ATOM     51  N   UNL     1      -5.389  -9.477   8.966  1.00  0.00    -0.248 NA
ATOM     52  C   UNL     1      -3.751 -10.576  10.219  1.00  0.00     0.031 C 
ATOM     53  C   UNL     1      -9.642  -9.086  10.221  1.00  0.00     0.029 A 
ATOM     54  C   UNL     1      -8.316  -9.230   9.844  1.00  0.00     0.049 A 
ATOM     55  H   UNL     1      -7.339  -8.500   8.123  1.00  0.00     0.167 HD
ATOM     56  C   UNL     1      -5.972 -10.004  10.113  1.00  0.00     0.074 A 
ATOM     57  C   UNL     1      -4.921 -10.701  10.828  1.00  0.00     0.031 C 
ATOM     58  C   UNL     1      -7.258  -9.923  10.537  1.00  0.00     0.037 A 
BRANCH  45  59
ATOM     59  C   UNL     1     -10.988  -6.744   6.753  1.00  0.00     0.058 A 
ATOM     60  C   UNL     1     -11.791  -7.235   5.711  1.00  0.00     0.135 A 
ATOM     61  C   UNL     1     -11.518  -5.722   7.557  1.00  0.00     0.135 A 
ATOM     62  F   UNL     1     -11.330  -8.198   4.897  1.00  0.00    -0.206 F 
ATOM     63  C   UNL     1     -13.055  -6.713   5.454  1.00  0.00     0.059 A 
ATOM     64  C   UNL     1     -12.793  -5.207   7.340  1.00  0.00     0.059 A 
ATOM     65  F   UNL     1     -10.795  -5.211   8.566  1.00  0.00    -0.206 F 
ATOM     66  C   UNL     1     -13.548  -5.699   6.276  1.00  0.00     0.060 A 
BRANCH  66  67
ATOM     67  S   UNL     1     -15.193  -5.039   5.936  1.00  0.00     0.124 S 
ATOM     68  O   UNL     1     -14.954  -4.277   4.714  1.00  0.00    -0.237 OA
ATOM     69  O   UNL     1     -15.989  -6.253   5.780  1.00  0.00    -0.237 OA
ATOM     70  O   UNL     1     -15.493  -4.244   7.122  1.00  0.00    -0.744 OA
ENDBRANCH  66  67
ENDBRANCH  45  59
BRANCH  46  71
ATOM     71  C   UNL     1      -1.638 -10.027   8.257  1.00  0.00     0.058 A 
ATOM     72  C   UNL     1      -1.328 -11.395   8.253  1.00  0.00     0.135 A 
ATOM     73  C   UNL     1      -0.589  -9.122   8.484  1.00  0.00     0.135 A 
ATOM     74  F   UNL     1      -2.295 -12.301   8.044  1.00  0.00    -0.206 F 
ATOM     75  C   UNL     1      -0.035 -11.852   8.489  1.00  0.00     0.059 A 
ATOM     76  C   UNL     1       0.717  -9.553   8.694  1.00  0.00     0.059 A 
ATOM     77  F   UNL     1      -0.827  -7.801   8.477  1.00  0.00    -0.206 F 
ATOM     78  C   UNL     1       0.982 -10.921   8.707  1.00  0.00     0.060 A 
BRANCH  78  79
ATOM     79  S   UNL     1       2.664 -11.524   8.972  1.00  0.00     0.124 S 
ATOM     80  O   UNL     1       2.567 -12.088  10.313  1.00  0.00    -0.237 OA
ATOM     81  O   UNL     1       2.820 -12.484   7.884  1.00  0.00    -0.237 OA
ATOM     82  O   UNL     1       3.475 -10.315   8.852  1.00  0.00    -0.744 OA
ENDBRANCH  78  79
ENDBRANCH  46  71
BRANCH  58  83
ATOM     83  C   UNL     1      -7.609 -10.647  11.808  1.00  0.00     0.058 A 
ATOM     84  C   UNL     1      -7.149 -10.214  13.062  1.00  0.00     0.135 A 
ATOM     85  C   UNL     1      -8.435 -11.782  11.769  1.00  0.00     0.135 A 
ATOM     86  F   UNL     1      -6.356  -9.135  13.156  1.00  0.00    -0.206 F 
ATOM     87  C   UNL     1      -7.457 -10.909  14.227  1.00  0.00     0.059 A 
ATOM     88  C   UNL     1      -8.784 -12.472  12.925  1.00  0.00     0.059 A 
ATOM     89  F   UNL     1      -8.917 -12.229  10.598  1.00  0.00    -0.206 F 
ATOM     90  C   UNL     1      -8.271 -12.041  14.147  1.00  0.00     0.060 A 
BRANCH  90  91
ATOM     91  S   UNL     1      -8.658 -12.938  15.664  1.00  0.00     0.124 S 
ATOM     92  O   UNL     1      -7.393 -13.614  15.934  1.00  0.00    -0.237 OA
ATOM     93  O   UNL     1      -9.011 -11.861  16.584  1.00  0.00    -0.237 OA
ATOM     94  O   UNL     1      -9.763 -13.808  15.272  1.00  0.00    -0.744 OA
ENDBRANCH  90  91
ENDBRANCH  58  83
ENDBRANCH  32  33
ENDBRANCH  24  27
ENDBRANCH  22  23
ENDBRANCH  21  22
ENDBRANCH  20  21
ENDBRANCH   3  20
TORSDOF 19
