REMARK SMILES Cc1ccc2nc(C(=O)NCCCNC(=O)c3ccc(-c4c5nc(c(-c6c(F)cc(S(=O)(=O)[O-])cc6F)c6ccc([nH]6)c(-c6c(F)cc(S(=O)(=O)[O-])cc6F)c6nc(c(-c7c(F)cc(S(=O)(=O)[O-])cc7F)c7ccc4[nH]7)C=C6)C=C5)cc3)cc(N3CCOCC3)c2c1
REMARK SMILES IDX 13 1 12 2 11 3 10 4 8 5 9 6 7 8 1 9 2 10 3 11 92 12 4 13
REMARK SMILES IDX 91 14 5 15 84 16 6 17 83 18 85 19 86 20 90 21 87 22 89 23
REMARK SMILES IDX 88 24 14 25 15 26 16 28 17 29 18 30 82 31 19 32 81 33 20 34
REMARK SMILES IDX 21 35 22 36 75 37 23 38 80 39 74 40 76 41 24 42 79 43 73 44
REMARK SMILES IDX 72 45 25 47 59 48 38 49 58 50 39 51 42 52 57 53 77 54 40 55
REMARK SMILES IDX 41 56 56 58 78 59 43 60 26 61 27 62 36 63 28 64 29 65 35 66
REMARK SMILES IDX 37 67 30 68 31 69 32 70 33 71 34 72 60 73 61 74 70 75 62 76
REMARK SMILES IDX 63 77 69 78 71 79 64 80 65 81 66 82 67 83 68 84 44 85 45 86
REMARK SMILES IDX 54 87 46 88 47 89 53 90 55 91 48 92 49 93 50 94 51 95 52 96
REMARK H PARENT 10 7 14 27 76 46 42 57
REMARK Flexibility Score: inf
ROOT
ATOM      1  C   UNL     1      -7.224  -1.842   0.963  1.00  0.00     0.118 C 
ENDROOT
BRANCH   1   2
ATOM      2  C   UNL     1      -5.772  -2.080   0.550  1.00  0.00     0.042 C 
BRANCH   2   3
ATOM      3  C   UNL     1      -5.332  -1.226  -0.641  1.00  0.00     0.118 C 
BRANCH   3   4
ATOM      4  N   UNL     1      -5.083   0.145  -0.241  1.00  0.00    -0.351 N 
ATOM      5  C   UNL     1      -3.938   0.836   0.087  1.00  0.00     0.269 C 
ATOM      6  O   UNL     1      -4.087   2.034   0.342  1.00  0.00    -0.268 OA
ATOM      7  H   UNL     1      -5.899   0.694  -0.195  1.00  0.00     0.163 HD
BRANCH   5   8
ATOM      8  C   UNL     1      -2.558   0.230   0.109  1.00  0.00     0.130 A 
ATOM      9  C   UNL     1       3.873  -0.452  -0.151  1.00  0.00     0.044 C 
ATOM     10  C   UNL     1       2.436  -0.031  -0.110  1.00  0.00    -0.050 A 
ATOM     11  C   UNL     1       2.068   1.310  -0.155  1.00  0.00     0.005 A 
ATOM     12  C   UNL     1       1.429  -0.997  -0.022  1.00  0.00     0.016 A 
ATOM     13  C   UNL     1       0.716   1.664  -0.124  1.00  0.00     0.029 A 
ATOM     14  C   UNL     1       0.060  -0.647   0.061  1.00  0.00     0.024 A 
ATOM     15  C   UNL     1      -0.291   0.714  -0.025  1.00  0.00     0.073 A 
ATOM     16  C   UNL     1      -0.986  -1.593   0.213  1.00  0.00     0.049 A 
ATOM     17  N   UNL     1      -1.559   1.138  -0.025  1.00  0.00    -0.242 NA
ATOM     18  C   UNL     1      -2.300  -1.119   0.276  1.00  0.00     0.060 A 
BRANCH  16  19
ATOM     19  N   UNL     1      -0.722  -2.959   0.294  1.00  0.00    -0.366 N 
ATOM     20  C   UNL     1      -0.139  -3.478   1.546  1.00  0.00     0.145 C 
ATOM     21  C   UNL     1      -1.589  -3.931  -0.392  1.00  0.00     0.145 C 
ATOM     22  C   UNL     1       0.594  -4.796   1.242  1.00  0.00     0.181 C 
ATOM     23  C   UNL     1      -0.804  -5.234  -0.616  1.00  0.00     0.181 C 
ATOM     24  O   UNL     1      -0.277  -5.755   0.616  1.00  0.00    -0.378 OA
ENDBRANCH  16  19
ENDBRANCH   5   8
ENDBRANCH   3   4
ENDBRANCH   2   3
ENDBRANCH   1   2
BRANCH   1  25
ATOM     25  N   UNL     1      -8.154  -2.355  -0.030  1.00  0.00    -0.352 N 
ATOM     26  C   UNL     1      -9.176  -3.261   0.096  1.00  0.00     0.251 C 
ATOM     27  H   UNL     1      -8.031  -1.994  -0.938  1.00  0.00     0.163 HD
ATOM     28  O   UNL     1      -9.674  -3.735  -0.922  1.00  0.00    -0.269 OA
BRANCH  26  29
ATOM     29  C   UNL     1      -9.682  -3.671   1.427  1.00  0.00     0.039 A 
ATOM     30  C   UNL     1     -10.102  -4.995   1.600  1.00  0.00     0.014 A 
ATOM     31  C   UNL     1      -9.824  -2.756   2.474  1.00  0.00     0.014 A 
ATOM     32  C   UNL     1     -10.636  -5.404   2.825  1.00  0.00     0.010 A 
ATOM     33  C   UNL     1     -10.296  -3.181   3.716  1.00  0.00     0.010 A 
ATOM     34  C   UNL     1     -10.724  -4.504   3.898  1.00  0.00    -0.014 A 
BRANCH  34  35
ATOM     35  C   UNL     1     -11.288  -4.928   5.206  1.00  0.00     0.031 A 
ATOM     36  C   UNL     1     -12.579  -4.332   5.703  1.00  0.00     0.074 A 
ATOM     37  C   UNL     1     -10.618  -5.818   5.963  1.00  0.00     0.049 A 
ATOM     38  N   UNL     1     -13.203  -4.538   6.834  1.00  0.00    -0.248 NA
ATOM     39  C   UNL     1     -13.241  -3.355   4.823  1.00  0.00     0.031 C 
ATOM     40  C   UNL     1      -9.336  -6.432   5.610  1.00  0.00     0.029 A 
ATOM     41  N   UNL     1     -10.917  -6.356   7.189  1.00  0.00    -0.354 N 
ATOM     42  C   UNL     1     -14.319  -3.709   6.810  1.00  0.00     0.074 A 
ATOM     43  C   UNL     1     -14.261  -2.961   5.572  1.00  0.00     0.031 C 
ATOM     44  C   UNL     1      -8.970  -7.277   6.587  1.00  0.00     0.029 A 
ATOM     45  C   UNL     1      -9.973  -7.244   7.647  1.00  0.00     0.049 A 
ATOM     46  H   UNL     1     -11.731  -6.128   7.693  1.00  0.00     0.167 HD
ATOM     47  C   UNL     1     -15.312  -3.596   7.725  1.00  0.00     0.037 A 
ATOM     48  C   UNL     1      -9.921  -7.952   8.792  1.00  0.00     0.037 A 
ATOM     49  C   UNL     1     -15.381  -4.365   8.940  1.00  0.00     0.049 A 
ATOM     50  C   UNL     1     -11.050  -7.832   9.778  1.00  0.00     0.074 A 
ATOM     51  C   UNL     1     -16.369  -4.362   9.909  1.00  0.00     0.029 A 
ATOM     52  N   UNL     1     -14.423  -5.282   9.350  1.00  0.00    -0.354 N 
ATOM     53  N   UNL     1     -12.122  -7.079   9.716  1.00  0.00    -0.248 NA
ATOM     54  C   UNL     1     -10.969  -8.667  10.984  1.00  0.00     0.031 C 
ATOM     55  C   UNL     1     -15.995  -5.255  10.920  1.00  0.00     0.029 A 
ATOM     56  C   UNL     1     -14.793  -5.845  10.561  1.00  0.00     0.049 A 
ATOM     57  H   UNL     1     -13.602  -5.501   8.854  1.00  0.00     0.167 HD
ATOM     58  C   UNL     1     -12.857  -7.369  10.860  1.00  0.00     0.074 A 
ATOM     59  C   UNL     1     -12.112  -8.374  11.590  1.00  0.00     0.031 C 
ATOM     60  C   UNL     1     -14.042  -6.851  11.269  1.00  0.00     0.037 A 
BRANCH  47  61
ATOM     61  C   UNL     1     -16.410  -2.607   7.441  1.00  0.00     0.058 A 
ATOM     62  C   UNL     1     -17.359  -2.830   6.429  1.00  0.00     0.135 A 
ATOM     63  C   UNL     1     -16.532  -1.433   8.202  1.00  0.00     0.135 A 
ATOM     64  F   UNL     1     -17.281  -3.928   5.661  1.00  0.00    -0.206 F 
ATOM     65  C   UNL     1     -18.368  -1.912   6.161  1.00  0.00     0.059 A 
ATOM     66  C   UNL     1     -17.550  -0.512   7.969  1.00  0.00     0.059 A 
ATOM     67  F   UNL     1     -15.654  -1.169   9.182  1.00  0.00    -0.206 F 
ATOM     68  C   UNL     1     -18.454  -0.753   6.935  1.00  0.00     0.060 A 
BRANCH  68  69
ATOM     69  S   UNL     1     -19.768   0.432   6.574  1.00  0.00     0.124 S 
ATOM     70  O   UNL     1     -19.264   1.060   5.356  1.00  0.00    -0.237 OA
ATOM     71  O   UNL     1     -20.932  -0.432   6.405  1.00  0.00    -0.237 OA
ATOM     72  O   UNL     1     -19.790   1.285   7.758  1.00  0.00    -0.744 OA
ENDBRANCH  68  69
ENDBRANCH  47  61
BRANCH  48  73
ATOM     73  C   UNL     1      -8.776  -8.865   9.047  1.00  0.00     0.058 A 
ATOM     74  C   UNL     1      -8.937 -10.257   8.984  1.00  0.00     0.135 A 
ATOM     75  C   UNL     1      -7.497  -8.366   9.338  1.00  0.00     0.135 A 
ATOM     76  F   UNL     1     -10.142 -10.780   8.713  1.00  0.00    -0.206 F 
ATOM     77  C   UNL     1      -7.875 -11.124   9.215  1.00  0.00     0.059 A 
ATOM     78  C   UNL     1      -6.414  -9.213   9.550  1.00  0.00     0.059 A 
ATOM     79  F   UNL     1      -7.288  -7.041   9.391  1.00  0.00    -0.206 F 
ATOM     80  C   UNL     1      -6.615 -10.592   9.496  1.00  0.00     0.060 A 
BRANCH  80  81
ATOM     81  S   UNL     1      -5.230 -11.724   9.741  1.00  0.00     0.124 S 
ATOM     82  O   UNL     1      -5.498 -12.230  11.082  1.00  0.00    -0.237 OA
ATOM     83  O   UNL     1      -5.413 -12.676   8.650  1.00  0.00    -0.237 OA
ATOM     84  O   UNL     1      -4.063 -10.856   9.613  1.00  0.00    -0.744 OA
ENDBRANCH  80  81
ENDBRANCH  48  73
BRANCH  60  85
ATOM     85  C   UNL     1     -14.623  -7.391  12.545  1.00  0.00     0.058 A 
ATOM     86  C   UNL     1     -14.090  -7.054  13.799  1.00  0.00     0.135 A 
ATOM     87  C   UNL     1     -15.746  -8.232  12.512  1.00  0.00     0.135 A 
ATOM     88  F   UNL     1     -13.013  -6.257  13.883  1.00  0.00    -0.206 F 
ATOM     89  C   UNL     1     -14.633  -7.556  14.976  1.00  0.00     0.059 A 
ATOM     90  C   UNL     1     -16.321  -8.726  13.679  1.00  0.00     0.059 A 
ATOM     91  F   UNL     1     -16.300  -8.575  11.339  1.00  0.00    -0.206 F 
ATOM     92  C   UNL     1     -15.748  -8.395  14.906  1.00  0.00     0.060 A 
BRANCH  92  93
ATOM     93  S   UNL     1     -16.456  -9.030  16.440  1.00  0.00     0.124 S 
ATOM     94  O   UNL     1     -15.508 -10.084  16.786  1.00  0.00    -0.237 OA
ATOM     95  O   UNL     1     -16.439  -7.855  17.305  1.00  0.00    -0.237 OA
ATOM     96  O   UNL     1     -17.783  -9.485  16.038  1.00  0.00    -0.744 OA
ENDBRANCH  92  93
ENDBRANCH  60  85
ENDBRANCH  34  35
ENDBRANCH  26  29
ENDBRANCH   1  25
TORSDOF 14
