REMARK SMILES COc1cccc(N2C(=O)/C(=C/c3ccccc3C(=O)NCCCNC(=O)c3ccc(-c4c5nc(c(-c6c(F)cc(S(=O)(=O)[O-])cc6F)c6ccc([nH]6)c(-c6c(F)cc(S(=O)(=O)[O-])cc6F)c6nc(c(-c7c(F)cc(S(=O)(=O)[O-])cc7F)c7ccc4[nH]7)C=C6)C=C5)cc3)SC2=S)c1
REMARK SMILES IDX 23 1 22 2 21 3 19 4 20 5 18 7 13 8 14 9 15 10 17 11 16 12
REMARK SMILES IDX 12 13 8 14 9 15 95 16 10 17 11 18 94 19 96 20 7 21 3 22 4 23
REMARK SMILES IDX 97 24 5 25 6 26 2 27 1 28 24 29 25 30 26 31 27 33 28 34
REMARK SMILES IDX 29 35 93 36 30 37 92 38 31 39 32 40 33 41 86 42 34 43 91 44
REMARK SMILES IDX 85 45 87 46 35 47 90 48 84 49 83 50 36 52 70 53 49 54 69 55
REMARK SMILES IDX 50 56 53 57 68 58 88 59 51 60 52 61 67 63 89 64 54 65 37 66
REMARK SMILES IDX 38 67 47 68 39 69 40 70 46 71 48 72 41 73 42 74 43 75 44 76
REMARK SMILES IDX 45 77 71 78 72 79 81 80 73 81 74 82 80 83 82 84 75 85 76 86
REMARK SMILES IDX 77 87 78 88 79 89 55 90 56 91 65 92 57 93 58 94 64 95 66 96
REMARK SMILES IDX 59 97 60 98 61 99 62 100 63 101
REMARK H PARENT 21 6 25 32 87 51 53 62
REMARK Flexibility Score: inf
ROOT
ATOM      1  C   UNL     1       4.993   7.534  -2.667  1.00  0.00     0.042 C 
ENDROOT
BRANCH   1   2
ATOM      2  C   UNL     1       6.051   6.489  -2.393  1.00  0.00     0.118 C 
BRANCH   2   3
ATOM      3  N   UNL     1       6.884   6.073  -3.491  1.00  0.00    -0.352 N 
ATOM      4  C   UNL     1       8.119   5.462  -3.396  1.00  0.00     0.251 C 
ATOM      5  O   UNL     1       8.660   5.049  -4.420  1.00  0.00    -0.269 OA
ATOM      6  H   UNL     1       6.540   6.240  -4.399  1.00  0.00     0.163 HD
BRANCH   4   7
ATOM      7  C   UNL     1       8.870   5.416  -2.102  1.00  0.00     0.047 A 
ATOM      8  C   UNL     1       8.401   4.955  -0.849  1.00  0.00    -0.012 A 
ATOM      9  C   UNL     1       9.196   5.206   0.287  1.00  0.00     0.009 A 
ATOM     10  C   UNL     1      10.454   5.804   0.181  1.00  0.00     0.001 A 
ATOM     11  C   UNL     1      10.165   5.964  -2.198  1.00  0.00     0.014 A 
ATOM     12  C   UNL     1      10.954   6.154  -1.066  1.00  0.00     0.001 A 
BRANCH   8  13
ATOM     13  C   UNL     1       7.091   4.329  -0.561  1.00  0.00     0.030 C 
ATOM     14  N   UNL     1       4.515   2.325  -2.033  1.00  0.00    -0.261 N 
ATOM     15  C   UNL     1       5.028   3.034  -0.953  1.00  0.00     0.270 C 
ATOM     16  C   UNL     1       5.441   1.848  -2.949  1.00  0.00     0.152 C 
ATOM     17  O   UNL     1       4.428   3.499   0.008  1.00  0.00    -0.268 OA
ATOM     18  C   UNL     1       6.480   3.310  -1.186  1.00  0.00     0.081 C 
ATOM     19  S   UNL     1       7.064   2.352  -2.474  1.00  0.00    -0.054 SA
ATOM     20  S   UNL     1       5.207   0.864  -4.281  1.00  0.00    -0.051 S 
BRANCH  14  21
ATOM     21  C   UNL     1       3.107   2.163  -2.194  1.00  0.00     0.054 A 
ATOM     22  C   UNL     1       0.982   1.268  -1.438  1.00  0.00     0.120 A 
ATOM     23  C   UNL     1       0.356   1.817  -2.561  1.00  0.00     0.046 A 
ATOM     24  C   UNL     1       2.349   1.485  -1.228  1.00  0.00     0.073 A 
ATOM     25  C   UNL     1       1.091   2.537  -3.499  1.00  0.00     0.006 A 
ATOM     26  C   UNL     1       2.468   2.685  -3.331  1.00  0.00     0.027 A 
BRANCH  22  27
ATOM     27  O   UNL     1       0.150   0.527  -0.641  1.00  0.00    -0.497 OA
ATOM     28  C   UNL     1       0.753  -0.190   0.427  1.00  0.00     0.278 C 
ENDBRANCH  22  27
ENDBRANCH  14  21
ENDBRANCH   8  13
ENDBRANCH   4   7
ENDBRANCH   2   3
ENDBRANCH   1   2
BRANCH   1  29
ATOM     29  C   UNL     1       3.643   6.974  -3.108  1.00  0.00     0.118 C 
BRANCH  29  30
ATOM     30  N   UNL     1       3.092   5.939  -2.233  1.00  0.00    -0.352 N 
ATOM     31  C   UNL     1       1.815   5.616  -1.853  1.00  0.00     0.251 C 
ATOM     32  H   UNL     1       3.778   5.356  -1.836  1.00  0.00     0.163 HD
ATOM     33  O   UNL     1       1.671   4.723  -1.021  1.00  0.00    -0.269 OA
BRANCH  31  34
ATOM     34  C   UNL     1       0.634   6.372  -2.304  1.00  0.00     0.039 A 
ATOM     35  C   UNL     1      -0.467   6.394  -1.438  1.00  0.00     0.014 A 
ATOM     36  C   UNL     1       0.647   7.179  -3.434  1.00  0.00     0.014 A 
ATOM     37  C   UNL     1      -1.431   7.379  -1.582  1.00  0.00     0.010 A 
ATOM     38  C   UNL     1      -0.218   8.256  -3.488  1.00  0.00     0.010 A 
ATOM     39  C   UNL     1      -1.226   8.391  -2.526  1.00  0.00    -0.014 A 
BRANCH  39  40
ATOM     40  C   UNL     1      -1.980   9.656  -2.444  1.00  0.00     0.031 A 
ATOM     41  C   UNL     1      -2.800  10.105  -3.610  1.00  0.00     0.074 A 
ATOM     42  C   UNL     1      -1.814  10.424  -1.346  1.00  0.00     0.049 A 
ATOM     43  N   UNL     1      -3.469  11.215  -3.760  1.00  0.00    -0.248 NA
ATOM     44  C   UNL     1      -2.838   9.214  -4.783  1.00  0.00     0.031 C 
ATOM     45  C   UNL     1      -0.944  10.101  -0.206  1.00  0.00     0.029 A 
ATOM     46  N   UNL     1      -2.359  11.632  -1.001  1.00  0.00    -0.354 N 
ATOM     47  C   UNL     1      -3.994  11.160  -5.044  1.00  0.00     0.074 A 
ATOM     48  C   UNL     1      -3.505   9.949  -5.659  1.00  0.00     0.031 C 
ATOM     49  C   UNL     1      -1.057  11.056   0.728  1.00  0.00     0.029 A 
ATOM     50  C   UNL     1      -1.964  12.083   0.238  1.00  0.00     0.049 A 
ATOM     51  H   UNL     1      -2.976  12.130  -1.584  1.00  0.00     0.167 HD
ATOM     52  C   UNL     1      -4.839  12.034  -5.635  1.00  0.00     0.037 A 
ATOM     53  C   UNL     1      -2.302  13.206   0.900  1.00  0.00     0.037 A 
ATOM     54  C   UNL     1      -5.326  13.216  -4.978  1.00  0.00     0.049 A 
ATOM     55  C   UNL     1      -3.270  14.142   0.232  1.00  0.00     0.074 A 
ATOM     56  C   UNL     1      -6.230  14.151  -5.444  1.00  0.00     0.029 A 
ATOM     57  N   UNL     1      -4.945  13.622  -3.704  1.00  0.00    -0.354 N 
ATOM     58  N   UNL     1      -3.826  14.038  -0.954  1.00  0.00    -0.248 NA
ATOM     59  C   UNL     1      -3.666  15.337   0.983  1.00  0.00     0.031 C 
ATOM     60  C   UNL     1      -6.362  15.146  -4.470  1.00  0.00     0.029 A 
ATOM     61  C   UNL     1      -5.584  14.803  -3.373  1.00  0.00     0.049 A 
ATOM     62  H   UNL     1      -4.314  13.139  -3.123  1.00  0.00     0.167 HD
ATOM     63  C   UNL     1      -4.660  15.140  -1.080  1.00  0.00     0.074 A 
ATOM     64  C   UNL     1      -4.545  15.888   0.158  1.00  0.00     0.031 C 
ATOM     65  C   UNL     1      -5.448  15.507  -2.122  1.00  0.00     0.037 A 
BRANCH  52  66
ATOM     66  C   UNL     1      -5.289  11.728  -7.035  1.00  0.00     0.058 A 
ATOM     67  C   UNL     1      -6.124  10.634  -7.319  1.00  0.00     0.135 A 
ATOM     68  C   UNL     1      -4.892  12.542  -8.108  1.00  0.00     0.135 A 
ATOM     69  F   UNL     1      -6.513   9.806  -6.336  1.00  0.00    -0.206 F 
ATOM     70  C   UNL     1      -6.527  10.343  -8.617  1.00  0.00     0.059 A 
ATOM     71  C   UNL     1      -5.309  12.287  -9.411  1.00  0.00     0.059 A 
ATOM     72  F   UNL     1      -4.084  13.593  -7.897  1.00  0.00    -0.206 F 
ATOM     73  C   UNL     1      -6.117  11.178  -9.657  1.00  0.00     0.060 A 
BRANCH  73  74
ATOM     74  S   UNL     1      -6.668  10.796 -11.332  1.00  0.00     0.124 S 
ATOM     75  O   UNL     1      -5.882   9.604 -11.633  1.00  0.00    -0.237 OA
ATOM     76  O   UNL     1      -8.099  10.581 -11.147  1.00  0.00    -0.237 OA
ATOM     77  O   UNL     1      -6.309  11.991 -12.089  1.00  0.00    -0.744 OA
ENDBRANCH  73  74
ENDBRANCH  52  66
BRANCH  53  78
ATOM     78  C   UNL     1      -1.756  13.479   2.258  1.00  0.00     0.058 A 
ATOM     79  C   UNL     1      -2.585  13.453   3.390  1.00  0.00     0.135 A 
ATOM     80  C   UNL     1      -0.394  13.756   2.458  1.00  0.00     0.135 A 
ATOM     81  F   UNL     1      -3.894  13.188   3.257  1.00  0.00    -0.206 F 
ATOM     82  C   UNL     1      -2.093  13.722   4.665  1.00  0.00     0.059 A 
ATOM     83  C   UNL     1       0.128  14.000   3.726  1.00  0.00     0.059 A 
ATOM     84  F   UNL     1       0.451  13.767   1.415  1.00  0.00    -0.206 F 
ATOM     85  C   UNL     1      -0.734  13.996   4.822  1.00  0.00     0.060 A 
BRANCH  85  86
ATOM     86  S   UNL     1      -0.102  14.326   6.482  1.00  0.00     0.124 S 
ATOM     87  O   UNL     1      -0.655  15.649   6.749  1.00  0.00    -0.237 OA
ATOM     88  O   UNL     1      -0.674  13.226   7.253  1.00  0.00    -0.237 OA
ATOM     89  O   UNL     1       1.347  14.272   6.307  1.00  0.00    -0.744 OA
ENDBRANCH  85  86
ENDBRANCH  53  78
BRANCH  65  90
ATOM     90  C   UNL     1      -6.271  16.749  -1.946  1.00  0.00     0.058 A 
ATOM     91  C   UNL     1      -5.691  18.025  -1.964  1.00  0.00     0.135 A 
ATOM     92  C   UNL     1      -7.667  16.656  -1.823  1.00  0.00     0.135 A 
ATOM     93  F   UNL     1      -4.360  18.163  -2.072  1.00  0.00    -0.206 F 
ATOM     94  C   UNL     1      -6.466  19.172  -1.844  1.00  0.00     0.059 A 
ATOM     95  C   UNL     1      -8.464  17.790  -1.735  1.00  0.00     0.059 A 
ATOM     96  F   UNL     1      -8.268  15.456  -1.812  1.00  0.00    -0.206 F 
ATOM     97  C   UNL     1      -7.853  19.043  -1.735  1.00  0.00     0.060 A 
BRANCH  97  98
ATOM     98  S   UNL     1      -8.850  20.542  -1.626  1.00  0.00     0.124 S 
ATOM     99  O   UNL     1      -8.564  20.986  -0.266  1.00  0.00    -0.237 OA
ATOM    100  O   UNL     1      -8.292  21.365  -2.694  1.00  0.00    -0.237 OA
ATOM    101  O   UNL     1     -10.210  20.062  -1.858  1.00  0.00    -0.744 OA
ENDBRANCH  97  98
ENDBRANCH  65  90
ENDBRANCH  39  40
ENDBRANCH  31  34
ENDBRANCH  29  30
ENDBRANCH   1  29
TORSDOF 16
