REMARK SMILES CC[NH2+][C@@]1(C(=O)NCCCNC(=O)c2ccc(-c3c4nc(c(-c5c(F)cc(S(=O)(=O)[O-])cc5F)c5ccc([nH]5)c(-c5c(F)cc(S(=O)(=O)[O-])cc5F)c5nc(c(-c6c(F)cc(S(=O)(=O)[O-])cc6F)c6ccc3[nH]6)C=C5)C=C4)cc2)CC[C@@H](Oc2cccc(OC)c2)C1
REMARK SMILES IDX 9 1 8 2 7 3 5 4 6 5 4 7 80 8 92 9 81 10 82 11 3 12 2 15 1 16
REMARK SMILES IDX 83 17 84 18 85 19 91 20 86 21 88 22 87 23 89 24 90 25 10 26
REMARK SMILES IDX 11 27 12 28 13 30 14 31 15 32 79 33 16 34 78 35 17 36 18 37
REMARK SMILES IDX 19 38 72 39 20 40 77 41 71 42 73 43 21 44 76 45 70 46 69 47
REMARK SMILES IDX 22 49 56 50 35 51 55 52 36 53 39 54 54 55 74 56 37 57 38 58
REMARK SMILES IDX 53 60 75 61 40 62 23 63 24 64 33 65 25 66 26 67 32 68 34 69
REMARK SMILES IDX 27 70 28 71 29 72 30 73 31 74 57 75 58 76 67 77 59 78 60 79
REMARK SMILES IDX 66 80 68 81 61 82 62 83 63 84 64 85 65 86 41 87 42 88 51 89
REMARK SMILES IDX 43 90 44 91 50 92 52 93 45 94 46 95 47 96 48 97 49 98
REMARK H PARENT 7 6 3 13 3 14 11 29 73 48 39 59
REMARK Flexibility Score: inf
ROOT
ATOM      1  C   UNL     1      -1.971  -5.580  -4.245  1.00  0.00     0.042 C 
ENDROOT
BRANCH   1   2
ATOM      2  C   UNL     1      -1.438  -4.177  -4.505  1.00  0.00     0.118 C 
BRANCH   2   3
ATOM      3  N   UNL     1      -1.761  -3.294  -3.410  1.00  0.00    -0.351 N 
ATOM      4  C   UNL     1      -1.090  -2.951  -2.281  1.00  0.00     0.281 C 
ATOM      5  O   UNL     1      -1.810  -2.449  -1.407  1.00  0.00    -0.268 OA
ATOM      6  H   UNL     1      -2.638  -2.856  -3.499  1.00  0.00     0.163 HD
BRANCH   4   7
ATOM      7  C   UNL     1       0.453  -3.193  -2.065  1.00  0.00     0.179 C 
ATOM      8  C   UNL     1       1.363  -2.977  -3.291  1.00  0.00     0.083 C 
ATOM      9  C   UNL     1       0.688  -4.653  -1.620  1.00  0.00     0.124 C 
ATOM     10  C   UNL     1       1.992  -4.318  -3.668  1.00  0.00     0.052 C 
ATOM     11  C   UNL     1       1.316  -5.385  -2.807  1.00  0.00     0.180 C 
BRANCH   7  12
ATOM     12  N   UNL     1       0.930  -2.308  -0.951  1.00  0.00    -0.334 N 
ATOM     13  H   UNL     1       0.420  -2.561  -0.104  1.00  0.00     0.347 HD
ATOM     14  H   UNL     1       1.936  -2.458  -0.874  1.00  0.00     0.347 HD
BRANCH  12  15
ATOM     15  C   UNL     1       0.742  -0.873  -1.186  1.00  0.00     0.257 C 
ATOM     16  C   UNL     1       1.286  -0.086  -0.003  1.00  0.00     0.071 C 
ENDBRANCH  12  15
ENDBRANCH   7  12
BRANCH  11  17
ATOM     17  O   UNL     1       2.078  -6.557  -2.474  1.00  0.00    -0.490 OA
BRANCH  17  18
ATOM     18  C   UNL     1       3.378  -6.329  -2.129  1.00  0.00     0.123 A 
ATOM     19  C   UNL     1       4.382  -6.588  -3.059  1.00  0.00     0.047 A 
ATOM     20  C   UNL     1       3.695  -5.869  -0.856  1.00  0.00     0.092 A 
ATOM     21  C   UNL     1       5.704  -6.283  -2.740  1.00  0.00     0.008 A 
ATOM     22  C   UNL     1       5.004  -5.509  -0.550  1.00  0.00     0.122 A 
ATOM     23  C   UNL     1       6.009  -5.726  -1.495  1.00  0.00     0.046 A 
BRANCH  22  24
ATOM     24  O   UNL     1       5.403  -4.942   0.630  1.00  0.00    -0.497 OA
ATOM     25  C   UNL     1       4.357  -4.440   1.460  1.00  0.00     0.278 C 
ENDBRANCH  22  24
ENDBRANCH  17  18
ENDBRANCH  11  17
ENDBRANCH   4   7
ENDBRANCH   2   3
ENDBRANCH   1   2
BRANCH   1  26
ATOM     26  C   UNL     1      -3.466  -5.690  -4.488  1.00  0.00     0.118 C 
BRANCH  26  27
ATOM     27  N   UNL     1      -3.789  -5.488  -5.894  1.00  0.00    -0.352 N 
ATOM     28  C   UNL     1      -4.345  -6.358  -6.791  1.00  0.00     0.251 C 
ATOM     29  H   UNL     1      -3.576  -4.596  -6.251  1.00  0.00     0.163 HD
ATOM     30  O   UNL     1      -4.265  -6.112  -7.998  1.00  0.00    -0.269 OA
BRANCH  28  31
ATOM     31  C   UNL     1      -5.040  -7.571  -6.321  1.00  0.00     0.039 A 
ATOM     32  C   UNL     1      -4.961  -8.742  -7.078  1.00  0.00     0.014 A 
ATOM     33  C   UNL     1      -5.811  -7.540  -5.155  1.00  0.00     0.014 A 
ATOM     34  C   UNL     1      -5.638  -9.885  -6.652  1.00  0.00     0.010 A 
ATOM     35  C   UNL     1      -6.394  -8.704  -4.677  1.00  0.00     0.010 A 
ATOM     36  C   UNL     1      -6.347  -9.878  -5.440  1.00  0.00    -0.014 A 
BRANCH  36  37
ATOM     37  C   UNL     1      -7.112 -11.062  -4.981  1.00  0.00     0.031 A 
ATOM     38  C   UNL     1      -8.606 -10.959  -4.818  1.00  0.00     0.074 A 
ATOM     39  C   UNL     1      -6.461 -12.194  -4.654  1.00  0.00     0.049 A 
ATOM     40  N   UNL     1      -9.450 -11.839  -4.347  1.00  0.00    -0.248 NA
ATOM     41  C   UNL     1      -9.231  -9.680  -5.200  1.00  0.00     0.031 C 
ATOM     42  C   UNL     1      -5.010 -12.387  -4.722  1.00  0.00     0.029 A 
ATOM     43  N   UNL     1      -6.934 -13.394  -4.191  1.00  0.00    -0.354 N 
ATOM     44  C   UNL     1     -10.691 -11.214  -4.352  1.00  0.00     0.074 A 
ATOM     45  C   UNL     1     -10.483  -9.859  -4.811  1.00  0.00     0.031 C 
ATOM     46  C   UNL     1      -4.716 -13.641  -4.341  1.00  0.00     0.029 A 
ATOM     47  C   UNL     1      -5.949 -14.325  -3.965  1.00  0.00     0.049 A 
ATOM     48  H   UNL     1      -7.890 -13.572  -4.034  1.00  0.00     0.167 HD
ATOM     49  C   UNL     1     -11.901 -11.731  -4.034  1.00  0.00     0.037 A 
ATOM     50  C   UNL     1      -6.034 -15.588  -3.504  1.00  0.00     0.037 A 
ATOM     51  C   UNL     1     -12.098 -13.095  -3.621  1.00  0.00     0.049 A 
ATOM     52  C   UNL     1      -7.392 -16.151  -3.180  1.00  0.00     0.074 A 
ATOM     53  C   UNL     1     -13.284 -13.745  -3.332  1.00  0.00     0.029 A 
ATOM     54  N   UNL     1     -11.079 -14.021  -3.445  1.00  0.00    -0.354 N 
ATOM     55  N   UNL     1      -8.565 -15.564  -3.246  1.00  0.00    -0.248 NA
ATOM     56  C   UNL     1      -7.442 -17.548  -2.733  1.00  0.00     0.031 C 
ATOM     57  C   UNL     1     -12.979 -15.053  -2.943  1.00  0.00     0.029 A 
ATOM     58  C   UNL     1     -11.608 -15.235  -3.041  1.00  0.00     0.049 A 
ATOM     59  H   UNL     1     -10.122 -13.842  -3.587  1.00  0.00     0.167 HD
ATOM     60  C   UNL     1      -9.494 -16.532  -2.882  1.00  0.00     0.074 A 
ATOM     61  C   UNL     1      -8.747 -17.742  -2.605  1.00  0.00     0.031 C 
ATOM     62  C   UNL     1     -10.844 -16.431  -2.788  1.00  0.00     0.037 A 
BRANCH  49  63
ATOM     63  C   UNL     1     -13.098 -10.824  -4.132  1.00  0.00     0.058 A 
ATOM     64  C   UNL     1     -13.574 -10.359  -5.369  1.00  0.00     0.135 A 
ATOM     65  C   UNL     1     -13.794 -10.432  -2.977  1.00  0.00     0.135 A 
ATOM     66  F   UNL     1     -12.939 -10.687  -6.505  1.00  0.00    -0.206 F 
ATOM     67  C   UNL     1     -14.673  -9.510  -5.455  1.00  0.00     0.059 A 
ATOM     68  C   UNL     1     -14.915  -9.609  -3.042  1.00  0.00     0.059 A 
ATOM     69  F   UNL     1     -13.384 -10.844  -1.767  1.00  0.00    -0.206 F 
ATOM     70  C   UNL     1     -15.337  -9.141  -4.285  1.00  0.00     0.060 A 
BRANCH  70  71
ATOM     71  S   UNL     1     -16.765  -8.043  -4.415  1.00  0.00     0.124 S 
ATOM     72  O   UNL     1     -16.125  -6.771  -4.733  1.00  0.00    -0.237 OA
ATOM     73  O   UNL     1     -17.530  -8.655  -5.497  1.00  0.00    -0.237 OA
ATOM     74  O   UNL     1     -17.378  -8.124  -3.094  1.00  0.00    -0.744 OA
ENDBRANCH  70  71
ENDBRANCH  49  63
BRANCH  50  75
ATOM     75  C   UNL     1      -4.804 -16.410  -3.358  1.00  0.00     0.058 A 
ATOM     76  C   UNL     1      -4.555 -17.492  -4.215  1.00  0.00     0.135 A 
ATOM     77  C   UNL     1      -3.845 -16.123  -2.374  1.00  0.00     0.135 A 
ATOM     78  F   UNL     1      -5.442 -17.808  -5.171  1.00  0.00    -0.206 F 
ATOM     79  C   UNL     1      -3.411 -18.274  -4.091  1.00  0.00     0.059 A 
ATOM     80  C   UNL     1      -2.679 -16.873  -2.247  1.00  0.00     0.059 A 
ATOM     81  F   UNL     1      -4.024 -15.085  -1.542  1.00  0.00    -0.206 F 
ATOM     82  C   UNL     1      -2.477 -17.955  -3.103  1.00  0.00     0.060 A 
BRANCH  82  83
ATOM     83  S   UNL     1      -0.976 -18.951  -2.978  1.00  0.00     0.124 S 
ATOM     84  O   UNL     1      -1.494 -20.192  -2.415  1.00  0.00    -0.237 OA
ATOM     85  O   UNL     1      -0.534 -19.015  -4.368  1.00  0.00    -0.237 OA
ATOM     86  O   UNL     1      -0.123 -18.163  -2.093  1.00  0.00    -0.744 OA
ENDBRANCH  82  83
ENDBRANCH  50  75
BRANCH  62  87
ATOM     87  C   UNL     1     -11.606 -17.673  -2.420  1.00  0.00     0.058 A 
ATOM     88  C   UNL     1     -11.583 -18.199  -1.119  1.00  0.00     0.135 A 
ATOM     89  C   UNL     1     -12.416 -18.311  -3.373  1.00  0.00     0.135 A 
ATOM     90  F   UNL     1     -10.821 -17.628  -0.173  1.00  0.00    -0.206 F 
ATOM     91  C   UNL     1     -12.317 -19.331  -0.783  1.00  0.00     0.059 A 
ATOM     92  C   UNL     1     -13.181 -19.426  -3.051  1.00  0.00     0.059 A 
ATOM     93  F   UNL     1     -12.483 -17.840  -4.629  1.00  0.00    -0.206 F 
ATOM     94  C   UNL     1     -13.115 -19.937  -1.756  1.00  0.00     0.060 A 
BRANCH  94  95
ATOM     95  S   UNL     1     -14.088 -21.386  -1.298  1.00  0.00     0.124 S 
ATOM     96  O   UNL     1     -13.057 -22.415  -1.209  1.00  0.00    -0.237 OA
ATOM     97  O   UNL     1     -14.684 -20.974  -0.031  1.00  0.00    -0.237 OA
ATOM     98  O   UNL     1     -15.026 -21.530  -2.407  1.00  0.00    -0.744 OA
ENDBRANCH  94  95
ENDBRANCH  62  87
ENDBRANCH  36  37
ENDBRANCH  28  31
ENDBRANCH  26  27
ENDBRANCH   1  26
TORSDOF 18
