REMARK SMILES CCOC(=O)c1c(NC(=O)[C@@H]2[C@@H](C(=O)NCCCNC(=O)c3ccc(-c4c5nc(c(-c6c(F)cc(S(=O)(=O)[O-])cc6F)c6ccc([nH]6)c(-c6c(F)cc(S(=O)(=O)[O-])cc6F)c6nc(c(-c7c(F)cc(S(=O)(=O)[O-])cc7F)c7ccc4[nH]7)C=C6)C=C5)cc3)[C@@H]3C=C[C@H]2CC3)sc2c1CCC2
REMARK SMILES IDX 16 1 15 2 13 3 14 4 12 6 11 7 91 8 88 9 90 10 92 11 89 12
REMARK SMILES IDX 93 13 9 14 8 15 10 17 7 18 6 19 96 20 94 21 95 22 97 23
REMARK SMILES IDX 99 24 98 25 4 26 5 27 3 28 2 29 1 30 17 31 18 32 19 33 20 34
REMARK SMILES IDX 21 36 22 37 23 38 87 39 24 40 86 41 25 42 26 43 27 44 80 45
REMARK SMILES IDX 28 46 85 47 79 48 81 49 29 50 84 51 78 52 77 53 30 55 64 56
REMARK SMILES IDX 43 57 63 58 44 59 47 60 62 61 82 62 45 63 46 64 61 66 83 67
REMARK SMILES IDX 48 68 31 69 32 70 41 71 33 72 34 73 40 74 42 75 35 76 36 77
REMARK SMILES IDX 37 78 38 79 39 80 65 81 66 82 75 83 67 84 68 85 74 86 76 87
REMARK SMILES IDX 69 88 70 89 71 90 72 91 73 92 49 93 50 94 59 95 51 96 52 97
REMARK SMILES IDX 58 98 60 99 53 100 54 101 55 102 56 103 57 104
REMARK H PARENT 15 5 8 16 19 35 81 54 47 65
REMARK Flexibility Score: inf
ROOT
ATOM      1  C   UNL     1       7.402   0.830   4.687  1.00  0.00     0.117 C 
ENDROOT
BRANCH   1   2
ATOM      2  N   UNL     1       7.420   1.478   5.988  1.00  0.00    -0.356 N 
ATOM      3  C   UNL     1       6.675   2.482   6.526  1.00  0.00     0.224 C 
ATOM      4  O   UNL     1       6.806   2.648   7.741  1.00  0.00    -0.275 OA
ATOM      5  H   UNL     1       8.105   1.121   6.599  1.00  0.00     0.163 HD
BRANCH   3   6
ATOM      6  C   UNL     1       5.615   3.251   5.722  1.00  0.00     0.098 C 
ATOM      7  C   UNL     1       6.059   3.789   4.342  1.00  0.00     0.099 C 
ATOM      8  C   UNL     1       6.040   5.351   4.348  1.00  0.00     0.025 C 
ATOM      9  C   UNL     1       5.050   4.465   6.573  1.00  0.00     0.025 C 
ATOM     10  C   UNL     1       4.618   5.789   4.587  1.00  0.00    -0.027 C 
ATOM     11  C   UNL     1       6.864   5.870   5.566  1.00  0.00     0.009 C 
ATOM     12  C   UNL     1       4.109   5.345   5.748  1.00  0.00    -0.027 C 
ATOM     13  C   UNL     1       6.191   5.451   6.894  1.00  0.00     0.009 C 
BRANCH   7  14
ATOM     14  C   UNL     1       5.473   3.235   3.000  1.00  0.00     0.229 C 
ATOM     15  N   UNL     1       4.464   2.331   2.798  1.00  0.00    -0.317 N 
ATOM     16  H   UNL     1       4.485   1.909   1.909  1.00  0.00     0.170 HD
ATOM     17  O   UNL     1       6.090   3.545   1.963  1.00  0.00    -0.274 OA
BRANCH  15  18
ATOM     18  C   UNL     1       3.426   1.895   3.590  1.00  0.00     0.110 A 
ATOM     19  C   UNL     1       2.610   0.757   3.547  1.00  0.00     0.098 A 
ATOM     20  C   UNL     1       1.994   0.622   4.834  1.00  0.00    -0.017 A 
ATOM     21  S   UNL     1       2.622   3.011   4.614  1.00  0.00    -0.122 S 
ATOM     22  C   UNL     1       2.203   1.737   5.595  1.00  0.00     0.011 A 
ATOM     23  C   UNL     1       1.193  -0.366   5.604  1.00  0.00     0.038 C 
ATOM     24  C   UNL     1       1.783   1.635   6.999  1.00  0.00     0.047 C 
ATOM     25  C   UNL     1       0.779   0.458   6.882  1.00  0.00     0.010 C 
BRANCH  19  26
ATOM     26  C   UNL     1       2.461  -0.124   2.412  1.00  0.00     0.341 C 
ATOM     27  O   UNL     1       3.371  -0.421   1.645  1.00  0.00    -0.246 OA
BRANCH  26  28
ATOM     28  O   UNL     1       1.146  -0.435   2.236  1.00  0.00    -0.462 OA
BRANCH  28  29
ATOM     29  C   UNL     1       0.754  -1.031   0.993  1.00  0.00     0.230 C 
ATOM     30  C   UNL     1       0.942  -0.087  -0.184  1.00  0.00     0.049 C 
ENDBRANCH  28  29
ENDBRANCH  26  28
ENDBRANCH  19  26
ENDBRANCH  15  18
ENDBRANCH   7  14
ENDBRANCH   3   6
ENDBRANCH   1   2
BRANCH   1  31
ATOM     31  C   UNL     1       8.613   1.187   3.817  1.00  0.00     0.042 C 
BRANCH  31  32
ATOM     32  C   UNL     1       9.918   0.570   4.304  1.00  0.00     0.118 C 
BRANCH  32  33
ATOM     33  N   UNL     1       9.971  -0.880   4.110  1.00  0.00    -0.352 N 
ATOM     34  C   UNL     1      10.913  -1.772   4.589  1.00  0.00     0.251 C 
ATOM     35  H   UNL     1       9.245  -1.269   3.571  1.00  0.00     0.163 HD
ATOM     36  O   UNL     1      11.050  -2.872   4.065  1.00  0.00    -0.269 OA
BRANCH  34  37
ATOM     37  C   UNL     1      11.760  -1.368   5.725  1.00  0.00     0.039 A 
ATOM     38  C   UNL     1      13.135  -1.617   5.728  1.00  0.00     0.014 A 
ATOM     39  C   UNL     1      11.163  -0.669   6.770  1.00  0.00     0.014 A 
ATOM     40  C   UNL     1      13.918  -1.067   6.742  1.00  0.00     0.010 A 
ATOM     41  C   UNL     1      11.953  -0.001   7.675  1.00  0.00     0.010 A 
ATOM     42  C   UNL     1      13.326  -0.229   7.702  1.00  0.00    -0.014 A 
BRANCH  42  43
ATOM     43  C   UNL     1      14.153   0.483   8.679  1.00  0.00     0.031 A 
ATOM     44  C   UNL     1      15.273   1.285   8.110  1.00  0.00     0.074 A 
ATOM     45  C   UNL     1      13.820   0.619   9.982  1.00  0.00     0.049 A 
ATOM     46  N   UNL     1      16.542   1.064   8.209  1.00  0.00    -0.248 NA
ATOM     47  C   UNL     1      14.936   2.414   7.226  1.00  0.00     0.031 C 
ATOM     48  C   UNL     1      12.575   0.197  10.639  1.00  0.00     0.029 A 
ATOM     49  N   UNL     1      14.477   1.276  10.981  1.00  0.00    -0.354 N 
ATOM     50  C   UNL     1      17.168   2.158   7.610  1.00  0.00     0.074 A 
ATOM     51  C   UNL     1      16.148   2.840   6.858  1.00  0.00     0.031 C 
ATOM     52  C   UNL     1      12.456   0.821  11.828  1.00  0.00     0.029 A 
ATOM     53  C   UNL     1      13.701   1.509  12.109  1.00  0.00     0.049 A 
ATOM     54  H   UNL     1      15.417   1.560  10.909  1.00  0.00     0.167 HD
ATOM     55  C   UNL     1      18.407   2.566   8.004  1.00  0.00     0.037 A 
ATOM     56  C   UNL     1      14.042   2.211  13.213  1.00  0.00     0.037 A 
ATOM     57  C   UNL     1      19.021   1.588   8.865  1.00  0.00     0.049 A 
ATOM     58  C   UNL     1      15.521   2.215  13.296  1.00  0.00     0.074 A 
ATOM     59  C   UNL     1      19.574   0.335   8.727  1.00  0.00     0.029 A 
ATOM     60  N   UNL     1      18.769   1.780  10.198  1.00  0.00    -0.354 N 
ATOM     61  N   UNL     1      16.240   1.137  13.457  1.00  0.00    -0.248 NA
ATOM     62  C   UNL     1      16.262   3.398  12.876  1.00  0.00     0.031 C 
ATOM     63  C   UNL     1      19.414  -0.305   9.993  1.00  0.00     0.029 A 
ATOM     64  C   UNL     1      18.796   0.586  10.869  1.00  0.00     0.049 A 
ATOM     65  H   UNL     1      18.594   2.654  10.616  1.00  0.00     0.167 HD
ATOM     66  C   UNL     1      17.405   1.391  12.761  1.00  0.00     0.074 A 
ATOM     67  C   UNL     1      17.439   2.836  12.591  1.00  0.00     0.031 C 
ATOM     68  C   UNL     1      18.066   0.393  12.107  1.00  0.00     0.037 A 
BRANCH  55  69
ATOM     69  C   UNL     1      18.901   4.002   8.014  1.00  0.00     0.058 A 
ATOM     70  C   UNL     1      20.260   4.261   8.305  1.00  0.00     0.135 A 
ATOM     71  C   UNL     1      18.050   5.127   8.062  1.00  0.00     0.135 A 
ATOM     72  F   UNL     1      21.162   3.266   8.300  1.00  0.00    -0.206 F 
ATOM     73  C   UNL     1      20.721   5.525   8.684  1.00  0.00     0.059 A 
ATOM     74  C   UNL     1      18.498   6.405   8.383  1.00  0.00     0.059 A 
ATOM     75  F   UNL     1      16.726   5.026   7.902  1.00  0.00    -0.206 F 
ATOM     76  C   UNL     1      19.825   6.588   8.735  1.00  0.00     0.060 A 
BRANCH  76  77
ATOM     77  S   UNL     1      20.387   8.198   9.321  1.00  0.00     0.124 S 
ATOM     78  O   UNL     1      20.575   7.940  10.744  1.00  0.00    -0.237 OA
ATOM     79  O   UNL     1      21.603   8.400   8.540  1.00  0.00    -0.237 OA
ATOM     80  O   UNL     1      19.278   9.083   8.979  1.00  0.00    -0.744 OA
ENDBRANCH  76  77
ENDBRANCH  55  69
BRANCH  56  81
ATOM     81  C   UNL     1      13.175   3.068  14.055  1.00  0.00     0.058 A 
ATOM     82  C   UNL     1      13.587   3.484  15.331  1.00  0.00     0.135 A 
ATOM     83  C   UNL     1      12.054   3.728  13.511  1.00  0.00     0.135 A 
ATOM     84  F   UNL     1      14.650   2.912  15.917  1.00  0.00    -0.206 F 
ATOM     85  C   UNL     1      12.968   4.542  16.002  1.00  0.00     0.059 A 
ATOM     86  C   UNL     1      11.414   4.779  14.166  1.00  0.00     0.059 A 
ATOM     87  F   UNL     1      11.607   3.432  12.281  1.00  0.00    -0.206 F 
ATOM     88  C   UNL     1      11.898   5.202  15.398  1.00  0.00     0.060 A 
BRANCH  88  89
ATOM     89  S   UNL     1      11.234   6.696  16.170  1.00  0.00     0.124 S 
ATOM     90  O   UNL     1      10.564   6.154  17.347  1.00  0.00    -0.237 OA
ATOM     91  O   UNL     1      12.443   7.472  16.426  1.00  0.00    -0.237 OA
ATOM     92  O   UNL     1      10.351   7.244  15.144  1.00  0.00    -0.744 OA
ENDBRANCH  88  89
ENDBRANCH  56  81
BRANCH  68  93
ATOM     93  C   UNL     1      17.884  -1.013  12.604  1.00  0.00     0.058 A 
ATOM     94  C   UNL     1      16.692  -1.751  12.530  1.00  0.00     0.135 A 
ATOM     95  C   UNL     1      19.020  -1.673  13.100  1.00  0.00     0.135 A 
ATOM     96  F   UNL     1      15.584  -1.222  11.994  1.00  0.00    -0.206 F 
ATOM     97  C   UNL     1      16.625  -3.077  12.965  1.00  0.00     0.059 A 
ATOM     98  C   UNL     1      18.984  -3.001  13.509  1.00  0.00     0.059 A 
ATOM     99  F   UNL     1      20.201  -1.034  13.151  1.00  0.00    -0.206 F 
ATOM    100  C   UNL     1      17.778  -3.694  13.452  1.00  0.00     0.060 A 
BRANCH 100 101
ATOM    101  S   UNL     1      17.710  -5.429  13.947  1.00  0.00     0.124 S 
ATOM    102  O   UNL     1      16.954  -5.364  15.193  1.00  0.00    -0.237 OA
ATOM    103  O   UNL     1      17.023  -6.055  12.821  1.00  0.00    -0.237 OA
ATOM    104  O   UNL     1      19.116  -5.799  14.089  1.00  0.00    -0.744 OA
ENDBRANCH 100 101
ENDBRANCH  68  93
ENDBRANCH  42  43
ENDBRANCH  34  37
ENDBRANCH  32  33
ENDBRANCH  31  32
ENDBRANCH   1  31
TORSDOF 18
