REMARK SMILES Cn1cc(/C=C2\SC(=S)N(c3cccc(C(=O)NCCCNC(=O)c4ccc(-c5c6nc(c(-c7c(F)cc(S(=O)(=O)[O-])cc7F)c7ccc([nH]7)c(-c7c(F)cc(S(=O)(=O)[O-])cc7F)c7nc(c(-c8c(F)cc(S(=O)(=O)[O-])cc8F)c8ccc5[nH]8)C=C7)C=C6)cc4)c3)C2=O)c2ccccc21
REMARK SMILES IDX 20 1 19 2 18 3 16 4 17 5 15 7 11 8 12 9 91 10 13 11 14 12
REMARK SMILES IDX 10 13 5 14 6 15 7 16 92 17 8 18 93 19 9 20 4 21 1 22 2 23
REMARK SMILES IDX 3 24 99 25 94 26 98 27 95 28 97 29 96 30 21 31 22 32 23 33
REMARK SMILES IDX 24 35 25 36 26 37 90 38 27 39 89 40 28 41 29 42 30 43 83 44
REMARK SMILES IDX 31 45 88 46 82 47 84 48 32 49 87 50 81 51 80 52 33 54 67 55
REMARK SMILES IDX 46 56 66 57 47 58 50 59 65 60 85 61 48 62 49 63 64 65 86 66
REMARK SMILES IDX 51 67 34 68 35 69 44 70 36 71 37 72 43 73 45 74 38 75 39 76
REMARK SMILES IDX 40 77 41 78 42 79 68 80 69 81 78 82 70 83 71 84 77 85 79 86
REMARK SMILES IDX 72 87 73 88 74 89 75 90 76 91 52 92 53 93 62 94 54 95 55 96
REMARK SMILES IDX 61 97 63 98 56 99 57 100 58 101 59 102 60 103
REMARK H PARENT 18 6 22 34 84 53 50 64
REMARK Flexibility Score: inf
ROOT
ATOM      1  C   UNL     1      -0.463  -7.062   5.956  1.00  0.00     0.042 C 
ENDROOT
BRANCH   1   2
ATOM      2  C   UNL     1       0.893  -7.716   6.219  1.00  0.00     0.118 C 
BRANCH   2   3
ATOM      3  N   UNL     1       0.899  -9.116   5.833  1.00  0.00    -0.352 N 
ATOM      4  C   UNL     1       1.314  -9.810   4.727  1.00  0.00     0.251 C 
ATOM      5  O   UNL     1       1.233 -11.039   4.797  1.00  0.00    -0.269 OA
ATOM      6  H   UNL     1       0.516  -9.702   6.527  1.00  0.00     0.163 HD
BRANCH   4   7
ATOM      7  C   UNL     1       1.855  -9.202   3.474  1.00  0.00     0.041 A 
ATOM      8  C   UNL     1       2.409  -7.347   1.984  1.00  0.00     0.051 A 
ATOM      9  C   UNL     1       2.855  -8.241   1.009  1.00  0.00     0.027 A 
ATOM     10  C   UNL     1       1.870  -7.840   3.183  1.00  0.00     0.040 A 
ATOM     11  C   UNL     1       2.828  -9.609   1.267  1.00  0.00     0.003 A 
ATOM     12  C   UNL     1       2.345 -10.081   2.493  1.00  0.00     0.014 A 
BRANCH   8  13
ATOM     13  N   UNL     1       2.426  -5.943   1.767  1.00  0.00    -0.261 N 
ATOM     14  C   UNL     1       1.023  -3.169  -0.075  1.00  0.00     0.031 C 
ATOM     15  C   UNL     1       1.737  -3.927   0.770  1.00  0.00     0.081 C 
ATOM     16  S   UNL     1       2.638  -3.402   2.138  1.00  0.00    -0.054 SA
ATOM     17  C   UNL     1       1.774  -5.410   0.661  1.00  0.00     0.270 C 
ATOM     18  C   UNL     1       3.010  -5.039   2.644  1.00  0.00     0.152 C 
ATOM     19  O   UNL     1       1.269  -6.024  -0.270  1.00  0.00    -0.268 OA
ATOM     20  S   UNL     1       4.012  -5.326   3.956  1.00  0.00    -0.051 S 
BRANCH  14  21
ATOM     21  C   UNL     1       0.930  -1.746  -0.059  1.00  0.00     0.001 A 
ATOM     22  C   UNL     1       2.375   1.565  -0.032  1.00  0.00     0.149 C 
ATOM     23  N   UNL     1       1.540   0.386  -0.041  1.00  0.00    -0.350 N 
ATOM     24  C   UNL     1       2.014  -0.896  -0.063  1.00  0.00     0.094 A 
ATOM     25  C   UNL     1       0.161   0.390  -0.046  1.00  0.00     0.048 A 
ATOM     26  C   UNL     1      -0.252  -0.948  -0.073  1.00  0.00     0.007 A 
ATOM     27  C   UNL     1      -0.755   1.455  -0.038  1.00  0.00     0.027 A 
ATOM     28  C   UNL     1      -1.636  -1.227  -0.096  1.00  0.00     0.011 A 
ATOM     29  C   UNL     1      -2.118   1.149  -0.072  1.00  0.00     0.002 A 
ATOM     30  C   UNL     1      -2.555  -0.171  -0.104  1.00  0.00     0.001 A 
ENDBRANCH  14  21
ENDBRANCH   8  13
ENDBRANCH   4   7
ENDBRANCH   2   3
ENDBRANCH   1   2
BRANCH   1  31
ATOM     31  C   UNL     1      -1.470  -7.337   7.073  1.00  0.00     0.118 C 
BRANCH  31  32
ATOM     32  N   UNL     1      -1.063  -6.717   8.332  1.00  0.00    -0.352 N 
ATOM     33  C   UNL     1      -1.656  -5.713   9.059  1.00  0.00     0.251 C 
ATOM     34  H   UNL     1      -0.232  -7.074   8.720  1.00  0.00     0.163 HD
ATOM     35  O   UNL     1      -1.027  -5.150   9.946  1.00  0.00    -0.269 OA
BRANCH  33  36
ATOM     36  C   UNL     1      -3.049  -5.322   8.768  1.00  0.00     0.039 A 
ATOM     37  C   UNL     1      -3.395  -3.969   8.747  1.00  0.00     0.014 A 
ATOM     38  C   UNL     1      -4.015  -6.302   8.534  1.00  0.00     0.014 A 
ATOM     39  C   UNL     1      -4.700  -3.595   8.416  1.00  0.00     0.010 A 
ATOM     40  C   UNL     1      -5.287  -5.928   8.126  1.00  0.00     0.010 A 
ATOM     41  C   UNL     1      -5.644  -4.572   8.064  1.00  0.00    -0.014 A 
BRANCH  41  42
ATOM     42  C   UNL     1      -7.022  -4.229   7.635  1.00  0.00     0.031 A 
ATOM     43  C   UNL     1      -8.190  -4.742   8.432  1.00  0.00     0.074 A 
ATOM     44  C   UNL     1      -7.220  -3.574   6.474  1.00  0.00     0.049 A 
ATOM     45  N   UNL     1      -9.461  -4.745   8.129  1.00  0.00    -0.248 NA
ATOM     46  C   UNL     1      -7.879  -5.372   9.726  1.00  0.00     0.031 C 
ATOM     47  C   UNL     1      -6.164  -3.055   5.602  1.00  0.00     0.029 A 
ATOM     48  N   UNL     1      -8.380  -3.259   5.811  1.00  0.00    -0.354 N 
ATOM     49  C   UNL     1     -10.096  -5.402   9.175  1.00  0.00     0.074 A 
ATOM     50  C   UNL     1      -9.066  -5.827  10.098  1.00  0.00     0.031 C 
ATOM     51  C   UNL     1      -6.724  -2.483   4.524  1.00  0.00     0.029 A 
ATOM     52  C   UNL     1      -8.173  -2.642   4.599  1.00  0.00     0.049 A 
ATOM     53  H   UNL     1      -9.276  -3.457   6.169  1.00  0.00     0.167 HD
ATOM     54  C   UNL     1     -11.420  -5.616   9.357  1.00  0.00     0.037 A 
ATOM     55  C   UNL     1      -9.050  -2.272   3.645  1.00  0.00     0.037 A 
ATOM     56  C   UNL     1     -12.435  -5.159   8.445  1.00  0.00     0.049 A 
ATOM     57  C   UNL     1     -10.517  -2.529   3.862  1.00  0.00     0.074 A 
ATOM     58  C   UNL     1     -13.808  -5.273   8.560  1.00  0.00     0.029 A 
ATOM     59  N   UNL     1     -12.185  -4.498   7.251  1.00  0.00    -0.354 N 
ATOM     60  N   UNL     1     -11.107  -3.113   4.878  1.00  0.00    -0.248 NA
ATOM     61  C   UNL     1     -11.438  -2.078   2.810  1.00  0.00     0.031 C 
ATOM     62  C   UNL     1     -14.387  -4.724   7.413  1.00  0.00     0.029 A 
ATOM     63  C   UNL     1     -13.378  -4.213   6.612  1.00  0.00     0.049 A 
ATOM     64  H   UNL     1     -11.291  -4.267   6.909  1.00  0.00     0.167 HD
ATOM     65  C   UNL     1     -12.470  -3.062   4.607  1.00  0.00     0.074 A 
ATOM     66  C   UNL     1     -12.617  -2.396   3.330  1.00  0.00     0.031 C 
ATOM     67  C   UNL     1     -13.505  -3.518   5.354  1.00  0.00     0.037 A 
BRANCH  54  68
ATOM     68  C   UNL     1     -11.847  -6.374  10.585  1.00  0.00     0.058 A 
ATOM     69  C   UNL     1     -11.723  -5.827  11.872  1.00  0.00     0.135 A 
ATOM     70  C   UNL     1     -12.419  -7.652  10.471  1.00  0.00     0.135 A 
ATOM     71  F   UNL     1     -11.169  -4.616  12.042  1.00  0.00    -0.206 F 
ATOM     72  C   UNL     1     -12.119  -6.531  13.004  1.00  0.00     0.059 A 
ATOM     73  C   UNL     1     -12.853  -8.361  11.587  1.00  0.00     0.059 A 
ATOM     74  F   UNL     1     -12.562  -8.225   9.265  1.00  0.00    -0.206 F 
ATOM     75  C   UNL     1     -12.684  -7.798  12.851  1.00  0.00     0.060 A 
BRANCH  75  76
ATOM     76  S   UNL     1     -13.197  -8.695  14.331  1.00  0.00     0.124 S 
ATOM     77  O   UNL     1     -11.909  -9.065  14.908  1.00  0.00    -0.237 OA
ATOM     78  O   UNL     1     -13.951  -7.682  15.063  1.00  0.00    -0.237 OA
ATOM     79  O   UNL     1     -13.988  -9.802  13.802  1.00  0.00    -0.744 OA
ENDBRANCH  75  76
ENDBRANCH  54  68
BRANCH  55  80
ATOM     80  C   UNL     1      -8.562  -1.606   2.407  1.00  0.00     0.058 A 
ATOM     81  C   UNL     1      -8.820  -0.247   2.172  1.00  0.00     0.135 A 
ATOM     82  C   UNL     1      -7.806  -2.302   1.450  1.00  0.00     0.135 A 
ATOM     83  F   UNL     1      -9.543   0.460   3.053  1.00  0.00    -0.206 F 
ATOM     84  C   UNL     1      -8.359   0.396   1.028  1.00  0.00     0.059 A 
ATOM     85  C   UNL     1      -7.311  -1.674   0.311  1.00  0.00     0.059 A 
ATOM     86  F   UNL     1      -7.516  -3.599   1.635  1.00  0.00    -0.206 F 
ATOM     87  C   UNL     1      -7.599  -0.326   0.106  1.00  0.00     0.060 A 
BRANCH  87  88
ATOM     88  S   UNL     1      -6.949   0.535  -1.342  1.00  0.00     0.124 S 
ATOM     89  O   UNL     1      -8.160   0.752  -2.124  1.00  0.00    -0.237 OA
ATOM     90  O   UNL     1      -6.348   1.724  -0.745  1.00  0.00    -0.237 OA
ATOM     91  O   UNL     1      -5.997  -0.422  -1.898  1.00  0.00    -0.744 OA
ENDBRANCH  87  88
ENDBRANCH  55  80
BRANCH  67  92
ATOM     92  C   UNL     1     -14.900  -3.261   4.859  1.00  0.00     0.058 A 
ATOM     93  C   UNL     1     -15.459  -3.998   3.805  1.00  0.00     0.135 A 
ATOM     94  C   UNL     1     -15.725  -2.347   5.535  1.00  0.00     0.135 A 
ATOM     95  F   UNL     1     -14.710  -4.877   3.121  1.00  0.00    -0.206 F 
ATOM     96  C   UNL     1     -16.794  -3.843   3.443  1.00  0.00     0.059 A 
ATOM     97  C   UNL     1     -17.067  -2.195   5.207  1.00  0.00     0.059 A 
ATOM     98  F   UNL     1     -15.236  -1.623   6.555  1.00  0.00    -0.206 F 
ATOM     99  C   UNL     1     -17.593  -2.949   4.160  1.00  0.00     0.060 A 
BRANCH  99 100
ATOM    100  S   UNL     1     -19.345  -2.829   3.741  1.00  0.00     0.124 S 
ATOM    101  O   UNL     1     -19.295  -2.124   2.465  1.00  0.00    -0.237 OA
ATOM    102  O   UNL     1     -19.746  -4.231   3.678  1.00  0.00    -0.237 OA
ATOM    103  O   UNL     1     -19.910  -2.071   4.854  1.00  0.00    -0.744 OA
ENDBRANCH  99 100
ENDBRANCH  67  92
ENDBRANCH  41  42
ENDBRANCH  33  36
ENDBRANCH  31  32
ENDBRANCH   1  31
TORSDOF 15
