REMARK SMILES CCOC(=O)CCC(=O)N1C[C@@H](OC)C[C@@H]1C(=O)NCCCNC(=O)c1ccc(-c2c3nc(c(-c4c(F)cc(S(=O)(=O)[O-])cc4F)c4ccc([nH]4)c(-c4c(F)cc(S(=O)(=O)[O-])cc4F)c4nc(c(-c5c(F)cc(S(=O)(=O)[O-])cc5F)c5ccc2[nH]5)C=C4)C=C3)cc1
REMARK SMILES IDX 17 1 18 2 19 3 16 5 10 6 11 7 12 8 15 9 8 10 9 11 7 12 6 13
REMARK SMILES IDX 4 14 5 15 3 16 2 17 1 18 13 19 14 20 20 21 21 22 22 23 23 24
REMARK SMILES IDX 24 25 25 27 26 28 27 29 91 30 28 31 90 32 29 33 30 34 31 35
REMARK SMILES IDX 84 36 32 37 89 38 83 39 85 40 33 41 88 42 82 43 81 44 34 46
REMARK SMILES IDX 68 47 47 48 67 49 48 50 51 51 66 52 86 53 49 54 50 55 65 57
REMARK SMILES IDX 87 58 52 59 35 60 36 61 45 62 37 63 38 64 44 65 46 66 39 67
REMARK SMILES IDX 40 68 41 69 42 70 43 71 69 72 70 73 79 74 71 75 72 76 78 77
REMARK SMILES IDX 80 78 73 79 74 80 75 81 76 82 77 83 53 84 54 85 63 86 55 87
REMARK SMILES IDX 56 88 62 89 64 90 57 91 58 92 59 93 60 94 61 95
REMARK H PARENT 19 4 23 26 85 45 51 56
REMARK Flexibility Score: inf
ROOT
ATOM      1  C   UNL     1      -1.228   3.667   2.469  1.00  0.00     0.242 C 
ATOM      2  O   UNL     1      -2.079   4.521   2.747  1.00  0.00    -0.273 OA
ATOM      3  N   UNL     1      -0.165   4.099   1.733  1.00  0.00    -0.354 N 
ATOM      4  H   UNL     1      -0.149   5.073   1.594  1.00  0.00     0.163 HD
ENDROOT
BRANCH   1   5
ATOM      5  C   UNL     1      -1.501   2.179   2.781  1.00  0.00     0.177 C 
ATOM      6  N   UNL     1      -0.310   1.378   3.023  1.00  0.00    -0.328 N 
ATOM      7  C   UNL     1      -0.284   0.213   2.166  1.00  0.00     0.152 C 
ATOM      8  C   UNL     1      -1.259   0.493   1.026  1.00  0.00     0.139 C 
ATOM      9  C   UNL     1      -2.231   1.516   1.611  1.00  0.00     0.069 C 
BRANCH   6  10
ATOM     10  C   UNL     1       0.471   1.599   4.136  1.00  0.00     0.223 C 
ATOM     11  O   UNL     1       0.019   2.129   5.150  1.00  0.00    -0.275 OA
BRANCH  10  12
ATOM     12  C   UNL     1       1.973   1.381   3.993  1.00  0.00     0.112 C 
BRANCH  12  13
ATOM     13  C   UNL     1       2.481  -0.031   4.203  1.00  0.00     0.132 C 
BRANCH  13  14
ATOM     14  C   UNL     1       3.058  -0.582   2.920  1.00  0.00     0.306 C 
ATOM     15  O   UNL     1       4.091  -0.178   2.405  1.00  0.00    -0.252 OA
BRANCH  14  16
ATOM     16  O   UNL     1       2.227  -1.518   2.397  1.00  0.00    -0.466 OA
BRANCH  16  17
ATOM     17  C   UNL     1       2.535  -2.075   1.105  1.00  0.00     0.229 C 
ATOM     18  C   UNL     1       2.662  -1.050  -0.014  1.00  0.00     0.049 C 
ENDBRANCH  16  17
ENDBRANCH  14  16
ENDBRANCH  13  14
ENDBRANCH  12  13
ENDBRANCH  10  12
ENDBRANCH   6  10
BRANCH   8  19
ATOM     19  O   UNL     1      -2.006  -0.640   0.594  1.00  0.00    -0.380 OA
ATOM     20  C   UNL     1      -1.224  -1.650  -0.027  1.00  0.00     0.195 C 
ENDBRANCH   8  19
ENDBRANCH   1   5
BRANCH   3  21
ATOM     21  C   UNL     1       0.949   3.404   1.115  1.00  0.00     0.117 C 
BRANCH  21  22
ATOM     22  C   UNL     1       0.947   3.522  -0.400  1.00  0.00     0.042 C 
BRANCH  22  23
ATOM     23  C   UNL     1       1.272   4.918  -0.905  1.00  0.00     0.118 C 
BRANCH  23  24
ATOM     24  N   UNL     1       2.626   5.338  -0.565  1.00  0.00    -0.352 N 
ATOM     25  C   UNL     1       3.638   5.785  -1.379  1.00  0.00     0.251 C 
ATOM     26  H   UNL     1       2.848   5.293   0.393  1.00  0.00     0.163 HD
ATOM     27  O   UNL     1       4.766   5.933  -0.916  1.00  0.00    -0.269 OA
BRANCH  25  28
ATOM     28  C   UNL     1       3.377   6.062  -2.807  1.00  0.00     0.039 A 
ATOM     29  C   UNL     1       4.316   5.654  -3.758  1.00  0.00     0.014 A 
ATOM     30  C   UNL     1       2.212   6.720  -3.211  1.00  0.00     0.014 A 
ATOM     31  C   UNL     1       4.052   5.840  -5.116  1.00  0.00     0.010 A 
ATOM     32  C   UNL     1       1.911   6.827  -4.565  1.00  0.00     0.010 A 
ATOM     33  C   UNL     1       2.828   6.390  -5.532  1.00  0.00    -0.014 A 
BRANCH  33  34
ATOM     34  C   UNL     1       2.482   6.517  -6.970  1.00  0.00     0.031 A 
ATOM     35  C   UNL     1       2.248   7.876  -7.571  1.00  0.00     0.074 A 
ATOM     36  C   UNL     1       2.302   5.406  -7.711  1.00  0.00     0.049 A 
ATOM     37  N   UNL     1       1.844   8.187  -8.775  1.00  0.00    -0.248 NA
ATOM     38  C   UNL     1       2.469   9.037  -6.694  1.00  0.00     0.031 C 
ATOM     39  C   UNL     1       2.451   4.031  -7.227  1.00  0.00     0.029 A 
ATOM     40  N   UNL     1       1.937   5.254  -9.025  1.00  0.00    -0.354 N 
ATOM     41  C   UNL     1       1.746   9.573  -8.796  1.00  0.00     0.074 A 
ATOM     42  C   UNL     1       2.082  10.040  -7.468  1.00  0.00     0.031 C 
ATOM     43  C   UNL     1       2.200   3.179  -8.233  1.00  0.00     0.029 A 
ATOM     44  C   UNL     1       1.830   3.942  -9.421  1.00  0.00     0.049 A 
ATOM     45  H   UNL     1       1.768   6.014  -9.628  1.00  0.00     0.167 HD
ATOM     46  C   UNL     1       1.427  10.384  -9.832  1.00  0.00     0.037 A 
ATOM     47  C   UNL     1       1.463   3.411 -10.604  1.00  0.00     0.037 A 
ATOM     48  C   UNL     1       1.120   9.912 -11.157  1.00  0.00     0.049 A 
ATOM     49  C   UNL     1       1.112   4.332 -11.741  1.00  0.00     0.074 A 
ATOM     50  C   UNL     1       0.845  10.654 -12.292  1.00  0.00     0.029 A 
ATOM     51  N   UNL     1       1.048   8.576 -11.525  1.00  0.00    -0.354 N 
ATOM     52  N   UNL     1       1.086   5.644 -11.760  1.00  0.00    -0.248 NA
ATOM     53  C   UNL     1       0.746   3.704 -13.018  1.00  0.00     0.031 C 
ATOM     54  C   UNL     1       0.562   9.767 -13.336  1.00  0.00     0.029 A 
ATOM     55  C   UNL     1       0.711   8.472 -12.865  1.00  0.00     0.049 A 
ATOM     56  H   UNL     1       1.211   7.815 -10.923  1.00  0.00     0.167 HD
ATOM     57  C   UNL     1       0.726   5.998 -13.056  1.00  0.00     0.074 A 
ATOM     58  C   UNL     1       0.556   4.763 -13.793  1.00  0.00     0.031 C 
ATOM     59  C   UNL     1       0.553   7.234 -13.586  1.00  0.00     0.037 A 
BRANCH  46  60
ATOM     60  C   UNL     1       1.398  11.867  -9.576  1.00  0.00     0.058 A 
ATOM     61  C   UNL     1       2.575  12.597  -9.341  1.00  0.00     0.135 A 
ATOM     62  C   UNL     1       0.185  12.573  -9.600  1.00  0.00     0.135 A 
ATOM     63  F   UNL     1       3.761  11.970  -9.292  1.00  0.00    -0.206 F 
ATOM     64  C   UNL     1       2.547  13.968  -9.109  1.00  0.00     0.059 A 
ATOM     65  C   UNL     1       0.136  13.950  -9.399  1.00  0.00     0.059 A 
ATOM     66  F   UNL     1      -0.970  11.926  -9.820  1.00  0.00    -0.206 F 
ATOM     67  C   UNL     1       1.322  14.636  -9.139  1.00  0.00     0.060 A 
BRANCH  67  68
ATOM     68  S   UNL     1       1.304  16.416  -8.840  1.00  0.00     0.124 S 
ATOM     69  O   UNL     1       1.560  16.472  -7.404  1.00  0.00    -0.237 OA
ATOM     70  O   UNL     1       2.389  16.887  -9.695  1.00  0.00    -0.237 OA
ATOM     71  O   UNL     1      -0.036  16.817  -9.255  1.00  0.00    -0.744 OA
ENDBRANCH  67  68
ENDBRANCH  46  60
BRANCH  47  72
ATOM     72  C   UNL     1       1.427   1.934 -10.777  1.00  0.00     0.058 A 
ATOM     73  C   UNL     1       2.374   1.279 -11.577  1.00  0.00     0.135 A 
ATOM     74  C   UNL     1       0.460   1.148 -10.132  1.00  0.00     0.135 A 
ATOM     75  F   UNL     1       3.316   1.988 -12.218  1.00  0.00    -0.206 F 
ATOM     76  C   UNL     1       2.357  -0.102 -11.745  1.00  0.00     0.059 A 
ATOM     77  C   UNL     1       0.437  -0.237 -10.264  1.00  0.00     0.059 A 
ATOM     78  F   UNL     1      -0.458   1.724  -9.340  1.00  0.00    -0.206 F 
ATOM     79  C   UNL     1       1.385  -0.852 -11.080  1.00  0.00     0.060 A 
BRANCH  79  80
ATOM     80  S   UNL     1       1.403  -2.649 -11.260  1.00  0.00     0.124 S 
ATOM     81  O   UNL     1       0.899  -2.814 -12.618  1.00  0.00    -0.237 OA
ATOM     82  O   UNL     1       2.815  -2.963 -11.059  1.00  0.00    -0.237 OA
ATOM     83  O   UNL     1       0.513  -3.101 -10.195  1.00  0.00    -0.744 OA
ENDBRANCH  79  80
ENDBRANCH  47  72
BRANCH  59  84
ATOM     84  C   UNL     1       0.192   7.318 -15.043  1.00  0.00     0.058 A 
ATOM     85  C   UNL     1      -1.090   6.983 -15.506  1.00  0.00     0.135 A 
ATOM     86  C   UNL     1       1.123   7.798 -15.978  1.00  0.00     0.135 A 
ATOM     87  F   UNL     1      -2.014   6.512 -14.654  1.00  0.00    -0.206 F 
ATOM     88  C   UNL     1      -1.430   7.105 -16.849  1.00  0.00     0.059 A 
ATOM     89  C   UNL     1       0.796   7.954 -17.321  1.00  0.00     0.059 A 
ATOM     90  F   UNL     1       2.361   8.141 -15.585  1.00  0.00    -0.206 F 
ATOM     91  C   UNL     1      -0.481   7.595 -17.749  1.00  0.00     0.060 A 
BRANCH  91  92
ATOM     92  S   UNL     1      -0.950   7.788 -19.481  1.00  0.00     0.124 S 
ATOM     93  O   UNL     1      -0.967   6.402 -19.937  1.00  0.00    -0.237 OA
ATOM     94  O   UNL     1      -2.253   8.438 -19.382  1.00  0.00    -0.237 OA
ATOM     95  O   UNL     1       0.117   8.617 -20.032  1.00  0.00    -0.744 OA
ENDBRANCH  91  92
ENDBRANCH  59  84
ENDBRANCH  33  34
ENDBRANCH  25  28
ENDBRANCH  23  24
ENDBRANCH  22  23
ENDBRANCH  21  22
ENDBRANCH   3  21
TORSDOF 20
