REMARK SMILES Cc1ccc(NC(=O)C[NH+]2CCN(c3ccc(C(=O)NCCCNC(=O)c4ccc(-c5c6nc(c(-c7c(F)cc(S(=O)(=O)[O-])cc7F)c7ccc([nH]7)c(-c7c(F)cc(S(=O)(=O)[O-])cc7F)c7nc(c(-c8c(F)cc(S(=O)(=O)[O-])cc8F)c8ccc5[nH]8)C=C7)C=C6)cc4)cc3NS(C)(=O)=O)CC2)cc1
REMARK SMILES IDX 21 1 20 2 18 3 19 4 17 6 14 7 15 8 94 9 16 10 93 11 13 12
REMARK SMILES IDX 10 13 11 14 101 15 12 17 100 18 9 19 7 20 6 21 8 23 5 24
REMARK SMILES IDX 1 25 2 26 3 27 103 28 4 29 102 30 95 31 96 33 97 34 98 35
REMARK SMILES IDX 99 36 22 37 23 38 24 39 25 40 26 42 27 43 28 44 92 45 29 46
REMARK SMILES IDX 91 47 30 48 31 49 32 50 85 51 33 52 90 53 84 54 86 55 34 56
REMARK SMILES IDX 89 57 83 58 82 59 35 61 69 62 48 63 68 64 49 65 52 66 67 67
REMARK SMILES IDX 87 68 50 69 51 70 66 72 88 73 53 74 36 75 37 76 46 77 38 78
REMARK SMILES IDX 39 79 45 80 47 81 40 82 41 83 42 84 43 85 44 86 70 87 71 88
REMARK SMILES IDX 80 89 72 90 73 91 79 92 81 93 74 94 75 95 76 96 77 97 78 98
REMARK SMILES IDX 54 99 55 100 64 101 56 102 57 103 63 104 65 105 58 106
REMARK SMILES IDX 59 107 60 108 61 109 62 110
REMARK H PARENT 20 5 10 16 6 22 95 32 24 41 86 60 52 71
REMARK Flexibility Score: inf
ROOT
ATOM      1  C   UNL     1       6.247  -5.059  -1.786  1.00  0.00     0.118 C 
ENDROOT
BRANCH   1   2
ATOM      2  N   UNL     1       6.610  -4.143  -0.713  1.00  0.00    -0.352 N 
ATOM      3  C   UNL     1       5.857  -3.334   0.099  1.00  0.00     0.251 C 
ATOM      4  O   UNL     1       6.456  -2.587   0.875  1.00  0.00    -0.269 OA
ATOM      5  H   UNL     1       7.577  -4.096  -0.538  1.00  0.00     0.163 HD
BRANCH   3   6
ATOM      6  C   UNL     1       4.363  -3.323   0.106  1.00  0.00     0.042 A 
ATOM      7  C   UNL     1       1.542  -3.182   0.266  1.00  0.00     0.062 A 
ATOM      8  C   UNL     1       2.187  -3.727  -0.852  1.00  0.00     0.029 A 
ATOM      9  C   UNL     1       2.335  -2.728   1.365  1.00  0.00     0.073 A 
ATOM     10  C   UNL     1       3.566  -3.758  -0.943  1.00  0.00     0.016 A 
ATOM     11  C   UNL     1       3.730  -2.800   1.250  1.00  0.00     0.042 A 
BRANCH   7  12
ATOM     12  N   UNL     1       0.142  -2.991   0.134  1.00  0.00    -0.359 N 
ATOM     13  N   UNL     1      -2.517  -2.905  -1.084  1.00  0.00    -0.324 N 
ATOM     14  C   UNL     1      -1.440  -2.148  -1.733  1.00  0.00     0.284 C 
ATOM     15  C   UNL     1      -1.917  -4.220  -0.753  1.00  0.00     0.284 C 
ATOM     16  H   UNL     1      -3.322  -2.983  -1.706  1.00  0.00     0.348 HD
ATOM     17  C   UNL     1      -0.152  -1.979  -0.918  1.00  0.00     0.178 C 
ATOM     18  C   UNL     1      -0.693  -4.212   0.207  1.00  0.00     0.178 C 
BRANCH  13  19
ATOM     19  C   UNL     1      -3.057  -2.240   0.135  1.00  0.00     0.364 C 
BRANCH  19  20
ATOM     20  C   UNL     1      -3.877  -0.963  -0.162  1.00  0.00     0.279 C 
ATOM     21  N   UNL     1      -3.395   0.317  -0.034  1.00  0.00    -0.321 N 
ATOM     22  H   UNL     1      -4.056   1.016  -0.242  1.00  0.00     0.170 HD
ATOM     23  O   UNL     1      -5.037  -1.060  -0.590  1.00  0.00    -0.268 OA
BRANCH  21  24
ATOM     24  C   UNL     1      -2.139   0.814   0.338  1.00  0.00     0.041 A 
ATOM     25  C   UNL     1       2.065   1.185  -0.036  1.00  0.00     0.044 C 
ATOM     26  C   UNL     1       0.610   1.320   0.322  1.00  0.00    -0.051 A 
ATOM     27  C   UNL     1       0.030   0.482   1.275  1.00  0.00     0.005 A 
ATOM     28  C   UNL     1      -0.238   2.111  -0.445  1.00  0.00     0.005 A 
ATOM     29  C   UNL     1      -1.345   0.240   1.312  1.00  0.00     0.026 A 
ATOM     30  C   UNL     1      -1.617   1.869  -0.423  1.00  0.00     0.026 A 
ENDBRANCH  21  24
ENDBRANCH  19  20
ENDBRANCH  13  19
ENDBRANCH   7  12
BRANCH   9  31
ATOM     31  N   UNL     1       1.677  -2.169   2.521  1.00  0.00    -0.282 N 
ATOM     32  H   UNL     1       0.694  -2.139   2.478  1.00  0.00     0.180 HD
BRANCH  31  33
ATOM     33  S   UNL     1       2.361  -1.561   3.931  1.00  0.00     0.229 S 
ATOM     34  C   UNL     1       2.306   0.215   3.721  1.00  0.00     0.183 C 
ATOM     35  O   UNL     1       1.412  -1.860   4.978  1.00  0.00    -0.207 OA
ATOM     36  O   UNL     1       3.752  -1.937   4.077  1.00  0.00    -0.207 OA
ENDBRANCH  31  33
ENDBRANCH   9  31
ENDBRANCH   3   6
ENDBRANCH   1   2
BRANCH   1  37
ATOM     37  C   UNL     1       6.019  -4.282  -3.080  1.00  0.00     0.042 C 
BRANCH  37  38
ATOM     38  C   UNL     1       7.276  -4.168  -3.910  1.00  0.00     0.118 C 
BRANCH  38  39
ATOM     39  N   UNL     1       7.285  -5.150  -4.985  1.00  0.00    -0.352 N 
ATOM     40  C   UNL     1       7.928  -5.026  -6.205  1.00  0.00     0.251 C 
ATOM     41  H   UNL     1       6.785  -5.984  -4.829  1.00  0.00     0.163 HD
ATOM     42  O   UNL     1       7.505  -5.482  -7.256  1.00  0.00    -0.269 OA
BRANCH  40  43
ATOM     43  C   UNL     1       9.276  -4.439  -6.130  1.00  0.00     0.039 A 
ATOM     44  C   UNL     1      10.333  -5.359  -6.052  1.00  0.00     0.014 A 
ATOM     45  C   UNL     1       9.376  -3.149  -5.626  1.00  0.00     0.014 A 
ATOM     46  C   UNL     1      11.409  -5.073  -5.237  1.00  0.00     0.010 A 
ATOM     47  C   UNL     1      10.356  -2.929  -4.699  1.00  0.00     0.010 A 
ATOM     48  C   UNL     1      11.332  -3.914  -4.482  1.00  0.00    -0.014 A 
BRANCH  48  49
ATOM     49  C   UNL     1      12.321  -3.510  -3.518  1.00  0.00     0.031 A 
ATOM     50  C   UNL     1      13.309  -2.556  -4.039  1.00  0.00     0.074 A 
ATOM     51  C   UNL     1      12.054  -3.789  -2.224  1.00  0.00     0.049 A 
ATOM     52  N   UNL     1      14.307  -2.113  -3.379  1.00  0.00    -0.248 NA
ATOM     53  C   UNL     1      13.253  -2.019  -5.407  1.00  0.00     0.031 C 
ATOM     54  C   UNL     1      12.580  -3.176  -1.012  1.00  0.00     0.029 A 
ATOM     55  N   UNL     1      11.368  -4.921  -1.756  1.00  0.00    -0.354 N 
ATOM     56  C   UNL     1      14.756  -0.992  -4.044  1.00  0.00     0.074 A 
ATOM     57  C   UNL     1      14.194  -1.074  -5.361  1.00  0.00     0.031 C 
ATOM     58  C   UNL     1      12.512  -4.074  -0.011  1.00  0.00     0.029 A 
ATOM     59  C   UNL     1      12.078  -5.330  -0.606  1.00  0.00     0.049 A 
ATOM     60  H   UNL     1      10.567  -5.340  -2.146  1.00  0.00     0.167 HD
ATOM     61  C   UNL     1      15.394  -0.051  -3.298  1.00  0.00     0.037 A 
ATOM     62  C   UNL     1      12.851  -6.457  -0.684  1.00  0.00     0.037 A 
ATOM     63  C   UNL     1      15.729  -0.637  -1.997  1.00  0.00     0.049 A 
ATOM     64  C   UNL     1      14.329  -6.121  -0.575  1.00  0.00     0.074 A 
ATOM     65  C   UNL     1      15.167  -0.537  -0.737  1.00  0.00     0.029 A 
ATOM     66  N   UNL     1      16.513  -1.790  -1.987  1.00  0.00    -0.354 N 
ATOM     67  N   UNL     1      14.855  -4.973  -0.925  1.00  0.00    -0.248 NA
ATOM     68  C   UNL     1      15.299  -7.001   0.068  1.00  0.00     0.031 C 
ATOM     69  C   UNL     1      15.501  -1.731  -0.025  1.00  0.00     0.029 A 
ATOM     70  C   UNL     1      16.285  -2.532  -0.843  1.00  0.00     0.049 A 
ATOM     71  H   UNL     1      17.143  -2.043  -2.700  1.00  0.00     0.167 HD
ATOM     72  C   UNL     1      16.166  -4.918  -0.517  1.00  0.00     0.074 A 
ATOM     73  C   UNL     1      16.393  -6.218   0.093  1.00  0.00     0.031 C 
ATOM     74  C   UNL     1      16.965  -3.812  -0.663  1.00  0.00     0.037 A 
BRANCH  61  75
ATOM     75  C   UNL     1      15.511   1.423  -3.626  1.00  0.00     0.058 A 
ATOM     76  C   UNL     1      16.169   2.280  -2.717  1.00  0.00     0.135 A 
ATOM     77  C   UNL     1      14.915   2.085  -4.724  1.00  0.00     0.135 A 
ATOM     78  F   UNL     1      16.771   1.796  -1.621  1.00  0.00    -0.206 F 
ATOM     79  C   UNL     1      16.217   3.668  -2.873  1.00  0.00     0.059 A 
ATOM     80  C   UNL     1      14.982   3.468  -4.920  1.00  0.00     0.059 A 
ATOM     81  F   UNL     1      14.189   1.444  -5.645  1.00  0.00    -0.206 F 
ATOM     82  C   UNL     1      15.621   4.257  -3.980  1.00  0.00     0.060 A 
BRANCH  82  83
ATOM     83  S   UNL     1      15.685   6.047  -4.167  1.00  0.00     0.124 S 
ATOM     84  O   UNL     1      14.876   6.498  -3.039  1.00  0.00    -0.237 OA
ATOM     85  O   UNL     1      17.116   6.316  -4.073  1.00  0.00    -0.237 OA
ATOM     86  O   UNL     1      15.097   6.274  -5.484  1.00  0.00    -0.744 OA
ENDBRANCH  82  83
ENDBRANCH  61  75
BRANCH  62  87
ATOM     87  C   UNL     1      12.182  -7.525  -1.504  1.00  0.00     0.058 A 
ATOM     88  C   UNL     1      10.923  -7.979  -1.042  1.00  0.00     0.135 A 
ATOM     89  C   UNL     1      12.459  -7.730  -2.863  1.00  0.00     0.135 A 
ATOM     90  F   UNL     1      10.597  -7.836   0.254  1.00  0.00    -0.206 F 
ATOM     91  C   UNL     1       9.924  -8.422  -1.907  1.00  0.00     0.059 A 
ATOM     92  C   UNL     1      11.476  -8.205  -3.748  1.00  0.00     0.059 A 
ATOM     93  F   UNL     1      13.636  -7.344  -3.378  1.00  0.00    -0.206 F 
ATOM     94  C   UNL     1      10.191  -8.475  -3.270  1.00  0.00     0.060 A 
BRANCH  94  95
ATOM     95  S   UNL     1       8.791  -8.725  -4.395  1.00  0.00     0.124 S 
ATOM     96  O   UNL     1       8.436 -10.115  -4.134  1.00  0.00    -0.237 OA
ATOM     97  O   UNL     1       7.827  -7.726  -3.923  1.00  0.00    -0.237 OA
ATOM     98  O   UNL     1       9.362  -8.457  -5.708  1.00  0.00    -0.744 OA
ENDBRANCH  94  95
ENDBRANCH  62  87
BRANCH  74  99
ATOM     99  C   UNL     1      18.485  -3.799  -0.594  1.00  0.00     0.058 A 
ATOM    100  C   UNL     1      19.295  -4.935  -0.758  1.00  0.00     0.135 A 
ATOM    101  C   UNL     1      19.193  -2.567  -0.533  1.00  0.00     0.135 A 
ATOM    102  F   UNL     1      18.775  -6.152  -0.963  1.00  0.00    -0.206 F 
ATOM    103  C   UNL     1      20.689  -4.867  -0.773  1.00  0.00     0.059 A 
ATOM    104  C   UNL     1      20.576  -2.469  -0.641  1.00  0.00     0.059 A 
ATOM    105  F   UNL     1      18.564  -1.391  -0.385  1.00  0.00    -0.206 F 
ATOM    106  C   UNL     1      21.320  -3.631  -0.720  1.00  0.00     0.060 A 
BRANCH 106 107
ATOM    107  S   UNL     1      23.115  -3.549  -0.785  1.00  0.00     0.124 S 
ATOM    108  O   UNL     1      23.464  -3.835   0.603  1.00  0.00    -0.237 OA
ATOM    109  O   UNL     1      23.445  -4.595  -1.749  1.00  0.00    -0.237 OA
ATOM    110  O   UNL     1      23.377  -2.187  -1.236  1.00  0.00    -0.744 OA
ENDBRANCH 106 107
ENDBRANCH  74  99
ENDBRANCH  48  49
ENDBRANCH  40  43
ENDBRANCH  38  39
ENDBRANCH  37  38
ENDBRANCH   1  37
TORSDOF 19
