REMARK SMILES Cc1ccc2c(c1)C=C(C(=O)NCCCNC(=O)c1ccc(-c3c4nc(c(-c5c(F)cc(S(=O)(=O)[O-])cc5F)c5ccc([nH]5)c(-c5c(F)cc(S(=O)(=O)[O-])cc5F)c5nc(c(-c6c(F)cc(S(=O)(=O)[O-])cc6F)c6ccc3[nH]6)C=C5)C=C4)cc1)[C@@H](C(F)(F)F)O2
REMARK SMILES IDX 15 1 14 2 13 3 12 4 10 5 11 6 9 8 1 9 2 10 3 11 7 12 4 13
REMARK SMILES IDX 6 14 5 15 8 16 90 17 85 18 86 19 87 20 88 21 89 22 16 23
REMARK SMILES IDX 17 24 18 26 19 27 20 28 84 29 21 30 83 31 22 32 23 33 24 34
REMARK SMILES IDX 77 35 25 36 82 37 76 38 78 39 26 40 81 41 75 42 74 43 27 45
REMARK SMILES IDX 61 46 40 47 60 48 41 49 44 50 59 51 79 52 42 53 43 54 58 56
REMARK SMILES IDX 80 57 45 58 28 59 29 60 38 61 30 62 31 63 37 64 39 65 32 66
REMARK SMILES IDX 33 67 34 68 35 69 36 70 62 71 63 72 72 73 64 74 65 75 71 76
REMARK SMILES IDX 73 77 66 78 67 79 68 80 69 81 70 82 46 83 47 84 56 85 48 86
REMARK SMILES IDX 49 87 55 88 57 89 50 90 51 91 52 92 53 93 54 94
REMARK H PARENT 12 7 16 25 78 44 44 55
REMARK Flexibility Score: inf
ROOT
ATOM      1  C   UNL     1       1.333  11.058   1.461  1.00  0.00     0.118 C 
ENDROOT
BRANCH   1   2
ATOM      2  C   UNL     1       0.519   9.775   1.581  1.00  0.00     0.042 C 
BRANCH   2   3
ATOM      3  C   UNL     1       0.256   9.116   0.235  1.00  0.00     0.118 C 
BRANCH   3   4
ATOM      4  N   UNL     1       1.410   8.376  -0.251  1.00  0.00    -0.352 N 
ATOM      5  C   UNL     1       1.777   7.080  -0.376  1.00  0.00     0.251 C 
ATOM      6  O   UNL     1       2.887   6.899  -0.888  1.00  0.00    -0.270 OA
ATOM      7  H   UNL     1       2.114   8.982  -0.578  1.00  0.00     0.163 HD
BRANCH   5   8
ATOM      8  C   UNL     1       0.958   5.904   0.042  1.00  0.00     0.067 C 
ATOM      9  C   UNL     1       1.053  -0.280  -0.032  1.00  0.00     0.044 C 
ATOM     10  C   UNL     1       0.566   1.087   0.346  1.00  0.00    -0.050 A 
ATOM     11  C   UNL     1      -0.631   1.240   1.057  1.00  0.00     0.007 A 
ATOM     12  C   UNL     1       1.278   2.229  -0.051  1.00  0.00     0.015 A 
ATOM     13  C   UNL     1      -1.098   2.512   1.387  1.00  0.00     0.047 A 
ATOM     14  C   UNL     1       0.807   3.506   0.271  1.00  0.00     0.017 A 
ATOM     15  C   UNL     1      -0.384   3.637   0.985  1.00  0.00     0.128 A 
ATOM     16  C   UNL     1       1.552   4.704  -0.095  1.00  0.00     0.025 C 
ATOM     17  O   UNL     1      -0.887   4.852   1.355  1.00  0.00    -0.475 OA
ATOM     18  C   UNL     1      -0.453   5.988   0.556  1.00  0.00     0.314 C 
BRANCH  18  19
ATOM     19  C   UNL     1      -1.477   6.233  -0.570  1.00  0.00     0.429 C 
ATOM     20  F   UNL     1      -2.651   6.681  -0.057  1.00  0.00    -0.167 F 
ATOM     21  F   UNL     1      -1.065   7.172  -1.456  1.00  0.00    -0.167 F 
ATOM     22  F   UNL     1      -1.748   5.119  -1.287  1.00  0.00    -0.167 F 
ENDBRANCH  18  19
ENDBRANCH   5   8
ENDBRANCH   3   4
ENDBRANCH   2   3
ENDBRANCH   1   2
BRANCH   1  23
ATOM     23  N   UNL     1       0.607  12.116   0.761  1.00  0.00    -0.352 N 
ATOM     24  C   UNL     1       0.186  13.350   1.197  1.00  0.00     0.251 C 
ATOM     25  H   UNL     1       0.382  11.911  -0.175  1.00  0.00     0.163 HD
ATOM     26  O   UNL     1      -0.588  14.004   0.502  1.00  0.00    -0.269 OA
BRANCH  24  27
ATOM     27  C   UNL     1       0.646  13.878   2.498  1.00  0.00     0.039 A 
ATOM     28  C   UNL     1       1.966  13.697   2.906  1.00  0.00     0.014 A 
ATOM     29  C   UNL     1      -0.252  14.566   3.322  1.00  0.00     0.014 A 
ATOM     30  C   UNL     1       2.334  14.019   4.205  1.00  0.00     0.010 A 
ATOM     31  C   UNL     1       0.155  14.991   4.591  1.00  0.00     0.010 A 
ATOM     32  C   UNL     1       1.437  14.674   5.064  1.00  0.00    -0.014 A 
BRANCH  32  33
ATOM     33  C   UNL     1       1.879  15.001   6.446  1.00  0.00     0.031 A 
ATOM     34  C   UNL     1       1.205  14.378   7.640  1.00  0.00     0.074 A 
ATOM     35  C   UNL     1       2.964  15.786   6.612  1.00  0.00     0.049 A 
ATOM     36  N   UNL     1       1.502  14.503   8.908  1.00  0.00    -0.248 NA
ATOM     37  C   UNL     1       0.048  13.505   7.383  1.00  0.00     0.031 C 
ATOM     38  C   UNL     1       3.707  16.433   5.526  1.00  0.00     0.029 A 
ATOM     39  N   UNL     1       3.662  16.131   7.739  1.00  0.00    -0.354 N 
ATOM     40  C   UNL     1       0.565  13.742   9.598  1.00  0.00     0.074 A 
ATOM     41  C   UNL     1      -0.332  13.182   8.612  1.00  0.00     0.031 C 
ATOM     42  C   UNL     1       4.803  17.017   6.030  1.00  0.00     0.029 A 
ATOM     43  C   UNL     1       4.803  16.854   7.479  1.00  0.00     0.049 A 
ATOM     44  H   UNL     1       3.375  15.885   8.649  1.00  0.00     0.167 HD
ATOM     45  C   UNL     1       0.472  13.518  10.931  1.00  0.00     0.037 A 
ATOM     46  C   UNL     1       5.745  17.336   8.312  1.00  0.00     0.037 A 
ATOM     47  C   UNL     1       1.387  14.055  11.905  1.00  0.00     0.049 A 
ATOM     48  C   UNL     1       5.595  17.105   9.787  1.00  0.00     0.074 A 
ATOM     49  C   UNL     1       1.375  13.891  13.279  1.00  0.00     0.029 A 
ATOM     50  N   UNL     1       2.484  14.850  11.607  1.00  0.00    -0.354 N 
ATOM     51  N   UNL     1       4.684  16.407  10.421  1.00  0.00    -0.248 NA
ATOM     52  C   UNL     1       6.585  17.746  10.663  1.00  0.00     0.031 C 
ATOM     53  C   UNL     1       2.447  14.611  13.816  1.00  0.00     0.029 A 
ATOM     54  C   UNL     1       3.149  15.194  12.773  1.00  0.00     0.049 A 
ATOM     55  H   UNL     1       2.751  15.129  10.702  1.00  0.00     0.167 HD
ATOM     56  C   UNL     1       4.991  16.523  11.771  1.00  0.00     0.074 A 
ATOM     57  C   UNL     1       6.186  17.338  11.860  1.00  0.00     0.031 C 
ATOM     58  C   UNL     1       4.335  16.009  12.840  1.00  0.00     0.037 A 
BRANCH  45  59
ATOM     59  C   UNL     1      -0.657  12.655  11.422  1.00  0.00     0.058 A 
ATOM     60  C   UNL     1      -0.645  11.262  11.248  1.00  0.00     0.135 A 
ATOM     61  C   UNL     1      -1.734  13.218  12.125  1.00  0.00     0.135 A 
ATOM     62  F   UNL     1       0.351  10.675  10.567  1.00  0.00    -0.206 F 
ATOM     63  C   UNL     1      -1.669  10.459  11.741  1.00  0.00     0.059 A 
ATOM     64  C   UNL     1      -2.759  12.432  12.646  1.00  0.00     0.059 A 
ATOM     65  F   UNL     1      -1.796  14.545  12.318  1.00  0.00    -0.206 F 
ATOM     66  C   UNL     1      -2.721  11.053  12.441  1.00  0.00     0.060 A 
BRANCH  66  67
ATOM     67  S   UNL     1      -4.033   9.993  13.087  1.00  0.00     0.124 S 
ATOM     68  O   UNL     1      -4.724   9.607  11.860  1.00  0.00    -0.237 OA
ATOM     69  O   UNL     1      -3.279   8.934  13.749  1.00  0.00    -0.237 OA
ATOM     70  O   UNL     1      -4.780  10.878  13.975  1.00  0.00    -0.744 OA
ENDBRANCH  66  67
ENDBRANCH  45  59
BRANCH  46  71
ATOM     71  C   UNL     1       6.905  18.086   7.764  1.00  0.00     0.058 A 
ATOM     72  C   UNL     1       8.195  17.538   7.792  1.00  0.00     0.135 A 
ATOM     73  C   UNL     1       6.743  19.349   7.173  1.00  0.00     0.135 A 
ATOM     74  F   UNL     1       8.402  16.336   8.352  1.00  0.00    -0.206 F 
ATOM     75  C   UNL     1       9.286  18.216   7.257  1.00  0.00     0.059 A 
ATOM     76  C   UNL     1       7.813  20.035   6.608  1.00  0.00     0.059 A 
ATOM     77  F   UNL     1       5.526  19.910   7.108  1.00  0.00    -0.206 F 
ATOM     78  C   UNL     1       9.083  19.463   6.663  1.00  0.00     0.060 A 
BRANCH  78  79
ATOM     79  S   UNL     1      10.494  20.309   5.918  1.00  0.00     0.124 S 
ATOM     80  O   UNL     1      11.215  20.770   7.099  1.00  0.00    -0.237 OA
ATOM     81  O   UNL     1      11.130  19.237   5.159  1.00  0.00    -0.237 OA
ATOM     82  O   UNL     1       9.870  21.353   5.111  1.00  0.00    -0.744 OA
ENDBRANCH  78  79
ENDBRANCH  46  71
BRANCH  58  83
ATOM     83  C   UNL     1       4.894  16.312  14.199  1.00  0.00     0.058 A 
ATOM     84  C   UNL     1       4.716  17.570  14.794  1.00  0.00     0.135 A 
ATOM     85  C   UNL     1       5.548  15.316  14.941  1.00  0.00     0.135 A 
ATOM     86  F   UNL     1       4.104  18.556  14.120  1.00  0.00    -0.206 F 
ATOM     87  C   UNL     1       5.177  17.834  16.079  1.00  0.00     0.059 A 
ATOM     88  C   UNL     1       5.999  15.552  16.235  1.00  0.00     0.059 A 
ATOM     89  F   UNL     1       5.736  14.095  14.415  1.00  0.00    -0.206 F 
ATOM     90  C   UNL     1       5.813  16.816  16.794  1.00  0.00     0.060 A 
BRANCH  90  91
ATOM     91  S   UNL     1       6.357  17.159  18.480  1.00  0.00     0.124 S 
ATOM     92  O   UNL     1       7.514  18.016  18.248  1.00  0.00    -0.237 OA
ATOM     93  O   UNL     1       5.188  17.814  19.058  1.00  0.00    -0.237 OA
ATOM     94  O   UNL     1       6.655  15.834  19.017  1.00  0.00    -0.744 OA
ENDBRANCH  90  91
ENDBRANCH  58  83
ENDBRANCH  32  33
ENDBRANCH  24  27
ENDBRANCH   1  23
TORSDOF 14
