REMARK SMILES O=C(NCCCNC(=O)c1ccc(-c2c3nc(c(-c4c(F)cc(S(=O)(=O)[O-])cc4F)c4ccc([nH]4)c(-c4c(F)cc(S(=O)(=O)[O-])cc4F)c4nc(c(-c5c(F)cc(S(=O)(=O)[O-])cc5F)c5ccc2[nH]5)C=C4)C=C3)cc1)C1=Cc2cc(S(F)(F)(F)(F)F)cc(Br)c2O[C@@H]1C(F)(F)F
REMARK SMILES IDX 6 1 5 2 4 3 3 4 1 5 2 6 76 8 77 9 92 10 78 11 91 12 79 13
REMARK SMILES IDX 90 14 80 15 88 16 87 17 89 18 93 19 94 20 95 21 96 22 81 23
REMARK SMILES IDX 82 24 83 25 84 26 85 27 86 28 7 29 8 30 9 32 10 33 11 34
REMARK SMILES IDX 75 35 12 36 74 37 13 38 14 39 15 40 68 41 16 42 73 43 67 44
REMARK SMILES IDX 69 45 17 46 72 47 66 48 65 49 18 51 52 52 31 53 51 54 32 55
REMARK SMILES IDX 35 56 50 57 70 58 33 59 34 60 49 62 71 63 36 64 19 65 20 66
REMARK SMILES IDX 29 67 21 68 22 69 28 70 30 71 23 72 24 73 25 74 26 75 27 76
REMARK SMILES IDX 53 77 54 78 63 79 55 80 56 81 62 82 64 83 57 84 58 85 59 86
REMARK SMILES IDX 60 87 61 88 37 89 38 90 47 91 39 92 40 93 46 94 48 95 41 96
REMARK SMILES IDX 42 97 43 98 44 99 45 100
REMARK H PARENT 3 7 7 31 69 50 35 61
REMARK Flexibility Score: inf
ROOT
ATOM      1  C   UNL     1       4.462   3.555  -0.320  1.00  0.00     0.118 C 
ENDROOT
BRANCH   1   2
ATOM      2  C   UNL     1       4.969   2.163  -0.659  1.00  0.00     0.042 C 
BRANCH   2   3
ATOM      3  C   UNL     1       4.462   1.173   0.377  1.00  0.00     0.118 C 
BRANCH   3   4
ATOM      4  N   UNL     1       2.992   1.173   0.377  1.00  0.00    -0.352 N 
ATOM      5  O   UNL     1       0.986  -0.064   0.075  1.00  0.00    -0.270 OA
ATOM      6  C   UNL     1       2.257  -0.064   0.075  1.00  0.00     0.251 C 
ATOM      7  H   UNL     1       2.500   2.001   0.579  1.00  0.00     0.163 HD
BRANCH   6   8
ATOM      8  C   UNL     1       3.017  -1.343  -0.236  1.00  0.00     0.067 C 
ATOM      9  C   UNL     1       4.377  -1.343  -0.236  1.00  0.00     0.025 C 
ATOM     10  C   UNL     1       2.257  -2.622  -0.548  1.00  0.00     0.314 C 
ATOM     11  C   UNL     1       5.137  -0.064   0.075  1.00  0.00     0.020 A 
ATOM     12  O   UNL     1       3.522   0.351   1.769  1.00  0.00    -0.474 OA
ATOM     13  C   UNL     1       6.230   0.307  -0.691  1.00  0.00     0.036 A 
ATOM     14  C   UNL     1       4.736   0.671   1.105  1.00  0.00     0.142 A 
ATOM     15  C   UNL     1       7.017   1.329  -0.110  1.00  0.00     0.109 A 
ATOM     16  C   UNL     1       5.486   1.740   1.536  1.00  0.00     0.062 A 
ATOM     17  C   UNL     1       6.610   2.127   0.861  1.00  0.00     0.044 A 
ATOM     18  Br  UNL     1       4.935   2.723   3.139  1.00  0.00    -0.047 Br
BRANCH  10  19
ATOM     19  C   UNL     1       2.624  -3.690   0.469  1.00  0.00     0.429 C 
ATOM     20  F   UNL     1       2.303  -3.270   1.689  1.00  0.00    -0.167 F 
ATOM     21  F   UNL     1       1.959  -4.809   0.196  1.00  0.00    -0.167 F 
ATOM     22  F   UNL     1       3.932  -3.926   0.411  1.00  0.00    -0.167 F 
ENDBRANCH  10  19
BRANCH  15  23
ATOM     23  S   UNL     1       8.697   1.560  -0.741  1.00  0.00     0.310 S 
ATOM     24  F   UNL     1       9.313   1.593   0.721  1.00  0.00    -0.094 F 
ATOM     25  F   UNL     1       8.498   3.118  -0.618  1.00  0.00    -0.094 F 
ATOM     26  F   UNL     1      10.140   1.759  -1.286  1.00  0.00    -0.094 F 
ATOM     27  F   UNL     1       8.928  -0.003  -0.724  1.00  0.00    -0.094 F 
ATOM     28  F   UNL     1       7.277   1.342  -0.081  1.00  0.00    -0.094 F 
ENDBRANCH  15  23
ENDBRANCH   6   8
ENDBRANCH   3   4
ENDBRANCH   2   3
ENDBRANCH   1   2
BRANCH   1  29
ATOM     29  N   UNL     1       4.952   3.944   1.010  1.00  0.00    -0.352 N 
ATOM     30  C   UNL     1       5.797   5.137   1.162  1.00  0.00     0.251 C 
ATOM     31  H   UNL     1       4.714   3.405   1.799  1.00  0.00     0.163 HD
ATOM     32  O   UNL     1       6.221   5.473   2.312  1.00  0.00    -0.269 OA
BRANCH  30  33
ATOM     33  C   UNL     1       6.164   5.969  -0.056  1.00  0.00     0.039 A 
ATOM     34  C   UNL     1       7.473   6.304  -0.359  1.00  0.00     0.014 A 
ATOM     35  C   UNL     1       5.172   6.235  -0.897  1.00  0.00     0.014 A 
ATOM     36  C   UNL     1       7.599   7.186  -1.459  1.00  0.00     0.010 A 
ATOM     37  C   UNL     1       5.394   6.989  -2.024  1.00  0.00     0.010 A 
ATOM     38  C   UNL     1       6.654   7.406  -2.355  1.00  0.00    -0.014 A 
BRANCH  38  39
ATOM     39  C   UNL     1       6.950   8.084  -3.682  1.00  0.00     0.031 A 
ATOM     40  C   UNL     1       6.268   9.275  -3.936  1.00  0.00     0.074 A 
ATOM     41  C   UNL     1       7.753   7.440  -4.608  1.00  0.00     0.049 A 
ATOM     42  N   UNL     1       6.287  10.002  -5.054  1.00  0.00    -0.248 NA
ATOM     43  C   UNL     1       5.387   9.944  -2.966  1.00  0.00     0.031 C 
ATOM     44  C   UNL     1       8.451   6.243  -4.356  1.00  0.00     0.029 A 
ATOM     45  N   UNL     1       8.020   7.819  -5.904  1.00  0.00    -0.354 N 
ATOM     46  C   UNL     1       5.522  11.087  -4.913  1.00  0.00     0.074 A 
ATOM     47  C   UNL     1       4.928  11.062  -3.570  1.00  0.00     0.031 C 
ATOM     48  C   UNL     1       9.120   5.899  -5.489  1.00  0.00     0.029 A 
ATOM     49  C   UNL     1       8.851   6.876  -6.466  1.00  0.00     0.049 A 
ATOM     50  H   UNL     1       7.675   8.626  -6.353  1.00  0.00     0.167 HD
ATOM     51  C   UNL     1       5.300  12.096  -5.850  1.00  0.00     0.037 A 
ATOM     52  C   UNL     1       9.356   6.851  -7.756  1.00  0.00     0.037 A 
ATOM     53  C   UNL     1       5.840  12.093  -7.127  1.00  0.00     0.049 A 
ATOM     54  C   UNL     1       9.087   7.831  -8.714  1.00  0.00     0.074 A 
ATOM     55  C   UNL     1       5.632  13.107  -8.081  1.00  0.00     0.029 A 
ATOM     56  N   UNL     1       6.652  11.137  -7.696  1.00  0.00    -0.354 N 
ATOM     57  N   UNL     1       8.355   8.936  -8.559  1.00  0.00    -0.248 NA
ATOM     58  C   UNL     1       9.590   7.798 -10.094  1.00  0.00     0.031 C 
ATOM     59  C   UNL     1       6.301  12.763  -9.214  1.00  0.00     0.029 A 
ATOM     60  C   UNL     1       6.937  11.528  -8.986  1.00  0.00     0.049 A 
ATOM     61  H   UNL     1       6.973  10.316  -7.258  1.00  0.00     0.167 HD
ATOM     62  C   UNL     1       8.341   9.640  -9.692  1.00  0.00     0.074 A 
ATOM     63  C   UNL     1       9.129   8.915 -10.698  1.00  0.00     0.031 C 
ATOM     64  C   UNL     1       7.706  10.861  -9.927  1.00  0.00     0.037 A 
BRANCH  51  65
ATOM     65  C   UNL     1       4.415  13.265  -5.449  1.00  0.00     0.058 A 
ATOM     66  C   UNL     1       4.793  14.018  -4.349  1.00  0.00     0.135 A 
ATOM     67  C   UNL     1       3.301  13.537  -6.119  1.00  0.00     0.135 A 
ATOM     68  F   UNL     1       6.006  13.951  -3.807  1.00  0.00    -0.206 F 
ATOM     69  C   UNL     1       3.772  14.863  -3.854  1.00  0.00     0.059 A 
ATOM     70  C   UNL     1       2.412  14.473  -5.648  1.00  0.00     0.059 A 
ATOM     71  F   UNL     1       3.043  12.896  -7.255  1.00  0.00    -0.206 F 
ATOM     72  C   UNL     1       2.694  15.212  -4.533  1.00  0.00     0.060 A 
BRANCH  72  73
ATOM     73  S   UNL     1       1.647  16.594  -4.014  1.00  0.00     0.124 S 
ATOM     74  O   UNL     1       1.097  16.319  -2.612  1.00  0.00    -0.237 OA
ATOM     75  O   UNL     1       2.473  17.881  -3.995  1.00  0.00    -0.237 OA
ATOM     76  O   UNL     1       0.347  16.767  -5.112  1.00  0.00    -0.744 OA
ENDBRANCH  72  73
ENDBRANCH  51  65
BRANCH  52  77
ATOM     77  C   UNL     1      10.255   5.690  -8.152  1.00  0.00     0.058 A 
ATOM     78  C   UNL     1      11.550   5.984  -8.546  1.00  0.00     0.135 A 
ATOM     79  C   UNL     1       9.815   4.438  -8.108  1.00  0.00     0.135 A 
ATOM     80  F   UNL     1      12.110   7.177  -8.367  1.00  0.00    -0.206 F 
ATOM     81  C   UNL     1      12.223   4.899  -9.156  1.00  0.00     0.059 A 
ATOM     82  C   UNL     1      10.583   3.409  -8.598  1.00  0.00     0.059 A 
ATOM     83  F   UNL     1       8.621   4.177  -7.584  1.00  0.00    -0.206 F 
ATOM     84  C   UNL     1      11.851   3.636  -9.058  1.00  0.00     0.060 A 
BRANCH  84  85
ATOM     85  S   UNL     1      12.958   2.277  -9.509  1.00  0.00     0.124 S 
ATOM     86  O   UNL     1      13.351   2.407 -10.983  1.00  0.00    -0.237 OA
ATOM     87  O   UNL     1      14.216   2.333  -8.639  1.00  0.00    -0.237 OA
ATOM     88  O   UNL     1      12.160   0.785  -9.262  1.00  0.00    -0.744 OA
ENDBRANCH  84  85
ENDBRANCH  52  77
BRANCH  64  89
ATOM     89  C   UNL     1       7.866  11.497 -11.298  1.00  0.00     0.058 A 
ATOM     90  C   UNL     1       7.369  10.887 -12.438  1.00  0.00     0.135 A 
ATOM     91  C   UNL     1       8.425  12.701 -11.349  1.00  0.00     0.135 A 
ATOM     92  F   UNL     1       6.585   9.813 -12.403  1.00  0.00    -0.206 F 
ATOM     93  C   UNL     1       7.770  11.510 -13.643  1.00  0.00     0.059 A 
ATOM     94  C   UNL     1       8.665  13.310 -12.557  1.00  0.00     0.059 A 
ATOM     95  F   UNL     1       8.755  13.322 -10.221  1.00  0.00    -0.206 F 
ATOM     96  C   UNL     1       8.253  12.736 -13.728  1.00  0.00     0.060 A 
BRANCH  96  97
ATOM     97  S   UNL     1       8.364  13.611 -15.309  1.00  0.00     0.124 S 
ATOM     98  O   UNL     1       9.260  12.821 -16.267  1.00  0.00    -0.237 OA
ATOM     99  O   UNL     1       6.966  13.748 -15.915  1.00  0.00    -0.237 OA
ATOM    100  O   UNL     1       9.031  15.165 -15.056  1.00  0.00    -0.744 OA
ENDBRANCH  96  97
ENDBRANCH  64  89
ENDBRANCH  38  39
ENDBRANCH  30  33
ENDBRANCH   1  29
TORSDOF 15
