REMARK SMILES C[C@@H]1Oc2c(C(=O)NCCCNC(=O)c3ccc(-c4c5nc(c(-c6c(F)cc(S(=O)(=O)[O-])cc6F)c6ccc([nH]6)c(-c6c(F)cc(S(=O)(=O)[O-])cc6F)c6nc(c(-c7c(F)cc(S(=O)(=O)[O-])cc7F)c7ccc4[nH]7)C=C6)C=C5)cc3)cccc2[C@@H]1C
REMARK SMILES IDX 12 1 13 2 14 3 11 5 10 6 9 7 8 8 6 9 7 10 5 12 1 13 2 14
REMARK SMILES IDX 3 15 85 16 4 17 84 18 86 19 83 20 81 21 82 22 15 23 16 24
REMARK SMILES IDX 80 25 17 26 79 27 18 28 19 29 20 30 73 31 21 32 78 33 72 34
REMARK SMILES IDX 74 35 22 36 77 37 71 38 70 39 23 41 57 42 36 43 56 44 37 45
REMARK SMILES IDX 40 46 55 47 75 48 38 49 39 50 54 52 76 53 41 54 24 55 25 56
REMARK SMILES IDX 34 57 26 58 27 59 33 60 35 61 28 62 29 63 30 64 31 65 32 66
REMARK SMILES IDX 58 67 59 68 68 69 60 70 61 71 67 72 69 73 62 74 63 75 64 76
REMARK SMILES IDX 65 77 66 78 42 79 43 80 52 81 44 82 45 83 51 84 53 85 46 86
REMARK SMILES IDX 47 87 48 88 49 89 50 90
REMARK H PARENT 12 4 8 11 74 40 40 51
REMARK Flexibility Score: inf
ROOT
ATOM      1  N   UNL     1       4.712   9.837   3.057  1.00  0.00    -0.352 N 
ATOM      2  C   UNL     1       5.095  11.146   3.224  1.00  0.00     0.251 C 
ATOM      3  O   UNL     1       6.144  11.532   2.718  1.00  0.00    -0.269 OA
ATOM      4  H   UNL     1       5.412   9.248   2.693  1.00  0.00     0.163 HD
ENDROOT
BRANCH   1   5
ATOM      5  C   UNL     1       3.441   9.174   3.331  1.00  0.00     0.118 C 
BRANCH   5   6
ATOM      6  C   UNL     1       2.819   8.583   2.068  1.00  0.00     0.042 C 
BRANCH   6   7
ATOM      7  C   UNL     1       3.607   7.395   1.519  1.00  0.00     0.118 C 
BRANCH   7   8
ATOM      8  N   UNL     1       3.330   6.195   2.284  1.00  0.00    -0.352 N 
ATOM      9  C   UNL     1       2.463   5.140   2.135  1.00  0.00     0.255 C 
ATOM     10  O   UNL     1       2.514   4.297   3.033  1.00  0.00    -0.269 OA
ATOM     11  H   UNL     1       3.889   6.119   3.091  1.00  0.00     0.163 HD
BRANCH   9  12
ATOM     12  C   UNL     1       1.543   4.961   0.967  1.00  0.00     0.082 A 
ATOM     13  C   UNL     1      -0.247   0.635   1.812  1.00  0.00     0.053 C 
ATOM     14  C   UNL     1       0.491   1.506   0.802  1.00  0.00     0.177 C 
ATOM     15  O   UNL     1       1.108   2.602   1.516  1.00  0.00    -0.489 OA
ATOM     16  C   UNL     1      -0.352   2.071  -0.362  1.00  0.00     0.060 C 
ATOM     17  C   UNL     1       0.992   3.704   0.708  1.00  0.00     0.136 A 
ATOM     18  C   UNL     1       0.186   3.460  -0.402  1.00  0.00     0.001 A 
ATOM     19  C   UNL     1      -1.865   2.093  -0.165  1.00  0.00     0.017 C 
ATOM     20  C   UNL     1      -0.101   4.460  -1.314  1.00  0.00     0.008 A 
ATOM     21  C   UNL     1       1.158   5.989   0.093  1.00  0.00     0.018 A 
ATOM     22  C   UNL     1       0.374   5.739  -1.049  1.00  0.00     0.001 A 
ENDBRANCH   9  12
ENDBRANCH   7   8
ENDBRANCH   6   7
ENDBRANCH   5   6
ENDBRANCH   1   5
BRANCH   2  23
ATOM     23  C   UNL     1       4.250  12.089   3.990  1.00  0.00     0.039 A 
ATOM     24  C   UNL     1       3.586  11.682   5.147  1.00  0.00     0.014 A 
ATOM     25  C   UNL     1       4.149  13.418   3.564  1.00  0.00     0.014 A 
ATOM     26  C   UNL     1       2.693  12.544   5.773  1.00  0.00     0.010 A 
ATOM     27  C   UNL     1       3.328  14.315   4.256  1.00  0.00     0.010 A 
ATOM     28  C   UNL     1       2.558  13.874   5.342  1.00  0.00    -0.014 A 
BRANCH  28  29
ATOM     29  C   UNL     1       1.616  14.776   6.058  1.00  0.00     0.031 A 
ATOM     30  C   UNL     1       0.420  15.359   5.354  1.00  0.00     0.074 A 
ATOM     31  C   UNL     1       1.810  15.014   7.371  1.00  0.00     0.049 A 
ATOM     32  N   UNL     1      -0.530  16.118   5.838  1.00  0.00    -0.248 NA
ATOM     33  C   UNL     1       0.269  15.058   3.921  1.00  0.00     0.031 C 
ATOM     34  C   UNL     1       2.934  14.502   8.160  1.00  0.00     0.029 A 
ATOM     35  N   UNL     1       1.061  15.715   8.282  1.00  0.00    -0.354 N 
ATOM     36  C   UNL     1      -1.383  16.391   4.775  1.00  0.00     0.074 A 
ATOM     37  C   UNL     1      -0.817  15.752   3.608  1.00  0.00     0.031 C 
ATOM     38  C   UNL     1       2.765  14.848   9.444  1.00  0.00     0.029 A 
ATOM     39  C   UNL     1       1.563  15.665   9.562  1.00  0.00     0.049 A 
ATOM     40  H   UNL     1       0.243  16.206   8.043  1.00  0.00     0.167 HD
ATOM     41  C   UNL     1      -2.542  17.093   4.778  1.00  0.00     0.037 A 
ATOM     42  C   UNL     1       1.114  16.220  10.704  1.00  0.00     0.037 A 
ATOM     43  C   UNL     1      -3.105  17.713   5.951  1.00  0.00     0.049 A 
ATOM     44  C   UNL     1      -0.146  17.036  10.671  1.00  0.00     0.074 A 
ATOM     45  C   UNL     1      -4.282  18.433   6.059  1.00  0.00     0.029 A 
ATOM     46  N   UNL     1      -2.534  17.688   7.216  1.00  0.00    -0.354 N 
ATOM     47  N   UNL     1      -0.947  17.270   9.658  1.00  0.00    -0.248 NA
ATOM     48  C   UNL     1      -0.563  17.672  11.928  1.00  0.00     0.031 C 
ATOM     49  C   UNL     1      -4.397  18.887   7.376  1.00  0.00     0.029 A 
ATOM     50  C   UNL     1      -3.323  18.401   8.104  1.00  0.00     0.049 A 
ATOM     51  H   UNL     1      -1.694  17.231   7.447  1.00  0.00     0.167 HD
ATOM     52  C   UNL     1      -1.972  18.063  10.159  1.00  0.00     0.074 A 
ATOM     53  C   UNL     1      -1.697  18.259  11.568  1.00  0.00     0.031 C 
ATOM     54  C   UNL     1      -3.041  18.582   9.508  1.00  0.00     0.037 A 
BRANCH  41  55
ATOM     55  C   UNL     1      -3.284  17.238   3.476  1.00  0.00     0.058 A 
ATOM     56  C   UNL     1      -3.949  16.154   2.881  1.00  0.00     0.135 A 
ATOM     57  C   UNL     1      -3.387  18.490   2.847  1.00  0.00     0.135 A 
ATOM     58  F   UNL     1      -3.873  14.931   3.430  1.00  0.00    -0.206 F 
ATOM     59  C   UNL     1      -4.670  16.300   1.700  1.00  0.00     0.059 A 
ATOM     60  C   UNL     1      -4.127  18.666   1.680  1.00  0.00     0.059 A 
ATOM     61  F   UNL     1      -2.773  19.563   3.371  1.00  0.00    -0.206 F 
ATOM     62  C   UNL     1      -4.756  17.562   1.109  1.00  0.00     0.060 A 
BRANCH  62  63
ATOM     63  S   UNL     1      -5.705  17.731  -0.417  1.00  0.00     0.124 S 
ATOM     64  O   UNL     1      -4.874  16.989  -1.361  1.00  0.00    -0.237 OA
ATOM     65  O   UNL     1      -6.975  17.104  -0.064  1.00  0.00    -0.237 OA
ATOM     66  O   UNL     1      -5.758  19.174  -0.630  1.00  0.00    -0.744 OA
ENDBRANCH  62  63
ENDBRANCH  41  55
BRANCH  42  67
ATOM     67  C   UNL     1       1.867  16.008  11.970  1.00  0.00     0.058 A 
ATOM     68  C   UNL     1       1.339  15.220  13.002  1.00  0.00     0.135 A 
ATOM     69  C   UNL     1       3.152  16.546  12.150  1.00  0.00     0.135 A 
ATOM     70  F   UNL     1       0.113  14.689  12.881  1.00  0.00    -0.206 F 
ATOM     71  C   UNL     1       2.056  14.972  14.169  1.00  0.00     0.059 A 
ATOM     72  C   UNL     1       3.900  16.289  13.294  1.00  0.00     0.059 A 
ATOM     73  F   UNL     1       3.709  17.295  11.186  1.00  0.00    -0.206 F 
ATOM     74  C   UNL     1       3.341  15.504  14.301  1.00  0.00     0.060 A 
BRANCH  74  75
ATOM     75  S   UNL     1       4.286  15.119  15.790  1.00  0.00     0.124 S 
ATOM     76  O   UNL     1       3.551  15.864  16.806  1.00  0.00    -0.237 OA
ATOM     77  O   UNL     1       4.172  13.666  15.855  1.00  0.00    -0.237 OA
ATOM     78  O   UNL     1       5.621  15.623  15.482  1.00  0.00    -0.744 OA
ENDBRANCH  74  75
ENDBRANCH  42  67
BRANCH  54  79
ATOM     79  C   UNL     1      -4.020  19.398  10.306  1.00  0.00     0.058 A 
ATOM     80  C   UNL     1      -3.717  20.700  10.731  1.00  0.00     0.135 A 
ATOM     81  C   UNL     1      -5.312  18.908  10.558  1.00  0.00     0.135 A 
ATOM     82  F   UNL     1      -2.494  21.211  10.523  1.00  0.00    -0.206 F 
ATOM     83  C   UNL     1      -4.661  21.488  11.380  1.00  0.00     0.059 A 
ATOM     84  C   UNL     1      -6.280  19.689  11.181  1.00  0.00     0.059 A 
ATOM     85  F   UNL     1      -5.655  17.670  10.165  1.00  0.00    -0.206 F 
ATOM     86  C   UNL     1      -5.944  20.978  11.589  1.00  0.00     0.060 A 
BRANCH  86  87
ATOM     87  S   UNL     1      -7.177  22.043  12.367  1.00  0.00     0.124 S 
ATOM     88  O   UNL     1      -6.670  22.134  13.732  1.00  0.00    -0.237 OA
ATOM     89  O   UNL     1      -7.079  23.262  11.571  1.00  0.00    -0.237 OA
ATOM     90  O   UNL     1      -8.422  21.296  12.210  1.00  0.00    -0.744 OA
ENDBRANCH  86  87
ENDBRANCH  54  79
ENDBRANCH  28  29
ENDBRANCH   2  23
TORSDOF 13
