REMARK SMILES O=C(C[C@H]1N=NC(=O)c2ccccc21)N[C@@H](CC1=c2ccccc2=NC1)C(=O)NCCCNC(=O)c1ccc(-c2c3nc(c(-c4c(F)cc(S(=O)(=O)[O-])cc4F)c4ccc([nH]4)c(-c4c(F)cc(S(=O)(=O)[O-])cc4F)c4nc(c(-c5c(F)cc(S(=O)(=O)[O-])cc5F)c5ccc2[nH]5)C=C4)C=C3)cc1
REMARK SMILES IDX 31 1 30 2 29 3 27 4 28 5 16 7 15 8 1 9 2 10 3 12 4 13 5 14
REMARK SMILES IDX 14 15 6 16 9 17 13 18 7 19 10 20 12 21 8 22 11 23 17 24
REMARK SMILES IDX 18 25 19 26 26 27 20 28 24 29 25 30 21 31 23 32 22 33 32 34
REMARK SMILES IDX 33 35 34 36 35 38 36 39 37 40 101 41 38 42 100 43 39 44
REMARK SMILES IDX 40 45 41 46 94 47 42 48 99 49 93 50 95 51 43 52 98 53 92 54
REMARK SMILES IDX 91 55 44 57 78 58 57 59 77 60 58 61 61 62 76 63 96 64 59 65
REMARK SMILES IDX 60 66 75 68 97 69 62 70 45 71 46 72 55 73 47 74 48 75 54 76
REMARK SMILES IDX 56 77 49 78 50 79 51 80 52 81 53 82 79 83 80 84 89 85 81 86
REMARK SMILES IDX 82 87 88 88 90 89 83 90 84 91 85 92 86 93 87 94 63 95 64 96
REMARK SMILES IDX 73 97 65 98 66 99 72 100 74 101 67 102 68 103 69 104 70 105
REMARK SMILES IDX 71 106
REMARK H PARENT 29 6 15 11 33 37 95 56 61 67
REMARK Flexibility Score: inf
ROOT
ATOM      1  C   UNL     1       2.410  -0.275  -2.526  1.00  0.00     0.042 C 
ENDROOT
BRANCH   1   2
ATOM      2  C   UNL     1       3.614   0.535  -2.925  1.00  0.00     0.117 C 
BRANCH   2   3
ATOM      3  N   UNL     1       3.526   1.945  -2.696  1.00  0.00    -0.354 N 
ATOM      4  C   UNL     1       4.549   2.727  -2.235  1.00  0.00     0.242 C 
ATOM      5  O   UNL     1       4.472   3.939  -2.457  1.00  0.00    -0.273 OA
ATOM      6  H   UNL     1       2.666   2.384  -2.884  1.00  0.00     0.163 HD
BRANCH   4   7
ATOM      7  C   UNL     1       5.820   2.103  -1.583  1.00  0.00     0.175 C 
BRANCH   7   8
ATOM      8  N   UNL     1       5.585   1.203  -0.446  1.00  0.00    -0.344 N 
ATOM      9  O   UNL     1       5.946   2.766   1.200  1.00  0.00    -0.275 OA
ATOM     10  C   UNL     1       5.671   1.620   0.862  1.00  0.00     0.223 C 
ATOM     11  H   UNL     1       5.357   0.263  -0.627  1.00  0.00     0.164 HD
BRANCH  10  12
ATOM     12  C   UNL     1       5.389   0.538   1.880  1.00  0.00     0.134 C 
BRANCH  12  13
ATOM     13  C   UNL     1       3.888   0.223   1.903  1.00  0.00     0.169 C 
ATOM     14  N   UNL     1       3.687  -1.090   1.254  1.00  0.00    -0.177 NA
ATOM     15  C   UNL     1       3.317   0.325   3.283  1.00  0.00    -0.008 A 
ATOM     16  N   UNL     1       3.449  -2.134   1.902  1.00  0.00    -0.111 NA
ATOM     17  C   UNL     1       3.003  -0.847   3.962  1.00  0.00     0.049 A 
ATOM     18  C   UNL     1       3.129   1.562   3.915  1.00  0.00     0.007 A 
ATOM     19  C   UNL     1       3.229  -2.134   3.269  1.00  0.00     0.295 C 
ATOM     20  C   UNL     1       2.516  -0.799   5.273  1.00  0.00     0.014 A 
ATOM     21  C   UNL     1       2.638   1.613   5.220  1.00  0.00     0.000 A 
ATOM     22  O   UNL     1       3.201  -3.155   3.938  1.00  0.00    -0.265 OA
ATOM     23  C   UNL     1       2.334   0.434   5.900  1.00  0.00     0.001 A 
ENDBRANCH  12  13
ENDBRANCH  10  12
ENDBRANCH   7   8
BRANCH   7  24
ATOM     24  C   UNL     1       6.866   1.585  -2.620  1.00  0.00     0.068 C 
BRANCH  24  25
ATOM     25  C   UNL     1       7.082   0.117  -3.071  1.00  0.00    -0.037 C 
ATOM     26  C   UNL     1       6.490  -0.954  -2.526  1.00  0.00     0.001 A 
ATOM     27  C   UNL     1       8.560  -0.231  -3.149  1.00  0.00     0.174 C 
ATOM     28  C   UNL     1       5.553  -1.917  -3.062  1.00  0.00     0.010 A 
ATOM     29  C   UNL     1       7.596  -1.566  -1.758  1.00  0.00     0.065 A 
ATOM     30  N   UNL     1       8.797  -1.155  -2.015  1.00  0.00    -0.280 NA
ATOM     31  C   UNL     1       5.302  -3.011  -2.321  1.00  0.00     0.001 A 
ATOM     32  C   UNL     1       7.143  -2.570  -0.771  1.00  0.00     0.028 A 
ATOM     33  C   UNL     1       5.995  -3.215  -1.054  1.00  0.00     0.002 A 
ENDBRANCH  24  25
ENDBRANCH   7  24
ENDBRANCH   4   7
ENDBRANCH   2   3
ENDBRANCH   1   2
BRANCH   1  34
ATOM     34  C   UNL     1       1.392  -0.392  -3.637  1.00  0.00     0.118 C 
BRANCH  34  35
ATOM     35  N   UNL     1       1.883  -1.101  -4.825  1.00  0.00    -0.352 N 
ATOM     36  C   UNL     1       1.550  -2.321  -5.379  1.00  0.00     0.251 C 
ATOM     37  H   UNL     1       2.582  -0.616  -5.320  1.00  0.00     0.163 HD
ATOM     38  O   UNL     1       2.192  -2.740  -6.339  1.00  0.00    -0.269 OA
BRANCH  36  39
ATOM     39  C   UNL     1       0.478  -3.148  -4.783  1.00  0.00     0.039 A 
ATOM     40  C   UNL     1      -0.627  -2.540  -4.210  1.00  0.00     0.014 A 
ATOM     41  C   UNL     1       0.614  -4.537  -4.708  1.00  0.00     0.014 A 
ATOM     42  C   UNL     1      -1.359  -3.232  -3.263  1.00  0.00     0.010 A 
ATOM     43  C   UNL     1      -0.272  -5.277  -3.914  1.00  0.00     0.010 A 
ATOM     44  C   UNL     1      -1.206  -4.617  -3.101  1.00  0.00    -0.014 A 
BRANCH  44  45
ATOM     45  C   UNL     1      -2.020  -5.311  -2.062  1.00  0.00     0.031 A 
ATOM     46  C   UNL     1      -1.365  -6.132  -0.976  1.00  0.00     0.074 A 
ATOM     47  C   UNL     1      -3.355  -5.109  -2.034  1.00  0.00     0.049 A 
ATOM     48  N   UNL     1      -1.926  -6.780   0.015  1.00  0.00    -0.248 NA
ATOM     49  C   UNL     1       0.102  -6.255  -1.004  1.00  0.00     0.031 C 
ATOM     50  C   UNL     1      -4.109  -4.321  -3.017  1.00  0.00     0.029 A 
ATOM     51  N   UNL     1      -4.311  -5.496  -1.130  1.00  0.00    -0.354 N 
ATOM     52  C   UNL     1      -0.891  -7.410   0.700  1.00  0.00     0.074 A 
ATOM     53  C   UNL     1       0.331  -7.096  -0.004  1.00  0.00     0.031 C 
ATOM     54  C   UNL     1      -5.377  -4.196  -2.607  1.00  0.00     0.029 A 
ATOM     55  C   UNL     1      -5.563  -4.993  -1.402  1.00  0.00     0.049 A 
ATOM     56  H   UNL     1      -4.120  -6.079  -0.360  1.00  0.00     0.167 HD
ATOM     57  C   UNL     1      -0.953  -8.166   1.823  1.00  0.00     0.037 A 
ATOM     58  C   UNL     1      -6.742  -5.170  -0.777  1.00  0.00     0.037 A 
ATOM     59  C   UNL     1      -2.169  -8.435   2.546  1.00  0.00     0.049 A 
ATOM     60  C   UNL     1      -6.791  -6.056   0.431  1.00  0.00     0.074 A 
ATOM     61  C   UNL     1      -2.332  -9.171   3.706  1.00  0.00     0.029 A 
ATOM     62  N   UNL     1      -3.426  -7.973   2.186  1.00  0.00    -0.354 N 
ATOM     63  N   UNL     1      -5.801  -6.651   1.053  1.00  0.00    -0.248 NA
ATOM     64  C   UNL     1      -8.114  -6.319   1.010  1.00  0.00     0.031 C 
ATOM     65  C   UNL     1      -3.694  -9.197   4.019  1.00  0.00     0.029 A 
ATOM     66  C   UNL     1      -4.374  -8.433   3.084  1.00  0.00     0.049 A 
ATOM     67  H   UNL     1      -3.617  -7.401   1.407  1.00  0.00     0.167 HD
ATOM     68  C   UNL     1      -6.381  -7.357   2.098  1.00  0.00     0.074 A 
ATOM     69  C   UNL     1      -7.805  -7.093   2.042  1.00  0.00     0.031 C 
ATOM     70  C   UNL     1      -5.788  -8.159   3.015  1.00  0.00     0.037 A 
BRANCH  57  71
ATOM     71  C   UNL     1       0.326  -8.771   2.344  1.00  0.00     0.058 A 
ATOM     72  C   UNL     1       1.323  -7.989   2.948  1.00  0.00     0.135 A 
ATOM     73  C   UNL     1       0.526 -10.161   2.297  1.00  0.00     0.135 A 
ATOM     74  F   UNL     1       1.191  -6.655   3.006  1.00  0.00    -0.206 F 
ATOM     75  C   UNL     1       2.482  -8.560   3.467  1.00  0.00     0.059 A 
ATOM     76  C   UNL     1       1.663 -10.757   2.836  1.00  0.00     0.059 A 
ATOM     77  F   UNL     1      -0.395 -10.958   1.733  1.00  0.00    -0.206 F 
ATOM     78  C   UNL     1       2.641  -9.946   3.409  1.00  0.00     0.060 A 
BRANCH  78  79
ATOM     79  S   UNL     1       4.147 -10.671   4.094  1.00  0.00     0.124 S 
ATOM     80  O   UNL     1       5.157 -10.188   3.156  1.00  0.00    -0.237 OA
ATOM     81  O   UNL     1       4.194 -10.088   5.431  1.00  0.00    -0.237 OA
ATOM     82  O   UNL     1       3.888 -12.107   4.047  1.00  0.00    -0.744 OA
ENDBRANCH  78  79
ENDBRANCH  57  71
BRANCH  58  83
ATOM     83  C   UNL     1      -7.966  -4.514  -1.311  1.00  0.00     0.058 A 
ATOM     84  C   UNL     1      -8.610  -3.495  -0.597  1.00  0.00     0.135 A 
ATOM     85  C   UNL     1      -8.488  -4.861  -2.569  1.00  0.00     0.135 A 
ATOM     86  F   UNL     1      -8.154  -3.131   0.612  1.00  0.00    -0.206 F 
ATOM     87  C   UNL     1      -9.727  -2.843  -1.108  1.00  0.00     0.059 A 
ATOM     88  C   UNL     1      -9.582  -4.202  -3.115  1.00  0.00     0.059 A 
ATOM     89  F   UNL     1      -7.899  -5.820  -3.301  1.00  0.00    -0.206 F 
ATOM     90  C   UNL     1     -10.200  -3.197  -2.373  1.00  0.00     0.060 A 
BRANCH  90  91
ATOM     91  S   UNL     1     -11.611  -2.298  -3.052  1.00  0.00     0.124 S 
ATOM     92  O   UNL     1     -12.694  -2.763  -2.194  1.00  0.00    -0.237 OA
ATOM     93  O   UNL     1     -11.201  -0.909  -2.870  1.00  0.00    -0.237 OA
ATOM     94  O   UNL     1     -11.664  -2.752  -4.438  1.00  0.00    -0.744 OA
ENDBRANCH  90  91
ENDBRANCH  58  83
BRANCH  70  95
ATOM     95  C   UNL     1      -6.669  -8.815   4.040  1.00  0.00     0.058 A 
ATOM     96  C   UNL     1      -7.497  -9.896   3.703  1.00  0.00     0.135 A 
ATOM     97  C   UNL     1      -6.611  -8.423   5.387  1.00  0.00     0.135 A 
ATOM     98  F   UNL     1      -7.598 -10.299   2.426  1.00  0.00    -0.206 F 
ATOM     99  C   UNL     1      -8.238 -10.568   4.668  1.00  0.00     0.059 A 
ATOM    100  C   UNL     1      -7.321  -9.099   6.373  1.00  0.00     0.059 A 
ATOM    101  F   UNL     1      -5.829  -7.397   5.760  1.00  0.00    -0.206 F 
ATOM    102  C   UNL     1      -8.133 -10.171   6.003  1.00  0.00     0.060 A 
BRANCH 102 103
ATOM    103  S   UNL     1      -9.044 -11.104   7.250  1.00  0.00     0.124 S 
ATOM    104  O   UNL     1     -10.424 -10.751   6.934  1.00  0.00    -0.237 OA
ATOM    105  O   UNL     1      -8.657 -12.479   6.950  1.00  0.00    -0.237 OA
ATOM    106  O   UNL     1      -8.535 -10.575   8.512  1.00  0.00    -0.744 OA
ENDBRANCH 102 103
ENDBRANCH  70  95
ENDBRANCH  44  45
ENDBRANCH  36  39
ENDBRANCH  34  35
ENDBRANCH   1  34
TORSDOF 18
