REMARK SMILES Cn1cc(S(=O)(=O)N2CCCc3cc(C(=O)NCCCNC(=O)c4ccc(-c5c6nc(c(-c7c(F)cc(S(=O)(=O)[O-])cc7F)c7ccc([nH]7)c(-c7c(F)cc(S(=O)(=O)[O-])cc7F)c7nc(c(-c8c(F)cc(S(=O)(=O)[O-])cc8F)c8ccc5[nH]8)C=C7)C=C6)cc4)ccc32)cc1C(N)=O
REMARK SMILES IDX 19 1 18 2 17 3 15 4 16 5 14 7 8 8 9 9 92 10 10 11 12 12
REMARK SMILES IDX 91 13 11 14 13 15 90 16 5 17 6 18 7 19 4 20 1 21 2 22 3 23
REMARK SMILES IDX 94 24 93 25 95 26 96 27 97 28 20 31 21 32 22 33 23 35 24 36
REMARK SMILES IDX 25 37 89 38 26 39 88 40 27 41 28 42 29 43 82 44 30 45 87 46
REMARK SMILES IDX 81 47 83 48 31 49 86 50 80 51 79 52 32 54 66 55 45 56 65 57
REMARK SMILES IDX 46 58 49 59 64 60 84 61 47 62 48 63 63 65 85 66 50 67 33 68
REMARK SMILES IDX 34 69 43 70 35 71 36 72 42 73 44 74 37 75 38 76 39 77 40 78
REMARK SMILES IDX 41 79 67 80 68 81 77 82 69 83 70 84 76 85 78 86 71 87 72 88
REMARK SMILES IDX 73 89 74 90 75 91 51 92 52 93 61 94 53 95 54 96 60 97 62 98
REMARK SMILES IDX 55 99 56 100 57 101 58 102 59 103
REMARK H PARENT 17 6 96 29 96 30 21 34 83 53 49 64
REMARK Flexibility Score: inf
ROOT
ATOM      1  C   UNL     1      -6.097   1.476  -6.877  1.00  0.00     0.042 C 
ENDROOT
BRANCH   1   2
ATOM      2  C   UNL     1      -6.907   2.221  -5.817  1.00  0.00     0.118 C 
BRANCH   2   3
ATOM      3  N   UNL     1      -7.961   1.385  -5.269  1.00  0.00    -0.352 N 
ATOM      4  C   UNL     1      -8.079   0.690  -4.094  1.00  0.00     0.251 C 
ATOM      5  O   UNL     1      -9.153   0.125  -3.876  1.00  0.00    -0.269 OA
ATOM      6  H   UNL     1      -8.745   1.300  -5.859  1.00  0.00     0.163 HD
BRANCH   4   7
ATOM      7  C   UNL     1      -7.011   0.622  -3.058  1.00  0.00     0.040 A 
ATOM      8  N   UNL     1      -4.199   0.429   0.140  1.00  0.00    -0.266 N 
ATOM      9  C   UNL     1      -4.598  -0.301   1.357  1.00  0.00     0.136 C 
ATOM     10  C   UNL     1      -5.131   0.487  -0.948  1.00  0.00     0.055 A 
ATOM     11  C   UNL     1      -5.970   0.185   1.793  1.00  0.00     0.028 C 
ATOM     12  C   UNL     1      -6.497   0.306  -0.682  1.00  0.00    -0.023 A 
ATOM     13  C   UNL     1      -4.713   0.641  -2.271  1.00  0.00     0.028 A 
ATOM     14  C   UNL     1      -6.992  -0.076   0.692  1.00  0.00     0.039 C 
ATOM     15  C   UNL     1      -7.423   0.390  -1.736  1.00  0.00     0.019 A 
ATOM     16  C   UNL     1      -5.643   0.694  -3.318  1.00  0.00     0.016 A 
BRANCH   8  17
ATOM     17  S   UNL     1      -2.897   1.513   0.251  1.00  0.00     0.265 S 
ATOM     18  O   UNL     1      -2.834   2.026   1.608  1.00  0.00    -0.201 OA
ATOM     19  O   UNL     1      -2.828   2.392  -0.892  1.00  0.00    -0.201 OA
BRANCH  17  20
ATOM     20  C   UNL     1      -1.452   0.564   0.124  1.00  0.00     0.106 A 
ATOM     21  C   UNL     1       2.122   0.108  -0.091  1.00  0.00     0.150 C 
ATOM     22  N   UNL     1       0.686  -0.045   0.022  1.00  0.00    -0.345 N 
ATOM     23  C   UNL     1      -0.161   1.038   0.080  1.00  0.00     0.108 A 
ATOM     24  C   UNL     1      -0.041  -1.225   0.067  1.00  0.00     0.107 A 
ATOM     25  C   UNL     1      -1.381  -0.848   0.073  1.00  0.00     0.056 A 
BRANCH  24  26
ATOM     26  C   UNL     1       0.514  -2.564   0.131  1.00  0.00     0.265 C 
ATOM     27  N   UNL     1      -0.340  -3.574  -0.205  1.00  0.00    -0.364 N 
ATOM     28  O   UNL     1       1.656  -2.837   0.484  1.00  0.00    -0.268 OA
ATOM     29  H   UNL     1      -1.259  -3.367  -0.489  1.00  0.00     0.160 HD
ATOM     30  H   UNL     1      -0.037  -4.510  -0.162  1.00  0.00     0.160 HD
ENDBRANCH  24  26
ENDBRANCH  17  20
ENDBRANCH   8  17
ENDBRANCH   4   7
ENDBRANCH   2   3
ENDBRANCH   1   2
BRANCH   1  31
ATOM     31  C   UNL     1      -6.856   1.252  -8.185  1.00  0.00     0.118 C 
BRANCH  31  32
ATOM     32  N   UNL     1      -7.048   2.490  -8.929  1.00  0.00    -0.352 N 
ATOM     33  C   UNL     1      -6.585   2.855 -10.170  1.00  0.00     0.251 C 
ATOM     34  H   UNL     1      -7.594   3.170  -8.471  1.00  0.00     0.163 HD
ATOM     35  O   UNL     1      -6.677   4.027 -10.527  1.00  0.00    -0.269 OA
BRANCH  33  36
ATOM     36  C   UNL     1      -5.966   1.856 -11.069  1.00  0.00     0.039 A 
ATOM     37  C   UNL     1      -4.790   2.193 -11.745  1.00  0.00     0.014 A 
ATOM     38  C   UNL     1      -6.554   0.604 -11.271  1.00  0.00     0.014 A 
ATOM     39  C   UNL     1      -4.160   1.248 -12.559  1.00  0.00     0.010 A 
ATOM     40  C   UNL     1      -5.897  -0.356 -12.040  1.00  0.00     0.010 A 
ATOM     41  C   UNL     1      -4.686  -0.048 -12.679  1.00  0.00    -0.014 A 
BRANCH  41  42
ATOM     42  C   UNL     1      -3.957  -1.114 -13.413  1.00  0.00     0.031 A 
ATOM     43  C   UNL     1      -4.532  -1.715 -14.665  1.00  0.00     0.074 A 
ATOM     44  C   UNL     1      -2.813  -1.602 -12.893  1.00  0.00     0.049 A 
ATOM     45  N   UNL     1      -4.094  -2.726 -15.370  1.00  0.00    -0.248 NA
ATOM     46  C   UNL     1      -5.773  -1.115 -15.179  1.00  0.00     0.031 C 
ATOM     47  C   UNL     1      -2.176  -1.128 -11.662  1.00  0.00     0.029 A 
ATOM     48  N   UNL     1      -1.994  -2.618 -13.319  1.00  0.00    -0.354 N 
ATOM     49  C   UNL     1      -5.008  -2.894 -16.403  1.00  0.00     0.074 A 
ATOM     50  C   UNL     1      -6.045  -1.901 -16.212  1.00  0.00     0.031 C 
ATOM     51  C   UNL     1      -1.066  -1.847 -11.435  1.00  0.00     0.029 A 
ATOM     52  C   UNL     1      -0.933  -2.859 -12.478  1.00  0.00     0.049 A 
ATOM     53  H   UNL     1      -2.152  -3.125 -14.147  1.00  0.00     0.167 HD
ATOM     54  C   UNL     1      -4.976  -3.784 -17.424  1.00  0.00     0.037 A 
ATOM     55  C   UNL     1       0.027  -3.802 -12.527  1.00  0.00     0.037 A 
ATOM     56  C   UNL     1      -3.931  -4.756 -17.619  1.00  0.00     0.049 A 
ATOM     57  C   UNL     1       0.028  -4.793 -13.656  1.00  0.00     0.074 A 
ATOM     58  C   UNL     1      -3.771  -5.651 -18.663  1.00  0.00     0.029 A 
ATOM     59  N   UNL     1      -2.873  -4.969 -16.747  1.00  0.00    -0.354 N 
ATOM     60  N   UNL     1      -0.810  -4.897 -14.659  1.00  0.00    -0.248 NA
ATOM     61  C   UNL     1       1.099  -5.800 -13.657  1.00  0.00     0.031 C 
ATOM     62  C   UNL     1      -2.640  -6.433 -18.401  1.00  0.00     0.029 A 
ATOM     63  C   UNL     1      -2.074  -6.000 -17.213  1.00  0.00     0.049 A 
ATOM     64  H   UNL     1      -2.713  -4.461 -15.918  1.00  0.00     0.167 HD
ATOM     65  C   UNL     1      -0.364  -5.973 -15.416  1.00  0.00     0.074 A 
ATOM     66  C   UNL     1       0.829  -6.477 -14.766  1.00  0.00     0.031 C 
ATOM     67  C   UNL     1      -0.897  -6.499 -16.547  1.00  0.00     0.037 A 
BRANCH  54  68
ATOM     68  C   UNL     1      -6.106  -3.749 -18.415  1.00  0.00     0.058 A 
ATOM     69  C   UNL     1      -6.228  -2.714 -19.354  1.00  0.00     0.135 A 
ATOM     70  C   UNL     1      -7.056  -4.783 -18.453  1.00  0.00     0.135 A 
ATOM     71  F   UNL     1      -5.354  -1.695 -19.354  1.00  0.00    -0.206 F 
ATOM     72  C   UNL     1      -7.266  -2.690 -20.280  1.00  0.00     0.059 A 
ATOM     73  C   UNL     1      -8.090  -4.792 -19.385  1.00  0.00     0.059 A 
ATOM     74  F   UNL     1      -6.986  -5.798 -17.577  1.00  0.00    -0.206 F 
ATOM     75  C   UNL     1      -8.195  -3.732 -20.285  1.00  0.00     0.060 A 
BRANCH  75  76
ATOM     76  S   UNL     1      -9.536  -3.688 -21.493  1.00  0.00     0.124 S 
ATOM     77  O   UNL     1     -10.405  -2.662 -20.924  1.00  0.00    -0.237 OA
ATOM     78  O   UNL     1      -8.841  -3.317 -22.722  1.00  0.00    -0.237 OA
ATOM     79  O   UNL     1     -10.066  -5.047 -21.463  1.00  0.00    -0.744 OA
ENDBRANCH  75  76
ENDBRANCH  54  68
BRANCH  55  80
ATOM     80  C   UNL     1       1.066  -3.852 -11.466  1.00  0.00     0.058 A 
ATOM     81  C   UNL     1       2.384  -3.454 -11.730  1.00  0.00     0.135 A 
ATOM     82  C   UNL     1       0.755  -4.272 -10.163  1.00  0.00     0.135 A 
ATOM     83  F   UNL     1       2.728  -3.053 -12.963  1.00  0.00    -0.206 F 
ATOM     84  C   UNL     1       3.362  -3.474 -10.741  1.00  0.00     0.059 A 
ATOM     85  C   UNL     1       1.710  -4.281  -9.152  1.00  0.00     0.059 A 
ATOM     86  F   UNL     1      -0.496  -4.648  -9.857  1.00  0.00    -0.206 F 
ATOM     87  C   UNL     1       3.014  -3.886  -9.453  1.00  0.00     0.060 A 
BRANCH  87  88
ATOM     88  S   UNL     1       4.272  -3.848  -8.159  1.00  0.00     0.124 S 
ATOM     89  O   UNL     1       5.066  -5.027  -8.487  1.00  0.00    -0.237 OA
ATOM     90  O   UNL     1       4.915  -2.559  -8.391  1.00  0.00    -0.237 OA
ATOM     91  O   UNL     1       3.488  -3.935  -6.930  1.00  0.00    -0.744 OA
ENDBRANCH  87  88
ENDBRANCH  55  80
BRANCH  67  92
ATOM     92  C   UNL     1      -0.195  -7.681 -17.151  1.00  0.00     0.058 A 
ATOM     93  C   UNL     1      -0.300  -8.960 -16.583  1.00  0.00     0.135 A 
ATOM     94  C   UNL     1       0.547  -7.546 -18.335  1.00  0.00     0.135 A 
ATOM     95  F   UNL     1      -0.989  -9.139 -15.445  1.00  0.00    -0.206 F 
ATOM     96  C   UNL     1       0.319 -10.064 -17.160  1.00  0.00     0.059 A 
ATOM     97  C   UNL     1       1.156  -8.640 -18.942  1.00  0.00     0.059 A 
ATOM     98  F   UNL     1       0.672  -6.345 -18.922  1.00  0.00    -0.206 F 
ATOM     99  C   UNL     1       1.044  -9.894 -18.341  1.00  0.00     0.060 A 
BRANCH  99 100
ATOM    100  S   UNL     1       1.808 -11.341 -19.104  1.00  0.00     0.124 S 
ATOM    101  O   UNL     1       2.959 -11.559 -18.233  1.00  0.00    -0.237 OA
ATOM    102  O   UNL     1       0.748 -12.340 -19.014  1.00  0.00    -0.237 OA
ATOM    103  O   UNL     1       2.120 -10.887 -20.456  1.00  0.00    -0.744 OA
ENDBRANCH  99 100
ENDBRANCH  67  92
ENDBRANCH  41  42
ENDBRANCH  33  36
ENDBRANCH  31  32
ENDBRANCH   1  31
TORSDOF 16
