REMARK SMILES CCC1(CC)CCN(C(=O)NC(=O)CCC(=O)NCCCNC(=O)c2ccc(-c3c4nc(c(-c5c(F)cc(S(=O)(=O)[O-])cc5F)c5ccc([nH]5)c(-c5c(F)cc(S(=O)(=O)[O-])cc5F)c5nc(c(-c6c(F)cc(S(=O)(=O)[O-])cc6F)c6ccc3[nH]6)C=C5)C=C4)cc2)C1
REMARK SMILES IDX 19 1 18 2 16 3 17 4 15 6 14 7 12 8 9 9 10 10 11 11 13 13
REMARK SMILES IDX 8 14 3 15 6 16 91 17 7 18 2 19 1 20 4 21 5 22 20 23 21 24
REMARK SMILES IDX 22 25 23 26 24 28 25 29 26 30 90 31 27 32 89 33 28 34 29 35
REMARK SMILES IDX 30 36 83 37 31 38 88 39 82 40 84 41 32 42 87 43 81 44 80 45
REMARK SMILES IDX 33 47 67 48 46 49 66 50 47 51 50 52 65 53 85 54 48 55 49 56
REMARK SMILES IDX 64 58 86 59 51 60 34 61 35 62 44 63 36 64 37 65 43 66 45 67
REMARK SMILES IDX 38 68 39 69 40 70 41 71 42 72 68 73 69 74 78 75 70 76 71 77
REMARK SMILES IDX 77 78 79 79 72 80 73 81 74 82 75 83 76 84 52 85 53 86 62 87
REMARK SMILES IDX 54 88 55 89 61 90 63 91 56 92 57 93 58 94 59 95 60 96
REMARK H PARENT 18 5 11 12 22 27 84 46 50 57
REMARK Flexibility Score: inf
ROOT
ATOM      1  C   UNL     1       0.946   6.065  -3.423  1.00  0.00     0.117 C 
ENDROOT
BRANCH   1   2
ATOM      2  N   UNL     1       0.594   4.837  -2.727  1.00  0.00    -0.356 N 
ATOM      3  C   UNL     1      -0.309   4.616  -1.740  1.00  0.00     0.220 C 
ATOM      4  O   UNL     1      -0.544   3.457  -1.400  1.00  0.00    -0.275 OA
ATOM      5  H   UNL     1       1.090   4.038  -3.020  1.00  0.00     0.163 HD
BRANCH   3   6
ATOM      6  C   UNL     1      -1.033   5.772  -1.104  1.00  0.00     0.110 C 
BRANCH   6   7
ATOM      7  C   UNL     1      -0.312   6.542  -0.011  1.00  0.00     0.110 C 
BRANCH   7   8
ATOM      8  C   UNL     1       1.167   6.797  -0.128  1.00  0.00     0.228 C 
ATOM      9  C   UNL     1       2.433   4.527   0.249  1.00  0.00     0.324 C 
ATOM     10  O   UNL     1       3.466   4.114  -0.288  1.00  0.00    -0.248 OA
ATOM     11  N   UNL     1       2.166   5.872   0.108  1.00  0.00    -0.278 N 
ATOM     12  H   UNL     1       3.012   6.362   0.218  1.00  0.00     0.174 HD
ATOM     13  O   UNL     1       1.535   7.922  -0.496  1.00  0.00    -0.275 OA
BRANCH   9  14
ATOM     14  N   UNL     1       1.645   3.717   0.999  1.00  0.00    -0.324 N 
ATOM     15  C   UNL     1       0.951   1.702   2.119  1.00  0.00    -0.011 C 
ATOM     16  C   UNL     1       0.269   2.939   2.745  1.00  0.00     0.030 C 
ATOM     17  C   UNL     1       2.088   2.361   1.303  1.00  0.00     0.128 C 
ATOM     18  C   UNL     1       0.457   4.046   1.736  1.00  0.00     0.122 C 
BRANCH  15  19
ATOM     19  C   UNL     1      -0.043   0.912   1.223  1.00  0.00     0.005 C 
ATOM     20  C   UNL     1       0.598  -0.015   0.193  1.00  0.00     0.004 C 
ENDBRANCH  15  19
BRANCH  15  21
ATOM     21  C   UNL     1       1.510   0.821   3.267  1.00  0.00     0.005 C 
ATOM     22  C   UNL     1       0.460   0.358   4.281  1.00  0.00     0.004 C 
ENDBRANCH  15  21
ENDBRANCH   9  14
ENDBRANCH   7   8
ENDBRANCH   6   7
ENDBRANCH   3   6
ENDBRANCH   1   2
BRANCH   1  23
ATOM     23  C   UNL     1       2.436   6.381  -3.354  1.00  0.00     0.042 C 
BRANCH  23  24
ATOM     24  C   UNL     1       3.337   5.263  -3.858  1.00  0.00     0.118 C 
BRANCH  24  25
ATOM     25  N   UNL     1       3.373   5.233  -5.309  1.00  0.00    -0.352 N 
ATOM     26  C   UNL     1       4.260   5.846  -6.161  1.00  0.00     0.251 C 
ATOM     27  H   UNL     1       2.667   4.701  -5.741  1.00  0.00     0.163 HD
ATOM     28  O   UNL     1       3.954   5.986  -7.343  1.00  0.00    -0.269 OA
BRANCH  26  29
ATOM     29  C   UNL     1       5.565   6.345  -5.667  1.00  0.00     0.039 A 
ATOM     30  C   UNL     1       6.060   7.553  -6.168  1.00  0.00     0.014 A 
ATOM     31  C   UNL     1       6.340   5.600  -4.773  1.00  0.00     0.014 A 
ATOM     32  C   UNL     1       7.312   8.020  -5.755  1.00  0.00     0.010 A 
ATOM     33  C   UNL     1       7.548   6.109  -4.296  1.00  0.00     0.010 A 
ATOM     34  C   UNL     1       8.063   7.310  -4.804  1.00  0.00    -0.014 A 
BRANCH  34  35
ATOM     35  C   UNL     1       9.411   7.777  -4.380  1.00  0.00     0.031 A 
ATOM     36  C   UNL     1      10.629   6.939  -4.685  1.00  0.00     0.074 A 
ATOM     37  C   UNL     1       9.545   8.938  -3.708  1.00  0.00     0.049 A 
ATOM     38  N   UNL     1      11.879   7.148  -4.360  1.00  0.00    -0.248 NA
ATOM     39  C   UNL     1      10.408   5.692  -5.436  1.00  0.00     0.031 C 
ATOM     40  C   UNL     1       8.446   9.827  -3.325  1.00  0.00     0.029 A 
ATOM     41  N   UNL     1      10.664   9.570  -3.226  1.00  0.00    -0.354 N 
ATOM     42  C   UNL     1      12.590   6.062  -4.862  1.00  0.00     0.074 A 
ATOM     43  C   UNL     1      11.624   5.166  -5.457  1.00  0.00     0.031 C 
ATOM     44  C   UNL     1       8.948  10.901  -2.693  1.00  0.00     0.029 A 
ATOM     45  C   UNL     1      10.397  10.761  -2.591  1.00  0.00     0.049 A 
ATOM     46  H   UNL     1      11.573   9.205  -3.325  1.00  0.00     0.167 HD
ATOM     47  C   UNL     1      13.927   5.845  -4.858  1.00  0.00     0.037 A 
ATOM     48  C   UNL     1      11.226  11.639  -1.992  1.00  0.00     0.037 A 
ATOM     49  C   UNL     1      14.891   6.748  -4.287  1.00  0.00     0.049 A 
ATOM     50  C   UNL     1      12.707  11.361  -1.979  1.00  0.00     0.074 A 
ATOM     51  C   UNL     1      16.269   6.626  -4.249  1.00  0.00     0.029 A 
ATOM     52  N   UNL     1      14.579   7.946  -3.661  1.00  0.00    -0.354 N 
ATOM     53  N   UNL     1      13.361  10.345  -2.490  1.00  0.00    -0.248 NA
ATOM     54  C   UNL     1      13.563  12.353  -1.313  1.00  0.00     0.031 C 
ATOM     55  C   UNL     1      16.789   7.736  -3.574  1.00  0.00     0.029 A 
ATOM     56  C   UNL     1      15.738   8.569  -3.229  1.00  0.00     0.049 A 
ATOM     57  H   UNL     1      13.669   8.301  -3.542  1.00  0.00     0.167 HD
ATOM     58  C   UNL     1      14.707  10.594  -2.237  1.00  0.00     0.074 A 
ATOM     59  C   UNL     1      14.773  11.860  -1.537  1.00  0.00     0.031 C 
ATOM     60  C   UNL     1      15.789   9.841  -2.554  1.00  0.00     0.037 A 
BRANCH  47  61
ATOM     61  C   UNL     1      14.431   4.587  -5.513  1.00  0.00     0.058 A 
ATOM     62  C   UNL     1      14.398   4.427  -6.909  1.00  0.00     0.135 A 
ATOM     63  C   UNL     1      14.992   3.551  -4.750  1.00  0.00     0.135 A 
ATOM     64  F   UNL     1      13.858   5.379  -7.686  1.00  0.00    -0.206 F 
ATOM     65  C   UNL     1      14.880   3.275  -7.521  1.00  0.00     0.059 A 
ATOM     66  C   UNL     1      15.505   2.401  -5.344  1.00  0.00     0.059 A 
ATOM     67  F   UNL     1      15.049   3.651  -3.413  1.00  0.00    -0.206 F 
ATOM     68  C   UNL     1      15.433   2.267  -6.730  1.00  0.00     0.060 A 
BRANCH  68  69
ATOM     69  S   UNL     1      16.067   0.786  -7.545  1.00  0.00     0.124 S 
ATOM     70  O   UNL     1      14.831   0.117  -7.937  1.00  0.00    -0.237 OA
ATOM     71  O   UNL     1      16.860   1.343  -8.635  1.00  0.00    -0.237 OA
ATOM     72  O   UNL     1      16.833   0.121  -6.493  1.00  0.00    -0.744 OA
ENDBRANCH  68  69
ENDBRANCH  47  61
BRANCH  48  73
ATOM     73  C   UNL     1      10.687  12.877  -1.366  1.00  0.00     0.058 A 
ATOM     74  C   UNL     1      10.958  14.139  -1.916  1.00  0.00     0.135 A 
ATOM     75  C   UNL     1       9.916  12.826  -0.195  1.00  0.00     0.135 A 
ATOM     76  F   UNL     1      11.695  14.240  -3.032  1.00  0.00    -0.206 F 
ATOM     77  C   UNL     1      10.514  15.309  -1.308  1.00  0.00     0.059 A 
ATOM     78  C   UNL     1       9.438  13.982   0.416  1.00  0.00     0.059 A 
ATOM     79  F   UNL     1       9.614  11.643   0.362  1.00  0.00    -0.206 F 
ATOM     80  C   UNL     1       9.758  15.220  -0.139  1.00  0.00     0.060 A 
BRANCH  80  81
ATOM     81  S   UNL     1       9.179  16.744   0.639  1.00  0.00     0.124 S 
ATOM     82  O   UNL     1      10.404  17.244   1.250  1.00  0.00    -0.237 OA
ATOM     83  O   UNL     1       8.678  17.502  -0.503  1.00  0.00    -0.237 OA
ATOM     84  O   UNL     1       8.155  16.276   1.569  1.00  0.00    -0.744 OA
ENDBRANCH  80  81
ENDBRANCH  48  73
BRANCH  60  85
ATOM     85  C   UNL     1      17.143  10.388  -2.194  1.00  0.00     0.058 A 
ATOM     86  C   UNL     1      17.600  10.416  -0.867  1.00  0.00     0.135 A 
ATOM     87  C   UNL     1      18.013  10.845  -3.197  1.00  0.00     0.135 A 
ATOM     88  F   UNL     1      16.805   9.997   0.130  1.00  0.00    -0.206 F 
ATOM     89  C   UNL     1      18.863  10.900  -0.545  1.00  0.00     0.059 A 
ATOM     90  C   UNL     1      19.291  11.308  -2.901  1.00  0.00     0.059 A 
ATOM     91  F   UNL     1      17.628  10.829  -4.484  1.00  0.00    -0.206 F 
ATOM     92  C   UNL     1      19.703  11.343  -1.570  1.00  0.00     0.060 A 
BRANCH  92  93
ATOM     93  S   UNL     1      21.353  11.937  -1.142  1.00  0.00     0.124 S 
ATOM     94  O   UNL     1      21.056  13.245  -0.568  1.00  0.00    -0.237 OA
ATOM     95  O   UNL     1      21.817  10.922  -0.201  1.00  0.00    -0.237 OA
ATOM     96  O   UNL     1      22.050  11.957  -2.425  1.00  0.00    -0.744 OA
ENDBRANCH  92  93
ENDBRANCH  60  85
ENDBRANCH  34  35
ENDBRANCH  26  29
ENDBRANCH  24  25
ENDBRANCH  23  24
ENDBRANCH   1  23
TORSDOF 18
