REMARK SMILES COc1ccc(-c2ccc3n(c2=O)C[C@H]2C[C@@H]3CN(C(=O)CCCC(=O)NCCCNC(=O)c3ccc(-c4c5nc(c(-c6c(F)cc(S(=O)(=O)[O-])cc6F)c6ccc([nH]6)c(-c6c(F)cc(S(=O)(=O)[O-])cc6F)c6nc(c(-c7c(F)cc(S(=O)(=O)[O-])cc7F)c7ccc4[nH]7)C=C6)C=C5)cc3)C2)cc1
REMARK SMILES IDX 25 1 26 2 27 3 24 5 23 6 22 7 20 8 21 9 19 10 7 11 8 12
REMARK SMILES IDX 12 13 9 14 11 15 13 16 10 17 14 18 17 19 15 20 16 21 18 22
REMARK SMILES IDX 100 23 6 24 3 25 4 26 102 27 5 28 101 29 2 30 1 31 28 32
REMARK SMILES IDX 29 33 30 34 31 35 32 36 33 38 34 39 35 40 99 41 36 42 98 43
REMARK SMILES IDX 37 44 38 45 39 46 92 47 40 48 97 49 91 50 93 51 41 52 96 53
REMARK SMILES IDX 90 54 89 55 42 57 76 58 55 59 75 60 56 61 59 62 74 63 94 64
REMARK SMILES IDX 57 65 58 66 73 68 95 69 60 70 43 71 44 72 53 73 45 74 46 75
REMARK SMILES IDX 52 76 54 77 47 78 48 79 49 80 50 81 51 82 77 83 78 84 87 85
REMARK SMILES IDX 79 86 80 87 86 88 88 89 81 90 82 91 83 92 84 93 85 94 61 95
REMARK SMILES IDX 62 96 71 97 63 98 64 99 70 100 72 101 65 102 66 103 67 104
REMARK SMILES IDX 68 105 69 106
REMARK H PARENT 27 4 31 37 93 56 59 67
REMARK Flexibility Score: inf
ROOT
ATOM      1  C   UNL     1      -2.762 -10.788   3.187  1.00  0.00     0.220 C 
ATOM      2  O   UNL     1      -3.672 -10.707   2.353  1.00  0.00    -0.275 OA
ATOM      3  N   UNL     1      -2.440 -12.046   3.578  1.00  0.00    -0.356 N 
ATOM      4  H   UNL     1      -3.092 -12.731   3.302  1.00  0.00     0.163 HD
ENDROOT
BRANCH   1   5
ATOM      5  C   UNL     1      -2.032  -9.514   3.619  1.00  0.00     0.100 C 
BRANCH   5   6
ATOM      6  C   UNL     1      -1.850  -9.163   5.090  1.00  0.00     0.020 C 
BRANCH   6   7
ATOM      7  C   UNL     1      -0.696  -9.711   5.929  1.00  0.00     0.101 C 
BRANCH   7   8
ATOM      8  C   UNL     1       0.770  -9.331   5.685  1.00  0.00     0.222 C 
ATOM      9  O   UNL     1       1.260  -8.494   6.456  1.00  0.00    -0.275 OA
BRANCH   8  10
ATOM     10  N   UNL     1       1.585  -9.992   4.769  1.00  0.00    -0.342 N 
ATOM     11  C   UNL     1       2.232  -5.532   2.676  1.00  0.00     0.047 A 
ATOM     12  C   UNL     1       3.221  -5.691   3.570  1.00  0.00     0.016 A 
ATOM     13  C   UNL     1       1.648  -6.747   2.014  1.00  0.00     0.258 A 
ATOM     14  C   UNL     1       3.743  -6.991   3.883  1.00  0.00     0.023 A 
ATOM     15  N   UNL     1       2.206  -7.981   2.373  1.00  0.00    -0.311 N 
ATOM     16  O   UNL     1       0.742  -6.638   1.187  1.00  0.00    -0.269 OA
ATOM     17  C   UNL     1       3.252  -8.092   3.293  1.00  0.00     0.026 A 
ATOM     18  C   UNL     1       1.670  -9.152   1.687  1.00  0.00     0.131 C 
ATOM     19  C   UNL     1       3.764  -9.465   3.698  1.00  0.00     0.056 C 
ATOM     20  C   UNL     1       2.028 -10.500   2.316  1.00  0.00     0.029 C 
ATOM     21  C   UNL     1       3.519 -10.508   2.608  1.00  0.00     0.019 C 
ATOM     22  C   UNL     1       3.035  -9.909   4.979  1.00  0.00     0.129 C 
ATOM     23  C   UNL     1       1.221 -10.787   3.598  1.00  0.00     0.125 C 
BRANCH  11  24
ATOM     24  C   UNL     1       1.778  -4.181   2.321  1.00  0.00    -0.013 A 
ATOM     25  C   UNL     1       0.936  -1.624   1.532  1.00  0.00     0.118 A 
ATOM     26  C   UNL     1       0.046  -2.495   2.162  1.00  0.00     0.047 A 
ATOM     27  C   UNL     1       2.259  -2.015   1.330  1.00  0.00     0.047 A 
ATOM     28  C   UNL     1       0.459  -3.774   2.545  1.00  0.00     0.013 A 
ATOM     29  C   UNL     1       2.676  -3.288   1.719  1.00  0.00     0.013 A 
BRANCH  25  30
ATOM     30  O   UNL     1       0.429  -0.402   1.181  1.00  0.00    -0.497 OA
ATOM     31  C   UNL     1       0.999   0.160   0.003  1.00  0.00     0.278 C 
ENDBRANCH  25  30
ENDBRANCH  11  24
ENDBRANCH   8  10
ENDBRANCH   7   8
ENDBRANCH   6   7
ENDBRANCH   5   6
ENDBRANCH   1   5
BRANCH   3  32
ATOM     32  C   UNL     1      -1.325 -12.567   4.322  1.00  0.00     0.117 C 
BRANCH  32  33
ATOM     33  C   UNL     1      -1.695 -13.261   5.614  1.00  0.00     0.042 C 
BRANCH  33  34
ATOM     34  C   UNL     1      -1.680 -14.764   5.459  1.00  0.00     0.118 C 
BRANCH  34  35
ATOM     35  N   UNL     1      -0.330 -15.308   5.306  1.00  0.00    -0.352 N 
ATOM     36  C   UNL     1       0.244 -16.386   5.945  1.00  0.00     0.251 C 
ATOM     37  H   UNL     1       0.247 -14.841   4.659  1.00  0.00     0.163 HD
ATOM     38  O   UNL     1       1.435 -16.634   5.781  1.00  0.00    -0.269 OA
BRANCH  36  39
ATOM     39  C   UNL     1      -0.582 -17.201   6.860  1.00  0.00     0.039 A 
ATOM     40  C   UNL     1      -0.065 -17.596   8.095  1.00  0.00     0.014 A 
ATOM     41  C   UNL     1      -1.902 -17.501   6.522  1.00  0.00     0.014 A 
ATOM     42  C   UNL     1      -0.906 -18.217   9.022  1.00  0.00     0.010 A 
ATOM     43  C   UNL     1      -2.766 -17.975   7.495  1.00  0.00     0.010 A 
ATOM     44  C   UNL     1      -2.275 -18.370   8.746  1.00  0.00    -0.014 A 
BRANCH  44  45
ATOM     45  C   UNL     1      -3.214 -18.993   9.712  1.00  0.00     0.031 A 
ATOM     46  C   UNL     1      -4.003 -20.209   9.287  1.00  0.00     0.074 A 
ATOM     47  C   UNL     1      -3.425 -18.426  10.917  1.00  0.00     0.049 A 
ATOM     48  N   UNL     1      -4.963 -20.833   9.916  1.00  0.00    -0.248 NA
ATOM     49  C   UNL     1      -3.712 -20.765   7.951  1.00  0.00     0.031 C 
ATOM     50  C   UNL     1      -2.784 -17.203  11.410  1.00  0.00     0.029 A 
ATOM     51  N   UNL     1      -4.250 -18.800  11.948  1.00  0.00    -0.354 N 
ATOM     52  C   UNL     1      -5.415 -21.813   9.039  1.00  0.00     0.074 A 
ATOM     53  C   UNL     1      -4.673 -21.664   7.810  1.00  0.00     0.031 C 
ATOM     54  C   UNL     1      -3.214 -16.950  12.658  1.00  0.00     0.029 A 
ATOM     55  C   UNL     1      -4.187 -17.966  13.041  1.00  0.00     0.049 A 
ATOM     56  H   UNL     1      -4.834 -19.591  11.909  1.00  0.00     0.167 HD
ATOM     57  C   UNL     1      -6.340 -22.776   9.251  1.00  0.00     0.037 A 
ATOM     58  C   UNL     1      -4.841 -18.022  14.217  1.00  0.00     0.037 A 
ATOM     59  C   UNL     1      -7.002 -22.977  10.511  1.00  0.00     0.049 A 
ATOM     60  C   UNL     1      -5.805 -19.156  14.455  1.00  0.00     0.074 A 
ATOM     61  C   UNL     1      -7.873 -23.988  10.872  1.00  0.00     0.029 A 
ATOM     62  N   UNL     1      -6.847 -22.161  11.621  1.00  0.00    -0.354 N 
ATOM     63  N   UNL     1      -6.157 -20.124  13.642  1.00  0.00    -0.248 NA
ATOM     64  C   UNL     1      -6.448 -19.216  15.775  1.00  0.00     0.031 C 
ATOM     65  C   UNL     1      -8.274 -23.764  12.192  1.00  0.00     0.029 A 
ATOM     66  C   UNL     1      -7.614 -22.641  12.666  1.00  0.00     0.049 A 
ATOM     67  H   UNL     1      -6.277 -21.359  11.659  1.00  0.00     0.167 HD
ATOM     68  C   UNL     1      -7.029 -20.930  14.366  1.00  0.00     0.074 A 
ATOM     69  C   UNL     1      -7.143 -20.341  15.684  1.00  0.00     0.031 C 
ATOM     70  C   UNL     1      -7.679 -22.055  13.979  1.00  0.00     0.037 A 
BRANCH  57  71
ATOM     71  C   UNL     1      -6.667 -23.710   8.120  1.00  0.00     0.058 A 
ATOM     72  C   UNL     1      -5.756 -24.681   7.674  1.00  0.00     0.135 A 
ATOM     73  C   UNL     1      -7.936 -23.677   7.518  1.00  0.00     0.135 A 
ATOM     74  F   UNL     1      -4.521 -24.741   8.197  1.00  0.00    -0.206 F 
ATOM     75  C   UNL     1      -6.087 -25.580   6.667  1.00  0.00     0.059 A 
ATOM     76  C   UNL     1      -8.298 -24.587   6.529  1.00  0.00     0.059 A 
ATOM     77  F   UNL     1      -8.841 -22.763   7.899  1.00  0.00    -0.206 F 
ATOM     78  C   UNL     1      -7.364 -25.531   6.106  1.00  0.00     0.060 A 
BRANCH  78  79
ATOM     79  S   UNL     1      -7.795 -26.744   4.841  1.00  0.00     0.124 S 
ATOM     80  O   UNL     1      -7.028 -26.257   3.698  1.00  0.00    -0.237 OA
ATOM     81  O   UNL     1      -7.325 -27.992   5.434  1.00  0.00    -0.237 OA
ATOM     82  O   UNL     1      -9.244 -26.615   4.726  1.00  0.00    -0.744 OA
ENDBRANCH  78  79
ENDBRANCH  57  71
BRANCH  58  83
ATOM     83  C   UNL     1      -4.594 -17.005  15.276  1.00  0.00     0.058 A 
ATOM     84  C   UNL     1      -3.951 -17.353  16.474  1.00  0.00     0.135 A 
ATOM     85  C   UNL     1      -5.028 -15.678  15.132  1.00  0.00     0.135 A 
ATOM     86  F   UNL     1      -3.515 -18.608  16.660  1.00  0.00    -0.206 F 
ATOM     87  C   UNL     1      -3.791 -16.439  17.511  1.00  0.00     0.059 A 
ATOM     88  C   UNL     1      -4.853 -14.737  16.144  1.00  0.00     0.059 A 
ATOM     89  F   UNL     1      -5.625 -15.284  13.997  1.00  0.00    -0.206 F 
ATOM     90  C   UNL     1      -4.255 -15.134  17.339  1.00  0.00     0.060 A 
BRANCH  90  91
ATOM     91  S   UNL     1      -4.054 -13.956  18.693  1.00  0.00     0.124 S 
ATOM     92  O   UNL     1      -5.090 -14.397  19.620  1.00  0.00    -0.237 OA
ATOM     93  O   UNL     1      -2.676 -14.199  19.112  1.00  0.00    -0.237 OA
ATOM     94  O   UNL     1      -4.287 -12.666  18.051  1.00  0.00    -0.744 OA
ENDBRANCH  90  91
ENDBRANCH  58  83
BRANCH  70  95
ATOM     95  C   UNL     1      -8.510 -22.762  15.011  1.00  0.00     0.058 A 
ATOM     96  C   UNL     1      -9.736 -22.246  15.455  1.00  0.00     0.135 A 
ATOM     97  C   UNL     1      -8.091 -24.000  15.524  1.00  0.00     0.135 A 
ATOM     98  F   UNL     1     -10.180 -21.065  14.995  1.00  0.00    -0.206 F 
ATOM     99  C   UNL     1     -10.504 -22.917  16.400  1.00  0.00     0.059 A 
ATOM    100  C   UNL     1      -8.856 -24.703  16.446  1.00  0.00     0.059 A 
ATOM    101  F   UNL     1      -6.932 -24.544  15.117  1.00  0.00    -0.206 F 
ATOM    102  C   UNL     1     -10.054 -24.145  16.890  1.00  0.00     0.060 A 
BRANCH 102 103
ATOM    103  S   UNL     1     -11.067 -25.018  18.102  1.00  0.00     0.124 S 
ATOM    104  O   UNL     1     -10.804 -24.246  19.312  1.00  0.00    -0.237 OA
ATOM    105  O   UNL     1     -12.409 -24.885  17.544  1.00  0.00    -0.237 OA
ATOM    106  O   UNL     1     -10.521 -26.371  18.089  1.00  0.00    -0.744 OA
ENDBRANCH 102 103
ENDBRANCH  70  95
ENDBRANCH  44  45
ENDBRANCH  36  39
ENDBRANCH  34  35
ENDBRANCH  33  34
ENDBRANCH  32  33
ENDBRANCH   3  32
TORSDOF 19
