REMARK SMILES O=C(CSc1cc(-c2ccccc2)nc(-c2ccccc2F)n1)NCCCNC(=O)c1ccc(-c2c3nc(c(-c4c(F)cc(S(=O)(=O)[O-])cc4F)c4ccc([nH]4)c(-c4c(F)cc(S(=O)(=O)[O-])cc4F)c4nc(c(-c5c(F)cc(S(=O)(=O)[O-])cc5F)c5ccc2[nH]5)C=C4)C=C3)cc1
REMARK SMILES IDX 26 1 25 2 24 3 1 4 2 5 3 7 4 8 5 9 6 10 23 11 7 12 15 13
REMARK SMILES IDX 14 14 8 15 9 16 13 17 10 18 12 19 11 20 16 21 17 22 21 23
REMARK SMILES IDX 18 24 20 25 22 26 19 27 27 28 28 29 29 30 30 32 31 33 32 34
REMARK SMILES IDX 96 35 33 36 95 37 34 38 35 39 36 40 89 41 37 42 94 43 88 44
REMARK SMILES IDX 90 45 38 46 93 47 87 48 86 49 39 51 73 52 52 53 72 54 53 55
REMARK SMILES IDX 56 56 71 57 91 58 54 59 55 60 70 62 92 63 57 64 40 65 41 66
REMARK SMILES IDX 50 67 42 68 43 69 49 70 51 71 44 72 45 73 46 74 47 75 48 76
REMARK SMILES IDX 74 77 75 78 84 79 76 80 77 81 83 82 85 83 78 84 79 85 80 86
REMARK SMILES IDX 81 87 82 88 58 89 59 90 68 91 60 92 61 93 67 94 69 95 62 96
REMARK SMILES IDX 63 97 64 98 65 99 66 100
REMARK H PARENT 24 6 28 31 90 50 56 61
REMARK Flexibility Score: inf
ROOT
ATOM      1  C   UNL     1       2.444   3.258  -0.628  1.00  0.00     0.042 C 
ENDROOT
BRANCH   1   2
ATOM      2  C   UNL     1       2.175   1.952  -1.370  1.00  0.00     0.117 C 
BRANCH   2   3
ATOM      3  N   UNL     1       2.844   0.816  -0.771  1.00  0.00    -0.355 N 
ATOM      4  O   UNL     1       0.967  -0.100   0.181  1.00  0.00    -0.274 OA
ATOM      5  C   UNL     1       2.165  -0.169  -0.086  1.00  0.00     0.230 C 
ATOM      6  H   UNL     1       3.822   0.744  -0.856  1.00  0.00     0.163 HD
BRANCH   5   7
ATOM      7  C   UNL     1       3.020  -1.310   0.441  1.00  0.00     0.176 C 
BRANCH   7   8
ATOM      8  S   UNL     1       4.293  -1.888  -0.727  1.00  0.00    -0.096 SA
BRANCH   8   9
ATOM      9  C   UNL     1       3.240  -2.595  -1.976  1.00  0.00     0.101 A 
ATOM     10  C   UNL     1       3.234  -3.955  -2.184  1.00  0.00     0.064 A 
ATOM     11  N   UNL     1       2.532  -1.733  -2.719  1.00  0.00    -0.222 NA
ATOM     12  C   UNL     1       2.438  -4.409  -3.215  1.00  0.00     0.075 A 
ATOM     13  C   UNL     1       1.756  -2.268  -3.676  1.00  0.00     0.163 A 
ATOM     14  N   UNL     1       1.697  -3.576  -3.972  1.00  0.00    -0.228 NA
BRANCH  12  15
ATOM     15  C   UNL     1       2.376  -5.829  -3.585  1.00  0.00     0.000 A 
ATOM     16  C   UNL     1       2.687  -6.237  -4.893  1.00  0.00     0.010 A 
ATOM     17  C   UNL     1       2.012  -6.816  -2.654  1.00  0.00     0.010 A 
ATOM     18  C   UNL     1       2.655  -7.586  -5.255  1.00  0.00     0.001 A 
ATOM     19  C   UNL     1       1.969  -8.165  -3.018  1.00  0.00     0.001 A 
ATOM     20  C   UNL     1       2.296  -8.549  -4.316  1.00  0.00     0.000 A 
ENDBRANCH  12  15
BRANCH  13  21
ATOM     21  C   UNL     1       0.977  -1.346  -4.495  1.00  0.00     0.055 A 
ATOM     22  C   UNL     1       1.587  -0.248  -5.130  1.00  0.00     0.015 A 
ATOM     23  C   UNL     1      -0.401  -1.516  -4.673  1.00  0.00     0.134 A 
ATOM     24  C   UNL     1       0.844   0.633  -5.921  1.00  0.00     0.001 A 
ATOM     25  C   UNL     1      -1.151  -0.635  -5.452  1.00  0.00     0.040 A 
ATOM     26  F   UNL     1      -1.046  -2.526  -4.068  1.00  0.00    -0.206 F 
ATOM     27  C   UNL     1      -0.527   0.440  -6.081  1.00  0.00     0.003 A 
ENDBRANCH  13  21
ENDBRANCH   8   9
ENDBRANCH   7   8
ENDBRANCH   5   7
ENDBRANCH   2   3
ENDBRANCH   1   2
BRANCH   1  28
ATOM     28  C   UNL     1       3.910   3.686  -0.583  1.00  0.00     0.118 C 
BRANCH  28  29
ATOM     29  N   UNL     1       4.487   3.895  -1.902  1.00  0.00    -0.352 N 
ATOM     30  C   UNL     1       5.174   4.959  -2.430  1.00  0.00     0.251 C 
ATOM     31  H   UNL     1       4.362   3.142  -2.524  1.00  0.00     0.163 HD
ATOM     32  O   UNL     1       5.441   4.943  -3.631  1.00  0.00    -0.269 OA
BRANCH  30  33
ATOM     33  C   UNL     1       5.588   6.121  -1.605  1.00  0.00     0.039 A 
ATOM     34  C   UNL     1       5.580   7.388  -2.200  1.00  0.00     0.014 A 
ATOM     35  C   UNL     1       6.052   5.985  -0.294  1.00  0.00     0.014 A 
ATOM     36  C   UNL     1       6.000   8.510  -1.478  1.00  0.00     0.010 A 
ATOM     37  C   UNL     1       6.405   7.115   0.450  1.00  0.00     0.010 A 
ATOM     38  C   UNL     1       6.400   8.388  -0.139  1.00  0.00    -0.014 A 
BRANCH  38  39
ATOM     39  C   UNL     1       6.841   9.581   0.636  1.00  0.00     0.031 A 
ATOM     40  C   UNL     1       8.266   9.697   1.112  1.00  0.00     0.074 A 
ATOM     41  C   UNL     1       5.955  10.552   0.935  1.00  0.00     0.049 A 
ATOM     42  N   UNL     1       8.831  10.653   1.806  1.00  0.00    -0.248 NA
ATOM     43  C   UNL     1       9.169   8.582   0.787  1.00  0.00     0.031 C 
ATOM     44  C   UNL     1       4.535  10.541   0.578  1.00  0.00     0.029 A 
ATOM     45  N   UNL     1       6.118  11.737   1.609  1.00  0.00    -0.354 N 
ATOM     46  C   UNL     1      10.146  10.250   2.012  1.00  0.00     0.074 A 
ATOM     47  C   UNL     1      10.281   8.940   1.413  1.00  0.00     0.031 C 
ATOM     48  C   UNL     1       3.963  11.675   1.014  1.00  0.00     0.029 A 
ATOM     49  C   UNL     1       4.967  12.483   1.702  1.00  0.00     0.049 A 
ATOM     50  H   UNL     1       6.978  12.025   1.991  1.00  0.00     0.167 HD
ATOM     51  C   UNL     1      11.156  10.917   2.622  1.00  0.00     0.037 A 
ATOM     52  C   UNL     1       4.744  13.685   2.270  1.00  0.00     0.037 A 
ATOM     53  C   UNL     1      11.031  12.235   3.190  1.00  0.00     0.049 A 
ATOM     54  C   UNL     1       5.889  14.424   2.907  1.00  0.00     0.074 A 
ATOM     55  C   UNL     1      12.008  13.012   3.789  1.00  0.00     0.029 A 
ATOM     56  N   UNL     1       9.858  12.974   3.224  1.00  0.00    -0.354 N 
ATOM     57  N   UNL     1       7.139  14.049   3.043  1.00  0.00    -0.248 NA
ATOM     58  C   UNL     1       5.598  15.758   3.450  1.00  0.00     0.031 C 
ATOM     59  C   UNL     1      11.419  14.210   4.210  1.00  0.00     0.029 A 
ATOM     60  C   UNL     1      10.085  14.196   3.836  1.00  0.00     0.049 A 
ATOM     61  H   UNL     1       8.991  12.675   2.866  1.00  0.00     0.167 HD
ATOM     62  C   UNL     1       7.790  15.114   3.657  1.00  0.00     0.074 A 
ATOM     63  C   UNL     1       6.798  16.150   3.858  1.00  0.00     0.031 C 
ATOM     64  C   UNL     1       9.093  15.225   4.017  1.00  0.00     0.037 A 
BRANCH  51  65
ATOM     65  C   UNL     1      12.494  10.232   2.698  1.00  0.00     0.058 A 
ATOM     66  C   UNL     1      13.293  10.052   1.557  1.00  0.00     0.135 A 
ATOM     67  C   UNL     1      12.995   9.772   3.926  1.00  0.00     0.135 A 
ATOM     68  F   UNL     1      12.857  10.460   0.355  1.00  0.00    -0.206 F 
ATOM     69  C   UNL     1      14.525   9.410   1.626  1.00  0.00     0.059 A 
ATOM     70  C   UNL     1      14.237   9.150   4.023  1.00  0.00     0.059 A 
ATOM     71  F   UNL     1      12.274   9.920   5.049  1.00  0.00    -0.206 F 
ATOM     72  C   UNL     1      14.987   8.958   2.863  1.00  0.00     0.060 A 
BRANCH  72  73
ATOM     73  S   UNL     1      16.584   8.119   2.938  1.00  0.00     0.124 S 
ATOM     74  O   UNL     1      16.250   6.811   2.382  1.00  0.00    -0.237 OA
ATOM     75  O   UNL     1      17.424   8.967   2.095  1.00  0.00    -0.237 OA
ATOM     76  O   UNL     1      16.910   8.134   4.358  1.00  0.00    -0.744 OA
ENDBRANCH  72  73
ENDBRANCH  51  65
BRANCH  52  77
ATOM     77  C   UNL     1       3.386  14.287   2.220  1.00  0.00     0.058 A 
ATOM     78  C   UNL     1       3.114  15.383   1.388  1.00  0.00     0.135 A 
ATOM     79  C   UNL     1       2.333  13.776   2.995  1.00  0.00     0.135 A 
ATOM     80  F   UNL     1       4.090  15.910   0.633  1.00  0.00    -0.206 F 
ATOM     81  C   UNL     1       1.852  15.965   1.338  1.00  0.00     0.059 A 
ATOM     82  C   UNL     1       1.056  14.326   2.944  1.00  0.00     0.059 A 
ATOM     83  F   UNL     1       2.539  12.718   3.794  1.00  0.00    -0.206 F 
ATOM     84  C   UNL     1       0.828  15.428   2.121  1.00  0.00     0.060 A 
BRANCH  84  85
ATOM     85  S   UNL     1      -0.820  16.160   2.014  1.00  0.00     0.124 S 
ATOM     86  O   UNL     1      -0.647  17.384   2.787  1.00  0.00    -0.237 OA
ATOM     87  O   UNL     1      -0.989  16.332   0.575  1.00  0.00    -0.237 OA
ATOM     88  O   UNL     1      -1.675  15.145   2.621  1.00  0.00    -0.744 OA
ENDBRANCH  84  85
ENDBRANCH  52  77
BRANCH  64  89
ATOM     89  C   UNL     1       9.533  16.531   4.617  1.00  0.00     0.058 A 
ATOM     90  C   UNL     1       9.178  16.904   5.923  1.00  0.00     0.135 A 
ATOM     91  C   UNL     1      10.344  17.411   3.882  1.00  0.00     0.135 A 
ATOM     92  F   UNL     1       8.401  16.102   6.667  1.00  0.00    -0.206 F 
ATOM     93  C   UNL     1       9.582  18.120   6.466  1.00  0.00     0.059 A 
ATOM     94  C   UNL     1      10.781  18.619   4.414  1.00  0.00     0.059 A 
ATOM     95  F   UNL     1      10.723  17.096   2.633  1.00  0.00    -0.206 F 
ATOM     96  C   UNL     1      10.380  18.974   5.701  1.00  0.00     0.060 A 
BRANCH  96  97
ATOM     97  S   UNL     1      10.908  20.545   6.417  1.00  0.00     0.124 S 
ATOM     98  O   UNL     1       9.696  21.348   6.287  1.00  0.00    -0.237 OA
ATOM     99  O   UNL     1      11.274  20.166   7.778  1.00  0.00    -0.237 OA
ATOM    100  O   UNL     1      12.023  20.947   5.564  1.00  0.00    -0.744 OA
ENDBRANCH  96  97
ENDBRANCH  64  89
ENDBRANCH  38  39
ENDBRANCH  30  33
ENDBRANCH  28  29
ENDBRANCH   1  28
TORSDOF 17
