REMARK SMILES CCNC(=O)N1CC[C@@H](C(=O)NCCCNC(=O)c2ccc(-c3c4nc(c(-c5c(F)cc(S(=O)(=O)[O-])cc5F)c5ccc([nH]5)c(-c5c(F)cc(S(=O)(=O)[O-])cc5F)c5nc(c(-c6c(F)cc(S(=O)(=O)[O-])cc6F)c6ccc3[nH]6)C=C5)C=C4)cc2)[C@H]1C
REMARK SMILES IDX 14 1 13 2 12 3 10 4 11 5 9 7 6 8 7 9 85 10 8 11 86 12 4 13
REMARK SMILES IDX 3 14 5 16 2 17 1 18 15 19 16 20 17 21 18 23 19 24 20 25
REMARK SMILES IDX 84 26 21 27 83 28 22 29 23 30 24 31 77 32 25 33 82 34 76 35
REMARK SMILES IDX 78 36 26 37 81 38 75 39 74 40 27 42 61 43 40 44 60 45 41 46
REMARK SMILES IDX 44 47 59 48 79 49 42 50 43 51 58 53 80 54 45 55 28 56 29 57
REMARK SMILES IDX 38 58 30 59 31 60 37 61 39 62 32 63 33 64 34 65 35 66 36 67
REMARK SMILES IDX 62 68 63 69 72 70 64 71 65 72 71 73 73 74 66 75 67 76 68 77
REMARK SMILES IDX 69 78 70 79 46 80 47 81 56 82 48 83 49 84 55 85 57 86 50 87
REMARK SMILES IDX 51 88 52 89 53 90 54 91
REMARK H PARENT 12 6 3 15 16 22 78 41 44 52
REMARK Flexibility Score: inf
ROOT
ATOM      1  C   UNL     1      -2.992   1.270   0.559  1.00  0.00     0.042 C 
ENDROOT
BRANCH   1   2
ATOM      2  C   UNL     1      -3.699   0.133  -0.176  1.00  0.00     0.117 C 
BRANCH   2   3
ATOM      3  N   UNL     1      -4.441   0.583  -1.345  1.00  0.00    -0.356 N 
ATOM      4  C   UNL     1      -4.419   0.217  -2.649  1.00  0.00     0.225 C 
ATOM      5  O   UNL     1      -5.212   0.803  -3.396  1.00  0.00    -0.275 OA
ATOM      6  H   UNL     1      -5.091   1.296  -1.147  1.00  0.00     0.163 HD
BRANCH   4   7
ATOM      7  C   UNL     1      -3.497  -0.841  -3.230  1.00  0.00     0.102 C 
ATOM      8  N   UNL     1      -1.300  -1.579  -2.641  1.00  0.00    -0.321 N 
ATOM      9  C   UNL     1      -2.164  -2.745  -2.624  1.00  0.00     0.122 C 
ATOM     10  C   UNL     1      -1.998  -0.506  -3.361  1.00  0.00     0.096 C 
ATOM     11  C   UNL     1      -3.578  -2.208  -2.547  1.00  0.00     0.037 C 
ATOM     12  C   UNL     1      -1.590   0.922  -3.040  1.00  0.00     0.032 C 
BRANCH   8  13
ATOM     13  C   UNL     1       0.034  -1.823  -2.881  1.00  0.00     0.317 C 
ATOM     14  N   UNL     1       0.948  -1.036  -2.267  1.00  0.00    -0.338 N 
ATOM     15  H   UNL     1       1.860  -1.085  -2.636  1.00  0.00     0.165 HD
ATOM     16  O   UNL     1       0.424  -2.749  -3.591  1.00  0.00    -0.249 OA
BRANCH  14  17
ATOM     17  C   UNL     1       0.784  -0.132  -1.146  1.00  0.00     0.114 C 
ATOM     18  C   UNL     1       1.760  -0.466  -0.031  1.00  0.00     0.027 C 
ENDBRANCH  14  17
ENDBRANCH   8  13
ENDBRANCH   4   7
ENDBRANCH   2   3
ENDBRANCH   1   2
BRANCH   1  19
ATOM     19  C   UNL     1      -3.897   2.398   1.038  1.00  0.00     0.118 C 
BRANCH  19  20
ATOM     20  N   UNL     1      -4.565   2.092   2.291  1.00  0.00    -0.352 N 
ATOM     21  C   UNL     1      -4.318   2.551   3.564  1.00  0.00     0.251 C 
ATOM     22  H   UNL     1      -5.312   1.456   2.217  1.00  0.00     0.163 HD
ATOM     23  O   UNL     1      -4.884   2.007   4.510  1.00  0.00    -0.269 OA
BRANCH  21  24
ATOM     24  C   UNL     1      -3.368   3.664   3.818  1.00  0.00     0.039 A 
ATOM     25  C   UNL     1      -2.540   3.595   4.944  1.00  0.00     0.014 A 
ATOM     26  C   UNL     1      -3.320   4.797   3.003  1.00  0.00     0.014 A 
ATOM     27  C   UNL     1      -1.637   4.629   5.218  1.00  0.00     0.010 A 
ATOM     28  C   UNL     1      -2.357   5.783   3.224  1.00  0.00     0.010 A 
ATOM     29  C   UNL     1      -1.516   5.721   4.344  1.00  0.00    -0.014 A 
BRANCH  29  30
ATOM     30  C   UNL     1      -0.552   6.826   4.607  1.00  0.00     0.031 A 
ATOM     31  C   UNL     1      -1.055   8.229   4.836  1.00  0.00     0.074 A 
ATOM     32  C   UNL     1       0.774   6.587   4.587  1.00  0.00     0.049 A 
ATOM     33  N   UNL     1      -0.376   9.337   4.993  1.00  0.00    -0.248 NA
ATOM     34  C   UNL     1      -2.515   8.416   4.861  1.00  0.00     0.031 C 
ATOM     35  C   UNL     1       1.398   5.286   4.334  1.00  0.00     0.029 A 
ATOM     36  N   UNL     1       1.841   7.433   4.772  1.00  0.00    -0.354 N 
ATOM     37  C   UNL     1      -1.322  10.351   5.108  1.00  0.00     0.074 A 
ATOM     38  C   UNL     1      -2.621   9.733   4.955  1.00  0.00     0.031 C 
ATOM     39  C   UNL     1       2.733   5.417   4.400  1.00  0.00     0.029 A 
ATOM     40  C   UNL     1       3.064   6.814   4.665  1.00  0.00     0.049 A 
ATOM     41  H   UNL     1       1.738   8.393   4.963  1.00  0.00     0.167 HD
ATOM     42  C   UNL     1      -1.131  11.671   5.344  1.00  0.00     0.037 A 
ATOM     43  C   UNL     1       4.312   7.314   4.763  1.00  0.00     0.037 A 
ATOM     44  C   UNL     1       0.159  12.278   5.544  1.00  0.00     0.049 A 
ATOM     45  C   UNL     1       4.500   8.778   5.053  1.00  0.00     0.074 A 
ATOM     46  C   UNL     1       0.452  13.596   5.851  1.00  0.00     0.029 A 
ATOM     47  N   UNL     1       1.370  11.608   5.466  1.00  0.00    -0.354 N 
ATOM     48  N   UNL     1       3.591   9.711   5.207  1.00  0.00    -0.248 NA
ATOM     49  C   UNL     1       5.883   9.257   5.191  1.00  0.00     0.031 C 
ATOM     50  C   UNL     1       1.843  13.729   5.929  1.00  0.00     0.029 A 
ATOM     51  C   UNL     1       2.414  12.486   5.709  1.00  0.00     0.049 A 
ATOM     52  H   UNL     1       1.474  10.649   5.267  1.00  0.00     0.167 HD
ATOM     53  C   UNL     1       4.290  10.880   5.486  1.00  0.00     0.074 A 
ATOM     54  C   UNL     1       5.697  10.536   5.487  1.00  0.00     0.031 C 
ATOM     55  C   UNL     1       3.809  12.126   5.719  1.00  0.00     0.037 A 
BRANCH  42  56
ATOM     56  C   UNL     1      -2.350  12.550   5.409  1.00  0.00     0.058 A 
ATOM     57  C   UNL     1      -3.246  12.487   6.488  1.00  0.00     0.135 A 
ATOM     58  C   UNL     1      -2.612  13.485   4.395  1.00  0.00     0.135 A 
ATOM     59  F   UNL     1      -3.051  11.601   7.477  1.00  0.00    -0.206 F 
ATOM     60  C   UNL     1      -4.377  13.295   6.543  1.00  0.00     0.059 A 
ATOM     61  C   UNL     1      -3.723  14.323   4.442  1.00  0.00     0.059 A 
ATOM     62  F   UNL     1      -1.786  13.589   3.341  1.00  0.00    -0.206 F 
ATOM     63  C   UNL     1      -4.609  14.207   5.513  1.00  0.00     0.060 A 
BRANCH  63  64
ATOM     64  S   UNL     1      -6.083  15.246   5.595  1.00  0.00     0.124 S 
ATOM     65  O   UNL     1      -7.128  14.295   5.228  1.00  0.00    -0.237 OA
ATOM     66  O   UNL     1      -6.084  15.681   6.988  1.00  0.00    -0.237 OA
ATOM     67  O   UNL     1      -5.815  16.294   4.614  1.00  0.00    -0.744 OA
ENDBRANCH  63  64
ENDBRANCH  42  56
BRANCH  43  68
ATOM     68  C   UNL     1       5.485   6.413   4.611  1.00  0.00     0.058 A 
ATOM     69  C   UNL     1       6.266   6.055   5.720  1.00  0.00     0.135 A 
ATOM     70  C   UNL     1       5.837   5.879   3.362  1.00  0.00     0.135 A 
ATOM     71  F   UNL     1       5.972   6.547   6.933  1.00  0.00    -0.206 F 
ATOM     72  C   UNL     1       7.364   5.211   5.596  1.00  0.00     0.059 A 
ATOM     73  C   UNL     1       6.918   5.014   3.216  1.00  0.00     0.059 A 
ATOM     74  F   UNL     1       5.111   6.177   2.274  1.00  0.00    -0.206 F 
ATOM     75  C   UNL     1       7.681   4.693   4.338  1.00  0.00     0.060 A 
BRANCH  75  76
ATOM     76  S   UNL     1       9.072   3.550   4.196  1.00  0.00     0.124 S 
ATOM     77  O   UNL     1      10.208   4.459   4.284  1.00  0.00    -0.237 OA
ATOM     78  O   UNL     1       8.866   2.670   5.342  1.00  0.00    -0.237 OA
ATOM     79  O   UNL     1       8.858   2.927   2.892  1.00  0.00    -0.744 OA
ENDBRANCH  75  76
ENDBRANCH  43  68
BRANCH  55  80
ATOM     80  C   UNL     1       4.806  13.206   6.033  1.00  0.00     0.058 A 
ATOM     81  C   UNL     1       5.614  13.774   5.037  1.00  0.00     0.135 A 
ATOM     82  C   UNL     1       4.914  13.714   7.338  1.00  0.00     0.135 A 
ATOM     83  F   UNL     1       5.552  13.319   3.776  1.00  0.00    -0.206 F 
ATOM     84  C   UNL     1       6.510  14.799   5.327  1.00  0.00     0.059 A 
ATOM     85  C   UNL     1       5.786  14.753   7.645  1.00  0.00     0.059 A 
ATOM     86  F   UNL     1       4.156  13.211   8.324  1.00  0.00    -0.206 F 
ATOM     87  C   UNL     1       6.588  15.282   6.635  1.00  0.00     0.060 A 
BRANCH  87  88
ATOM     88  S   UNL     1       7.728  16.636   6.993  1.00  0.00     0.124 S 
ATOM     89  O   UNL     1       9.011  15.942   7.011  1.00  0.00    -0.237 OA
ATOM     90  O   UNL     1       7.511  17.537   5.865  1.00  0.00    -0.237 OA
ATOM     91  O   UNL     1       7.265  17.136   8.284  1.00  0.00    -0.744 OA
ENDBRANCH  87  88
ENDBRANCH  55  80
ENDBRANCH  29  30
ENDBRANCH  21  24
ENDBRANCH  19  20
ENDBRANCH   1  19
TORSDOF 15
