REMARK SMILES Cc1cc2c(c(C)c1Cl)C=C(C(=O)NCCCNC(=O)c1ccc(-c3c4nc(c(-c5c(F)cc(S(=O)(=O)[O-])cc5F)c5ccc([nH]5)c(-c5c(F)cc(S(=O)(=O)[O-])cc5F)c5nc(c(-c6c(F)cc(S(=O)(=O)[O-])cc6F)c6ccc3[nH]6)C=C5)C=C4)cc1)[C@@H](C(F)(F)F)O2
REMARK SMILES IDX 17 1 16 2 15 3 14 4 12 5 13 6 11 8 1 9 2 10 3 11 8 12 4 13
REMARK SMILES IDX 6 14 9 15 5 16 92 17 7 18 10 19 87 20 88 21 89 22 90 23
REMARK SMILES IDX 91 24 18 25 19 26 20 28 21 29 22 30 86 31 23 32 85 33 24 34
REMARK SMILES IDX 25 35 26 36 79 37 27 38 84 39 78 40 80 41 28 42 83 43 77 44
REMARK SMILES IDX 76 45 29 47 63 48 42 49 62 50 43 51 46 52 61 53 81 54 44 55
REMARK SMILES IDX 45 56 60 58 82 59 47 60 30 61 31 62 40 63 32 64 33 65 39 66
REMARK SMILES IDX 41 67 34 68 35 69 36 70 37 71 38 72 64 73 65 74 74 75 66 76
REMARK SMILES IDX 67 77 73 78 75 79 68 80 69 81 70 82 71 83 72 84 48 85 49 86
REMARK SMILES IDX 58 87 50 88 51 89 57 90 59 91 52 92 53 93 54 94 55 95 56 96
REMARK H PARENT 14 7 18 27 80 46 46 57
REMARK Flexibility Score: inf
ROOT
ATOM      1  C   UNL     1      -6.715   7.858   0.813  1.00  0.00     0.118 C 
ENDROOT
BRANCH   1   2
ATOM      2  C   UNL     1      -6.047   6.499   0.648  1.00  0.00     0.042 C 
BRANCH   2   3
ATOM      3  C   UNL     1      -5.157   6.444  -0.584  1.00  0.00     0.118 C 
BRANCH   3   4
ATOM      4  N   UNL     1      -3.889   7.126  -0.371  1.00  0.00    -0.352 N 
ATOM      5  C   UNL     1      -2.589   6.783  -0.224  1.00  0.00     0.251 C 
ATOM      6  O   UNL     1      -1.808   7.728  -0.072  1.00  0.00    -0.270 OA
ATOM      7  H   UNL     1      -4.010   8.101  -0.319  1.00  0.00     0.163 HD
BRANCH   5   8
ATOM      8  C   UNL     1      -2.063   5.387  -0.244  1.00  0.00     0.067 C 
ATOM      9  C   UNL     1       1.269  -0.183   0.046  1.00  0.00     0.046 C 
ATOM     10  C   UNL     1       0.853   1.263   0.020  1.00  0.00    -0.028 A 
ATOM     11  C   UNL     1      -0.522   1.514  -0.033  1.00  0.00     0.052 A 
ATOM     12  C   UNL     1       1.740   2.357   0.072  1.00  0.00     0.047 A 
ATOM     13  C   UNL     1      -1.006   2.815  -0.055  1.00  0.00     0.128 A 
ATOM     14  C   UNL     1       1.257   3.692   0.057  1.00  0.00    -0.021 A 
ATOM     15  Cl  UNL     1       3.448   2.049   0.166  1.00  0.00    -0.084 Cl
ATOM     16  C   UNL     1      -0.141   3.912  -0.004  1.00  0.00     0.022 A 
ATOM     17  O   UNL     1      -2.365   2.928  -0.083  1.00  0.00    -0.475 OA
ATOM     18  C   UNL     1       2.189   4.881   0.111  1.00  0.00     0.047 C 
ATOM     19  C   UNL     1      -0.750   5.246   0.023  1.00  0.00     0.026 C 
ATOM     20  C   UNL     1      -2.897   4.185  -0.565  1.00  0.00     0.314 C 
BRANCH  20  21
ATOM     21  C   UNL     1      -3.208   4.065  -2.070  1.00  0.00     0.429 C 
ATOM     22  F   UNL     1      -4.253   3.224  -2.274  1.00  0.00    -0.167 F 
ATOM     23  F   UNL     1      -3.555   5.248  -2.629  1.00  0.00    -0.167 F 
ATOM     24  F   UNL     1      -2.162   3.591  -2.783  1.00  0.00    -0.167 F 
ENDBRANCH  20  21
ENDBRANCH   5   8
ENDBRANCH   3   4
ENDBRANCH   2   3
ENDBRANCH   1   2
BRANCH   1  25
ATOM     25  N   UNL     1      -7.616   8.155  -0.298  1.00  0.00    -0.352 N 
ATOM     26  C   UNL     1      -8.987   8.133  -0.354  1.00  0.00     0.251 C 
ATOM     27  H   UNL     1      -7.170   8.411  -1.138  1.00  0.00     0.163 HD
ATOM     28  O   UNL     1      -9.550   8.124  -1.447  1.00  0.00    -0.269 OA
BRANCH  26  29
ATOM     29  C   UNL     1      -9.775   8.121   0.892  1.00  0.00     0.039 A 
ATOM     30  C   UNL     1     -10.927   7.335   0.972  1.00  0.00     0.014 A 
ATOM     31  C   UNL     1      -9.384   8.910   1.977  1.00  0.00     0.014 A 
ATOM     32  C   UNL     1     -11.649   7.295   2.166  1.00  0.00     0.010 A 
ATOM     33  C   UNL     1     -10.041   8.789   3.192  1.00  0.00     0.010 A 
ATOM     34  C   UNL     1     -11.191   7.996   3.294  1.00  0.00    -0.014 A 
BRANCH  34  35
ATOM     35  C   UNL     1     -11.918   7.947   4.585  1.00  0.00     0.031 A 
ATOM     36  C   UNL     1     -12.502   9.210   5.158  1.00  0.00     0.074 A 
ATOM     37  C   UNL     1     -11.995   6.786   5.263  1.00  0.00     0.049 A 
ATOM     38  N   UNL     1     -13.105   9.394   6.303  1.00  0.00    -0.248 NA
ATOM     39  C   UNL     1     -12.362  10.435   4.351  1.00  0.00     0.031 C 
ATOM     40  C   UNL     1     -11.424   5.510   4.824  1.00  0.00     0.029 A 
ATOM     41  N   UNL     1     -12.580   6.489   6.467  1.00  0.00    -0.354 N 
ATOM     42  C   UNL     1     -13.406  10.750   6.356  1.00  0.00     0.074 A 
ATOM     43  C   UNL     1     -12.859  11.356   5.163  1.00  0.00     0.031 C 
ATOM     44  C   UNL     1     -11.719   4.562   5.728  1.00  0.00     0.029 A 
ATOM     45  C   UNL     1     -12.462   5.168   6.829  1.00  0.00     0.049 A 
ATOM     46  H   UNL     1     -13.042   7.160   7.021  1.00  0.00     0.167 HD
ATOM     47  C   UNL     1     -14.107  11.423   7.298  1.00  0.00     0.037 A 
ATOM     48  C   UNL     1     -12.902   4.521   7.925  1.00  0.00     0.037 A 
ATOM     49  C   UNL     1     -14.674  10.802   8.465  1.00  0.00     0.049 A 
ATOM     50  C   UNL     1     -13.667   5.292   8.966  1.00  0.00     0.074 A 
ATOM     51  C   UNL     1     -15.445  11.381   9.456  1.00  0.00     0.029 A 
ATOM     52  N   UNL     1     -14.535   9.462   8.795  1.00  0.00    -0.354 N 
ATOM     53  N   UNL     1     -13.989   6.564   8.976  1.00  0.00    -0.248 NA
ATOM     54  C   UNL     1     -14.130   4.544  10.142  1.00  0.00     0.031 C 
ATOM     55  C   UNL     1     -15.734  10.400  10.410  1.00  0.00     0.029 A 
ATOM     56  C   UNL     1     -15.187   9.199   9.987  1.00  0.00     0.049 A 
ATOM     57  H   UNL     1     -14.045   8.796   8.260  1.00  0.00     0.167 HD
ATOM     58  C   UNL     1     -14.709   6.766  10.147  1.00  0.00     0.074 A 
ATOM     59  C   UNL     1     -14.789   5.481  10.812  1.00  0.00     0.031 C 
ATOM     60  C   UNL     1     -15.254   7.910  10.631  1.00  0.00     0.037 A 
BRANCH  47  61
ATOM     61  C   UNL     1     -14.316  12.898   7.095  1.00  0.00     0.058 A 
ATOM     62  C   UNL     1     -15.157  13.387   6.081  1.00  0.00     0.135 A 
ATOM     63  C   UNL     1     -13.705  13.833   7.945  1.00  0.00     0.135 A 
ATOM     64  F   UNL     1     -15.751  12.539   5.226  1.00  0.00    -0.206 F 
ATOM     65  C   UNL     1     -15.366  14.751   5.904  1.00  0.00     0.059 A 
ATOM     66  C   UNL     1     -13.924  15.201   7.805  1.00  0.00     0.059 A 
ATOM     67  F   UNL     1     -12.888  13.421   8.927  1.00  0.00    -0.206 F 
ATOM     68  C   UNL     1     -14.748  15.650   6.774  1.00  0.00     0.060 A 
BRANCH  68  69
ATOM     69  S   UNL     1     -15.047  17.414   6.538  1.00  0.00     0.124 S 
ATOM     70  O   UNL     1     -14.335  17.666   5.289  1.00  0.00    -0.237 OA
ATOM     71  O   UNL     1     -16.503  17.473   6.459  1.00  0.00    -0.237 OA
ATOM     72  O   UNL     1     -14.460  18.022   7.727  1.00  0.00    -0.744 OA
ENDBRANCH  68  69
ENDBRANCH  47  61
BRANCH  48  73
ATOM     73  C   UNL     1     -12.660   3.060   8.069  1.00  0.00     0.058 A 
ATOM     74  C   UNL     1     -13.714   2.143   7.955  1.00  0.00     0.135 A 
ATOM     75  C   UNL     1     -11.370   2.549   8.282  1.00  0.00     0.135 A 
ATOM     76  F   UNL     1     -14.966   2.583   7.756  1.00  0.00    -0.206 F 
ATOM     77  C   UNL     1     -13.503   0.772   8.052  1.00  0.00     0.059 A 
ATOM     78  C   UNL     1     -11.129   1.180   8.358  1.00  0.00     0.059 A 
ATOM     79  F   UNL     1     -10.323   3.383   8.381  1.00  0.00    -0.206 F 
ATOM     80  C   UNL     1     -12.204   0.299   8.247  1.00  0.00     0.060 A 
BRANCH  80  81
ATOM     81  S   UNL     1     -11.935  -1.486   8.306  1.00  0.00     0.124 S 
ATOM     82  O   UNL     1     -12.567  -1.837   9.573  1.00  0.00    -0.237 OA
ATOM     83  O   UNL     1     -12.624  -1.936   7.101  1.00  0.00    -0.237 OA
ATOM     84  O   UNL     1     -10.480  -1.608   8.271  1.00  0.00    -0.744 OA
ENDBRANCH  80  81
ENDBRANCH  48  73
BRANCH  60  85
ATOM     85  C   UNL     1     -15.996   7.830  11.935  1.00  0.00     0.058 A 
ATOM     86  C   UNL     1     -15.319   7.681  13.155  1.00  0.00     0.135 A 
ATOM     87  C   UNL     1     -17.391   7.989  11.971  1.00  0.00     0.135 A 
ATOM     88  F   UNL     1     -13.986   7.519  13.174  1.00  0.00    -0.206 F 
ATOM     89  C   UNL     1     -16.001   7.681  14.366  1.00  0.00     0.059 A 
ATOM     90  C   UNL     1     -18.090   8.021  13.173  1.00  0.00     0.059 A 
ATOM     91  F   UNL     1     -18.084   8.147  10.832  1.00  0.00    -0.206 F 
ATOM     92  C   UNL     1     -17.386   7.859  14.366  1.00  0.00     0.060 A 
BRANCH  92  93
ATOM     93  S   UNL     1     -18.248   7.906  15.950  1.00  0.00     0.124 S 
ATOM     94  O   UNL     1     -18.149   6.516  16.381  1.00  0.00    -0.237 OA
ATOM     95  O   UNL     1     -17.449   8.864  16.709  1.00  0.00    -0.237 OA
ATOM     96  O   UNL     1     -19.590   8.359  15.596  1.00  0.00    -0.744 OA
ENDBRANCH  92  93
ENDBRANCH  60  85
ENDBRANCH  34  35
ENDBRANCH  26  29
ENDBRANCH   1  25
TORSDOF 14
