REMARK SMILES CCc1cccc(NC(=O)N2CCO[C@@H](CC(=O)NCCCNC(=O)c3ccc(-c4c5nc(c(-c6c(F)cc(S(=O)(=O)[O-])cc6F)c6ccc([nH]6)c(-c6c(F)cc(S(=O)(=O)[O-])cc6F)c6nc(c(-c7c(F)cc(S(=O)(=O)[O-])cc7F)c7ccc4[nH]7)C=C6)C=C5)cc3)C2)c1
REMARK SMILES IDX 20 1 19 2 17 3 18 4 16 6 15 7 11 8 12 9 92 10 13 11 14 12
REMARK SMILES IDX 9 13 8 14 10 16 7 17 3 18 4 19 93 20 5 21 6 22 2 23 1 24
REMARK SMILES IDX 21 25 22 26 23 27 24 28 25 30 26 31 27 32 91 33 28 34 90 35
REMARK SMILES IDX 29 36 30 37 31 38 84 39 32 40 89 41 83 42 85 43 33 44 88 45
REMARK SMILES IDX 82 46 81 47 34 49 68 50 47 51 67 52 48 53 51 54 66 55 86 56
REMARK SMILES IDX 49 57 50 58 65 60 87 61 52 62 35 63 36 64 45 65 37 66 38 67
REMARK SMILES IDX 44 68 46 69 39 70 40 71 41 72 42 73 43 74 69 75 70 76 79 77
REMARK SMILES IDX 71 78 72 79 78 80 80 81 73 82 74 83 75 84 76 85 77 86 53 87
REMARK SMILES IDX 54 88 63 89 55 90 56 91 62 92 64 93 57 94 58 95 59 96 60 97
REMARK SMILES IDX 61 98
REMARK H PARENT 19 5 8 15 23 29 85 48 51 59
REMARK Flexibility Score: inf
ROOT
ATOM      1  C   UNL     1       0.554   2.574  10.574  1.00  0.00     0.117 C 
ENDROOT
BRANCH   1   2
ATOM      2  N   UNL     1      -0.625   1.750  10.324  1.00  0.00    -0.356 N 
ATOM      3  C   UNL     1      -0.743   0.414  10.062  1.00  0.00     0.222 C 
ATOM      4  O   UNL     1      -1.865  -0.041   9.839  1.00  0.00    -0.275 OA
ATOM      5  H   UNL     1      -1.479   2.239  10.348  1.00  0.00     0.163 HD
BRANCH   3   6
ATOM      6  C   UNL     1       0.478  -0.482  10.012  1.00  0.00     0.133 C 
BRANCH   6   7
ATOM      7  C   UNL     1       0.994  -0.700   8.589  1.00  0.00     0.147 C 
ATOM      8  N   UNL     1       1.863   0.466   6.590  1.00  0.00    -0.320 N 
ATOM      9  C   UNL     1       3.054  -0.379   6.600  1.00  0.00     0.150 C 
ATOM     10  C   UNL     1       1.253   0.632   7.886  1.00  0.00     0.154 C 
ATOM     11  C   UNL     1       2.786  -1.687   7.357  1.00  0.00     0.182 C 
ATOM     12  O   UNL     1       2.227  -1.454   8.666  1.00  0.00    -0.374 OA
BRANCH   8  13
ATOM     13  C   UNL     1       1.742   1.507   5.707  1.00  0.00     0.322 C 
ATOM     14  N   UNL     1       1.566   1.233   4.386  1.00  0.00    -0.308 N 
ATOM     15  H   UNL     1       1.750   1.995   3.789  1.00  0.00     0.171 HD
ATOM     16  O   UNL     1       1.733   2.679   6.088  1.00  0.00    -0.248 OA
BRANCH  14  17
ATOM     17  C   UNL     1       1.169   0.059   3.717  1.00  0.00     0.043 A 
ATOM     18  C   UNL     1       0.753  -1.024   1.567  1.00  0.00    -0.046 A 
ATOM     19  C   UNL     1       0.464  -2.218   2.245  1.00  0.00     0.004 A 
ATOM     20  C   UNL     1       1.118   0.105   2.318  1.00  0.00     0.029 A 
ATOM     21  C   UNL     1       0.465  -2.261   3.633  1.00  0.00     0.002 A 
ATOM     22  C   UNL     1       0.775  -1.114   4.358  1.00  0.00     0.026 A 
BRANCH  18  23
ATOM     23  C   UNL     1       0.585  -1.012   0.066  1.00  0.00     0.032 C 
ATOM     24  C   UNL     1       1.121   0.201  -0.681  1.00  0.00     0.009 C 
ENDBRANCH  18  23
ENDBRANCH  14  17
ENDBRANCH   8  13
ENDBRANCH   6   7
ENDBRANCH   3   6
ENDBRANCH   1   2
BRANCH   1  25
ATOM     25  C   UNL     1       0.840   3.551   9.432  1.00  0.00     0.042 C 
BRANCH  25  26
ATOM     26  C   UNL     1      -0.062   4.775   9.402  1.00  0.00     0.118 C 
BRANCH  26  27
ATOM     27  N   UNL     1       0.462   5.846  10.230  1.00  0.00    -0.352 N 
ATOM     28  C   UNL     1       1.104   7.009   9.873  1.00  0.00     0.251 C 
ATOM     29  H   UNL     1       0.338   5.721  11.199  1.00  0.00     0.163 HD
ATOM     30  O   UNL     1       1.704   7.636  10.746  1.00  0.00    -0.269 OA
BRANCH  28  31
ATOM     31  C   UNL     1       1.097   7.519   8.476  1.00  0.00     0.039 A 
ATOM     32  C   UNL     1       2.229   8.198   8.008  1.00  0.00     0.014 A 
ATOM     33  C   UNL     1      -0.027   7.424   7.652  1.00  0.00     0.014 A 
ATOM     34  C   UNL     1       2.244   8.742   6.717  1.00  0.00     0.010 A 
ATOM     35  C   UNL     1       0.018   7.893   6.336  1.00  0.00     0.010 A 
ATOM     36  C   UNL     1       1.145   8.578   5.859  1.00  0.00    -0.014 A 
BRANCH  36  37
ATOM     37  C   UNL     1       1.146   9.147   4.483  1.00  0.00     0.031 A 
ATOM     38  C   UNL     1       0.154  10.218   4.102  1.00  0.00     0.074 A 
ATOM     39  C   UNL     1       2.009   8.678   3.559  1.00  0.00     0.049 A 
ATOM     40  N   UNL     1      -0.038  10.795   2.942  1.00  0.00    -0.248 NA
ATOM     41  C   UNL     1      -0.757  10.686   5.159  1.00  0.00     0.031 C 
ATOM     42  C   UNL     1       2.994   7.619   3.782  1.00  0.00     0.029 A 
ATOM     43  N   UNL     1       2.192   9.029   2.243  1.00  0.00    -0.354 N 
ATOM     44  C   UNL     1      -1.099  11.676   3.126  1.00  0.00     0.074 A 
ATOM     45  C   UNL     1      -1.540  11.523   4.495  1.00  0.00     0.031 C 
ATOM     46  C   UNL     1       3.695   7.424   2.653  1.00  0.00     0.029 A 
ATOM     47  C   UNL     1       3.186   8.315   1.614  1.00  0.00     0.049 A 
ATOM     48  H   UNL     1       1.663   9.726   1.793  1.00  0.00     0.167 HD
ATOM     49  C   UNL     1      -1.642  12.551   2.244  1.00  0.00     0.037 A 
ATOM     50  C   UNL     1       3.632   8.366   0.344  1.00  0.00     0.037 A 
ATOM     51  C   UNL     1      -1.183  12.726   0.890  1.00  0.00     0.049 A 
ATOM     52  C   UNL     1       3.014   9.344  -0.619  1.00  0.00     0.074 A 
ATOM     53  C   UNL     1      -1.633  13.624  -0.062  1.00  0.00     0.029 A 
ATOM     54  N   UNL     1      -0.167  11.991   0.296  1.00  0.00    -0.354 N 
ATOM     55  N   UNL     1       2.045  10.203  -0.412  1.00  0.00    -0.248 NA
ATOM     56  C   UNL     1       3.552   9.362  -1.987  1.00  0.00     0.031 C 
ATOM     57  C   UNL     1      -0.915  13.408  -1.244  1.00  0.00     0.029 A 
ATOM     58  C   UNL     1       0.012  12.403  -1.014  1.00  0.00     0.049 A 
ATOM     59  H   UNL     1       0.350  11.282   0.741  1.00  0.00     0.167 HD
ATOM     60  C   UNL     1       1.872  10.878  -1.616  1.00  0.00     0.074 A 
ATOM     61  C   UNL     1       2.845  10.336  -2.542  1.00  0.00     0.031 C 
ATOM     62  C   UNL     1       0.987  11.857  -1.925  1.00  0.00     0.037 A 
BRANCH  49  63
ATOM     63  C   UNL     1      -2.796  13.392   2.720  1.00  0.00     0.058 A 
ATOM     64  C   UNL     1      -2.616  14.432   3.646  1.00  0.00     0.135 A 
ATOM     65  C   UNL     1      -4.092  13.175   2.225  1.00  0.00     0.135 A 
ATOM     66  F   UNL     1      -1.400  14.675   4.161  1.00  0.00    -0.206 F 
ATOM     67  C   UNL     1      -3.684  15.203   4.092  1.00  0.00     0.059 A 
ATOM     68  C   UNL     1      -5.172  13.952   2.637  1.00  0.00     0.059 A 
ATOM     69  F   UNL     1      -4.322  12.197   1.335  1.00  0.00    -0.206 F 
ATOM     70  C   UNL     1      -4.960  14.953   3.585  1.00  0.00     0.060 A 
BRANCH  70  71
ATOM     71  S   UNL     1      -6.337  15.957   4.179  1.00  0.00     0.124 S 
ATOM     72  O   UNL     1      -6.548  15.401   5.512  1.00  0.00    -0.237 OA
ATOM     73  O   UNL     1      -5.784  17.307   4.136  1.00  0.00    -0.237 OA
ATOM     74  O   UNL     1      -7.397  15.687   3.212  1.00  0.00    -0.744 OA
ENDBRANCH  70  71
ENDBRANCH  49  63
BRANCH  50  75
ATOM     75  C   UNL     1       4.742   7.474  -0.087  1.00  0.00     0.058 A 
ATOM     76  C   UNL     1       6.020   7.989  -0.346  1.00  0.00     0.135 A 
ATOM     77  C   UNL     1       4.551   6.092  -0.235  1.00  0.00     0.135 A 
ATOM     78  F   UNL     1       6.249   9.306  -0.228  1.00  0.00    -0.206 F 
ATOM     79  C   UNL     1       7.069   7.169  -0.748  1.00  0.00     0.059 A 
ATOM     80  C   UNL     1       5.591   5.247  -0.613  1.00  0.00     0.059 A 
ATOM     81  F   UNL     1       3.350   5.547   0.015  1.00  0.00    -0.206 F 
ATOM     82  C   UNL     1       6.845   5.797  -0.876  1.00  0.00     0.060 A 
BRANCH  82  83
ATOM     83  S   UNL     1       8.225   4.731  -1.347  1.00  0.00     0.124 S 
ATOM     84  O   UNL     1       8.351   5.026  -2.770  1.00  0.00    -0.237 OA
ATOM     85  O   UNL     1       9.301   5.226  -0.494  1.00  0.00    -0.237 OA
ATOM     86  O   UNL     1       7.740   3.394  -1.019  1.00  0.00    -0.744 OA
ENDBRANCH  82  83
ENDBRANCH  50  75
BRANCH  62  87
ATOM     87  C   UNL     1       1.042  12.426  -3.316  1.00  0.00     0.058 A 
ATOM     88  C   UNL     1       0.561  11.711  -4.423  1.00  0.00     0.135 A 
ATOM     89  C   UNL     1       1.536  13.722  -3.536  1.00  0.00     0.135 A 
ATOM     90  F   UNL     1       0.085  10.465  -4.268  1.00  0.00    -0.206 F 
ATOM     91  C   UNL     1       0.587  12.252  -5.705  1.00  0.00     0.059 A 
ATOM     92  C   UNL     1       1.549  14.293  -4.805  1.00  0.00     0.059 A 
ATOM     93  F   UNL     1       1.999  14.453  -2.509  1.00  0.00    -0.206 F 
ATOM     94  C   UNL     1       1.083  13.545  -5.885  1.00  0.00     0.060 A 
BRANCH  94  95
ATOM     95  S   UNL     1       1.079  14.250  -7.548  1.00  0.00     0.124 S 
ATOM     96  O   UNL     1       2.201  13.551  -8.165  1.00  0.00    -0.237 OA
ATOM     97  O   UNL     1      -0.245  13.885  -8.041  1.00  0.00    -0.237 OA
ATOM     98  O   UNL     1       1.281  15.677  -7.311  1.00  0.00    -0.744 OA
ENDBRANCH  94  95
ENDBRANCH  62  87
ENDBRANCH  36  37
ENDBRANCH  28  31
ENDBRANCH  26  27
ENDBRANCH  25  26
ENDBRANCH   1  25
TORSDOF 17
