REMARK SMILES CC(C)C[N@H+](CC[NH+](C)C)[C@@H]1CCC[C@]([NH3+])(C(=O)NCCCNC(=O)c2ccc(-c3c4nc(c(-c5c(F)cc(S(=O)(=O)[O-])cc5F)c5ccc([nH]5)c(-c5c(F)cc(S(=O)(=O)[O-])cc5F)c5nc(c(-c6c(F)cc(S(=O)(=O)[O-])cc6F)c6ccc3[nH]6)C=C5)C=C4)cc2)C1
REMARK SMILES IDX 20 1 19 2 17 3 18 4 15 6 11 7 12 8 92 9 13 10 14 11 5 12
REMARK SMILES IDX 4 14 2 15 1 16 3 17 6 18 7 19 8 20 9 21 10 22 16 24 21 28
REMARK SMILES IDX 22 29 23 30 24 31 25 33 26 34 27 35 91 36 28 37 90 38 29 39
REMARK SMILES IDX 30 40 31 41 84 42 32 43 89 44 83 45 85 46 33 47 88 48 82 49
REMARK SMILES IDX 81 50 34 52 68 53 47 54 67 55 48 56 51 57 66 58 86 59 49 60
REMARK SMILES IDX 50 61 65 63 87 64 52 65 35 66 36 67 45 68 37 69 38 70 44 71
REMARK SMILES IDX 46 72 39 73 40 74 41 75 42 76 43 77 69 78 70 79 79 80 71 81
REMARK SMILES IDX 72 82 78 83 80 84 73 85 74 86 75 87 76 88 77 89 53 90 54 91
REMARK SMILES IDX 63 92 55 93 56 94 62 95 64 96 57 97 58 98 59 99 60 100
REMARK SMILES IDX 61 101
REMARK H PARENT 19 5 5 13 8 23 16 25 16 26 16 27 23 32 85 51 51 62
REMARK Flexibility Score: inf
ROOT
ATOM      1  C   UNL     1      -0.425   0.883  -8.476  1.00  0.00     0.118 C 
ENDROOT
BRANCH   1   2
ATOM      2  N   UNL     1      -0.235   1.017  -7.043  1.00  0.00    -0.351 N 
ATOM      3  C   UNL     1      -0.895   2.000  -6.351  1.00  0.00     0.281 C 
ATOM      4  O   UNL     1      -0.655   3.186  -6.587  1.00  0.00    -0.268 OA
ATOM      5  H   UNL     1       0.368   0.402  -6.567  1.00  0.00     0.163 HD
BRANCH   3   6
ATOM      6  C   UNL     1      -2.042   1.572  -5.355  1.00  0.00     0.179 C 
ATOM      7  C   UNL     1      -1.126   0.604  -3.012  1.00  0.00     0.191 C 
ATOM      8  C   UNL     1      -1.498  -0.795  -3.565  1.00  0.00     0.065 C 
ATOM      9  C   UNL     1      -1.790   1.757  -3.828  1.00  0.00     0.144 C 
ATOM     10  C   UNL     1      -1.636  -0.911  -5.076  1.00  0.00     0.013 C 
ATOM     11  C   UNL     1      -2.559   0.162  -5.648  1.00  0.00     0.079 C 
BRANCH   7  12
ATOM     12  N   UNL     1       0.287   0.700  -2.531  1.00  0.00    -0.327 N 
ATOM     13  H   UNL     1       0.457  -0.281  -2.309  1.00  0.00     0.348 HD
BRANCH  12  14
ATOM     14  C   UNL     1       0.441   1.562  -1.353  1.00  0.00     0.265 C 
BRANCH  14  15
ATOM     15  C   UNL     1       0.247   1.087   0.098  1.00  0.00     0.038 C 
ATOM     16  C   UNL     1       1.156  -0.082   0.471  1.00  0.00     0.013 C 
ATOM     17  C   UNL     1       0.605   2.295   0.994  1.00  0.00     0.013 C 
ENDBRANCH  14  15
ENDBRANCH  12  14
BRANCH  12  18
ATOM     18  C   UNL     1       1.333   1.089  -3.510  1.00  0.00     0.324 C 
BRANCH  18  19
ATOM     19  C   UNL     1       1.370   2.514  -4.164  1.00  0.00     0.323 C 
BRANCH  19  20
ATOM     20  N   UNL     1       1.794   3.845  -3.667  1.00  0.00    -0.335 N 
ATOM     21  C   UNL     1       1.192   4.852  -4.578  1.00  0.00     0.332 C 
ATOM     22  C   UNL     1       1.441   4.260  -2.319  1.00  0.00     0.332 C 
ATOM     23  H   UNL     1       2.811   3.774  -3.643  1.00  0.00     0.347 HD
ENDBRANCH  19  20
ENDBRANCH  18  19
ENDBRANCH  12  18
ENDBRANCH   7  12
BRANCH   6  24
ATOM     24  N   UNL     1      -3.147   2.535  -5.685  1.00  0.00    -0.345 N 
ATOM     25  H   UNL     1      -3.953   2.346  -5.089  1.00  0.00     0.345 HD
ATOM     26  H   UNL     1      -3.414   2.424  -6.663  1.00  0.00     0.345 HD
ATOM     27  H   UNL     1      -2.824   3.490  -5.527  1.00  0.00     0.345 HD
ENDBRANCH   6  24
ENDBRANCH   3   6
ENDBRANCH   1   2
BRANCH   1  28
ATOM     28  C   UNL     1       0.203   2.002  -9.300  1.00  0.00     0.042 C 
BRANCH  28  29
ATOM     29  C   UNL     1       1.707   2.120  -9.095  1.00  0.00     0.118 C 
BRANCH  29  30
ATOM     30  N   UNL     1       2.410   0.941  -9.591  1.00  0.00    -0.352 N 
ATOM     31  C   UNL     1       2.909   0.705 -10.848  1.00  0.00     0.251 C 
ATOM     32  H   UNL     1       2.545   0.218  -8.937  1.00  0.00     0.163 HD
ATOM     33  O   UNL     1       3.177  -0.447 -11.197  1.00  0.00    -0.269 OA
BRANCH  31  34
ATOM     34  C   UNL     1       3.107   1.833 -11.777  1.00  0.00     0.039 A 
ATOM     35  C   UNL     1       2.677   1.730 -13.102  1.00  0.00     0.014 A 
ATOM     36  C   UNL     1       3.725   3.001 -11.326  1.00  0.00     0.014 A 
ATOM     37  C   UNL     1       2.805   2.830 -13.955  1.00  0.00     0.010 A 
ATOM     38  C   UNL     1       3.767   4.121 -12.146  1.00  0.00     0.010 A 
ATOM     39  C   UNL     1       3.317   4.046 -13.473  1.00  0.00    -0.014 A 
BRANCH  39  40
ATOM     40  C   UNL     1       3.421   5.252 -14.334  1.00  0.00     0.031 A 
ATOM     41  C   UNL     1       4.772   5.863 -14.599  1.00  0.00     0.074 A 
ATOM     42  C   UNL     1       2.304   5.843 -14.803  1.00  0.00     0.049 A 
ATOM     43  N   UNL     1       5.071   6.977 -15.216  1.00  0.00    -0.248 NA
ATOM     44  C   UNL     1       5.942   5.142 -14.069  1.00  0.00     0.031 C 
ATOM     45  C   UNL     1       0.937   5.370 -14.577  1.00  0.00     0.029 A 
ATOM     46  N   UNL     1       2.139   6.980 -15.554  1.00  0.00    -0.354 N 
ATOM     47  C   UNL     1       6.453   7.098 -15.131  1.00  0.00     0.074 A 
ATOM     48  C   UNL     1       6.929   5.979 -14.349  1.00  0.00     0.031 C 
ATOM     49  C   UNL     1       0.076   6.197 -15.193  1.00  0.00     0.029 A 
ATOM     50  C   UNL     1       0.824   7.285 -15.816  1.00  0.00     0.049 A 
ATOM     51  H   UNL     1       2.893   7.527 -15.874  1.00  0.00     0.167 HD
ATOM     52  C   UNL     1       7.256   8.040 -15.679  1.00  0.00     0.037 A 
ATOM     53  C   UNL     1       0.281   8.329 -16.473  1.00  0.00     0.037 A 
ATOM     54  C   UNL     1       6.774   9.136 -16.477  1.00  0.00     0.049 A 
ATOM     55  C   UNL     1       1.193   9.375 -17.059  1.00  0.00     0.074 A 
ATOM     56  C   UNL     1       7.505  10.118 -17.121  1.00  0.00     0.029 A 
ATOM     57  N   UNL     1       5.436   9.395 -16.741  1.00  0.00    -0.354 N 
ATOM     58  N   UNL     1       2.503   9.443 -17.019  1.00  0.00    -0.248 NA
ATOM     59  C   UNL     1       0.557  10.484 -17.784  1.00  0.00     0.031 C 
ATOM     60  C   UNL     1       6.608  11.000 -17.731  1.00  0.00     0.029 A 
ATOM     61  C   UNL     1       5.320  10.533 -17.521  1.00  0.00     0.049 A 
ATOM     62  H   UNL     1       4.681   8.851 -16.420  1.00  0.00     0.167 HD
ATOM     63  C   UNL     1       2.848  10.579 -17.744  1.00  0.00     0.074 A 
ATOM     64  C   UNL     1       1.610  11.164 -18.215  1.00  0.00     0.031 C 
ATOM     65  C   UNL     1       4.078  11.090 -17.999  1.00  0.00     0.037 A 
BRANCH  52  66
ATOM     66  C   UNL     1       8.738   7.922 -15.440  1.00  0.00     0.058 A 
ATOM     67  C   UNL     1       9.495   6.881 -16.003  1.00  0.00     0.135 A 
ATOM     68  C   UNL     1       9.417   8.877 -14.666  1.00  0.00     0.135 A 
ATOM     69  F   UNL     1       8.897   5.930 -16.739  1.00  0.00    -0.206 F 
ATOM     70  C   UNL     1      10.864   6.771 -15.779  1.00  0.00     0.059 A 
ATOM     71  C   UNL     1      10.791   8.806 -14.457  1.00  0.00     0.059 A 
ATOM     72  F   UNL     1       8.745   9.893 -14.103  1.00  0.00    -0.206 F 
ATOM     73  C   UNL     1      11.503   7.740 -15.005  1.00  0.00     0.060 A 
BRANCH  73  74
ATOM     74  S   UNL     1      13.281   7.586 -14.733  1.00  0.00     0.124 S 
ATOM     75  O   UNL     1      13.339   6.443 -13.827  1.00  0.00    -0.237 OA
ATOM     76  O   UNL     1      13.783   7.350 -16.083  1.00  0.00    -0.237 OA
ATOM     77  O   UNL     1      13.649   8.870 -14.146  1.00  0.00    -0.744 OA
ENDBRANCH  73  74
ENDBRANCH  52  66
BRANCH  53  78
ATOM     78  C   UNL     1      -1.196   8.430 -16.629  1.00  0.00     0.058 A 
ATOM     79  C   UNL     1      -1.800   8.277 -17.886  1.00  0.00     0.135 A 
ATOM     80  C   UNL     1      -2.034   8.675 -15.530  1.00  0.00     0.135 A 
ATOM     81  F   UNL     1      -1.043   8.047 -18.970  1.00  0.00    -0.206 F 
ATOM     82  C   UNL     1      -3.177   8.385 -18.053  1.00  0.00     0.059 A 
ATOM     83  C   UNL     1      -3.416   8.757 -15.666  1.00  0.00     0.059 A 
ATOM     84  F   UNL     1      -1.510   8.811 -14.302  1.00  0.00    -0.206 F 
ATOM     85  C   UNL     1      -3.978   8.623 -16.935  1.00  0.00     0.060 A 
BRANCH  85  86
ATOM     86  S   UNL     1      -5.767   8.721 -17.158  1.00  0.00     0.124 S 
ATOM     87  O   UNL     1      -5.908   9.998 -17.850  1.00  0.00    -0.237 OA
ATOM     88  O   UNL     1      -6.041   7.529 -17.955  1.00  0.00    -0.237 OA
ATOM     89  O   UNL     1      -6.279   8.684 -15.792  1.00  0.00    -0.744 OA
ENDBRANCH  85  86
ENDBRANCH  53  78
BRANCH  65  90
ATOM     90  C   UNL     1       4.161  12.313 -18.870  1.00  0.00     0.058 A 
ATOM     91  C   UNL     1       3.768  13.580 -18.411  1.00  0.00     0.135 A 
ATOM     92  C   UNL     1       4.715  12.225 -20.158  1.00  0.00     0.135 A 
ATOM     93  F   UNL     1       3.225  13.719 -17.191  1.00  0.00    -0.206 F 
ATOM     94  C   UNL     1       3.909  14.714 -19.203  1.00  0.00     0.059 A 
ATOM     95  C   UNL     1       4.894  13.350 -20.955  1.00  0.00     0.059 A 
ATOM     96  F   UNL     1       5.116  11.039 -20.642  1.00  0.00    -0.206 F 
ATOM     97  C   UNL     1       4.480  14.590 -20.472  1.00  0.00     0.060 A 
BRANCH  97  98
ATOM     98  S   UNL     1       4.708  16.079 -21.466  1.00  0.00     0.124 S 
ATOM     99  O   UNL     1       3.335  16.392 -21.848  1.00  0.00    -0.237 OA
ATOM    100  O   UNL     1       5.326  16.997 -20.515  1.00  0.00    -0.237 OA
ATOM    101  O   UNL     1       5.576  15.634 -22.553  1.00  0.00    -0.744 OA
ENDBRANCH  97  98
ENDBRANCH  65  90
ENDBRANCH  39  40
ENDBRANCH  31  34
ENDBRANCH  29  30
ENDBRANCH  28  29
ENDBRANCH   1  28
TORSDOF 20
