REMARK SMILES O=C(NCCCNC(=O)[C@H](c1c[nH]c2cc(F)ccc12)[NH+]1CC[NH+](CC(=O)N2CCOCC2)CC1)c1ccc(-c2c3nc(c(-c4c(F)cc(S(=O)(=O)[O-])cc4F)c4ccc([nH]4)c(-c4c(F)cc(S(=O)(=O)[O-])cc4F)c4nc(c(-c5c(F)cc(S(=O)(=O)[O-])cc5F)c5ccc2[nH]5)C=C4)C=C3)cc1
REMARK SMILES IDX 5 1 4 2 3 3 1 4 2 5 36 7 37 8 101 9 38 10 100 11 39 12 40 13
REMARK SMILES IDX 41 14 94 15 42 16 99 17 93 18 95 19 43 20 98 21 92 22 91 23
REMARK SMILES IDX 44 25 78 26 57 27 77 28 58 29 61 30 76 31 96 32 59 33 60 34
REMARK SMILES IDX 75 36 97 37 62 38 45 39 46 40 55 41 47 42 48 43 54 44 56 45
REMARK SMILES IDX 49 46 50 47 51 48 52 49 53 50 79 51 80 52 89 53 81 54 82 55
REMARK SMILES IDX 88 56 90 57 83 58 84 59 85 60 86 61 87 62 63 63 64 64 73 65
REMARK SMILES IDX 65 66 66 67 72 68 74 69 67 70 68 71 69 72 70 73 71 74 6 75
REMARK SMILES IDX 7 76 8 77 9 79 10 80 21 81 22 82 35 83 23 85 34 86 24 87
REMARK SMILES IDX 25 89 26 90 27 91 28 92 29 93 33 94 30 95 32 96 31 97 11 98
REMARK SMILES IDX 12 99 20 100 13 101 14 102 19 103 15 105 18 106 16 107
REMARK SMILES IDX 17 108
REMARK H PARENT 3 6 95 24 61 35 7 78 21 84 24 88 13 104
REMARK Flexibility Score: inf
ROOT
ATOM      1  C   UNL     1       5.347  -2.414  -0.491  1.00  0.00     0.042 C 
ENDROOT
BRANCH   1   2
ATOM      2  C   UNL     1       5.910  -2.812   0.863  1.00  0.00     0.118 C 
BRANCH   2   3
ATOM      3  N   UNL     1       5.837  -1.722   1.816  1.00  0.00    -0.352 N 
ATOM      4  O   UNL     1       4.928  -0.171   3.133  1.00  0.00    -0.269 OA
ATOM      5  C   UNL     1       4.820  -1.293   2.636  1.00  0.00     0.251 C 
ATOM      6  H   UNL     1       6.664  -1.193   1.888  1.00  0.00     0.163 HD
BRANCH   5   7
ATOM      7  C   UNL     1       3.608  -2.107   2.937  1.00  0.00     0.039 A 
ATOM      8  C   UNL     1       3.632  -3.498   3.035  1.00  0.00     0.014 A 
ATOM      9  C   UNL     1       2.424  -1.435   3.281  1.00  0.00     0.014 A 
ATOM     10  C   UNL     1       2.477  -4.210   3.373  1.00  0.00     0.010 A 
ATOM     11  C   UNL     1       1.295  -2.142   3.722  1.00  0.00     0.010 A 
ATOM     12  C   UNL     1       1.309  -3.542   3.773  1.00  0.00    -0.014 A 
BRANCH  12  13
ATOM     13  C   UNL     1       0.184  -4.324   4.363  1.00  0.00     0.031 A 
ATOM     14  C   UNL     1      -1.183  -4.349   3.735  1.00  0.00     0.074 A 
ATOM     15  C   UNL     1       0.412  -5.034   5.489  1.00  0.00     0.049 A 
ATOM     16  N   UNL     1      -2.249  -5.009   4.112  1.00  0.00    -0.248 NA
ATOM     17  C   UNL     1      -1.385  -3.519   2.539  1.00  0.00     0.031 C 
ATOM     18  C   UNL     1       1.681  -5.062   6.223  1.00  0.00     0.029 A 
ATOM     19  N   UNL     1      -0.395  -5.885   6.202  1.00  0.00    -0.354 N 
ATOM     20  C   UNL     1      -3.256  -4.659   3.219  1.00  0.00     0.074 A 
ATOM     21  C   UNL     1      -2.675  -3.709   2.292  1.00  0.00     0.031 C 
ATOM     22  C   UNL     1       1.591  -5.939   7.233  1.00  0.00     0.029 A 
ATOM     23  C   UNL     1       0.241  -6.489   7.263  1.00  0.00     0.049 A 
ATOM     24  H   UNL     1      -1.339  -6.048   5.976  1.00  0.00     0.167 HD
ATOM     25  C   UNL     1      -4.540  -5.091   3.174  1.00  0.00     0.037 A 
ATOM     26  C   UNL     1      -0.207  -7.381   8.167  1.00  0.00     0.037 A 
ATOM     27  C   UNL     1      -5.109  -6.052   4.087  1.00  0.00     0.049 A 
ATOM     28  C   UNL     1      -1.629  -7.852   8.087  1.00  0.00     0.074 A 
ATOM     29  C   UNL     1      -6.388  -6.583   4.092  1.00  0.00     0.029 A 
ATOM     30  N   UNL     1      -4.439  -6.623   5.159  1.00  0.00    -0.354 N 
ATOM     31  N   UNL     1      -2.552  -7.534   7.212  1.00  0.00    -0.248 NA
ATOM     32  C   UNL     1      -2.075  -8.794   9.122  1.00  0.00     0.031 C 
ATOM     33  C   UNL     1      -6.502  -7.447   5.188  1.00  0.00     0.029 A 
ATOM     34  C   UNL     1      -5.282  -7.486   5.843  1.00  0.00     0.049 A 
ATOM     35  H   UNL     1      -3.501  -6.442   5.400  1.00  0.00     0.167 HD
ATOM     36  C   UNL     1      -3.685  -8.248   7.581  1.00  0.00     0.074 A 
ATOM     37  C   UNL     1      -3.326  -9.027   8.749  1.00  0.00     0.031 C 
ATOM     38  C   UNL     1      -4.913  -8.254   7.006  1.00  0.00     0.037 A 
BRANCH  25  39
ATOM     39  C   UNL     1      -5.432  -4.512   2.108  1.00  0.00     0.058 A 
ATOM     40  C   UNL     1      -5.293  -4.862   0.756  1.00  0.00     0.135 A 
ATOM     41  C   UNL     1      -6.457  -3.614   2.448  1.00  0.00     0.135 A 
ATOM     42  F   UNL     1      -4.323  -5.708   0.373  1.00  0.00    -0.206 F 
ATOM     43  C   UNL     1      -6.114  -4.315  -0.226  1.00  0.00     0.059 A 
ATOM     44  C   UNL     1      -7.305  -3.071   1.486  1.00  0.00     0.059 A 
ATOM     45  F   UNL     1      -6.639  -3.248   3.727  1.00  0.00    -0.206 F 
ATOM     46  C   UNL     1      -7.112  -3.414   0.148  1.00  0.00     0.060 A 
BRANCH  46  47
ATOM     47  S   UNL     1      -8.149  -2.688  -1.139  1.00  0.00     0.124 S 
ATOM     48  O   UNL     1      -7.232  -1.722  -1.736  1.00  0.00    -0.237 OA
ATOM     49  O   UNL     1      -8.476  -3.844  -1.968  1.00  0.00    -0.237 OA
ATOM     50  O   UNL     1      -9.267  -2.117  -0.395  1.00  0.00    -0.744 OA
ENDBRANCH  46  47
ENDBRANCH  25  39
BRANCH  26  51
ATOM     51  C   UNL     1       0.713  -7.896   9.216  1.00  0.00     0.058 A 
ATOM     52  C   UNL     1       1.179  -9.218   9.178  1.00  0.00     0.135 A 
ATOM     53  C   UNL     1       1.170  -7.070  10.255  1.00  0.00     0.135 A 
ATOM     54  F   UNL     1       0.766 -10.047   8.208  1.00  0.00    -0.206 F 
ATOM     55  C   UNL     1       2.062  -9.707  10.136  1.00  0.00     0.059 A 
ATOM     56  C   UNL     1       2.072  -7.528  11.209  1.00  0.00     0.059 A 
ATOM     57  F   UNL     1       0.766  -5.792  10.325  1.00  0.00    -0.206 F 
ATOM     58  C   UNL     1       2.506  -8.851  11.146  1.00  0.00     0.060 A 
BRANCH  58  59
ATOM     59  S   UNL     1       3.700  -9.474  12.349  1.00  0.00     0.124 S 
ATOM     60  O   UNL     1       2.857 -10.282  13.211  1.00  0.00    -0.237 OA
ATOM     61  O   UNL     1       4.641 -10.205  11.499  1.00  0.00    -0.237 OA
ATOM     62  O   UNL     1       4.238  -8.251  12.947  1.00  0.00    -0.744 OA
ENDBRANCH  58  59
ENDBRANCH  26  51
BRANCH  38  63
ATOM     63  C   UNL     1      -5.949  -9.151   7.622  1.00  0.00     0.058 A 
ATOM     64  C   UNL     1      -6.569  -8.832   8.840  1.00  0.00     0.135 A 
ATOM     65  C   UNL     1      -6.340 -10.334   6.975  1.00  0.00     0.135 A 
ATOM     66  F   UNL     1      -6.223  -7.716   9.502  1.00  0.00    -0.206 F 
ATOM     67  C   UNL     1      -7.521  -9.670   9.411  1.00  0.00     0.059 A 
ATOM     68  C   UNL     1      -7.307 -11.175   7.517  1.00  0.00     0.059 A 
ATOM     69  F   UNL     1      -5.783 -10.681   5.804  1.00  0.00    -0.206 F 
ATOM     70  C   UNL     1      -7.881 -10.841   8.743  1.00  0.00     0.060 A 
BRANCH  70  71
ATOM     71  S   UNL     1      -9.130 -11.915   9.483  1.00  0.00     0.124 S 
ATOM     72  O   UNL     1      -8.360 -12.587  10.524  1.00  0.00    -0.237 OA
ATOM     73  O   UNL     1     -10.130 -10.960   9.952  1.00  0.00    -0.237 OA
ATOM     74  O   UNL     1      -9.553 -12.759   8.370  1.00  0.00    -0.744 OA
ENDBRANCH  70  71
ENDBRANCH  38  63
ENDBRANCH  12  13
ENDBRANCH   5   7
ENDBRANCH   2   3
ENDBRANCH   1   2
BRANCH   1  75
ATOM     75  C   UNL     1       6.388  -2.001  -1.543  1.00  0.00     0.118 C 
BRANCH  75  76
ATOM     76  N   UNL     1       7.343  -3.051  -1.915  1.00  0.00    -0.351 N 
ATOM     77  C   UNL     1       7.717  -3.705  -3.054  1.00  0.00     0.283 C 
ATOM     78  H   UNL     1       7.851  -3.370  -1.133  1.00  0.00     0.163 HD
ATOM     79  O   UNL     1       8.690  -4.463  -2.871  1.00  0.00    -0.268 OA
BRANCH  77  80
ATOM     80  C   UNL     1       7.072  -3.671  -4.488  1.00  0.00     0.308 C 
BRANCH  80  81
ATOM     81  N   UNL     1       5.936  -4.650  -4.733  1.00  0.00    -0.312 N 
ATOM     82  C   UNL     1       5.843  -5.887  -3.894  1.00  0.00     0.325 C 
ATOM     83  C   UNL     1       4.608  -4.056  -4.723  1.00  0.00     0.325 C 
ATOM     84  H   UNL     1       6.228  -4.941  -5.666  1.00  0.00     0.349 HD
ATOM     85  C   UNL     1       4.465  -6.141  -3.064  1.00  0.00     0.325 C 
ATOM     86  C   UNL     1       4.247  -3.792  -3.273  1.00  0.00     0.325 C 
ATOM     87  N   UNL     1       3.658  -4.957  -2.686  1.00  0.00    -0.318 N 
ATOM     88  H   UNL     1       3.704  -4.979  -1.667  1.00  0.00     0.348 HD
BRANCH  87  89
ATOM     89  C   UNL     1       2.188  -4.952  -2.880  1.00  0.00     0.364 C 
BRANCH  89  90
ATOM     90  C   UNL     1       1.629  -4.596  -4.295  1.00  0.00     0.277 C 
ATOM     91  O   UNL     1       1.504  -5.467  -5.160  1.00  0.00    -0.268 OA
ATOM     92  N   UNL     1       1.130  -3.293  -4.499  1.00  0.00    -0.333 N 
ATOM     93  C   UNL     1       1.973  -2.158  -4.908  1.00  0.00     0.148 C 
ATOM     94  C   UNL     1      -0.167  -3.194  -5.174  1.00  0.00     0.148 C 
ATOM     95  C   UNL     1       1.301  -0.825  -4.604  1.00  0.00     0.181 C 
ATOM     96  C   UNL     1      -0.808  -1.811  -4.947  1.00  0.00     0.181 C 
ATOM     97  O   UNL     1       0.070  -0.732  -5.320  1.00  0.00    -0.378 OA
ENDBRANCH  89  90
ENDBRANCH  87  89
ENDBRANCH  80  81
BRANCH  80  98
ATOM     98  C   UNL     1       6.797  -2.281  -5.104  1.00  0.00     0.044 A 
ATOM     99  C   UNL     1       7.002  -1.025  -4.557  1.00  0.00     0.094 A 
ATOM    100  C   UNL     1       6.215  -2.014  -6.412  1.00  0.00     0.009 A 
ATOM    101  N   UNL     1       6.287  -0.105  -5.280  1.00  0.00    -0.361 N 
ATOM    102  C   UNL     1       5.758  -0.694  -6.400  1.00  0.00     0.049 A 
ATOM    103  C   UNL     1       5.874  -2.824  -7.524  1.00  0.00     0.014 A 
ATOM    104  H   UNL     1       6.170   0.840  -5.032  1.00  0.00     0.166 HD
ATOM    105  C   UNL     1       4.903  -0.174  -7.381  1.00  0.00     0.065 A 
ATOM    106  C   UNL     1       5.043  -2.312  -8.528  1.00  0.00     0.040 A 
ATOM    107  C   UNL     1       4.553  -1.017  -8.434  1.00  0.00     0.125 A 
ATOM    108  F   UNL     1       3.714  -0.565  -9.377  1.00  0.00    -0.207 F 
ENDBRANCH  80  98
ENDBRANCH  77  80
ENDBRANCH  75  76
ENDBRANCH   1  75
TORSDOF 17
