REMARK SMILES CCc1c(Cl)ccc2c1C=C(C(=O)NCCCNC(=O)c1ccc(-c3c4nc(c(-c5c(F)cc(S(=O)(=O)[O-])cc5F)c5ccc([nH]5)c(-c5c(F)cc(S(=O)(=O)[O-])cc5F)c5nc(c(-c6c(F)cc(S(=O)(=O)[O-])cc6F)c6ccc3[nH]6)C=C5)C=C4)cc1)[C@@H](C(F)(F)F)O2
REMARK SMILES IDX 17 1 16 2 15 3 14 4 12 5 13 6 11 8 3 9 4 10 9 11 5 12 6 13
REMARK SMILES IDX 8 14 10 15 7 16 92 17 87 18 2 19 1 20 88 21 89 22 90 23
REMARK SMILES IDX 91 24 18 25 19 26 20 28 21 29 22 30 86 31 23 32 85 33 24 34
REMARK SMILES IDX 25 35 26 36 79 37 27 38 84 39 78 40 80 41 28 42 83 43 77 44
REMARK SMILES IDX 76 45 29 47 63 48 42 49 62 50 43 51 46 52 61 53 81 54 44 55
REMARK SMILES IDX 45 56 60 58 82 59 47 60 30 61 31 62 40 63 32 64 33 65 39 66
REMARK SMILES IDX 41 67 34 68 35 69 36 70 37 71 38 72 64 73 65 74 74 75 66 76
REMARK SMILES IDX 67 77 73 78 75 79 68 80 69 81 70 82 71 83 72 84 48 85 49 86
REMARK SMILES IDX 58 87 50 88 51 89 57 90 59 91 52 92 53 93 54 94 55 95 56 96
REMARK H PARENT 14 7 18 27 80 46 46 57
REMARK Flexibility Score: inf
ROOT
ATOM      1  C   UNL     1       3.994  -3.650   9.266  1.00  0.00     0.118 C 
ENDROOT
BRANCH   1   2
ATOM      2  C   UNL     1       3.761  -2.260   8.683  1.00  0.00     0.042 C 
BRANCH   2   3
ATOM      3  C   UNL     1       4.504  -2.036   7.373  1.00  0.00     0.118 C 
BRANCH   3   4
ATOM      4  N   UNL     1       3.844  -2.682   6.246  1.00  0.00    -0.352 N 
ATOM      5  C   UNL     1       3.116  -2.312   5.166  1.00  0.00     0.251 C 
ATOM      6  O   UNL     1       2.766  -3.243   4.432  1.00  0.00    -0.270 OA
ATOM      7  H   UNL     1       3.959  -3.659   6.279  1.00  0.00     0.163 HD
BRANCH   5   8
ATOM      8  C   UNL     1       2.729  -0.912   4.815  1.00  0.00     0.067 C 
ATOM      9  C   UNL     1       0.692   0.801   2.157  1.00  0.00    -0.019 A 
ATOM     10  C   UNL     1       0.287   2.132   1.890  1.00  0.00     0.045 A 
ATOM     11  C   UNL     1       1.444   0.553   3.338  1.00  0.00     0.022 A 
ATOM     12  Cl  UNL     1      -0.652   2.556   0.496  1.00  0.00    -0.084 Cl
ATOM     13  C   UNL     1       0.610   3.179   2.755  1.00  0.00     0.024 A 
ATOM     14  C   UNL     1       1.750   1.626   4.192  1.00  0.00     0.128 A 
ATOM     15  C   UNL     1       1.888  -0.778   3.770  1.00  0.00     0.026 C 
ATOM     16  C   UNL     1       1.336   2.925   3.909  1.00  0.00     0.048 A 
ATOM     17  O   UNL     1       2.418   1.485   5.375  1.00  0.00    -0.475 OA
ATOM     18  C   UNL     1       3.235   0.299   5.535  1.00  0.00     0.314 C 
BRANCH   9  19
ATOM     19  C   UNL     1       0.326  -0.303   1.180  1.00  0.00     0.034 C 
ATOM     20  C   UNL     1       1.243  -0.341  -0.036  1.00  0.00     0.009 C 
ENDBRANCH   9  19
BRANCH  18  21
ATOM     21  C   UNL     1       4.693   0.638   5.174  1.00  0.00     0.429 C 
ATOM     22  F   UNL     1       5.223   1.493   6.083  1.00  0.00    -0.167 F 
ATOM     23  F   UNL     1       5.495  -0.454   5.163  1.00  0.00    -0.167 F 
ATOM     24  F   UNL     1       4.808   1.217   3.958  1.00  0.00    -0.167 F 
ENDBRANCH  18  21
ENDBRANCH   5   8
ENDBRANCH   3   4
ENDBRANCH   2   3
ENDBRANCH   1   2
BRANCH   1  25
ATOM     25  N   UNL     1       5.372  -3.842   9.712  1.00  0.00    -0.352 N 
ATOM     26  C   UNL     1       5.892  -3.976  10.978  1.00  0.00     0.251 C 
ATOM     27  H   UNL     1       6.037  -3.882   8.988  1.00  0.00     0.163 HD
ATOM     28  O   UNL     1       7.108  -3.912  11.141  1.00  0.00    -0.269 OA
BRANCH  26  29
ATOM     29  C   UNL     1       4.998  -4.177  12.138  1.00  0.00     0.039 A 
ATOM     30  C   UNL     1       3.896  -5.026  12.041  1.00  0.00     0.014 A 
ATOM     31  C   UNL     1       5.266  -3.516  13.341  1.00  0.00     0.014 A 
ATOM     32  C   UNL     1       2.961  -5.060  13.067  1.00  0.00     0.010 A 
ATOM     33  C   UNL     1       4.376  -3.635  14.414  1.00  0.00     0.010 A 
ATOM     34  C   UNL     1       3.187  -4.367  14.267  1.00  0.00    -0.014 A 
BRANCH  34  35
ATOM     35  C   UNL     1       2.158  -4.425  15.338  1.00  0.00     0.031 A 
ATOM     36  C   UNL     1       1.431  -3.180  15.777  1.00  0.00     0.074 A 
ATOM     37  C   UNL     1       1.818  -5.623  15.854  1.00  0.00     0.049 A 
ATOM     38  N   UNL     1       0.482  -3.054  16.669  1.00  0.00    -0.248 NA
ATOM     39  C   UNL     1       1.819  -1.913  15.137  1.00  0.00     0.031 C 
ATOM     40  C   UNL     1       2.444  -6.900  15.498  1.00  0.00     0.029 A 
ATOM     41  N   UNL     1       0.843  -5.974  16.752  1.00  0.00    -0.354 N 
ATOM     42  C   UNL     1       0.176  -1.698  16.715  1.00  0.00     0.074 A 
ATOM     43  C   UNL     1       1.058  -1.037  15.778  1.00  0.00     0.031 C 
ATOM     44  C   UNL     1       1.788  -7.898  16.108  1.00  0.00     0.029 A 
ATOM     45  C   UNL     1       0.745  -7.330  16.956  1.00  0.00     0.049 A 
ATOM     46  H   UNL     1       0.268  -5.317  17.208  1.00  0.00     0.167 HD
ATOM     47  C   UNL     1      -0.762  -1.066  17.460  1.00  0.00     0.037 A 
ATOM     48  C   UNL     1      -0.084  -8.042  17.743  1.00  0.00     0.037 A 
ATOM     49  C   UNL     1      -1.658  -1.735  18.368  1.00  0.00     0.049 A 
ATOM     50  C   UNL     1      -1.096  -7.315  18.578  1.00  0.00     0.074 A 
ATOM     51  C   UNL     1      -2.648  -1.184  19.162  1.00  0.00     0.029 A 
ATOM     52  N   UNL     1      -1.680  -3.104  18.594  1.00  0.00    -0.354 N 
ATOM     53  N   UNL     1      -1.352  -6.029  18.624  1.00  0.00    -0.248 NA
ATOM     54  C   UNL     1      -1.919  -8.129  19.482  1.00  0.00     0.031 C 
ATOM     55  C   UNL     1      -3.248  -2.215  19.893  1.00  0.00     0.029 A 
ATOM     56  C   UNL     1      -2.657  -3.414  19.526  1.00  0.00     0.049 A 
ATOM     57  H   UNL     1      -1.089  -3.758  18.157  1.00  0.00     0.167 HD
ATOM     58  C   UNL     1      -2.363  -5.878  19.564  1.00  0.00     0.074 A 
ATOM     59  C   UNL     1      -2.691  -7.207  20.043  1.00  0.00     0.031 C 
ATOM     60  C   UNL     1      -2.961  -4.742  19.997  1.00  0.00     0.037 A 
BRANCH  47  61
ATOM     61  C   UNL     1      -0.865   0.429  17.337  1.00  0.00     0.058 A 
ATOM     62  C   UNL     1      -1.438   1.037  16.209  1.00  0.00     0.135 A 
ATOM     63  C   UNL     1      -0.431   1.262  18.381  1.00  0.00     0.135 A 
ATOM     64  F   UNL     1      -1.852   0.288  15.174  1.00  0.00    -0.206 F 
ATOM     65  C   UNL     1      -1.561   2.420  16.112  1.00  0.00     0.059 A 
ATOM     66  C   UNL     1      -0.564   2.647  18.315  1.00  0.00     0.059 A 
ATOM     67  F   UNL     1       0.126   0.732  19.481  1.00  0.00    -0.206 F 
ATOM     68  C   UNL     1      -1.121   3.216  17.171  1.00  0.00     0.060 A 
BRANCH  68  69
ATOM     69  S   UNL     1      -1.295   5.008  17.031  1.00  0.00     0.124 S 
ATOM     70  O   UNL     1      -0.267   5.324  16.044  1.00  0.00    -0.237 OA
ATOM     71  O   UNL     1      -2.675   5.153  16.577  1.00  0.00    -0.237 OA
ATOM     72  O   UNL     1      -1.030   5.483  18.386  1.00  0.00    -0.744 OA
ENDBRANCH  68  69
ENDBRANCH  47  61
BRANCH  48  73
ATOM     73  C   UNL     1       0.023  -9.523  17.773  1.00  0.00     0.058 A 
ATOM     74  C   UNL     1      -0.965 -10.330  17.191  1.00  0.00     0.135 A 
ATOM     75  C   UNL     1       1.140 -10.159  18.338  1.00  0.00     0.135 A 
ATOM     76  F   UNL     1      -2.054  -9.768  16.645  1.00  0.00    -0.206 F 
ATOM     77  C   UNL     1      -0.849 -11.716  17.164  1.00  0.00     0.059 A 
ATOM     78  C   UNL     1       1.290 -11.541  18.301  1.00  0.00     0.059 A 
ATOM     79  F   UNL     1       2.119  -9.429  18.894  1.00  0.00    -0.206 F 
ATOM     80  C   UNL     1       0.287 -12.312  17.715  1.00  0.00     0.060 A 
BRANCH  80  81
ATOM     81  S   UNL     1       0.467 -14.105  17.604  1.00  0.00     0.124 S 
ATOM     82  O   UNL     1      -0.487 -14.558  18.609  1.00  0.00    -0.237 OA
ATOM     83  O   UNL     1       0.104 -14.365  16.214  1.00  0.00    -0.237 OA
ATOM     84  O   UNL     1       1.875 -14.321  17.925  1.00  0.00    -0.744 OA
ENDBRANCH  80  81
ENDBRANCH  48  73
BRANCH  60  85
ATOM     85  C   UNL     1      -4.027  -4.883  21.044  1.00  0.00     0.058 A 
ATOM     86  C   UNL     1      -3.701  -5.133  22.385  1.00  0.00     0.135 A 
ATOM     87  C   UNL     1      -5.380  -4.707  20.714  1.00  0.00     0.135 A 
ATOM     88  F   UNL     1      -2.421  -5.317  22.747  1.00  0.00    -0.206 F 
ATOM     89  C   UNL     1      -4.684  -5.218  23.365  1.00  0.00     0.059 A 
ATOM     90  C   UNL     1      -6.377  -4.766  21.682  1.00  0.00     0.059 A 
ATOM     91  F   UNL     1      -5.740  -4.458  19.445  1.00  0.00    -0.206 F 
ATOM     92  C   UNL     1      -6.019  -5.030  23.004  1.00  0.00     0.060 A 
BRANCH  92  93
ATOM     93  S   UNL     1      -7.280  -5.099  24.294  1.00  0.00     0.124 S 
ATOM     94  O   UNL     1      -7.343  -6.532  24.565  1.00  0.00    -0.237 OA
ATOM     95  O   UNL     1      -6.693  -4.279  25.349  1.00  0.00    -0.237 OA
ATOM     96  O   UNL     1      -8.459  -4.529  23.648  1.00  0.00    -0.744 OA
ENDBRANCH  92  93
ENDBRANCH  60  85
ENDBRANCH  34  35
ENDBRANCH  26  29
ENDBRANCH   1  25
TORSDOF 15
