REMARK SMILES Cc1cccc(CNC(=O)N[C@@H](CC2=c3ccccc3=NC2)C(=O)NCCCNC(=O)c2ccc(-c3c4nc(c(-c5c(F)cc(S(=O)(=O)[O-])cc5F)c5ccc([nH]5)c(-c5c(F)cc(S(=O)(=O)[O-])cc5F)c5nc(c(-c6c(F)cc(S(=O)(=O)[O-])cc6F)c6ccc3[nH]6)C=C5)C=C4)cc2)c1
REMARK SMILES IDX 27 1 26 2 25 3 23 4 24 5 12 7 11 8 8 9 9 10 10 12 7 14 6 15
REMARK SMILES IDX 1 16 2 17 3 18 98 19 4 20 5 21 13 22 14 23 15 24 22 25 16 26
REMARK SMILES IDX 20 27 21 28 17 29 19 30 18 31 28 32 29 33 30 34 31 36 32 37
REMARK SMILES IDX 33 38 97 39 34 40 96 41 35 42 36 43 37 44 90 45 38 46 95 47
REMARK SMILES IDX 89 48 91 49 39 50 94 51 88 52 87 53 40 55 74 56 53 57 73 58
REMARK SMILES IDX 54 59 57 60 72 61 92 62 55 63 56 64 71 66 93 67 58 68 41 69
REMARK SMILES IDX 42 70 51 71 43 72 44 73 50 74 52 75 45 76 46 77 47 78 48 79
REMARK SMILES IDX 49 80 75 81 76 82 85 83 77 84 78 85 84 86 86 87 79 88 80 89
REMARK SMILES IDX 81 90 82 91 83 92 59 93 60 94 69 95 61 96 62 97 68 98 70 99
REMARK SMILES IDX 63 100 64 101 65 102 66 103 67 104
REMARK H PARENT 25 6 8 11 11 13 29 35 91 54 57 65
REMARK Flexibility Score: inf
ROOT
ATOM      1  C   UNL     1      -8.238   2.154   0.504  1.00  0.00     0.042 C 
ENDROOT
BRANCH   1   2
ATOM      2  C   UNL     1      -6.943   2.620   1.153  1.00  0.00     0.117 C 
BRANCH   2   3
ATOM      3  N   UNL     1      -5.955   1.570   1.336  1.00  0.00    -0.354 N 
ATOM      4  C   UNL     1      -4.601   1.624   1.486  1.00  0.00     0.242 C 
ATOM      5  O   UNL     1      -4.060   0.604   1.937  1.00  0.00    -0.273 OA
ATOM      6  H   UNL     1      -6.330   0.660   1.356  1.00  0.00     0.163 HD
BRANCH   4   7
ATOM      7  C   UNL     1      -3.727   2.885   1.231  1.00  0.00     0.177 C 
BRANCH   7   8
ATOM      8  N   UNL     1      -4.051   3.571  -0.019  1.00  0.00    -0.326 N 
ATOM      9  N   UNL     1      -2.561   2.571  -1.542  1.00  0.00    -0.334 N 
ATOM     10  C   UNL     1      -3.705   3.218  -1.270  1.00  0.00     0.315 C 
ATOM     11  H   UNL     1      -2.603   1.970  -2.321  1.00  0.00     0.165 HD
ATOM     12  O   UNL     1      -4.465   3.498  -2.196  1.00  0.00    -0.249 OA
ATOM     13  H   UNL     1      -4.588   4.392   0.065  1.00  0.00     0.166 HD
BRANCH   9  14
ATOM     14  C   UNL     1      -1.272   2.612  -0.877  1.00  0.00     0.153 C 
BRANCH  14  15
ATOM     15  C   UNL     1      -0.696   1.248  -0.578  1.00  0.00    -0.028 A 
ATOM     16  C   UNL     1       2.759  -0.282   0.017  1.00  0.00     0.044 C 
ATOM     17  C   UNL     1       1.274  -0.134  -0.123  1.00  0.00    -0.051 A 
ATOM     18  C   UNL     1       0.449  -1.256   0.006  1.00  0.00     0.003 A 
ATOM     19  C   UNL     1       0.694   1.109  -0.417  1.00  0.00     0.009 A 
ATOM     20  C   UNL     1      -0.932  -1.131  -0.126  1.00  0.00     0.001 A 
ATOM     21  C   UNL     1      -1.501   0.112  -0.408  1.00  0.00     0.005 A 
ENDBRANCH  14  15
ENDBRANCH   9  14
ENDBRANCH   7   8
BRANCH   7  22
ATOM     22  C   UNL     1      -3.533   3.870   2.413  1.00  0.00     0.068 C 
BRANCH  22  23
ATOM     23  C   UNL     1      -4.734   4.220   3.221  1.00  0.00    -0.037 C 
ATOM     24  C   UNL     1      -5.344   3.431   4.101  1.00  0.00     0.001 A 
ATOM     25  C   UNL     1      -5.482   5.505   3.060  1.00  0.00     0.174 C 
ATOM     26  C   UNL     1      -5.097   2.111   4.583  1.00  0.00     0.010 A 
ATOM     27  C   UNL     1      -6.624   4.126   4.313  1.00  0.00     0.065 A 
ATOM     28  N   UNL     1      -6.751   5.312   3.795  1.00  0.00    -0.280 NA
ATOM     29  C   UNL     1      -6.123   1.428   5.109  1.00  0.00     0.001 A 
ATOM     30  C   UNL     1      -7.693   3.321   4.935  1.00  0.00     0.028 A 
ATOM     31  C   UNL     1      -7.440   2.028   5.205  1.00  0.00     0.002 A 
ENDBRANCH  22  23
ENDBRANCH   7  22
ENDBRANCH   4   7
ENDBRANCH   2   3
ENDBRANCH   1   2
BRANCH   1  32
ATOM     32  C   UNL     1      -9.169   1.435   1.483  1.00  0.00     0.118 C 
BRANCH  32  33
ATOM     33  N   UNL     1     -10.513   2.028   1.489  1.00  0.00    -0.352 N 
ATOM     34  C   UNL     1     -11.741   1.456   1.764  1.00  0.00     0.251 C 
ATOM     35  H   UNL     1     -10.544   2.985   1.261  1.00  0.00     0.163 HD
ATOM     36  O   UNL     1     -12.787   2.094   1.698  1.00  0.00    -0.269 OA
BRANCH  34  37
ATOM     37  C   UNL     1     -11.755   0.052   2.193  1.00  0.00     0.039 A 
ATOM     38  C   UNL     1     -12.098  -0.230   3.519  1.00  0.00     0.014 A 
ATOM     39  C   UNL     1     -11.114  -0.879   1.385  1.00  0.00     0.014 A 
ATOM     40  C   UNL     1     -11.584  -1.376   4.107  1.00  0.00     0.010 A 
ATOM     41  C   UNL     1     -10.482  -1.928   2.010  1.00  0.00     0.010 A 
ATOM     42  C   UNL     1     -10.680  -2.144   3.381  1.00  0.00    -0.014 A 
BRANCH  42  43
ATOM     43  C   UNL     1      -9.873  -3.199   3.973  1.00  0.00     0.031 A 
ATOM     44  C   UNL     1     -10.238  -4.597   3.667  1.00  0.00     0.074 A 
ATOM     45  C   UNL     1      -8.790  -2.879   4.713  1.00  0.00     0.049 A 
ATOM     46  N   UNL     1      -9.867  -5.627   4.343  1.00  0.00    -0.248 NA
ATOM     47  C   UNL     1     -11.146  -4.926   2.571  1.00  0.00     0.031 C 
ATOM     48  C   UNL     1      -7.705  -3.763   5.126  1.00  0.00     0.029 A 
ATOM     49  N   UNL     1      -8.557  -1.683   5.413  1.00  0.00    -0.354 N 
ATOM     50  C   UNL     1     -10.278  -6.751   3.655  1.00  0.00     0.074 A 
ATOM     51  C   UNL     1     -11.116  -6.258   2.591  1.00  0.00     0.031 C 
ATOM     52  C   UNL     1      -7.075  -3.208   6.175  1.00  0.00     0.029 A 
ATOM     53  C   UNL     1      -7.853  -2.044   6.579  1.00  0.00     0.049 A 
ATOM     54  H   UNL     1      -8.830  -0.776   5.144  1.00  0.00     0.167 HD
ATOM     55  C   UNL     1      -9.754  -7.966   3.984  1.00  0.00     0.037 A 
ATOM     56  C   UNL     1      -8.408  -1.903   7.820  1.00  0.00     0.037 A 
ATOM     57  C   UNL     1      -8.918  -7.846   5.178  1.00  0.00     0.049 A 
ATOM     58  C   UNL     1      -8.574  -3.209   8.562  1.00  0.00     0.074 A 
ATOM     59  C   UNL     1      -7.556  -7.654   5.344  1.00  0.00     0.029 A 
ATOM     60  N   UNL     1      -9.509  -7.531   6.399  1.00  0.00    -0.354 N 
ATOM     61  N   UNL     1      -8.635  -4.382   7.992  1.00  0.00    -0.248 NA
ATOM     62  C   UNL     1      -8.677  -3.283  10.014  1.00  0.00     0.031 C 
ATOM     63  C   UNL     1      -7.340  -7.131   6.645  1.00  0.00     0.029 A 
ATOM     64  C   UNL     1      -8.563  -7.049   7.288  1.00  0.00     0.049 A 
ATOM     65  H   UNL     1     -10.466  -7.636   6.603  1.00  0.00     0.167 HD
ATOM     66  C   UNL     1      -8.799  -5.348   8.953  1.00  0.00     0.074 A 
ATOM     67  C   UNL     1      -8.789  -4.608  10.203  1.00  0.00     0.031 C 
ATOM     68  C   UNL     1      -8.937  -6.673   8.647  1.00  0.00     0.037 A 
BRANCH  55  69
ATOM     69  C   UNL     1      -9.730  -9.133   3.011  1.00  0.00     0.058 A 
ATOM     70  C   UNL     1      -8.638 -10.026   2.986  1.00  0.00     0.135 A 
ATOM     71  C   UNL     1     -10.696  -9.368   2.010  1.00  0.00     0.135 A 
ATOM     72  F   UNL     1      -7.701 -10.010   3.943  1.00  0.00    -0.206 F 
ATOM     73  C   UNL     1      -8.450 -10.970   1.972  1.00  0.00     0.059 A 
ATOM     74  C   UNL     1     -10.498 -10.254   0.946  1.00  0.00     0.059 A 
ATOM     75  F   UNL     1     -11.902  -8.787   2.056  1.00  0.00    -0.206 F 
ATOM     76  C   UNL     1      -9.362 -11.047   0.928  1.00  0.00     0.060 A 
BRANCH  76  77
ATOM     77  S   UNL     1      -9.058 -12.202  -0.423  1.00  0.00     0.124 S 
ATOM     78  O   UNL     1      -7.700 -11.854  -0.830  1.00  0.00    -0.237 OA
ATOM     79  O   UNL     1      -9.211 -13.491   0.243  1.00  0.00    -0.237 OA
ATOM     80  O   UNL     1     -10.097 -11.871  -1.394  1.00  0.00    -0.744 OA
ENDBRANCH  76  77
ENDBRANCH  55  69
BRANCH  56  81
ATOM     81  C   UNL     1      -9.299  -0.723   7.997  1.00  0.00     0.058 A 
ATOM     82  C   UNL     1      -8.728   0.549   8.173  1.00  0.00     0.135 A 
ATOM     83  C   UNL     1     -10.651  -0.775   7.634  1.00  0.00     0.135 A 
ATOM     84  F   UNL     1      -7.435   0.659   8.522  1.00  0.00    -0.206 F 
ATOM     85  C   UNL     1      -9.423   1.718   7.860  1.00  0.00     0.059 A 
ATOM     86  C   UNL     1     -11.353   0.377   7.276  1.00  0.00     0.059 A 
ATOM     87  F   UNL     1     -11.263  -1.959   7.487  1.00  0.00    -0.206 F 
ATOM     88  C   UNL     1     -10.701   1.608   7.317  1.00  0.00     0.060 A 
BRANCH  88  89
ATOM     89  S   UNL     1     -11.440   3.024   6.466  1.00  0.00     0.124 S 
ATOM     90  O   UNL     1     -10.784   4.165   7.098  1.00  0.00    -0.237 OA
ATOM     91  O   UNL     1     -11.036   2.759   5.088  1.00  0.00    -0.237 OA
ATOM     92  O   UNL     1     -12.860   2.871   6.759  1.00  0.00    -0.744 OA
ENDBRANCH  88  89
ENDBRANCH  56  81
BRANCH  68  93
ATOM     93  C   UNL     1      -9.360  -7.773   9.601  1.00  0.00     0.058 A 
ATOM     94  C   UNL     1     -10.159  -7.572  10.740  1.00  0.00     0.135 A 
ATOM     95  C   UNL     1      -9.089  -9.130   9.286  1.00  0.00     0.135 A 
ATOM     96  F   UNL     1     -10.580  -6.351  11.096  1.00  0.00    -0.206 F 
ATOM     97  C   UNL     1     -10.613  -8.628  11.534  1.00  0.00     0.059 A 
ATOM     98  C   UNL     1      -9.589 -10.198  10.024  1.00  0.00     0.059 A 
ATOM     99  F   UNL     1      -8.341  -9.470   8.226  1.00  0.00    -0.206 F 
ATOM    100  C   UNL     1     -10.334  -9.938  11.162  1.00  0.00     0.060 A 
BRANCH 100 101
ATOM    101  S   UNL     1     -11.011 -11.308  12.115  1.00  0.00     0.124 S 
ATOM    102  O   UNL     1      -9.936 -11.557  13.070  1.00  0.00    -0.237 OA
ATOM    103  O   UNL     1     -12.234 -10.741  12.675  1.00  0.00    -0.237 OA
ATOM    104  O   UNL     1     -11.216 -12.344  11.107  1.00  0.00    -0.744 OA
ENDBRANCH 100 101
ENDBRANCH  68  93
ENDBRANCH  42  43
ENDBRANCH  34  37
ENDBRANCH  32  33
ENDBRANCH   1  32
TORSDOF 18
