REMARK SMILES O=C(NCCCNC(=O)[C@H]1CC=CC[C@H]1C(=O)N[C@H]1CCCOc2c1ccc1ccccc21)c1ccc(-c2c3nc(c(-c4c(F)cc(S(=O)(=O)[O-])cc4F)c4ccc([nH]4)c(-c4c(F)cc(S(=O)(=O)[O-])cc4F)c4nc(c(-c5c(F)cc(S(=O)(=O)[O-])cc5F)c5ccc2[nH]5)C=C4)C=C3)cc1
REMARK SMILES IDX 6 1 5 2 4 3 3 4 1 5 2 6 34 8 35 9 99 10 36 11 98 12 37 13
REMARK SMILES IDX 38 14 39 15 92 16 40 17 97 18 91 19 93 20 41 21 96 22 90 23
REMARK SMILES IDX 89 24 42 26 76 27 55 28 75 29 56 30 59 31 74 32 94 33 57 34
REMARK SMILES IDX 58 35 73 37 95 38 60 39 43 40 44 41 53 42 45 43 46 44 52 45
REMARK SMILES IDX 54 46 47 47 48 48 49 49 50 50 51 51 77 52 78 53 87 54 79 55
REMARK SMILES IDX 80 56 86 57 88 58 81 59 82 60 83 61 84 62 85 63 61 64 62 65
REMARK SMILES IDX 71 66 63 67 64 68 70 69 72 70 65 71 66 72 67 73 68 74 69 75
REMARK SMILES IDX 7 76 8 77 9 79 10 80 11 81 15 82 12 83 14 84 13 85 16 86
REMARK SMILES IDX 17 87 18 88 19 90 20 91 21 92 25 94 24 95 26 96 33 97 27 98
REMARK SMILES IDX 28 99 32 100 29 101 31 102 30 103 23 104 22 105
REMARK H PARENT 3 7 93 25 59 36 7 78 18 89
REMARK Flexibility Score: 90.00
ROOT
ATOM      1  C   UNL     1       3.989   1.430  -3.287  1.00  0.00     0.117 C 
ENDROOT
BRANCH   1   2
ATOM      2  C   UNL     1       4.509   0.359  -2.348  1.00  0.00     0.042 C 
BRANCH   2   3
ATOM      3  C   UNL     1       4.194   0.645  -0.896  1.00  0.00     0.118 C 
BRANCH   3   4
ATOM      4  N   UNL     1       2.770   0.615  -0.587  1.00  0.00    -0.352 N 
ATOM      5  O   UNL     1       0.835  -0.150   0.255  1.00  0.00    -0.269 OA
ATOM      6  C   UNL     1       2.045  -0.260   0.186  1.00  0.00     0.251 C 
ATOM      7  H   UNL     1       2.243   1.338  -0.998  1.00  0.00     0.163 HD
BRANCH   6   8
ATOM      8  C   UNL     1       2.744  -1.357   0.887  1.00  0.00     0.039 A 
ATOM      9  C   UNL     1       2.240  -2.650   0.751  1.00  0.00     0.014 A 
ATOM     10  C   UNL     1       3.890  -1.118   1.648  1.00  0.00     0.014 A 
ATOM     11  C   UNL     1       2.921  -3.713   1.339  1.00  0.00     0.010 A 
ATOM     12  C   UNL     1       4.625  -2.190   2.143  1.00  0.00     0.010 A 
ATOM     13  C   UNL     1       4.133  -3.496   2.017  1.00  0.00    -0.014 A 
BRANCH  13  14
ATOM     14  C   UNL     1       4.843  -4.633   2.652  1.00  0.00     0.031 A 
ATOM     15  C   UNL     1       4.982  -4.677   4.150  1.00  0.00     0.074 A 
ATOM     16  C   UNL     1       5.328  -5.629   1.883  1.00  0.00     0.049 A 
ATOM     17  N   UNL     1       5.499  -5.614   4.900  1.00  0.00    -0.248 NA
ATOM     18  C   UNL     1       4.497  -3.510   4.909  1.00  0.00     0.031 C 
ATOM     19  C   UNL     1       5.297  -5.658   0.418  1.00  0.00     0.029 A 
ATOM     20  N   UNL     1       5.919  -6.820   2.223  1.00  0.00    -0.354 N 
ATOM     21  C   UNL     1       5.399  -5.150   6.206  1.00  0.00     0.074 A 
ATOM     22  C   UNL     1       4.842  -3.820   6.149  1.00  0.00     0.031 C 
ATOM     23  C   UNL     1       5.787  -6.833  -0.011  1.00  0.00     0.029 A 
ATOM     24  C   UNL     1       6.193  -7.629   1.143  1.00  0.00     0.049 A 
ATOM     25  H   UNL     1       6.127  -7.073   3.151  1.00  0.00     0.167 HD
ATOM     26  C   UNL     1       5.702  -5.796   7.355  1.00  0.00     0.037 A 
ATOM     27  C   UNL     1       6.696  -8.879   1.095  1.00  0.00     0.037 A 
ATOM     28  C   UNL     1       6.207  -7.140   7.401  1.00  0.00     0.049 A 
ATOM     29  C   UNL     1       7.011  -9.581   2.390  1.00  0.00     0.074 A 
ATOM     30  C   UNL     1       6.507  -7.905   8.513  1.00  0.00     0.029 A 
ATOM     31  N   UNL     1       6.470  -7.922   6.287  1.00  0.00    -0.354 N 
ATOM     32  N   UNL     1       6.854  -9.147   3.618  1.00  0.00    -0.248 NA
ATOM     33  C   UNL     1       7.566 -10.939   2.299  1.00  0.00     0.031 C 
ATOM     34  C   UNL     1       6.985  -9.140   8.070  1.00  0.00     0.029 A 
ATOM     35  C   UNL     1       6.940  -9.159   6.684  1.00  0.00     0.049 A 
ATOM     36  H   UNL     1       6.341  -7.639   5.353  1.00  0.00     0.167 HD
ATOM     37  C   UNL     1       7.265 -10.186   4.445  1.00  0.00     0.074 A 
ATOM     38  C   UNL     1       7.669 -11.274   3.579  1.00  0.00     0.031 C 
ATOM     39  C   UNL     1       7.307 -10.235   5.798  1.00  0.00     0.037 A 
BRANCH  26  40
ATOM     40  C   UNL     1       5.460  -5.082   8.654  1.00  0.00     0.058 A 
ATOM     41  C   UNL     1       4.160  -4.871   9.139  1.00  0.00     0.135 A 
ATOM     42  C   UNL     1       6.535  -4.677   9.461  1.00  0.00     0.135 A 
ATOM     43  F   UNL     1       3.096  -5.218   8.396  1.00  0.00    -0.206 F 
ATOM     44  C   UNL     1       3.932  -4.280  10.376  1.00  0.00     0.059 A 
ATOM     45  C   UNL     1       6.331  -4.107  10.715  1.00  0.00     0.059 A 
ATOM     46  F   UNL     1       7.798  -4.848   9.040  1.00  0.00    -0.206 F 
ATOM     47  C   UNL     1       5.025  -3.911  11.162  1.00  0.00     0.060 A 
BRANCH  47  48
ATOM     48  S   UNL     1       4.707  -3.197  12.789  1.00  0.00     0.124 S 
ATOM     49  O   UNL     1       4.149  -1.896  12.433  1.00  0.00    -0.237 OA
ATOM     50  O   UNL     1       3.768  -4.152  13.368  1.00  0.00    -0.237 OA
ATOM     51  O   UNL     1       6.027  -3.163  13.411  1.00  0.00    -0.744 OA
ENDBRANCH  47  48
ENDBRANCH  26  40
BRANCH  27  52
ATOM     52  C   UNL     1       6.887  -9.562  -0.215  1.00  0.00     0.058 A 
ATOM     53  C   UNL     1       6.089 -10.655  -0.586  1.00  0.00     0.135 A 
ATOM     54  C   UNL     1       7.864  -9.131  -1.127  1.00  0.00     0.135 A 
ATOM     55  F   UNL     1       5.142 -11.108   0.250  1.00  0.00    -0.206 F 
ATOM     56  C   UNL     1       6.264 -11.309  -1.802  1.00  0.00     0.059 A 
ATOM     57  C   UNL     1       8.042  -9.753  -2.359  1.00  0.00     0.059 A 
ATOM     58  F   UNL     1       8.643  -8.080  -0.830  1.00  0.00    -0.206 F 
ATOM     59  C   UNL     1       7.245 -10.850  -2.683  1.00  0.00     0.060 A 
BRANCH  59  60
ATOM     60  S   UNL     1       7.444 -11.689  -4.270  1.00  0.00     0.124 S 
ATOM     61  O   UNL     1       8.047 -12.953  -3.862  1.00  0.00    -0.237 OA
ATOM     62  O   UNL     1       6.069 -11.764  -4.752  1.00  0.00    -0.237 OA
ATOM     63  O   UNL     1       8.315 -10.788  -5.020  1.00  0.00    -0.744 OA
ENDBRANCH  59  60
ENDBRANCH  27  52
BRANCH  39  64
ATOM     64  C   UNL     1       7.778 -11.504   6.444  1.00  0.00     0.058 A 
ATOM     65  C   UNL     1       9.141 -11.828   6.502  1.00  0.00     0.135 A 
ATOM     66  C   UNL     1       6.872 -12.323   7.138  1.00  0.00     0.135 A 
ATOM     67  F   UNL     1      10.043 -11.077   5.851  1.00  0.00    -0.206 F 
ATOM     68  C   UNL     1       9.593 -12.917   7.237  1.00  0.00     0.059 A 
ATOM     69  C   UNL     1       7.304 -13.403   7.898  1.00  0.00     0.059 A 
ATOM     70  F   UNL     1       5.559 -12.044   7.120  1.00  0.00    -0.206 F 
ATOM     71  C   UNL     1       8.668 -13.689   7.945  1.00  0.00     0.060 A 
BRANCH  71  72
ATOM     72  S   UNL     1       9.284 -15.037   8.975  1.00  0.00     0.124 S 
ATOM     73  O   UNL     1       9.711 -16.005   7.970  1.00  0.00    -0.237 OA
ATOM     74  O   UNL     1      10.354 -14.389   9.726  1.00  0.00    -0.237 OA
ATOM     75  O   UNL     1       8.118 -15.425   9.763  1.00  0.00    -0.744 OA
ENDBRANCH  71  72
ENDBRANCH  39  64
ENDBRANCH  13  14
ENDBRANCH   6   8
ENDBRANCH   3   4
ENDBRANCH   2   3
ENDBRANCH   1   2
BRANCH   1  76
ATOM     76  N   UNL     1       4.638   2.723  -3.179  1.00  0.00    -0.356 N 
ATOM     77  C   UNL     1       5.795   2.993  -3.845  1.00  0.00     0.224 C 
ATOM     78  H   UNL     1       4.234   3.419  -2.611  1.00  0.00     0.163 HD
ATOM     79  O   UNL     1       6.717   2.176  -3.861  1.00  0.00    -0.275 OA
BRANCH  77  80
ATOM     80  C   UNL     1       5.813   4.224  -4.775  1.00  0.00     0.095 C 
ATOM     81  C   UNL     1       5.920   3.517  -6.176  1.00  0.00     0.041 C 
ATOM     82  C   UNL     1       4.631   5.221  -4.920  1.00  0.00     0.095 C 
ATOM     83  C   UNL     1       4.584   2.943  -6.608  1.00  0.00    -0.030 C 
ATOM     84  C   UNL     1       3.273   4.558  -5.189  1.00  0.00     0.041 C 
ATOM     85  C   UNL     1       3.405   3.388  -6.137  1.00  0.00    -0.030 C 
BRANCH  82  86
ATOM     86  C   UNL     1       4.531   6.649  -4.357  1.00  0.00     0.224 C 
ATOM     87  O   UNL     1       4.386   7.570  -5.186  1.00  0.00    -0.275 OA
ATOM     88  N   UNL     1       4.522   7.127  -3.108  1.00  0.00    -0.349 N 
ATOM     89  H   UNL     1       4.401   8.104  -3.142  1.00  0.00     0.164 HD
BRANCH  88  90
ATOM     90  C   UNL     1       4.630   6.711  -1.700  1.00  0.00     0.116 C 
BRANCH  90  91
ATOM     91  C   UNL     1       3.243   6.492  -1.091  1.00  0.00     0.033 C 
BRANCH  91  92
ATOM     92  C   UNL     1       2.783   5.059  -1.087  1.00  0.00     0.044 CG0
ATOM     93  G   UNL     1       3.445   4.257   0.019  1.00  0.00     0.000 G0
ENDBRANCH  91  92
ENDBRANCH  90  91
BRANCH  90  94
ATOM     94  C   UNL     1       5.777   5.772  -1.473  1.00  0.00     0.017 A 
ATOM     95  C   UNL     1       5.768   4.644  -0.647  1.00  0.00     0.132 A 
ATOM     96  C   UNL     1       6.987   6.114  -2.115  1.00  0.00     0.010 A 
ATOM     97  C   UNL     1       6.891   3.755  -0.638  1.00  0.00     0.024 A 
ATOM     98  C   UNL     1       8.089   5.272  -2.107  1.00  0.00     0.009 A 
ATOM     99  C   UNL     1       8.021   4.057  -1.440  1.00  0.00    -0.015 A 
ATOM    100  C   UNL     1       6.940   2.547   0.090  1.00  0.00     0.012 A 
ATOM    101  C   UNL     1       9.070   3.139  -1.590  1.00  0.00     0.009 A 
ATOM    102  C   UNL     1       7.970   1.616  -0.098  1.00  0.00     0.001 A 
ATOM    103  C   UNL     1       9.023   1.904  -0.956  1.00  0.00     0.001 A 
BRANCH  95 104
ATOM    104  O   UNL     1       4.819   4.474   0.322  1.00  0.00    -0.493 OA
BRANCH 104 105
ATOM    105  C   UNL     1       3.445   4.257   0.019  1.00  0.00     0.229 CG0
ATOM    106  G   UNL     1       2.783   5.059  -1.087  1.00  0.00     0.000 G0
ENDBRANCH 104 105
ENDBRANCH  95 104
ENDBRANCH  90  94
ENDBRANCH  88  90
ENDBRANCH  82  86
ENDBRANCH  77  80
ENDBRANCH   1  76
TORSDOF 15
