REMARK SMILES C[C@H](c1ccccc1)N1C(=O)c2ccc(C(=O)NCCCNC(=O)c3ccc(-c4c5nc(c(-c6c(F)cc(S(=O)(=O)[O-])cc6F)c6ccc([nH]6)c(-c6c(F)cc(S(=O)(=O)[O-])cc6F)c6nc(c(-c7c(F)cc(S(=O)(=O)[O-])cc7F)c7ccc4[nH]7)C=C6)C=C5)cc3)cc2C1=O
REMARK SMILES IDX 20 1 19 2 18 3 16 4 17 5 15 7 9 8 10 9 93 10 11 11 12 12
REMARK SMILES IDX 92 13 94 14 13 15 91 16 14 17 2 18 1 19 3 20 4 21 8 22 5 23
REMARK SMILES IDX 7 24 6 25 21 26 22 27 23 28 24 30 25 31 26 32 90 33 27 34
REMARK SMILES IDX 89 35 28 36 29 37 30 38 83 39 31 40 88 41 82 42 84 43 32 44
REMARK SMILES IDX 87 45 81 46 80 47 33 49 67 50 46 51 66 52 47 53 50 54 65 55
REMARK SMILES IDX 85 56 48 57 49 58 64 60 86 61 51 62 34 63 35 64 44 65 36 66
REMARK SMILES IDX 37 67 43 68 45 69 38 70 39 71 40 72 41 73 42 74 68 75 69 76
REMARK SMILES IDX 78 77 70 78 71 79 77 80 79 81 72 82 73 83 74 84 75 85 76 86
REMARK SMILES IDX 52 87 53 88 62 89 54 90 55 91 61 92 63 93 56 94 57 95 58 96
REMARK SMILES IDX 59 97 60 98
REMARK H PARENT 18 6 22 29 84 48 50 59
REMARK Flexibility Score: inf
ROOT
ATOM      1  C   UNL     1      -7.746  -0.874   4.589  1.00  0.00     0.042 C 
ENDROOT
BRANCH   1   2
ATOM      2  C   UNL     1      -7.275  -1.396   3.234  1.00  0.00     0.118 C 
BRANCH   2   3
ATOM      3  N   UNL     1      -7.804  -0.647   2.105  1.00  0.00    -0.352 N 
ATOM      4  C   UNL     1      -7.227   0.217   1.214  1.00  0.00     0.251 C 
ATOM      5  O   UNL     1      -7.945   0.784   0.391  1.00  0.00    -0.269 OA
ATOM      6  H   UNL     1      -8.765  -0.790   1.952  1.00  0.00     0.163 HD
BRANCH   4   7
ATOM      7  C   UNL     1      -5.779   0.536   1.220  1.00  0.00     0.040 A 
ATOM      8  N   UNL     1      -1.190   0.175   1.297  1.00  0.00    -0.267 N 
ATOM      9  C   UNL     1      -1.689   1.447   1.217  1.00  0.00     0.262 C 
ATOM     10  C   UNL     1      -2.204  -0.742   1.409  1.00  0.00     0.262 C 
ATOM     11  O   UNL     1      -1.129   2.526   1.242  1.00  0.00    -0.269 OA
ATOM     12  C   UNL     1      -3.140   1.329   1.153  1.00  0.00     0.053 A 
ATOM     13  C   UNL     1      -3.464  -0.004   1.309  1.00  0.00     0.054 A 
ATOM     14  O   UNL     1      -2.144  -1.946   1.576  1.00  0.00    -0.269 OA
ATOM     15  C   UNL     1      -4.097   2.305   0.970  1.00  0.00     0.015 A 
ATOM     16  C   UNL     1      -4.779  -0.440   1.336  1.00  0.00     0.028 A 
ATOM     17  C   UNL     1      -5.431   1.894   0.997  1.00  0.00     0.015 A 
BRANCH   8  18
ATOM     18  C   UNL     1       0.229  -0.187   1.335  1.00  0.00     0.121 C 
ATOM     19  C   UNL     1       0.950   0.404   2.550  1.00  0.00     0.037 C 
BRANCH  18  20
ATOM     20  C   UNL     1       0.938   0.115   0.017  1.00  0.00    -0.025 A 
ATOM     21  C   UNL     1       1.206   1.428  -0.405  1.00  0.00     0.006 A 
ATOM     22  C   UNL     1       1.327  -0.937  -0.828  1.00  0.00     0.006 A 
ATOM     23  C   UNL     1       1.793   1.686  -1.645  1.00  0.00     0.000 A 
ATOM     24  C   UNL     1       1.941  -0.680  -2.059  1.00  0.00     0.000 A 
ATOM     25  C   UNL     1       2.160   0.631  -2.473  1.00  0.00     0.000 A 
ENDBRANCH  18  20
ENDBRANCH   8  18
ENDBRANCH   4   7
ENDBRANCH   2   3
ENDBRANCH   1   2
BRANCH   1  26
ATOM     26  C   UNL     1      -9.258  -0.857   4.807  1.00  0.00     0.118 C 
BRANCH  26  27
ATOM     27  N   UNL     1      -9.875  -2.166   4.664  1.00  0.00    -0.352 N 
ATOM     28  C   UNL     1     -10.546  -2.961   5.560  1.00  0.00     0.251 C 
ATOM     29  H   UNL     1      -9.797  -2.552   3.761  1.00  0.00     0.163 HD
ATOM     30  O   UNL     1     -10.836  -4.107   5.219  1.00  0.00    -0.269 OA
BRANCH  28  31
ATOM     31  C   UNL     1     -10.914  -2.489   6.917  1.00  0.00     0.039 A 
ATOM     32  C   UNL     1     -10.857  -3.405   7.975  1.00  0.00     0.014 A 
ATOM     33  C   UNL     1     -11.384  -1.196   7.158  1.00  0.00     0.014 A 
ATOM     34  C   UNL     1     -11.219  -3.014   9.268  1.00  0.00     0.010 A 
ATOM     35  C   UNL     1     -11.678  -0.785   8.461  1.00  0.00     0.010 A 
ATOM     36  C   UNL     1     -11.607  -1.691   9.530  1.00  0.00    -0.014 A 
BRANCH  36  37
ATOM     37  C   UNL     1     -11.949  -1.255  10.911  1.00  0.00     0.031 A 
ATOM     38  C   UNL     1     -13.350  -0.819  11.253  1.00  0.00     0.074 A 
ATOM     39  C   UNL     1     -10.986  -1.212  11.853  1.00  0.00     0.049 A 
ATOM     40  N   UNL     1     -13.825  -0.384  12.393  1.00  0.00    -0.248 NA
ATOM     41  C   UNL     1     -14.341  -0.854  10.167  1.00  0.00     0.031 C 
ATOM     42  C   UNL     1      -9.578  -1.554  11.638  1.00  0.00     0.029 A 
ATOM     43  N   UNL     1     -11.042  -0.860  13.178  1.00  0.00    -0.354 N 
ATOM     44  C   UNL     1     -15.160  -0.077  12.158  1.00  0.00     0.074 A 
ATOM     45  C   UNL     1     -15.409  -0.334  10.756  1.00  0.00     0.031 C 
ATOM     46  C   UNL     1      -8.910  -1.419  12.796  1.00  0.00     0.029 A 
ATOM     47  C   UNL     1      -9.834  -0.958  13.828  1.00  0.00     0.049 A 
ATOM     48  H   UNL     1     -11.869  -0.564  13.622  1.00  0.00     0.167 HD
ATOM     49  C   UNL     1     -16.100   0.359  13.033  1.00  0.00     0.037 A 
ATOM     50  C   UNL     1      -9.507  -0.712  15.111  1.00  0.00     0.037 A 
ATOM     51  C   UNL     1     -15.861   0.580  14.436  1.00  0.00     0.049 A 
ATOM     52  C   UNL     1     -10.576  -0.274  16.074  1.00  0.00     0.074 A 
ATOM     53  C   UNL     1     -16.762   0.965  15.414  1.00  0.00     0.029 A 
ATOM     54  N   UNL     1     -14.633   0.429  15.063  1.00  0.00    -0.354 N 
ATOM     55  N   UNL     1     -11.846  -0.043  15.844  1.00  0.00    -0.248 NA
ATOM     56  C   UNL     1     -10.170  -0.076  17.472  1.00  0.00     0.031 C 
ATOM     57  C   UNL     1     -16.073   1.071  16.628  1.00  0.00     0.029 A 
ATOM     58  C   UNL     1     -14.751   0.719  16.413  1.00  0.00     0.049 A 
ATOM     59  H   UNL     1     -13.801   0.155  14.615  1.00  0.00     0.167 HD
ATOM     60  C   UNL     1     -12.396   0.306  17.072  1.00  0.00     0.074 A 
ATOM     61  C   UNL     1     -11.324   0.243  18.043  1.00  0.00     0.031 C 
ATOM     62  C   UNL     1     -13.675   0.648  17.368  1.00  0.00     0.037 A 
BRANCH  49  63
ATOM     63  C   UNL     1     -17.481   0.615  12.496  1.00  0.00     0.058 A 
ATOM     64  C   UNL     1     -18.331  -0.439  12.123  1.00  0.00     0.135 A 
ATOM     65  C   UNL     1     -17.972   1.925  12.374  1.00  0.00     0.135 A 
ATOM     66  F   UNL     1     -17.908  -1.710  12.206  1.00  0.00    -0.206 F 
ATOM     67  C   UNL     1     -19.606  -0.202  11.619  1.00  0.00     0.059 A 
ATOM     68  C   UNL     1     -19.253   2.184  11.895  1.00  0.00     0.059 A 
ATOM     69  F   UNL     1     -17.202   2.970  12.718  1.00  0.00    -0.206 F 
ATOM     70  C   UNL     1     -20.056   1.114  11.504  1.00  0.00     0.060 A 
BRANCH  70  71
ATOM     71  S   UNL     1     -21.710   1.408  10.842  1.00  0.00     0.124 S 
ATOM     72  O   UNL     1     -21.493   1.196   9.414  1.00  0.00    -0.237 OA
ATOM     73  O   UNL     1     -22.507   0.390  11.519  1.00  0.00    -0.237 OA
ATOM     74  O   UNL     1     -21.993   2.784  11.237  1.00  0.00    -0.744 OA
ENDBRANCH  70  71
ENDBRANCH  49  63
BRANCH  50  75
ATOM     75  C   UNL     1      -8.108  -0.916  15.570  1.00  0.00     0.058 A 
ATOM     76  C   UNL     1      -7.769  -2.015  16.373  1.00  0.00     0.135 A 
ATOM     77  C   UNL     1      -7.083  -0.033  15.199  1.00  0.00     0.135 A 
ATOM     78  F   UNL     1      -8.717  -2.883  16.756  1.00  0.00    -0.206 F 
ATOM     79  C   UNL     1      -6.464  -2.226  16.804  1.00  0.00     0.059 A 
ATOM     80  C   UNL     1      -5.766  -0.234  15.601  1.00  0.00     0.059 A 
ATOM     81  F   UNL     1      -7.356   1.023  14.417  1.00  0.00    -0.206 F 
ATOM     82  C   UNL     1      -5.468  -1.330  16.411  1.00  0.00     0.060 A 
BRANCH  82  83
ATOM     83  S   UNL     1      -3.765  -1.643  16.924  1.00  0.00     0.124 S 
ATOM     84  O   UNL     1      -3.791  -1.200  18.313  1.00  0.00    -0.237 OA
ATOM     85  O   UNL     1      -3.638  -3.082  16.715  1.00  0.00    -0.237 OA
ATOM     86  O   UNL     1      -2.984  -0.815  16.009  1.00  0.00    -0.744 OA
ENDBRANCH  82  83
ENDBRANCH  50  75
BRANCH  62  87
ATOM     87  C   UNL     1     -13.986   0.954  18.805  1.00  0.00     0.058 A 
ATOM     88  C   UNL     1     -13.581   2.156  19.405  1.00  0.00     0.135 A 
ATOM     89  C   UNL     1     -14.717   0.043  19.584  1.00  0.00     0.135 A 
ATOM     90  F   UNL     1     -12.875   3.057  18.704  1.00  0.00    -0.206 F 
ATOM     91  C   UNL     1     -13.866   2.433  20.738  1.00  0.00     0.059 A 
ATOM     92  C   UNL     1     -15.032   0.310  20.913  1.00  0.00     0.059 A 
ATOM     93  F   UNL     1     -15.136  -1.117  19.054  1.00  0.00    -0.206 F 
ATOM     94  C   UNL     1     -14.588   1.501  21.486  1.00  0.00     0.060 A 
BRANCH  94  95
ATOM     95  S   UNL     1     -14.964   1.873  23.212  1.00  0.00     0.124 S 
ATOM     96  O   UNL     1     -13.694   1.566  23.861  1.00  0.00    -0.237 OA
ATOM     97  O   UNL     1     -15.324   3.287  23.160  1.00  0.00    -0.237 OA
ATOM     98  O   UNL     1     -16.064   0.964  23.521  1.00  0.00    -0.744 OA
ENDBRANCH  94  95
ENDBRANCH  62  87
ENDBRANCH  36  37
ENDBRANCH  28  31
ENDBRANCH  26  27
ENDBRANCH   1  26
TORSDOF 15
