REMARK SMILES CCC[N@H+]1CCC[C@H]([C@@H](C)Nc2cccc(C(=O)NCCCNC(=O)c3ccc(-c4c5nc(c(-c6c(F)cc(S(=O)(=O)[O-])cc6F)c6ccc([nH]6)c(-c6c(F)cc(S(=O)(=O)[O-])cc6F)c6nc(c(-c7c(F)cc(S(=O)(=O)[O-])cc7F)c7ccc4[nH]7)C=C6)C=C5)cc3)c2)C1
REMARK SMILES IDX 20 1 19 2 17 3 18 4 16 6 12 7 13 8 92 9 14 10 15 11 11 12
REMARK SMILES IDX 9 14 10 15 8 16 4 17 5 18 93 19 6 21 7 22 3 23 2 24 1 25
REMARK SMILES IDX 21 26 22 27 23 28 24 29 25 31 26 32 27 33 91 34 28 35 90 36
REMARK SMILES IDX 29 37 30 38 31 39 84 40 32 41 89 42 83 43 85 44 33 45 88 46
REMARK SMILES IDX 82 47 81 48 34 50 68 51 47 52 67 53 48 54 51 55 66 56 86 57
REMARK SMILES IDX 49 58 50 59 65 61 87 62 52 63 35 64 36 65 45 66 37 67 38 68
REMARK SMILES IDX 44 69 46 70 39 71 40 72 41 73 42 74 43 75 69 76 70 77 79 78
REMARK SMILES IDX 71 79 72 80 78 81 80 82 73 83 74 84 75 85 76 86 77 87 53 88
REMARK SMILES IDX 54 89 63 90 55 91 56 92 62 93 64 94 57 95 58 96 59 97 60 98
REMARK SMILES IDX 61 99
REMARK H PARENT 19 5 11 13 4 20 23 30 85 49 51 60
REMARK Flexibility Score: inf
ROOT
ATOM      1  C   UNL     1      -4.486   3.895  -1.360  1.00  0.00     0.118 C 
ENDROOT
BRANCH   1   2
ATOM      2  N   UNL     1      -5.260   2.924  -0.589  1.00  0.00    -0.352 N 
ATOM      3  C   UNL     1      -5.027   1.618  -0.207  1.00  0.00     0.251 C 
ATOM      4  O   UNL     1      -5.883   1.051   0.473  1.00  0.00    -0.269 OA
ATOM      5  H   UNL     1      -6.126   3.274  -0.278  1.00  0.00     0.163 HD
BRANCH   3   6
ATOM      6  C   UNL     1      -3.833   0.851  -0.652  1.00  0.00     0.041 A 
ATOM      7  C   UNL     1      -1.663   0.867  -1.746  1.00  0.00     0.035 A 
ATOM      8  C   UNL     1      -1.784  -0.512  -1.938  1.00  0.00     0.026 A 
ATOM      9  C   UNL     1      -2.622   1.471  -0.936  1.00  0.00     0.039 A 
ATOM     10  C   UNL     1      -2.884  -1.219  -1.438  1.00  0.00     0.003 A 
ATOM     11  C   UNL     1      -3.938  -0.527  -0.844  1.00  0.00     0.014 A 
BRANCH   7  12
ATOM     12  N   UNL     1      -0.616   1.564  -2.325  1.00  0.00    -0.382 N 
ATOM     13  H   UNL     1       0.057   1.049  -2.825  1.00  0.00     0.160 HD
BRANCH  12  14
ATOM     14  C   UNL     1      -0.443   3.020  -2.242  1.00  0.00     0.084 C 
ATOM     15  C   UNL     1      -0.965   3.656  -3.534  1.00  0.00     0.031 C 
BRANCH  14  16
ATOM     16  C   UNL     1       1.042   3.378  -1.958  1.00  0.00     0.066 C 
ATOM     17  N   UNL     1       0.888   2.784   0.447  1.00  0.00    -0.335 N 
ATOM     18  C   UNL     1       1.093   4.182   0.866  1.00  0.00     0.262 C 
ATOM     19  C   UNL     1       1.622   2.538  -0.804  1.00  0.00     0.267 C 
ATOM     20  H   UNL     1      -0.103   2.623   0.268  1.00  0.00     0.348 HD
ATOM     21  C   UNL     1       0.652   5.184  -0.210  1.00  0.00     0.062 C 
ATOM     22  C   UNL     1       1.235   4.861  -1.588  1.00  0.00     0.017 C 
BRANCH  17  23
ATOM     23  C   UNL     1       1.265   1.849   1.517  1.00  0.00     0.261 C 
BRANCH  23  24
ATOM     24  C   UNL     1       0.626   0.448   1.441  1.00  0.00     0.058 C 
ATOM     25  C   UNL     1       1.228  -0.516   0.429  1.00  0.00     0.010 C 
ENDBRANCH  23  24
ENDBRANCH  17  23
ENDBRANCH  14  16
ENDBRANCH  12  14
ENDBRANCH   7  12
ENDBRANCH   3   6
ENDBRANCH   1   2
BRANCH   1  26
ATOM     26  C   UNL     1      -5.133   4.337  -2.661  1.00  0.00     0.042 C 
BRANCH  26  27
ATOM     27  C   UNL     1      -6.354   5.219  -2.480  1.00  0.00     0.118 C 
BRANCH  27  28
ATOM     28  N   UNL     1      -6.052   6.465  -1.780  1.00  0.00    -0.352 N 
ATOM     29  C   UNL     1      -5.964   7.758  -2.234  1.00  0.00     0.251 C 
ATOM     30  H   UNL     1      -5.883   6.360  -0.816  1.00  0.00     0.163 HD
ATOM     31  O   UNL     1      -5.479   8.620  -1.499  1.00  0.00    -0.269 OA
BRANCH  29  32
ATOM     32  C   UNL     1      -6.420   8.120  -3.593  1.00  0.00     0.039 A 
ATOM     33  C   UNL     1      -5.699   9.064  -4.330  1.00  0.00     0.014 A 
ATOM     34  C   UNL     1      -7.569   7.548  -4.140  1.00  0.00     0.014 A 
ATOM     35  C   UNL     1      -6.081   9.363  -5.641  1.00  0.00     0.010 A 
ATOM     36  C   UNL     1      -7.882   7.760  -5.477  1.00  0.00     0.010 A 
ATOM     37  C   UNL     1      -7.147   8.675  -6.243  1.00  0.00    -0.014 A 
BRANCH  37  38
ATOM     38  C   UNL     1      -7.519   8.891  -7.665  1.00  0.00     0.031 A 
ATOM     39  C   UNL     1      -8.900   9.378  -8.017  1.00  0.00     0.074 A 
ATOM     40  C   UNL     1      -6.645   8.566  -8.640  1.00  0.00     0.049 A 
ATOM     41  N   UNL     1      -9.450   9.522  -9.195  1.00  0.00    -0.248 NA
ATOM     42  C   UNL     1      -9.793   9.714  -6.896  1.00  0.00     0.031 C 
ATOM     43  C   UNL     1      -5.296   8.036  -8.426  1.00  0.00     0.029 A 
ATOM     44  N   UNL     1      -6.765   8.618 -10.006  1.00  0.00    -0.354 N 
ATOM     45  C   UNL     1     -10.752   9.946  -8.956  1.00  0.00     0.074 A 
ATOM     46  C   UNL     1     -10.930   9.976  -7.521  1.00  0.00     0.031 C 
ATOM     47  C   UNL     1      -4.706   7.837  -9.615  1.00  0.00     0.029 A 
ATOM     48  C   UNL     1      -5.648   8.176 -10.677  1.00  0.00     0.049 A 
ATOM     49  H   UNL     1      -7.575   8.941 -10.463  1.00  0.00     0.167 HD
ATOM     50  C   UNL     1     -11.705  10.303  -9.850  1.00  0.00     0.037 A 
ATOM     51  C   UNL     1      -5.414   8.044 -11.997  1.00  0.00     0.037 A 
ATOM     52  C   UNL     1     -11.510  10.293 -11.276  1.00  0.00     0.049 A 
ATOM     53  C   UNL     1      -6.491   8.437 -12.972  1.00  0.00     0.074 A 
ATOM     54  C   UNL     1     -12.389  10.693 -12.267  1.00  0.00     0.029 A 
ATOM     55  N   UNL     1     -10.357   9.859 -11.915  1.00  0.00    -0.354 N 
ATOM     56  N   UNL     1      -7.695   8.899 -12.727  1.00  0.00    -0.248 NA
ATOM     57  C   UNL     1      -6.180   8.294 -14.400  1.00  0.00     0.031 C 
ATOM     58  C   UNL     1     -11.789  10.450 -13.506  1.00  0.00     0.029 A 
ATOM     59  C   UNL     1     -10.512   9.957 -13.288  1.00  0.00     0.049 A 
ATOM     60  H   UNL     1      -9.549   9.530 -11.460  1.00  0.00     0.167 HD
ATOM     61  C   UNL     1      -8.273   9.130 -13.971  1.00  0.00     0.074 A 
ATOM     62  C   UNL     1      -7.283   8.768 -14.964  1.00  0.00     0.031 C 
ATOM     63  C   UNL     1      -9.511   9.600 -14.264  1.00  0.00     0.037 A 
BRANCH  50  64
ATOM     64  C   UNL     1     -13.042  10.739  -9.311  1.00  0.00     0.058 A 
ATOM     65  C   UNL     1     -13.196  11.941  -8.600  1.00  0.00     0.135 A 
ATOM     66  C   UNL     1     -14.191   9.963  -9.536  1.00  0.00     0.135 A 
ATOM     67  F   UNL     1     -12.130  12.716  -8.342  1.00  0.00    -0.206 F 
ATOM     68  C   UNL     1     -14.432  12.341  -8.103  1.00  0.00     0.059 A 
ATOM     69  C   UNL     1     -15.444  10.360  -9.076  1.00  0.00     0.059 A 
ATOM     70  F   UNL     1     -14.104   8.805 -10.209  1.00  0.00    -0.206 F 
ATOM     71  C   UNL     1     -15.551  11.543  -8.346  1.00  0.00     0.060 A 
BRANCH  71  72
ATOM     72  S   UNL     1     -17.148  12.080  -7.698  1.00  0.00     0.124 S 
ATOM     73  O   UNL     1     -16.971  11.853  -6.267  1.00  0.00    -0.237 OA
ATOM     74  O   UNL     1     -17.198  13.478  -8.116  1.00  0.00    -0.237 OA
ATOM     75  O   UNL     1     -18.100  11.195  -8.360  1.00  0.00    -0.744 OA
ENDBRANCH  71  72
ENDBRANCH  50  64
BRANCH  51  76
ATOM     76  C   UNL     1      -4.098   7.538 -12.472  1.00  0.00     0.058 A 
ATOM     77  C   UNL     1      -3.196   8.384 -13.135  1.00  0.00     0.135 A 
ATOM     78  C   UNL     1      -3.706   6.206 -12.261  1.00  0.00     0.135 A 
ATOM     79  F   UNL     1      -3.525   9.664 -13.367  1.00  0.00    -0.206 F 
ATOM     80  C   UNL     1      -1.962   7.926 -13.586  1.00  0.00     0.059 A 
ATOM     81  C   UNL     1      -2.466   5.732 -12.677  1.00  0.00     0.059 A 
ATOM     82  F   UNL     1      -4.524   5.359 -11.616  1.00  0.00    -0.206 F 
ATOM     83  C   UNL     1      -1.604   6.598 -13.348  1.00  0.00     0.060 A 
BRANCH  83  84
ATOM     84  S   UNL     1       0.021   6.030 -13.893  1.00  0.00     0.124 S 
ATOM     85  O   UNL     1      -0.153   5.985 -15.340  1.00  0.00    -0.237 OA
ATOM     86  O   UNL     1       0.898   7.081 -13.387  1.00  0.00    -0.237 OA
ATOM     87  O   UNL     1       0.162   4.735 -13.234  1.00  0.00    -0.744 OA
ENDBRANCH  83  84
ENDBRANCH  51  76
BRANCH  63  88
ATOM     88  C   UNL     1      -9.857   9.789 -15.715  1.00  0.00     0.058 A 
ATOM     89  C   UNL     1     -10.091   8.700 -16.568  1.00  0.00     0.135 A 
ATOM     90  C   UNL     1     -10.019  11.081 -16.242  1.00  0.00     0.135 A 
ATOM     91  F   UNL     1      -9.943   7.444 -16.118  1.00  0.00    -0.206 F 
ATOM     92  C   UNL     1     -10.454   8.884 -17.899  1.00  0.00     0.059 A 
ATOM     93  C   UNL     1     -10.412  11.289 -17.560  1.00  0.00     0.059 A 
ATOM     94  F   UNL     1      -9.817  12.158 -15.466  1.00  0.00    -0.206 F 
ATOM     95  C   UNL     1     -10.617  10.184 -18.384  1.00  0.00     0.060 A 
BRANCH  95  96
ATOM     96  S   UNL     1     -11.132  10.407 -20.099  1.00  0.00     0.124 S 
ATOM     97  O   UNL     1      -9.920  10.032 -20.821  1.00  0.00    -0.237 OA
ATOM     98  O   UNL     1     -12.251   9.476 -20.212  1.00  0.00    -0.237 OA
ATOM     99  O   UNL     1     -11.490  11.820 -20.166  1.00  0.00    -0.744 OA
ENDBRANCH  95  96
ENDBRANCH  63  88
ENDBRANCH  37  38
ENDBRANCH  29  32
ENDBRANCH  27  28
ENDBRANCH  26  27
ENDBRANCH   1  26
TORSDOF 18
