REMARK SMILES CC1(C)[C@H](O)CC[C@@]2(C)[C@@H]1CC[C@@]1(C)Oc3oc(C(=O)NCCCNC(=O)c4ccc(-c5c6nc(c(-c7c(F)cc(S(=O)(=O)[O-])cc7F)c7ccc([nH]7)c(-c7c(F)cc(S(=O)(=O)[O-])cc7F)c7nc(c(-c8c(F)cc(S(=O)(=O)[O-])cc8F)c8ccc5[nH]8)C=C7)C=C6)cc4)cc(=O)c3C[C@@H]21
REMARK SMILES IDX 24 1 23 2 22 3 21 4 19 5 20 6 18 8 1 9 2 10 4 11 10 12 3 13
REMARK SMILES IDX 6 14 8 15 11 16 7 17 99 18 9 19 12 20 13 21 98 22 15 23
REMARK SMILES IDX 14 24 97 25 16 26 95 27 17 28 94 29 96 30 5 31 25 33 26 34
REMARK SMILES IDX 27 36 28 37 29 38 93 39 30 40 92 41 31 42 32 43 33 44 86 45
REMARK SMILES IDX 34 46 91 47 85 48 87 49 35 50 90 51 84 52 83 53 36 55 70 56
REMARK SMILES IDX 49 57 69 58 50 59 53 60 68 61 88 62 51 63 52 64 67 66 89 67
REMARK SMILES IDX 54 68 37 69 38 70 47 71 39 72 40 73 46 74 48 75 41 76 42 77
REMARK SMILES IDX 43 78 44 79 45 80 71 81 72 82 81 83 73 84 74 85 80 86 82 87
REMARK SMILES IDX 75 88 76 89 77 90 78 91 79 92 55 93 56 94 65 95 57 96 58 97
REMARK SMILES IDX 64 98 66 99 59 100 60 101 61 102 62 103 63 104
REMARK H PARENT 21 7 5 32 25 35 87 54 53 65
REMARK Flexibility Score: inf
ROOT
ATOM      1  C   UNL     1      -2.334  -8.766  -6.442  1.00  0.00     0.118 C 
ENDROOT
BRANCH   1   2
ATOM      2  C   UNL     1      -2.205  -7.398  -5.785  1.00  0.00     0.042 C 
BRANCH   2   3
ATOM      3  C   UNL     1      -2.331  -6.205  -6.728  1.00  0.00     0.118 C 
BRANCH   3   4
ATOM      4  N   UNL     1      -3.667  -6.045  -7.345  1.00  0.00    -0.349 N 
ATOM      5  C   UNL     1      -4.476  -4.936  -7.553  1.00  0.00     0.287 C 
ATOM      6  O   UNL     1      -5.593  -5.089  -8.054  1.00  0.00    -0.266 OA
ATOM      7  H   UNL     1      -4.057  -6.888  -7.670  1.00  0.00     0.163 HD
BRANCH   5   8
ATOM      8  C   UNL     1      -3.980  -3.578  -7.198  1.00  0.00     0.199 A 
ATOM      9  C   UNL     1      -0.101   1.382   0.359  1.00  0.00     0.014 C 
ATOM     10  C   UNL     1      -0.129   1.483  -1.190  1.00  0.00    -0.006 C 
ATOM     11  C   UNL     1       0.789   0.160  -1.649  1.00  0.00     0.120 C 
ATOM     12  C   UNL     1      -1.818   1.414  -1.859  1.00  0.00     0.004 C 
ATOM     13  C   UNL     1       0.679   2.760  -1.528  1.00  0.00     0.014 C 
ATOM     14  C   UNL     1       0.796  -0.032  -3.139  1.00  0.00     0.033 C 
ATOM     15  C   UNL     1      -1.752   0.087  -2.605  1.00  0.00    -0.022 C 
ATOM     16  C   UNL     1      -2.550   2.387  -2.909  1.00  0.00     0.009 C 
ATOM     17  C   UNL     1      -0.494   0.554  -3.527  1.00  0.00     0.010 C 
ATOM     18  C   UNL     1      -2.772  -0.565  -3.557  1.00  0.00     0.044 C 
ATOM     19  C   UNL     1      -1.920  -0.905  -1.399  1.00  0.00     0.012 C 
ATOM     20  C   UNL     1      -3.436   1.718  -4.154  1.00  0.00     0.049 C 
ATOM     21  C   UNL     1      -3.970   0.241  -3.979  1.00  0.00     0.113 C 
ATOM     22  C   UNL     1      -1.968  -1.110  -4.731  1.00  0.00     0.055 C 
ATOM     23  O   UNL     1      -4.671  -0.494  -5.108  1.00  0.00    -0.458 OA
ATOM     24  C   UNL     1      -5.062   0.304  -2.885  1.00  0.00     0.057 C 
ATOM     25  C   UNL     1      -2.747  -1.772  -5.713  1.00  0.00     0.081 A 
ATOM     26  C   UNL     1      -4.067  -1.601  -5.788  1.00  0.00     0.292 A 
ATOM     27  C   UNL     1      -1.976  -2.505  -6.708  1.00  0.00     0.192 A 
ATOM     28  O   UNL     1      -4.767  -2.584  -6.537  1.00  0.00    -0.420 OA
ATOM     29  C   UNL     1      -2.705  -3.387  -7.571  1.00  0.00     0.105 A 
ATOM     30  O   UNL     1      -0.741  -2.441  -6.777  1.00  0.00    -0.289 OA
BRANCH  11  31
ATOM     31  O   UNL     1       2.138   0.148  -1.208  1.00  0.00    -0.393 OA
ATOM     32  H   UNL     1       2.627   0.865  -1.642  1.00  0.00     0.210 HD
ENDBRANCH  11  31
ENDBRANCH   5   8
ENDBRANCH   3   4
ENDBRANCH   2   3
ENDBRANCH   1   2
BRANCH   1  33
ATOM     33  N   UNL     1      -1.150  -9.177  -7.186  1.00  0.00    -0.352 N 
ATOM     34  C   UNL     1      -0.349 -10.284  -7.008  1.00  0.00     0.251 C 
ATOM     35  H   UNL     1      -0.884  -8.579  -7.922  1.00  0.00     0.163 HD
ATOM     36  O   UNL     1       0.675 -10.414  -7.680  1.00  0.00    -0.269 OA
BRANCH  34  37
ATOM     37  C   UNL     1      -0.696 -11.297  -5.987  1.00  0.00     0.039 A 
ATOM     38  C   UNL     1       0.289 -11.726  -5.092  1.00  0.00     0.014 A 
ATOM     39  C   UNL     1      -1.993 -11.810  -5.899  1.00  0.00     0.014 A 
ATOM     40  C   UNL     1      -0.048 -12.605  -4.059  1.00  0.00     0.010 A 
ATOM     41  C   UNL     1      -2.344 -12.627  -4.828  1.00  0.00     0.010 A 
ATOM     42  C   UNL     1      -1.375 -13.035  -3.900  1.00  0.00    -0.014 A 
BRANCH  42  43
ATOM     43  C   UNL     1      -1.763 -13.943  -2.791  1.00  0.00     0.031 A 
ATOM     44  C   UNL     1      -2.205 -15.346  -3.099  1.00  0.00     0.074 A 
ATOM     45  C   UNL     1      -1.766 -13.494  -1.520  1.00  0.00     0.049 A 
ATOM     46  N   UNL     1      -2.623 -16.278  -2.283  1.00  0.00    -0.248 NA
ATOM     47  C   UNL     1      -2.195 -15.748  -4.515  1.00  0.00     0.031 C 
ATOM     48  C   UNL     1      -1.389 -12.144  -1.099  1.00  0.00     0.029 A 
ATOM     49  N   UNL     1      -2.104 -14.124  -0.348  1.00  0.00    -0.354 N 
ATOM     50  C   UNL     1      -2.921 -17.374  -3.083  1.00  0.00     0.074 A 
ATOM     51  C   UNL     1      -2.698 -16.971  -4.454  1.00  0.00     0.031 C 
ATOM     52  C   UNL     1      -1.500 -12.053   0.237  1.00  0.00     0.029 A 
ATOM     53  C   UNL     1      -1.984 -13.326   0.766  1.00  0.00     0.049 A 
ATOM     54  H   UNL     1      -2.405 -15.061  -0.308  1.00  0.00     0.167 HD
ATOM     55  C   UNL     1      -3.315 -18.613  -2.707  1.00  0.00     0.037 A 
ATOM     56  C   UNL     1      -2.238 -13.589   2.063  1.00  0.00     0.037 A 
ATOM     57  C   UNL     1      -3.524 -19.011  -1.341  1.00  0.00     0.049 A 
ATOM     58  C   UNL     1      -2.713 -14.963   2.455  1.00  0.00     0.074 A 
ATOM     59  C   UNL     1      -3.879 -20.256  -0.854  1.00  0.00     0.029 A 
ATOM     60  N   UNL     1      -3.402 -18.172  -0.243  1.00  0.00    -0.354 N 
ATOM     61  N   UNL     1      -2.931 -16.008   1.691  1.00  0.00    -0.248 NA
ATOM     62  C   UNL     1      -2.973 -15.198   3.882  1.00  0.00     0.031 C 
ATOM     63  C   UNL     1      -4.023 -20.157   0.533  1.00  0.00     0.029 A 
ATOM     64  C   UNL     1      -3.704 -18.864   0.918  1.00  0.00     0.049 A 
ATOM     65  H   UNL     1      -3.139 -17.223  -0.283  1.00  0.00     0.167 HD
ATOM     66  C   UNL     1      -3.332 -17.029   2.546  1.00  0.00     0.074 A 
ATOM     67  C   UNL     1      -3.314 -16.481   3.887  1.00  0.00     0.031 C 
ATOM     68  C   UNL     1      -3.683 -18.305   2.247  1.00  0.00     0.037 A 
BRANCH  55  69
ATOM     69  C   UNL     1      -3.535 -19.632  -3.790  1.00  0.00     0.058 A 
ATOM     70  C   UNL     1      -2.462 -20.172  -4.518  1.00  0.00     0.135 A 
ATOM     71  C   UNL     1      -4.825 -20.107  -4.077  1.00  0.00     0.135 A 
ATOM     72  F   UNL     1      -1.210 -19.741  -4.297  1.00  0.00    -0.206 F 
ATOM     73  C   UNL     1      -2.662 -21.129  -5.506  1.00  0.00     0.059 A 
ATOM     74  C   UNL     1      -5.046 -21.085  -5.042  1.00  0.00     0.059 A 
ATOM     75  F   UNL     1      -5.887 -19.621  -3.414  1.00  0.00    -0.206 F 
ATOM     76  C   UNL     1      -3.958 -21.582  -5.759  1.00  0.00     0.060 A 
BRANCH  76  77
ATOM     77  S   UNL     1      -4.194 -22.835  -7.036  1.00  0.00     0.124 S 
ATOM     78  O   UNL     1      -3.897 -22.076  -8.247  1.00  0.00    -0.237 OA
ATOM     79  O   UNL     1      -3.209 -23.846  -6.664  1.00  0.00    -0.237 OA
ATOM     80  O   UNL     1      -5.589 -23.231  -6.872  1.00  0.00    -0.744 OA
ENDBRANCH  76  77
ENDBRANCH  55  69
BRANCH  56  81
ATOM     81  C   UNL     1      -2.017 -12.534   3.089  1.00  0.00     0.058 A 
ATOM     82  C   UNL     1      -0.953 -12.624   3.998  1.00  0.00     0.135 A 
ATOM     83  C   UNL     1      -2.841 -11.400   3.160  1.00  0.00     0.135 A 
ATOM     84  F   UNL     1      -0.143 -13.694   3.977  1.00  0.00    -0.206 F 
ATOM     85  C   UNL     1      -0.713 -11.631   4.942  1.00  0.00     0.059 A 
ATOM     86  C   UNL     1      -2.608 -10.382   4.080  1.00  0.00     0.059 A 
ATOM     87  F   UNL     1      -3.867 -11.258   2.306  1.00  0.00    -0.206 F 
ATOM     88  C   UNL     1      -1.541 -10.508   4.969  1.00  0.00     0.060 A 
BRANCH  88  89
ATOM     89  S   UNL     1      -1.173  -9.192   6.151  1.00  0.00     0.124 S 
ATOM     90  O   UNL     1      -1.500  -9.833   7.419  1.00  0.00    -0.237 OA
ATOM     91  O   UNL     1       0.245  -8.952   5.903  1.00  0.00    -0.237 OA
ATOM     92  O   UNL     1      -2.065  -8.112   5.740  1.00  0.00    -0.744 OA
ENDBRANCH  88  89
ENDBRANCH  56  81
BRANCH  68  93
ATOM     93  C   UNL     1      -4.068 -19.211   3.384  1.00  0.00     0.058 A 
ATOM     94  C   UNL     1      -5.295 -19.071   4.051  1.00  0.00     0.135 A 
ATOM     95  C   UNL     1      -3.242 -20.287   3.750  1.00  0.00     0.135 A 
ATOM     96  F   UNL     1      -6.119 -18.057   3.744  1.00  0.00    -0.206 F 
ATOM     97  C   UNL     1      -5.684 -19.959   5.049  1.00  0.00     0.059 A 
ATOM     98  C   UNL     1      -3.623 -21.203   4.725  1.00  0.00     0.059 A 
ATOM     99  F   UNL     1      -2.062 -20.473   3.136  1.00  0.00    -0.206 F 
ATOM    100  C   UNL     1      -4.845 -21.027   5.373  1.00  0.00     0.060 A 
BRANCH 100 101
ATOM    101  S   UNL     1      -5.391 -22.199   6.633  1.00  0.00     0.124 S 
ATOM    102  O   UNL     1      -5.300 -21.393   7.845  1.00  0.00    -0.237 OA
ATOM    103  O   UNL     1      -6.742 -22.526   6.188  1.00  0.00    -0.237 OA
ATOM    104  O   UNL     1      -4.423 -23.287   6.529  1.00  0.00    -0.744 OA
ENDBRANCH 100 101
ENDBRANCH  68  93
ENDBRANCH  42  43
ENDBRANCH  34  37
ENDBRANCH   1  33
TORSDOF 14
