REMARK SMILES N#CCC1(C[N@@H+]2CCO[C@H](CC(=O)NCCCNC(=O)c3ccc(-c4c5nc(c(-c6c(F)cc(S(=O)(=O)[O-])cc6F)c6ccc([nH]6)c(-c6c(F)cc(S(=O)(=O)[O-])cc6F)c6nc(c(-c7c(F)cc(S(=O)(=O)[O-])cc7F)c7ccc4[nH]7)C=C6)C=C5)cc3)C2)CC1
REMARK SMILES IDX 15 1 14 2 12 3 13 4 11 6 10 7 6 8 7 9 87 10 8 12 9 13 5 14
REMARK SMILES IDX 4 15 88 16 89 17 3 18 2 19 1 20 16 21 17 22 18 23 19 24
REMARK SMILES IDX 20 26 21 27 22 28 86 29 23 30 85 31 24 32 25 33 26 34 79 35
REMARK SMILES IDX 27 36 84 37 78 38 80 39 28 40 83 41 77 42 76 43 29 45 63 46
REMARK SMILES IDX 42 47 62 48 43 49 46 50 61 51 81 52 44 53 45 54 60 56 82 57
REMARK SMILES IDX 47 58 30 59 31 60 40 61 32 62 33 63 39 64 41 65 34 66 35 67
REMARK SMILES IDX 36 68 37 69 38 70 64 71 65 72 74 73 66 74 67 75 73 76 75 77
REMARK SMILES IDX 68 78 69 79 70 80 71 81 72 82 48 83 49 84 58 85 50 86 51 87
REMARK SMILES IDX 57 88 59 89 52 90 53 91 54 92 55 93 56 94
REMARK H PARENT 14 5 6 11 18 25 80 44 46 55
REMARK Flexibility Score: inf
ROOT
ATOM      1  C   UNL     1       2.422   3.909   3.598  1.00  0.00     0.117 C 
ENDROOT
BRANCH   1   2
ATOM      2  N   UNL     1       3.510   3.228   2.909  1.00  0.00    -0.356 N 
ATOM      3  C   UNL     1       3.914   3.431   1.620  1.00  0.00     0.222 C 
ATOM      4  O   UNL     1       5.081   3.807   1.467  1.00  0.00    -0.275 OA
ATOM      5  H   UNL     1       4.004   2.551   3.425  1.00  0.00     0.163 HD
BRANCH   3   6
ATOM      6  C   UNL     1       3.002   3.237   0.406  1.00  0.00     0.138 C 
BRANCH   6   7
ATOM      7  C   UNL     1       2.260   1.895   0.211  1.00  0.00     0.182 C 
ATOM      8  N   UNL     1       2.643  -1.192   1.592  1.00  0.00    -0.330 N 
ATOM      9  C   UNL     1       2.523  -1.963  -0.176  1.00  0.00     0.291 C 
ATOM     10  C   UNL     1       2.266   0.662   1.777  1.00  0.00     0.295 C 
ATOM     11  H   UNL     1       1.979  -1.778   2.097  1.00  0.00     0.348 HD
ATOM     12  C   UNL     1       2.429  -0.769  -1.836  1.00  0.00     0.222 C 
ATOM     13  O   UNL     1       2.461   1.134  -1.533  1.00  0.00    -0.366 OA
BRANCH   8  14
ATOM     14  C   UNL     1       4.085  -1.134   2.024  1.00  0.00     0.270 C 
BRANCH  14  15
ATOM     15  C   UNL     1       4.659  -0.152   1.082  1.00  0.00     0.032 C 
ATOM     16  C   UNL     1       6.169  -0.358   0.819  1.00  0.00     0.015 C 
ATOM     17  C   UNL     1       5.699   0.988   1.191  1.00  0.00     0.015 C 
BRANCH  15  18
ATOM     18  C   UNL     1       3.745  -0.051  -0.078  1.00  0.00     0.133 C 
BRANCH  18  19
ATOM     19  C   UNL     1       2.225  -0.051  -0.078  1.00  0.00     0.063 C 
ATOM     20  N   UNL     1       0.964  -0.051  -0.078  1.00  0.00    -0.198 NA
ENDBRANCH  18  19
ENDBRANCH  15  18
ENDBRANCH  14  15
ENDBRANCH   8  14
ENDBRANCH   6   7
ENDBRANCH   3   6
ENDBRANCH   1   2
BRANCH   1  21
ATOM     21  C   UNL     1       1.548   3.021   4.486  1.00  0.00     0.042 C 
BRANCH  21  22
ATOM     22  C   UNL     1       2.279   2.113   5.479  1.00  0.00     0.118 C 
BRANCH  22  23
ATOM     23  N   UNL     1       3.034   2.840   6.493  1.00  0.00    -0.352 N 
ATOM     24  C   UNL     1       2.686   3.230   7.762  1.00  0.00     0.251 C 
ATOM     25  H   UNL     1       3.946   3.092   6.222  1.00  0.00     0.163 HD
ATOM     26  O   UNL     1       3.420   4.018   8.369  1.00  0.00    -0.269 OA
BRANCH  24  27
ATOM     27  C   UNL     1       1.446   2.747   8.404  1.00  0.00     0.039 A 
ATOM     28  C   UNL     1       0.642   3.655   9.098  1.00  0.00     0.014 A 
ATOM     29  C   UNL     1       1.093   1.397   8.367  1.00  0.00     0.014 A 
ATOM     30  C   UNL     1      -0.549   3.221   9.688  1.00  0.00     0.010 A 
ATOM     31  C   UNL     1      -0.136   0.983   8.878  1.00  0.00     0.010 A 
ATOM     32  C   UNL     1      -0.970   1.888   9.550  1.00  0.00    -0.014 A 
BRANCH  32  33
ATOM     33  C   UNL     1      -2.284   1.443  10.087  1.00  0.00     0.031 A 
ATOM     34  C   UNL     1      -2.365   0.377  11.147  1.00  0.00     0.074 A 
ATOM     35  C   UNL     1      -3.415   1.963   9.570  1.00  0.00     0.049 A 
ATOM     36  N   UNL     1      -3.422  -0.126  11.734  1.00  0.00    -0.248 NA
ATOM     37  C   UNL     1      -1.097  -0.228  11.582  1.00  0.00     0.031 C 
ATOM     38  C   UNL     1      -3.471   2.935   8.476  1.00  0.00     0.029 A 
ATOM     39  N   UNL     1      -4.732   1.745   9.886  1.00  0.00    -0.354 N 
ATOM     40  C   UNL     1      -2.949  -1.115  12.589  1.00  0.00     0.074 A 
ATOM     41  C   UNL     1      -1.516  -1.181  12.400  1.00  0.00     0.031 C 
ATOM     42  C   UNL     1      -4.752   3.249   8.230  1.00  0.00     0.029 A 
ATOM     43  C   UNL     1      -5.611   2.479   9.125  1.00  0.00     0.049 A 
ATOM     44  H   UNL     1      -5.021   1.122  10.591  1.00  0.00     0.167 HD
ATOM     45  C   UNL     1      -3.640  -1.882  13.468  1.00  0.00     0.037 A 
ATOM     46  C   UNL     1      -6.957   2.528   9.140  1.00  0.00     0.037 A 
ATOM     47  C   UNL     1      -5.067  -1.796  13.657  1.00  0.00     0.049 A 
ATOM     48  C   UNL     1      -7.704   1.708  10.152  1.00  0.00     0.074 A 
ATOM     49  C   UNL     1      -5.855  -2.457  14.582  1.00  0.00     0.029 A 
ATOM     50  N   UNL     1      -5.922  -1.012  12.893  1.00  0.00    -0.354 N 
ATOM     51  N   UNL     1      -7.231   0.859  11.035  1.00  0.00    -0.248 NA
ATOM     52  C   UNL     1      -9.163   1.862  10.185  1.00  0.00     0.031 C 
ATOM     53  C   UNL     1      -7.192  -2.119  14.339  1.00  0.00     0.029 A 
ATOM     54  C   UNL     1      -7.233  -1.200  13.302  1.00  0.00     0.049 A 
ATOM     55  H   UNL     1      -5.638  -0.411  12.167  1.00  0.00     0.167 HD
ATOM     56  C   UNL     1      -8.334   0.381  11.733  1.00  0.00     0.074 A 
ATOM     57  C   UNL     1      -9.493   1.061  11.189  1.00  0.00     0.031 C 
ATOM     58  C   UNL     1      -8.383  -0.538  12.731  1.00  0.00     0.037 A 
BRANCH  45  59
ATOM     59  C   UNL     1      -2.861  -2.887  14.277  1.00  0.00     0.058 A 
ATOM     60  C   UNL     1      -1.921  -2.496  15.247  1.00  0.00     0.135 A 
ATOM     61  C   UNL     1      -3.052  -4.265  14.078  1.00  0.00     0.135 A 
ATOM     62  F   UNL     1      -1.687  -1.194  15.476  1.00  0.00    -0.206 F 
ATOM     63  C   UNL     1      -1.162  -3.430  15.946  1.00  0.00     0.059 A 
ATOM     64  C   UNL     1      -2.328  -5.217  14.792  1.00  0.00     0.059 A 
ATOM     65  F   UNL     1      -3.940  -4.700  13.171  1.00  0.00    -0.206 F 
ATOM     66  C   UNL     1      -1.367  -4.788  15.707  1.00  0.00     0.060 A 
BRANCH  66  67
ATOM     67  S   UNL     1      -0.355  -5.990  16.596  1.00  0.00     0.124 S 
ATOM     68  O   UNL     1       0.940  -5.821  15.936  1.00  0.00    -0.237 OA
ATOM     69  O   UNL     1      -0.425  -5.497  17.973  1.00  0.00    -0.237 OA
ATOM     70  O   UNL     1      -1.025  -7.254  16.351  1.00  0.00    -0.744 OA
ENDBRANCH  66  67
ENDBRANCH  45  59
BRANCH  46  71
ATOM     71  C   UNL     1      -7.664   3.413   8.176  1.00  0.00     0.058 A 
ATOM     72  C   UNL     1      -8.275   4.604   8.593  1.00  0.00     0.135 A 
ATOM     73  C   UNL     1      -7.675   3.119   6.803  1.00  0.00     0.135 A 
ATOM     74  F   UNL     1      -8.297   4.926   9.896  1.00  0.00    -0.206 F 
ATOM     75  C   UNL     1      -8.866   5.477   7.685  1.00  0.00     0.059 A 
ATOM     76  C   UNL     1      -8.236   3.988   5.872  1.00  0.00     0.059 A 
ATOM     77  F   UNL     1      -7.088   2.000   6.350  1.00  0.00    -0.206 F 
ATOM     78  C   UNL     1      -8.830   5.167   6.324  1.00  0.00     0.060 A 
BRANCH  78  79
ATOM     79  S   UNL     1      -9.503   6.356   5.143  1.00  0.00     0.124 S 
ATOM     80  O   UNL     1     -10.939   6.220   5.375  1.00  0.00    -0.237 OA
ATOM     81  O   UNL     1      -8.901   7.609   5.597  1.00  0.00    -0.237 OA
ATOM     82  O   UNL     1      -9.021   5.868   3.860  1.00  0.00    -0.744 OA
ENDBRANCH  78  79
ENDBRANCH  46  71
BRANCH  58  83
ATOM     83  C   UNL     1      -9.740  -0.861  13.296  1.00  0.00     0.058 A 
ATOM     84  C   UNL     1     -10.700  -1.567  12.552  1.00  0.00     0.135 A 
ATOM     85  C   UNL     1     -10.083  -0.471  14.601  1.00  0.00     0.135 A 
ATOM     86  F   UNL     1     -10.427  -1.961  11.297  1.00  0.00    -0.206 F 
ATOM     87  C   UNL     1     -11.965  -1.835  13.064  1.00  0.00     0.059 A 
ATOM     88  C   UNL     1     -11.330  -0.758  15.146  1.00  0.00     0.059 A 
ATOM     89  F   UNL     1      -9.200   0.193  15.363  1.00  0.00    -0.206 F 
ATOM     90  C   UNL     1     -12.273  -1.421  14.361  1.00  0.00     0.060 A 
BRANCH  90  91
ATOM     91  S   UNL     1     -13.920  -1.767  15.012  1.00  0.00     0.124 S 
ATOM     92  O   UNL     1     -14.732  -0.799  14.282  1.00  0.00    -0.237 OA
ATOM     93  O   UNL     1     -14.116  -3.165  14.643  1.00  0.00    -0.237 OA
ATOM     94  O   UNL     1     -13.780  -1.516  16.444  1.00  0.00    -0.744 OA
ENDBRANCH  90  91
ENDBRANCH  58  83
ENDBRANCH  32  33
ENDBRANCH  24  27
ENDBRANCH  22  23
ENDBRANCH  21  22
ENDBRANCH   1  21
TORSDOF 18
