REMARK SMILES C[C@@H]1CN(C(=O)C[NH+]2CCC(CC(=O)NCCCNC(=O)c3ccc(-c4c5nc(c(-c6c(F)cc(S(=O)(=O)[O-])cc6F)c6ccc([nH]6)c(-c6c(F)cc(S(=O)(=O)[O-])cc6F)c6nc(c(-c7c(F)cc(S(=O)(=O)[O-])cc7F)c7ccc4[nH]7)C=C6)C=C5)cc3)CC2)C[C@@H](C)O1
REMARK SMILES IDX 17 1 16 2 15 3 13 4 14 5 12 7 11 8 8 9 9 10 89 11 10 13
REMARK SMILES IDX 88 14 7 15 5 16 1 17 2 18 3 19 93 20 4 21 91 22 90 23 92 24
REMARK SMILES IDX 6 25 18 26 19 27 20 28 21 30 22 31 23 32 87 33 24 34 86 35
REMARK SMILES IDX 25 36 26 37 27 38 80 39 28 40 85 41 79 42 81 43 29 44 84 45
REMARK SMILES IDX 78 46 77 47 30 49 64 50 43 51 63 52 44 53 47 54 62 55 82 56
REMARK SMILES IDX 45 57 46 58 61 60 83 61 48 62 31 63 32 64 41 65 33 66 34 67
REMARK SMILES IDX 40 68 42 69 35 70 36 71 37 72 38 73 39 74 65 75 66 76 75 77
REMARK SMILES IDX 67 78 68 79 74 80 76 81 69 82 70 83 71 84 72 85 73 86 49 87
REMARK SMILES IDX 50 88 59 89 51 90 52 91 58 92 60 93 53 94 54 95 55 96 56 97
REMARK SMILES IDX 57 98
REMARK H PARENT 15 6 8 12 19 29 81 48 47 59
REMARK Flexibility Score: inf
ROOT
ATOM      1  C   UNL     1       6.070  -1.988  -5.360  1.00  0.00     0.042 C 
ENDROOT
BRANCH   1   2
ATOM      2  C   UNL     1       5.978  -0.839  -6.353  1.00  0.00     0.117 C 
BRANCH   2   3
ATOM      3  N   UNL     1       4.615  -0.649  -6.809  1.00  0.00    -0.356 N 
ATOM      4  C   UNL     1       3.666   0.175  -6.282  1.00  0.00     0.220 C 
ATOM      5  O   UNL     1       2.524   0.154  -6.740  1.00  0.00    -0.275 OA
ATOM      6  H   UNL     1       4.342  -1.180  -7.592  1.00  0.00     0.163 HD
BRANCH   4   7
ATOM      7  C   UNL     1       4.038   1.075  -5.120  1.00  0.00     0.104 C 
BRANCH   7   8
ATOM      8  C   UNL     1       3.912   0.335  -3.773  1.00  0.00     0.009 C 
ATOM      9  N   UNL     1       3.841   0.890  -0.801  1.00  0.00    -0.327 N 
ATOM     10  C   UNL     1       2.771   0.323  -1.593  1.00  0.00     0.262 C 
ATOM     11  C   UNL     1       5.110   0.405  -1.385  1.00  0.00     0.262 C 
ATOM     12  H   UNL     1       3.689   0.577   0.158  1.00  0.00     0.348 HD
ATOM     13  C   UNL     1       2.756   0.920  -2.992  1.00  0.00     0.066 C 
ATOM     14  C   UNL     1       5.213   0.303  -2.933  1.00  0.00     0.066 C 
BRANCH   9  15
ATOM     15  C   UNL     1       3.863   2.366  -0.657  1.00  0.00     0.363 C 
BRANCH  15  16
ATOM     16  C   UNL     1       2.765   3.160   0.105  1.00  0.00     0.277 C 
ATOM     17  C   UNL     1      -0.063   0.495   0.520  1.00  0.00     0.040 C 
ATOM     18  C   UNL     1      -0.559   1.670  -0.326  1.00  0.00     0.135 C 
ATOM     19  C   UNL     1       0.521   2.498  -1.065  1.00  0.00     0.151 C 
ATOM     20  O   UNL     1      -1.350   2.561   0.481  1.00  0.00    -0.372 OA
ATOM     21  N   UNL     1       1.398   3.193  -0.123  1.00  0.00    -0.333 N 
ATOM     22  C   UNL     1      -0.563   3.341   1.401  1.00  0.00     0.135 C 
ATOM     23  C   UNL     1       0.585   4.098   0.702  1.00  0.00     0.151 C 
ATOM     24  C   UNL     1      -1.526   4.330   2.039  1.00  0.00     0.040 C 
ATOM     25  O   UNL     1       3.216   3.980   0.933  1.00  0.00    -0.268 OA
ENDBRANCH  15  16
ENDBRANCH   9  15
ENDBRANCH   7   8
ENDBRANCH   4   7
ENDBRANCH   2   3
ENDBRANCH   1   2
BRANCH   1  26
ATOM     26  C   UNL     1       6.220  -3.342  -6.024  1.00  0.00     0.118 C 
BRANCH  26  27
ATOM     27  N   UNL     1       7.555  -3.508  -6.572  1.00  0.00    -0.352 N 
ATOM     28  C   UNL     1       8.631  -4.213  -6.097  1.00  0.00     0.251 C 
ATOM     29  H   UNL     1       7.713  -3.038  -7.423  1.00  0.00     0.163 HD
ATOM     30  O   UNL     1       9.745  -3.949  -6.548  1.00  0.00    -0.269 OA
BRANCH  28  31
ATOM     31  C   UNL     1       8.480  -5.273  -5.070  1.00  0.00     0.039 A 
ATOM     32  C   UNL     1       9.559  -5.536  -4.218  1.00  0.00     0.014 A 
ATOM     33  C   UNL     1       7.340  -6.076  -4.994  1.00  0.00     0.014 A 
ATOM     34  C   UNL     1       9.487  -6.588  -3.299  1.00  0.00     0.010 A 
ATOM     35  C   UNL     1       7.224  -7.048  -4.003  1.00  0.00     0.010 A 
ATOM     36  C   UNL     1       8.314  -7.348  -3.178  1.00  0.00    -0.014 A 
BRANCH  36  37
ATOM     37  C   UNL     1       8.244  -8.516  -2.260  1.00  0.00     0.031 A 
ATOM     38  C   UNL     1       8.019  -9.899  -2.824  1.00  0.00     0.074 A 
ATOM     39  C   UNL     1       8.351  -8.334  -0.929  1.00  0.00     0.049 A 
ATOM     40  N   UNL     1       7.889 -11.037  -2.192  1.00  0.00    -0.248 NA
ATOM     41  C   UNL     1       7.891 -10.017  -4.288  1.00  0.00     0.031 C 
ATOM     42  C   UNL     1       8.516  -7.041  -0.260  1.00  0.00     0.029 A 
ATOM     43  N   UNL     1       8.337  -9.239   0.102  1.00  0.00    -0.354 N 
ATOM     44  C   UNL     1       7.635 -11.991  -3.173  1.00  0.00     0.074 A 
ATOM     45  C   UNL     1       7.579 -11.296  -4.438  1.00  0.00     0.031 C 
ATOM     46  C   UNL     1       8.619  -7.240   1.064  1.00  0.00     0.029 A 
ATOM     47  C   UNL     1       8.496  -8.668   1.342  1.00  0.00     0.049 A 
ATOM     48  H   UNL     1       8.224 -10.208  -0.034  1.00  0.00     0.167 HD
ATOM     49  C   UNL     1       7.490 -13.330  -3.036  1.00  0.00     0.037 A 
ATOM     50  C   UNL     1       8.540  -9.233   2.564  1.00  0.00     0.037 A 
ATOM     51  C   UNL     1       7.622 -14.026  -1.785  1.00  0.00     0.049 A 
ATOM     52  C   UNL     1       8.421 -10.729   2.682  1.00  0.00     0.074 A 
ATOM     53  C   UNL     1       7.590 -15.390  -1.553  1.00  0.00     0.029 A 
ATOM     54  N   UNL     1       7.822 -13.414  -0.557  1.00  0.00    -0.354 N 
ATOM     55  N   UNL     1       8.260 -11.621   1.733  1.00  0.00    -0.248 NA
ATOM     56  C   UNL     1       8.498 -11.299   4.035  1.00  0.00     0.031 C 
ATOM     57  C   UNL     1       7.734 -15.601  -0.178  1.00  0.00     0.029 A 
ATOM     58  C   UNL     1       7.897 -14.371   0.439  1.00  0.00     0.049 A 
ATOM     59  H   UNL     1       7.898 -12.443  -0.415  1.00  0.00     0.167 HD
ATOM     60  C   UNL     1       8.249 -12.856   2.371  1.00  0.00     0.074 A 
ATOM     61  C   UNL     1       8.430 -12.599   3.784  1.00  0.00     0.031 C 
ATOM     62  C   UNL     1       8.101 -14.093   1.837  1.00  0.00     0.037 A 
BRANCH  49  63
ATOM     63  C   UNL     1       7.197 -14.142  -4.267  1.00  0.00     0.058 A 
ATOM     64  C   UNL     1       8.175 -14.380  -5.245  1.00  0.00     0.135 A 
ATOM     65  C   UNL     1       5.943 -14.751  -4.434  1.00  0.00     0.135 A 
ATOM     66  F   UNL     1       9.385 -13.807  -5.145  1.00  0.00    -0.206 F 
ATOM     67  C   UNL     1       7.918 -15.184  -6.350  1.00  0.00     0.059 A 
ATOM     68  C   UNL     1       5.670 -15.580  -5.519  1.00  0.00     0.059 A 
ATOM     69  F   UNL     1       4.970 -14.553  -3.530  1.00  0.00    -0.206 F 
ATOM     70  C   UNL     1       6.664 -15.784  -6.476  1.00  0.00     0.060 A 
BRANCH  70  71
ATOM     71  S   UNL     1       6.354 -16.861  -7.892  1.00  0.00     0.124 S 
ATOM     72  O   UNL     1       6.237 -15.885  -8.977  1.00  0.00    -0.237 OA
ATOM     73  O   UNL     1       7.564 -17.688  -7.922  1.00  0.00    -0.237 OA
ATOM     74  O   UNL     1       5.133 -17.556  -7.536  1.00  0.00    -0.744 OA
ENDBRANCH  70  71
ENDBRANCH  49  63
BRANCH  50  75
ATOM     75  C   UNL     1       8.727  -8.392   3.777  1.00  0.00     0.058 A 
ATOM     76  C   UNL     1       9.919  -8.445   4.515  1.00  0.00     0.135 A 
ATOM     77  C   UNL     1       7.712  -7.539   4.236  1.00  0.00     0.135 A 
ATOM     78  F   UNL     1      10.918  -9.247   4.116  1.00  0.00    -0.206 F 
ATOM     79  C   UNL     1      10.086  -7.712   5.685  1.00  0.00     0.059 A 
ATOM     80  C   UNL     1       7.865  -6.775   5.389  1.00  0.00     0.059 A 
ATOM     81  F   UNL     1       6.560  -7.435   3.554  1.00  0.00    -0.206 F 
ATOM     82  C   UNL     1       9.049  -6.884   6.118  1.00  0.00     0.060 A 
BRANCH  82  83
ATOM     83  S   UNL     1       9.274  -5.930   7.635  1.00  0.00     0.124 S 
ATOM     84  O   UNL     1       9.090  -6.957   8.654  1.00  0.00    -0.237 OA
ATOM     85  O   UNL     1      10.633  -5.420   7.480  1.00  0.00    -0.237 OA
ATOM     86  O   UNL     1       8.222  -4.922   7.554  1.00  0.00    -0.744 OA
ENDBRANCH  82  83
ENDBRANCH  50  75
BRANCH  62  87
ATOM     87  C   UNL     1       8.173 -15.264   2.774  1.00  0.00     0.058 A 
ATOM     88  C   UNL     1       7.119 -15.573   3.646  1.00  0.00     0.135 A 
ATOM     89  C   UNL     1       9.287 -16.119   2.756  1.00  0.00     0.135 A 
ATOM     90  F   UNL     1       6.035 -14.784   3.704  1.00  0.00    -0.206 F 
ATOM     91  C   UNL     1       7.176 -16.680   4.487  1.00  0.00     0.059 A 
ATOM     92  C   UNL     1       9.353 -17.245   3.568  1.00  0.00     0.059 A 
ATOM     93  F   UNL     1      10.315 -15.872   1.929  1.00  0.00    -0.206 F 
ATOM     94  C   UNL     1       8.297 -17.511   4.439  1.00  0.00     0.060 A 
BRANCH  94  95
ATOM     95  S   UNL     1       8.344 -18.964   5.508  1.00  0.00     0.124 S 
ATOM     96  O   UNL     1       8.647 -18.366   6.804  1.00  0.00    -0.237 OA
ATOM     97  O   UNL     1       6.998 -19.508   5.359  1.00  0.00    -0.237 OA
ATOM     98  O   UNL     1       9.409 -19.778   4.927  1.00  0.00    -0.744 OA
ENDBRANCH  94  95
ENDBRANCH  62  87
ENDBRANCH  36  37
ENDBRANCH  28  31
ENDBRANCH  26  27
ENDBRANCH   1  26
TORSDOF 16
