REMARK SMILES CC(C)(C(=O)N1C[C@@H]2c3ccccc3OC[C@]2(C(=O)NCCCNC(=O)c2ccc(-c3c4nc(c(-c5c(F)cc(S(=O)(=O)[O-])cc5F)c5ccc([nH]5)c(-c5c(F)cc(S(=O)(=O)[O-])cc5F)c5nc(c(-c6c(F)cc(S(=O)(=O)[O-])cc6F)c6ccc3[nH]6)C=C5)C=C4)cc2)C1)[NH+]1CCOCC1
REMARK SMILES IDX 22 1 21 2 20 3 18 4 19 5 17 7 6 8 7 9 93 10 8 11 9 12 16 13
REMARK SMILES IDX 10 14 14 15 15 16 11 17 13 18 12 19 4 20 5 21 2 22 1 23 3 24
REMARK SMILES IDX 94 25 95 26 99 27 96 29 98 30 97 31 23 32 24 33 25 34 26 36
REMARK SMILES IDX 27 37 28 38 92 39 29 40 91 41 30 42 31 43 32 44 85 45 33 46
REMARK SMILES IDX 90 47 84 48 86 49 34 50 89 51 83 52 82 53 35 55 69 56 48 57
REMARK SMILES IDX 68 58 49 59 52 60 67 61 87 62 50 63 51 64 66 66 88 67 53 68
REMARK SMILES IDX 36 69 37 70 46 71 38 72 39 73 45 74 47 75 40 76 41 77 42 78
REMARK SMILES IDX 43 79 44 80 70 81 71 82 80 83 72 84 73 85 79 86 81 87 74 88
REMARK SMILES IDX 75 89 76 90 77 91 78 92 54 93 55 94 64 95 56 96 57 97 63 98
REMARK SMILES IDX 65 99 58 100 59 101 60 102 61 103 62 104
REMARK H PARENT 20 6 94 28 24 35 86 54 52 65
REMARK Flexibility Score: inf
ROOT
ATOM      1  C   UNL     1      -1.472  -0.810  -3.549  1.00  0.00     0.042 C 
ENDROOT
BRANCH   1   2
ATOM      2  C   UNL     1      -1.115   0.174  -2.457  1.00  0.00     0.117 C 
BRANCH   2   3
ATOM      3  N   UNL     1      -1.255   1.588  -2.806  1.00  0.00    -0.355 N 
ATOM      4  C   UNL     1      -1.680   2.601  -1.957  1.00  0.00     0.232 C 
ATOM      5  O   UNL     1      -1.288   3.752  -2.161  1.00  0.00    -0.274 OA
ATOM      6  H   UNL     1      -1.028   1.845  -3.729  1.00  0.00     0.163 HD
BRANCH   4   7
ATOM      7  C   UNL     1      -2.671   2.177  -0.814  1.00  0.00     0.109 C 
ATOM      8  N   UNL     1      -1.505   1.294   1.157  1.00  0.00    -0.335 N 
ATOM      9  C   UNL     1      -2.868   1.547   1.539  1.00  0.00     0.129 C 
ATOM     10  C   UNL     1      -1.254   2.084  -0.027  1.00  0.00     0.141 C 
ATOM     11  C   UNL     1      -3.304   2.664   0.575  1.00  0.00     0.063 C 
ATOM     12  C   UNL     1      -4.796   2.869   0.700  1.00  0.00     0.000 A 
ATOM     13  C   UNL     1      -3.713   2.958  -1.728  1.00  0.00     0.249 C 
ATOM     14  C   UNL     1      -5.398   3.245   1.910  1.00  0.00     0.008 A 
ATOM     15  C   UNL     1      -5.597   2.739  -0.425  1.00  0.00     0.122 A 
ATOM     16  O   UNL     1      -5.039   2.399  -1.617  1.00  0.00    -0.492 OA
ATOM     17  C   UNL     1      -6.775   3.474   1.976  1.00  0.00     0.001 A 
ATOM     18  C   UNL     1      -6.973   2.951  -0.370  1.00  0.00     0.047 A 
ATOM     19  C   UNL     1      -7.563   3.330   0.834  1.00  0.00     0.004 A 
BRANCH   8  20
ATOM     20  C   UNL     1      -0.755   0.348   1.831  1.00  0.00     0.283 C 
ATOM     21  O   UNL     1      -1.340  -0.305   2.711  1.00  0.00    -0.268 OA
BRANCH  20  22
ATOM     22  C   UNL     1       0.827   0.169   1.649  1.00  0.00     0.171 C 
ATOM     23  C   UNL     1       1.508   0.874   0.470  1.00  0.00     0.090 C 
ATOM     24  C   UNL     1       1.356   0.886   2.922  1.00  0.00     0.090 C 
BRANCH  22  25
ATOM     25  N   UNL     1       1.255  -1.266   1.780  1.00  0.00    -0.319 N 
ATOM     26  C   UNL     1       2.654  -1.609   1.445  1.00  0.00     0.291 C 
ATOM     27  C   UNL     1       0.380  -2.343   1.281  1.00  0.00     0.291 C 
ATOM     28  H   UNL     1       1.149  -1.253   2.794  1.00  0.00     0.349 HD
ATOM     29  C   UNL     1       2.876  -2.048  -0.019  1.00  0.00     0.221 C 
ATOM     30  C   UNL     1       0.637  -2.761  -0.173  1.00  0.00     0.221 C 
ATOM     31  O   UNL     1       2.006  -3.120  -0.389  1.00  0.00    -0.370 OA
ENDBRANCH  22  25
ENDBRANCH  20  22
ENDBRANCH   8  20
ENDBRANCH   4   7
ENDBRANCH   2   3
ENDBRANCH   1   2
BRANCH   1  32
ATOM     32  C   UNL     1      -0.775  -0.534  -4.871  1.00  0.00     0.118 C 
BRANCH  32  33
ATOM     33  N   UNL     1       0.680  -0.668  -4.825  1.00  0.00    -0.352 N 
ATOM     34  C   UNL     1       1.528  -1.733  -5.043  1.00  0.00     0.251 C 
ATOM     35  H   UNL     1       1.147   0.167  -4.593  1.00  0.00     0.163 HD
ATOM     36  O   UNL     1       2.732  -1.577  -4.847  1.00  0.00    -0.269 OA
BRANCH  34  37
ATOM     37  C   UNL     1       1.011  -3.060  -5.445  1.00  0.00     0.039 A 
ATOM     38  C   UNL     1      -0.058  -3.177  -6.323  1.00  0.00     0.014 A 
ATOM     39  C   UNL     1       1.592  -4.221  -4.922  1.00  0.00     0.014 A 
ATOM     40  C   UNL     1      -0.725  -4.388  -6.440  1.00  0.00     0.010 A 
ATOM     41  C   UNL     1       1.012  -5.472  -5.177  1.00  0.00     0.010 A 
ATOM     42  C   UNL     1      -0.205  -5.559  -5.869  1.00  0.00    -0.014 A 
BRANCH  42  43
ATOM     43  C   UNL     1      -0.983  -6.827  -5.987  1.00  0.00     0.031 A 
ATOM     44  C   UNL     1      -1.427  -7.579  -4.753  1.00  0.00     0.074 A 
ATOM     45  C   UNL     1      -1.393  -7.245  -7.204  1.00  0.00     0.049 A 
ATOM     46  N   UNL     1      -2.131  -8.680  -4.670  1.00  0.00    -0.248 NA
ATOM     47  C   UNL     1      -1.025  -7.036  -3.444  1.00  0.00     0.031 C 
ATOM     48  C   UNL     1      -1.047  -6.603  -8.477  1.00  0.00     0.029 A 
ATOM     49  N   UNL     1      -2.231  -8.267  -7.574  1.00  0.00    -0.354 N 
ATOM     50  C   UNL     1      -2.221  -8.980  -3.315  1.00  0.00     0.074 A 
ATOM     51  C   UNL     1      -1.485  -7.957  -2.608  1.00  0.00     0.031 C 
ATOM     52  C   UNL     1      -1.746  -7.176  -9.467  1.00  0.00     0.029 A 
ATOM     53  C   UNL     1      -2.513  -8.290  -8.921  1.00  0.00     0.049 A 
ATOM     54  H   UNL     1      -2.596  -8.922  -6.936  1.00  0.00     0.167 HD
ATOM     55  C   UNL     1      -2.868 -10.006  -2.712  1.00  0.00     0.037 A 
ATOM     56  C   UNL     1      -3.286  -9.120  -9.647  1.00  0.00     0.037 A 
ATOM     57  C   UNL     1      -3.648 -10.994  -3.413  1.00  0.00     0.049 A 
ATOM     58  C   UNL     1      -3.980 -10.257  -8.957  1.00  0.00     0.074 A 
ATOM     59  C   UNL     1      -4.348 -12.066  -2.887  1.00  0.00     0.029 A 
ATOM     60  N   UNL     1      -3.847 -11.020  -4.785  1.00  0.00    -0.354 N 
ATOM     61  N   UNL     1      -4.011 -10.545  -7.678  1.00  0.00    -0.248 NA
ATOM     62  C   UNL     1      -4.718 -11.200  -9.808  1.00  0.00     0.031 C 
ATOM     63  C   UNL     1      -4.945 -12.760  -3.945  1.00  0.00     0.029 A 
ATOM     64  C   UNL     1      -4.649 -12.097  -5.125  1.00  0.00     0.049 A 
ATOM     65  H   UNL     1      -3.473 -10.370  -5.422  1.00  0.00     0.167 HD
ATOM     66  C   UNL     1      -4.767 -11.705  -7.571  1.00  0.00     0.074 A 
ATOM     67  C   UNL     1      -5.199 -12.050  -8.910  1.00  0.00     0.031 C 
ATOM     68  C   UNL     1      -5.064 -12.428  -6.464  1.00  0.00     0.037 A 
BRANCH  55  69
ATOM     69  C   UNL     1      -2.761 -10.128  -1.217  1.00  0.00     0.058 A 
ATOM     70  C   UNL     1      -3.468  -9.278  -0.353  1.00  0.00     0.135 A 
ATOM     71  C   UNL     1      -1.994 -11.156  -0.642  1.00  0.00     0.135 A 
ATOM     72  F   UNL     1      -4.199  -8.267  -0.849  1.00  0.00    -0.206 F 
ATOM     73  C   UNL     1      -3.413  -9.437   1.029  1.00  0.00     0.059 A 
ATOM     74  C   UNL     1      -1.942 -11.347   0.735  1.00  0.00     0.059 A 
ATOM     75  F   UNL     1      -1.297 -11.995  -1.424  1.00  0.00    -0.206 F 
ATOM     76  C   UNL     1      -2.651 -10.478   1.563  1.00  0.00     0.060 A 
BRANCH  76  77
ATOM     77  S   UNL     1      -2.619 -10.692   3.356  1.00  0.00     0.124 S 
ATOM     78  O   UNL     1      -1.804  -9.555   3.771  1.00  0.00    -0.237 OA
ATOM     79  O   UNL     1      -4.035 -10.617   3.704  1.00  0.00    -0.237 OA
ATOM     80  O   UNL     1      -2.002 -12.003   3.532  1.00  0.00    -0.744 OA
ENDBRANCH  76  77
ENDBRANCH  55  69
BRANCH  56  81
ATOM     81  C   UNL     1      -3.417  -8.918 -11.115  1.00  0.00     0.058 A 
ATOM     82  C   UNL     1      -4.625  -8.489 -11.681  1.00  0.00     0.135 A 
ATOM     83  C   UNL     1      -2.325  -9.117 -11.975  1.00  0.00     0.135 A 
ATOM     84  F   UNL     1      -5.700  -8.293 -10.902  1.00  0.00    -0.206 F 
ATOM     85  C   UNL     1      -4.748  -8.263 -13.049  1.00  0.00     0.059 A 
ATOM     86  C   UNL     1      -2.415  -8.872 -13.341  1.00  0.00     0.059 A 
ATOM     87  F   UNL     1      -1.143  -9.515 -11.480  1.00  0.00    -0.206 F 
ATOM     88  C   UNL     1      -3.634  -8.452 -13.870  1.00  0.00     0.060 A 
BRANCH  88  89
ATOM     89  S   UNL     1      -3.781  -8.090 -15.633  1.00  0.00     0.124 S 
ATOM     90  O   UNL     1      -4.539  -9.242 -16.106  1.00  0.00    -0.237 OA
ATOM     91  O   UNL     1      -4.492  -6.815 -15.627  1.00  0.00    -0.237 OA
ATOM     92  O   UNL     1      -2.392  -8.020 -16.076  1.00  0.00    -0.744 OA
ENDBRANCH  88  89
ENDBRANCH  56  81
BRANCH  68  93
ATOM     93  C   UNL     1      -5.895 -13.662  -6.652  1.00  0.00     0.058 A 
ATOM     94  C   UNL     1      -5.342 -14.838  -7.183  1.00  0.00     0.135 A 
ATOM     95  C   UNL     1      -7.239 -13.688  -6.248  1.00  0.00     0.135 A 
ATOM     96  F   UNL     1      -4.064 -14.858  -7.591  1.00  0.00    -0.206 F 
ATOM     97  C   UNL     1      -6.099 -15.996  -7.320  1.00  0.00     0.059 A 
ATOM     98  C   UNL     1      -8.008 -14.842  -6.356  1.00  0.00     0.059 A 
ATOM     99  F   UNL     1      -7.810 -12.590  -5.729  1.00  0.00    -0.206 F 
ATOM    100  C   UNL     1      -7.431 -15.989  -6.901  1.00  0.00     0.060 A 
BRANCH 100 101
ATOM    101  S   UNL     1      -8.390 -17.511  -7.050  1.00  0.00     0.124 S 
ATOM    102  O   UNL     1      -8.625 -17.570  -8.489  1.00  0.00    -0.237 OA
ATOM    103  O   UNL     1      -7.472 -18.512  -6.515  1.00  0.00    -0.237 OA
ATOM    104  O   UNL     1      -9.570 -17.250  -6.231  1.00  0.00    -0.744 OA
ENDBRANCH 100 101
ENDBRANCH  68  93
ENDBRANCH  42  43
ENDBRANCH  34  37
ENDBRANCH  32  33
ENDBRANCH   1  32
TORSDOF 16
