REMARK SMILES COc1ccc(OC)c(Nc2c(-c3ccc(C(=O)NCCCNC(=O)c4ccc(-c5c6nc(c(-c7c(F)cc(S(=O)(=O)[O-])cc7F)c7ccc([nH]7)c(-c7c(F)cc(S(=O)(=O)[O-])cc7F)c7nc(c(-c8c(F)cc(S(=O)(=O)[O-])cc8F)c8ccc5[nH]8)C=C7)C=C6)cc4)cc3)nc3cnccn23)c1
REMARK SMILES IDX 20 1 19 2 17 3 18 4 16 6 13 7 14 8 93 9 15 10 92 11 12 12
REMARK SMILES IDX 11 13 100 14 94 15 95 16 99 17 96 18 98 19 97 20 10 21 9 23
REMARK SMILES IDX 3 24 4 25 101 26 5 27 6 28 2 29 1 30 7 31 8 32 21 33 22 34
REMARK SMILES IDX 23 35 24 36 25 38 26 39 27 40 91 41 28 42 90 43 29 44 30 45
REMARK SMILES IDX 31 46 84 47 32 48 89 49 83 50 85 51 33 52 88 53 82 54 81 55
REMARK SMILES IDX 34 57 68 58 47 59 67 60 48 61 51 62 66 63 86 64 49 65 50 66
REMARK SMILES IDX 65 68 87 69 52 70 35 71 36 72 45 73 37 74 38 75 44 76 46 77
REMARK SMILES IDX 39 78 40 79 41 80 42 81 43 82 69 83 70 84 79 85 71 86 72 87
REMARK SMILES IDX 78 88 80 89 73 90 74 91 75 92 76 93 77 94 53 95 54 96 63 97
REMARK SMILES IDX 55 98 56 99 62 100 64 101 57 102 58 103 59 104 60 105 61 106
REMARK H PARENT 19 5 10 22 23 37 85 56 51 67
REMARK Flexibility Score: inf
ROOT
ATOM      1  C   UNL     1      10.456  -3.189   5.817  1.00  0.00     0.118 C 
ENDROOT
BRANCH   1   2
ATOM      2  N   UNL     1       9.505  -2.109   6.001  1.00  0.00    -0.352 N 
ATOM      3  C   UNL     1       8.196  -1.970   5.615  1.00  0.00     0.251 C 
ATOM      4  O   UNL     1       7.595  -0.961   5.986  1.00  0.00    -0.269 OA
ATOM      5  H   UNL     1       9.864  -1.335   6.492  1.00  0.00     0.163 HD
BRANCH   3   6
ATOM      6  C   UNL     1       7.467  -2.993   4.812  1.00  0.00     0.039 A 
ATOM      7  C   UNL     1       5.945  -4.869   3.360  1.00  0.00     0.004 A 
ATOM      8  C   UNL     1       5.311  -3.957   4.209  1.00  0.00     0.011 A 
ATOM      9  C   UNL     1       7.332  -4.830   3.228  1.00  0.00     0.011 A 
ATOM     10  C   UNL     1       6.069  -3.030   4.934  1.00  0.00     0.014 A 
ATOM     11  C   UNL     1       8.079  -3.876   3.920  1.00  0.00     0.014 A 
BRANCH   7  12
ATOM     12  C   UNL     1       5.213  -5.823   2.559  1.00  0.00     0.114 A 
ATOM     13  C   UNL     1       4.157  -5.518   1.710  1.00  0.00     0.143 A 
ATOM     14  N   UNL     1       3.954  -6.683   1.003  1.00  0.00    -0.283 N 
ATOM     15  N   UNL     1       5.514  -7.168   2.539  1.00  0.00    -0.225 NA
ATOM     16  C   UNL     1       4.711  -7.651   1.620  1.00  0.00     0.157 A 
ATOM     17  C   UNL     1       3.166  -7.017  -0.084  1.00  0.00     0.115 A 
ATOM     18  C   UNL     1       4.547  -9.014   1.205  1.00  0.00     0.158 A 
ATOM     19  C   UNL     1       3.102  -8.312  -0.446  1.00  0.00     0.129 A 
ATOM     20  N   UNL     1       3.759  -9.340   0.214  1.00  0.00    -0.259 NA
BRANCH  13  21
ATOM     21  N   UNL     1       3.543  -4.345   1.442  1.00  0.00    -0.336 N 
ATOM     22  H   UNL     1       4.117  -3.686   0.987  1.00  0.00     0.168 HD
BRANCH  21  23
ATOM     23  C   UNL     1       2.219  -3.885   1.696  1.00  0.00     0.086 A 
ATOM     24  C   UNL     1       0.776  -1.894   1.269  1.00  0.00     0.121 A 
ATOM     25  C   UNL     1      -0.269  -2.513   1.923  1.00  0.00     0.050 A 
ATOM     26  C   UNL     1       1.988  -2.577   1.145  1.00  0.00     0.076 A 
ATOM     27  C   UNL     1      -0.091  -3.792   2.433  1.00  0.00     0.052 A 
ATOM     28  C   UNL     1       1.132  -4.500   2.350  1.00  0.00     0.142 A 
BRANCH  24  29
ATOM     29  O   UNL     1       0.518  -0.617   0.863  1.00  0.00    -0.497 OA
ATOM     30  C   UNL     1       1.231  -0.154  -0.275  1.00  0.00     0.278 C 
ENDBRANCH  24  29
BRANCH  28  31
ATOM     31  O   UNL     1       0.926  -5.663   3.021  1.00  0.00    -0.495 OA
ATOM     32  C   UNL     1       1.878  -6.648   3.308  1.00  0.00     0.278 C 
ENDBRANCH  28  31
ENDBRANCH  21  23
ENDBRANCH  13  21
ENDBRANCH   7  12
ENDBRANCH   3   6
ENDBRANCH   1   2
BRANCH   1  33
ATOM     33  C   UNL     1      11.374  -2.920   4.626  1.00  0.00     0.042 C 
BRANCH  33  34
ATOM     34  C   UNL     1      12.487  -1.933   4.946  1.00  0.00     0.118 C 
BRANCH  34  35
ATOM     35  N   UNL     1      13.455  -2.500   5.875  1.00  0.00    -0.352 N 
ATOM     36  C   UNL     1      14.802  -2.713   5.708  1.00  0.00     0.251 C 
ATOM     37  H   UNL     1      13.092  -2.769   6.749  1.00  0.00     0.163 HD
ATOM     38  O   UNL     1      15.406  -3.430   6.496  1.00  0.00    -0.269 OA
BRANCH  36  39
ATOM     39  C   UNL     1      15.509  -2.081   4.575  1.00  0.00     0.039 A 
ATOM     40  C   UNL     1      16.454  -2.823   3.861  1.00  0.00     0.014 A 
ATOM     41  C   UNL     1      15.248  -0.753   4.229  1.00  0.00     0.014 A 
ATOM     42  C   UNL     1      17.098  -2.248   2.764  1.00  0.00     0.010 A 
ATOM     43  C   UNL     1      15.828  -0.210   3.090  1.00  0.00     0.010 A 
ATOM     44  C   UNL     1      16.766  -0.948   2.352  1.00  0.00    -0.014 A 
BRANCH  44  45
ATOM     45  C   UNL     1      17.389  -0.318   1.162  1.00  0.00     0.031 A 
ATOM     46  C   UNL     1      18.203   0.935   1.327  1.00  0.00     0.074 A 
ATOM     47  C   UNL     1      17.125  -0.803  -0.066  1.00  0.00     0.049 A 
ATOM     48  N   UNL     1      18.696   1.727   0.412  1.00  0.00    -0.248 NA
ATOM     49  C   UNL     1      18.465   1.373   2.708  1.00  0.00     0.031 C 
ATOM     50  C   UNL     1      16.309  -1.985  -0.349  1.00  0.00     0.029 A 
ATOM     51  N   UNL     1      17.486  -0.342  -1.307  1.00  0.00    -0.354 N 
ATOM     52  C   UNL     1      19.294   2.774   1.103  1.00  0.00     0.074 A 
ATOM     53  C   UNL     1      19.063   2.539   2.511  1.00  0.00     0.031 C 
ATOM     54  C   UNL     1      16.229  -2.155  -1.678  1.00  0.00     0.029 A 
ATOM     55  C   UNL     1      16.944  -1.068  -2.341  1.00  0.00     0.049 A 
ATOM     56  H   UNL     1      18.077   0.433  -1.444  1.00  0.00     0.167 HD
ATOM     57  C   UNL     1      19.984   3.829   0.607  1.00  0.00     0.037 A 
ATOM     58  C   UNL     1      16.990  -0.866  -3.673  1.00  0.00     0.037 A 
ATOM     59  C   UNL     1      20.223   4.035  -0.798  1.00  0.00     0.049 A 
ATOM     60  C   UNL     1      17.766   0.305  -4.209  1.00  0.00     0.074 A 
ATOM     61  C   UNL     1      20.976   5.023  -1.405  1.00  0.00     0.029 A 
ATOM     62  N   UNL     1      19.699   3.248  -1.815  1.00  0.00    -0.354 N 
ATOM     63  N   UNL     1      18.394   1.246  -3.544  1.00  0.00    -0.248 NA
ATOM     64  C   UNL     1      17.849   0.443  -5.669  1.00  0.00     0.031 C 
ATOM     65  C   UNL     1      20.857   4.872  -2.789  1.00  0.00     0.029 A 
ATOM     66  C   UNL     1      20.087   3.747  -3.046  1.00  0.00     0.049 A 
ATOM     67  H   UNL     1      19.136   2.452  -1.679  1.00  0.00     0.167 HD
ATOM     68  C   UNL     1      18.972   2.071  -4.503  1.00  0.00     0.074 A 
ATOM     69  C   UNL     1      18.617   1.518  -5.794  1.00  0.00     0.031 C 
ATOM     70  C   UNL     1      19.734   3.178  -4.326  1.00  0.00     0.037 A 
BRANCH  57  71
ATOM     71  C   UNL     1      20.501   4.848   1.587  1.00  0.00     0.058 A 
ATOM     72  C   UNL     1      21.510   4.545   2.516  1.00  0.00     0.135 A 
ATOM     73  C   UNL     1      19.977   6.151   1.597  1.00  0.00     0.135 A 
ATOM     74  F   UNL     1      22.043   3.314   2.560  1.00  0.00    -0.206 F 
ATOM     75  C   UNL     1      21.940   5.478   3.455  1.00  0.00     0.059 A 
ATOM     76  C   UNL     1      20.417   7.112   2.503  1.00  0.00     0.059 A 
ATOM     77  F   UNL     1      19.014   6.500   0.729  1.00  0.00    -0.206 F 
ATOM     78  C   UNL     1      21.381   6.757   3.444  1.00  0.00     0.060 A 
BRANCH  78  79
ATOM     79  S   UNL     1      21.922   7.945   4.691  1.00  0.00     0.124 S 
ATOM     80  O   UNL     1      21.287   7.412   5.893  1.00  0.00    -0.237 OA
ATOM     81  O   UNL     1      23.375   7.817   4.634  1.00  0.00    -0.237 OA
ATOM     82  O   UNL     1      21.387   9.214   4.209  1.00  0.00    -0.744 OA
ENDBRANCH  78  79
ENDBRANCH  57  71
BRANCH  58  83
ATOM     83  C   UNL     1      16.277  -1.809  -4.575  1.00  0.00     0.058 A 
ATOM     84  C   UNL     1      16.980  -2.737  -5.355  1.00  0.00     0.135 A 
ATOM     85  C   UNL     1      14.873  -1.852  -4.612  1.00  0.00     0.135 A 
ATOM     86  F   UNL     1      18.321  -2.731  -5.358  1.00  0.00    -0.206 F 
ATOM     87  C   UNL     1      16.319  -3.682  -6.134  1.00  0.00     0.059 A 
ATOM     88  C   UNL     1      14.190  -2.802  -5.364  1.00  0.00     0.059 A 
ATOM     89  F   UNL     1      14.154  -0.996  -3.870  1.00  0.00    -0.206 F 
ATOM     90  C   UNL     1      14.923  -3.714  -6.122  1.00  0.00     0.060 A 
BRANCH  90  91
ATOM     91  S   UNL     1      14.079  -5.008  -7.059  1.00  0.00     0.124 S 
ATOM     92  O   UNL     1      14.311  -4.576  -8.432  1.00  0.00    -0.237 OA
ATOM     93  O   UNL     1      14.795  -6.207  -6.635  1.00  0.00    -0.237 OA
ATOM     94  O   UNL     1      12.698  -4.914  -6.592  1.00  0.00    -0.744 OA
ENDBRANCH  90  91
ENDBRANCH  58  83
BRANCH  70  95
ATOM     95  C   UNL     1      20.286   3.858  -5.548  1.00  0.00     0.058 A 
ATOM     96  C   UNL     1      19.482   4.643  -6.387  1.00  0.00     0.135 A 
ATOM     97  C   UNL     1      21.666   3.819  -5.809  1.00  0.00     0.135 A 
ATOM     98  F   UNL     1      18.156   4.706  -6.188  1.00  0.00    -0.206 F 
ATOM     99  C   UNL     1      20.028   5.371  -7.440  1.00  0.00     0.059 A 
ATOM    100  C   UNL     1      22.237   4.560  -6.838  1.00  0.00     0.059 A 
ATOM    101  F   UNL     1      22.480   3.087  -5.031  1.00  0.00    -0.206 F 
ATOM    102  C   UNL     1      21.409   5.334  -7.649  1.00  0.00     0.060 A 
BRANCH 102 103
ATOM    103  S   UNL     1      22.113   6.355  -8.961  1.00  0.00     0.124 S 
ATOM    104  O   UNL     1      21.664   5.649 -10.156  1.00  0.00    -0.237 OA
ATOM    105  O   UNL     1      21.487   7.650  -8.716  1.00  0.00    -0.237 OA
ATOM    106  O   UNL     1      23.549   6.300  -8.702  1.00  0.00    -0.744 OA
ENDBRANCH 102 103
ENDBRANCH  70  95
ENDBRANCH  44  45
ENDBRANCH  36  39
ENDBRANCH  34  35
ENDBRANCH  33  34
ENDBRANCH   1  33
TORSDOF 18
