REMARK SMILES C[C@@H](C(=O)NCCCNC(=O)c1ccc(-c2c3nc(c(-c4c(F)cc(S(=O)(=O)[O-])cc4F)c4ccc([nH]4)c(-c4c(F)cc(S(=O)(=O)[O-])cc4F)c4nc(c(-c5c(F)cc(S(=O)(=O)[O-])cc5F)c5ccc2[nH]5)C=C4)C=C3)cc1)N1C(=O)/C(=C/c2ccc(-c3ccc([N+](=O)[O-])cc3Cl)o2)SC1=S
REMARK SMILES IDX 6 1 5 2 3 3 4 4 2 6 1 7 78 8 79 9 99 10 80 11 81 12 98 13
REMARK SMILES IDX 100 14 82 15 83 16 84 17 97 18 85 19 86 20 87 21 88 22 95 23
REMARK SMILES IDX 89 24 94 25 96 26 90 27 91 28 92 29 93 30 7 31 8 32 9 33
REMARK SMILES IDX 10 34 11 36 12 37 13 38 77 39 14 40 76 41 15 42 16 43 17 44
REMARK SMILES IDX 70 45 18 46 75 47 69 48 71 49 19 50 74 51 68 52 67 53 20 55
REMARK SMILES IDX 54 56 33 57 53 58 34 59 37 60 52 61 72 62 35 63 36 64 51 66
REMARK SMILES IDX 73 67 38 68 21 69 22 70 31 71 23 72 24 73 30 74 32 75 25 76
REMARK SMILES IDX 26 77 27 78 28 79 29 80 55 81 56 82 65 83 57 84 58 85 64 86
REMARK SMILES IDX 66 87 59 88 60 89 61 90 62 91 63 92 39 93 40 94 49 95 41 96
REMARK SMILES IDX 42 97 48 98 50 99 43 100 44 101 45 102 46 103 47 104
REMARK H PARENT 5 5 9 35 71 54 37 65
REMARK Flexibility Score: inf
ROOT
ATOM      1  C   UNL     1       3.379   1.577   1.334  1.00  0.00     0.117 C 
ENDROOT
BRANCH   1   2
ATOM      2  N   UNL     1       2.331   2.432   0.798  1.00  0.00    -0.354 N 
ATOM      3  C   UNL     1       1.053   2.111   0.431  1.00  0.00     0.242 C 
ATOM      4  O   UNL     1       0.446   2.885  -0.312  1.00  0.00    -0.273 OA
ATOM      5  H   UNL     1       2.577   3.378   0.683  1.00  0.00     0.163 HD
BRANCH   3   6
ATOM      6  C   UNL     1       0.435   0.782   0.915  1.00  0.00     0.178 C 
ATOM      7  C   UNL     1       0.848  -0.230  -0.172  1.00  0.00     0.042 C 
BRANCH   6   8
ATOM      8  N   UNL     1      -1.040   0.877   1.083  1.00  0.00    -0.281 N 
ATOM      9  C   UNL     1      -1.804  -0.273   1.052  1.00  0.00     0.267 C 
ATOM     10  C   UNL     1      -1.716   1.935   1.663  1.00  0.00     0.149 C 
ATOM     11  O   UNL     1      -1.392  -1.431   1.069  1.00  0.00    -0.268 OA
ATOM     12  C   UNL     1      -3.249   0.043   1.117  1.00  0.00     0.084 C 
ATOM     13  S   UNL     1      -3.452   1.717   1.415  1.00  0.00    -0.054 SA
ATOM     14  S   UNL     1      -1.130   3.216   2.560  1.00  0.00    -0.052 S 
ATOM     15  C   UNL     1      -4.173  -0.915   0.977  1.00  0.00     0.068 C 
BRANCH  15  16
ATOM     16  C   UNL     1      -5.559  -0.638   0.893  1.00  0.00     0.128 A 
ATOM     17  C   UNL     1      -6.247  -0.012  -0.140  1.00  0.00     0.051 A 
ATOM     18  O   UNL     1      -6.477  -1.010   1.847  1.00  0.00    -0.457 OA
ATOM     19  C   UNL     1      -7.613   0.018   0.208  1.00  0.00     0.051 A 
ATOM     20  C   UNL     1      -7.703  -0.574   1.448  1.00  0.00     0.136 A 
BRANCH  20  21
ATOM     21  C   UNL     1      -8.822  -0.828   2.342  1.00  0.00     0.036 A 
ATOM     22  C   UNL     1      -9.960  -1.464   1.813  1.00  0.00     0.020 A 
ATOM     23  C   UNL     1      -8.850  -0.397   3.682  1.00  0.00     0.058 A 
ATOM     24  C   UNL     1     -11.108  -1.649   2.587  1.00  0.00     0.086 A 
ATOM     25  C   UNL     1      -9.998  -0.578   4.465  1.00  0.00     0.106 A 
ATOM     26  Cl  UNL     1      -7.525   0.436   4.420  1.00  0.00    -0.083 Cl
ATOM     27  C   UNL     1     -11.125  -1.193   3.909  1.00  0.00     0.270 A 
BRANCH  27  28
ATOM     28  N   UNL     1     -12.347  -1.335   4.710  1.00  0.00     0.062 N 
ATOM     29  O   UNL     1     -13.330  -1.864   4.172  1.00  0.00    -0.258 OA
ATOM     30  O   UNL     1     -12.327  -0.908   5.872  1.00  0.00    -0.258 OA
ENDBRANCH  27  28
ENDBRANCH  20  21
ENDBRANCH  15  16
ENDBRANCH   6   8
ENDBRANCH   3   6
ENDBRANCH   1   2
BRANCH   1  31
ATOM     31  C   UNL     1       4.400   1.215   0.254  1.00  0.00     0.042 C 
BRANCH  31  32
ATOM     32  C   UNL     1       5.201   2.404  -0.270  1.00  0.00     0.118 C 
BRANCH  32  33
ATOM     33  N   UNL     1       6.133   2.924   0.716  1.00  0.00    -0.352 N 
ATOM     34  C   UNL     1       7.476   3.186   0.587  1.00  0.00     0.251 C 
ATOM     35  H   UNL     1       5.749   3.115   1.602  1.00  0.00     0.163 HD
ATOM     36  O   UNL     1       8.135   3.457   1.587  1.00  0.00    -0.269 OA
BRANCH  34  37
ATOM     37  C   UNL     1       8.131   3.118  -0.739  1.00  0.00     0.039 A 
ATOM     38  C   UNL     1       9.374   2.488  -0.842  1.00  0.00     0.014 A 
ATOM     39  C   UNL     1       7.542   3.689  -1.872  1.00  0.00     0.014 A 
ATOM     40  C   UNL     1       9.999   2.380  -2.087  1.00  0.00     0.010 A 
ATOM     41  C   UNL     1       8.137   3.528  -3.122  1.00  0.00     0.010 A 
ATOM     42  C   UNL     1       9.372   2.873  -3.243  1.00  0.00    -0.014 A 
BRANCH  42  43
ATOM     43  C   UNL     1       9.991   2.706  -4.583  1.00  0.00     0.031 A 
ATOM     44  C   UNL     1      10.455   3.908  -5.360  1.00  0.00     0.074 A 
ATOM     45  C   UNL     1      10.085   1.476  -5.125  1.00  0.00     0.049 A 
ATOM     46  N   UNL     1      10.947   3.968  -6.571  1.00  0.00    -0.248 NA
ATOM     47  C   UNL     1      10.328   5.215  -4.698  1.00  0.00     0.031 C 
ATOM     48  C   UNL     1       9.638   0.235  -4.489  1.00  0.00     0.029 A 
ATOM     49  N   UNL     1      10.577   1.067  -6.339  1.00  0.00    -0.354 N 
ATOM     50  C   UNL     1      11.178   5.315  -6.821  1.00  0.00     0.074 A 
ATOM     51  C   UNL     1      10.731   6.042  -5.652  1.00  0.00     0.031 C 
ATOM     52  C   UNL     1       9.892  -0.797  -5.310  1.00  0.00     0.029 A 
ATOM     53  C   UNL     1      10.487  -0.290  -6.543  1.00  0.00     0.049 A 
ATOM     54  H   UNL     1      10.958   1.687  -7.002  1.00  0.00     0.167 HD
ATOM     55  C   UNL     1      11.730   5.893  -7.915  1.00  0.00     0.037 A 
ATOM     56  C   UNL     1      10.837  -1.041  -7.605  1.00  0.00     0.037 A 
ATOM     57  C   UNL     1      12.195   5.165  -9.068  1.00  0.00     0.049 A 
ATOM     58  C   UNL     1      11.449  -0.379  -8.807  1.00  0.00     0.074 A 
ATOM     59  C   UNL     1      12.806   5.658 -10.208  1.00  0.00     0.029 A 
ATOM     60  N   UNL     1      12.105   3.790  -9.226  1.00  0.00    -0.354 N 
ATOM     61  N   UNL     1      11.695   0.893  -9.010  1.00  0.00    -0.248 NA
ATOM     62  C   UNL     1      11.835  -1.253  -9.924  1.00  0.00     0.031 C 
ATOM     63  C   UNL     1      13.059   4.584 -11.069  1.00  0.00     0.029 A 
ATOM     64  C   UNL     1      12.639   3.418 -10.450  1.00  0.00     0.049 A 
ATOM     65  H   UNL     1      11.718   3.170  -8.567  1.00  0.00     0.167 HD
ATOM     66  C   UNL     1      12.284   0.970 -10.267  1.00  0.00     0.074 A 
ATOM     67  C   UNL     1      12.367  -0.384 -10.774  1.00  0.00     0.031 C 
ATOM     68  C   UNL     1      12.719   2.065 -10.938  1.00  0.00     0.037 A 
BRANCH  55  69
ATOM     69  C   UNL     1      11.866   7.390  -7.914  1.00  0.00     0.058 A 
ATOM     70  C   UNL     1      12.816   8.038  -7.108  1.00  0.00     0.135 A 
ATOM     71  C   UNL     1      11.060   8.184  -8.745  1.00  0.00     0.135 A 
ATOM     72  F   UNL     1      13.602   7.327  -6.284  1.00  0.00    -0.206 F 
ATOM     73  C   UNL     1      12.941   9.423  -7.103  1.00  0.00     0.059 A 
ATOM     74  C   UNL     1      11.185   9.570  -8.774  1.00  0.00     0.059 A 
ATOM     75  F   UNL     1      10.136   7.615  -9.535  1.00  0.00    -0.206 F 
ATOM     76  C   UNL     1      12.118  10.181  -7.937  1.00  0.00     0.060 A 
BRANCH  76  77
ATOM     77  S   UNL     1      12.289  11.978  -7.918  1.00  0.00     0.124 S 
ATOM     78  O   UNL     1      11.623  12.319  -6.664  1.00  0.00    -0.237 OA
ATOM     79  O   UNL     1      13.737  12.157  -7.934  1.00  0.00    -0.237 OA
ATOM     80  O   UNL     1      11.595  12.398  -9.131  1.00  0.00    -0.744 OA
ENDBRANCH  76  77
ENDBRANCH  55  69
BRANCH  56  81
ATOM     81  C   UNL     1      10.637  -2.513  -7.564  1.00  0.00     0.058 A 
ATOM     82  C   UNL     1      11.728  -3.382  -7.420  1.00  0.00     0.135 A 
ATOM     83  C   UNL     1       9.354  -3.077  -7.640  1.00  0.00     0.135 A 
ATOM     84  F   UNL     1      12.973  -2.888  -7.350  1.00  0.00    -0.206 F 
ATOM     85  C   UNL     1      11.557  -4.761  -7.361  1.00  0.00     0.059 A 
ATOM     86  C   UNL     1       9.156  -4.452  -7.562  1.00  0.00     0.059 A 
ATOM     87  F   UNL     1       8.277  -2.285  -7.761  1.00  0.00    -0.206 F 
ATOM     88  C   UNL     1      10.266  -5.286  -7.429  1.00  0.00     0.060 A 
BRANCH  88  89
ATOM     89  S   UNL     1      10.047  -7.074  -7.285  1.00  0.00     0.124 S 
ATOM     90  O   UNL     1      10.468  -7.528  -8.605  1.00  0.00    -0.237 OA
ATOM     91  O   UNL     1      10.941  -7.405  -6.179  1.00  0.00    -0.237 OA
ATOM     92  O   UNL     1       8.624  -7.212  -6.991  1.00  0.00    -0.744 OA
ENDBRANCH  88  89
ENDBRANCH  56  81
BRANCH  68  93
ATOM     93  C   UNL     1      13.348   1.843 -12.284  1.00  0.00     0.058 A 
ATOM     94  C   UNL     1      12.576   1.542 -13.416  1.00  0.00     0.135 A 
ATOM     95  C   UNL     1      14.735   1.985 -12.452  1.00  0.00     0.135 A 
ATOM     96  F   UNL     1      11.247   1.389 -13.307  1.00  0.00    -0.206 F 
ATOM     97  C   UNL     1      13.160   1.372 -14.668  1.00  0.00     0.059 A 
ATOM     98  C   UNL     1      15.337   1.840 -13.698  1.00  0.00     0.059 A 
ATOM     99  F   UNL     1      15.517   2.281 -11.402  1.00  0.00    -0.206 F 
ATOM    100  C   UNL     1      14.542   1.523 -14.799  1.00  0.00     0.060 A 
BRANCH 100 101
ATOM    101  S   UNL     1      15.285   1.336 -16.434  1.00  0.00     0.124 S 
ATOM    102  O   UNL     1      15.283  -0.115 -16.592  1.00  0.00    -0.237 OA
ATOM    103  O   UNL     1      14.354   2.068 -17.288  1.00  0.00    -0.237 OA
ATOM    104  O   UNL     1      16.600   1.950 -16.280  1.00  0.00    -0.744 OA
ENDBRANCH 100 101
ENDBRANCH  68  93
ENDBRANCH  42  43
ENDBRANCH  34  37
ENDBRANCH  32  33
ENDBRANCH  31  32
ENDBRANCH   1  31
TORSDOF 17
