REMARK SMILES Cc1ccccc1C(=O)Nc1cc(C(=O)NCCCNC(=O)c2ccc(-c3c4nc(c(-c5c(F)cc(S(=O)(=O)[O-])cc5F)c5ccc([nH]5)c(-c5c(F)cc(S(=O)(=O)[O-])cc5F)c5nc(c(-c6c(F)cc(S(=O)(=O)[O-])cc6F)c6ccc3[nH]6)C=C5)C=C4)cc2)ccc1N1CC[NH+](CC(=O)Nc2ccc(F)cc2)CC1
REMARK SMILES IDX 17 1 16 2 14 3 15 4 13 6 11 7 12 8 91 9 90 10 89 11 10 12
REMARK SMILES IDX 8 13 9 14 7 16 1 17 2 18 3 19 4 20 6 21 5 22 92 23 93 24
REMARK SMILES IDX 108 25 94 26 107 27 95 28 96 30 97 31 98 32 99 33 100 35
REMARK SMILES IDX 101 36 106 37 102 38 105 39 103 40 104 41 18 42 19 43 20 44
REMARK SMILES IDX 21 45 22 47 23 48 24 49 88 50 25 51 87 52 26 53 27 54 28 55
REMARK SMILES IDX 81 56 29 57 86 58 80 59 82 60 30 61 85 62 79 63 78 64 31 66
REMARK SMILES IDX 65 67 44 68 64 69 45 70 48 71 63 72 83 73 46 74 47 75 62 77
REMARK SMILES IDX 84 78 49 79 32 80 33 81 42 82 34 83 35 84 41 85 43 86 36 87
REMARK SMILES IDX 37 88 38 89 39 90 40 91 66 92 67 93 76 94 68 95 69 96 75 97
REMARK SMILES IDX 77 98 70 99 71 100 72 101 73 102 74 103 50 104 51 105 60 106
REMARK SMILES IDX 52 107 53 108 59 109 61 110 54 111 55 112 56 113 57 114
REMARK SMILES IDX 58 115
REMARK H PARENT 16 5 10 15 95 29 99 34 20 46 82 65 48 76
REMARK Flexibility Score: inf
ROOT
ATOM      1  C   UNL     1       0.971  -0.690  -2.139  1.00  0.00     0.118 C 
ENDROOT
BRANCH   1   2
ATOM      2  N   UNL     1       2.133  -1.569  -2.517  1.00  0.00    -0.352 N 
ATOM      3  C   UNL     1       3.468  -1.713  -2.190  1.00  0.00     0.251 C 
ATOM      4  O   UNL     1       4.134  -2.702  -2.492  1.00  0.00    -0.269 OA
ATOM      5  H   UNL     1       1.865  -2.234  -3.192  1.00  0.00     0.163 HD
BRANCH   3   6
ATOM      6  C   UNL     1       4.129  -0.641  -1.437  1.00  0.00     0.042 A 
ATOM      7  C   UNL     1       3.760   1.506  -0.529  1.00  0.00     0.065 A 
ATOM      8  C   UNL     1       3.537   0.596  -1.517  1.00  0.00     0.042 A 
ATOM      9  C   UNL     1       4.957   1.448   0.228  1.00  0.00     0.061 A 
ATOM     10  C   UNL     1       5.697   0.252   0.158  1.00  0.00     0.029 A 
ATOM     11  C   UNL     1       5.242  -0.827  -0.614  1.00  0.00     0.016 A 
BRANCH   7  12
ATOM     12  N   UNL     1       2.809   2.526  -0.395  1.00  0.00    -0.320 N 
ATOM     13  C   UNL     1       1.511   2.508   0.118  1.00  0.00     0.255 C 
ATOM     14  O   UNL     1       1.029   3.627   0.356  1.00  0.00    -0.269 OA
ATOM     15  H   UNL     1       3.108   3.407  -0.718  1.00  0.00     0.170 HD
BRANCH  13  16
ATOM     16  C   UNL     1       0.610   1.330   0.430  1.00  0.00     0.043 A 
ATOM     17  C   UNL     1       2.199  -0.304   1.666  1.00  0.00     0.045 C 
ATOM     18  C   UNL     1       0.886   0.101   1.071  1.00  0.00    -0.038 A 
ATOM     19  C   UNL     1      -0.117  -0.911   1.097  1.00  0.00     0.004 A 
ATOM     20  C   UNL     1      -1.393  -0.703   0.579  1.00  0.00     0.000 A 
ATOM     21  C   UNL     1      -0.727   1.538  -0.000  1.00  0.00     0.014 A 
ATOM     22  C   UNL     1      -1.709   0.540   0.061  1.00  0.00     0.001 A 
ENDBRANCH  13  16
ENDBRANCH   7  12
BRANCH   9  23
ATOM     23  N   UNL     1       5.354   2.505   1.026  1.00  0.00    -0.359 N 
ATOM     24  C   UNL     1       6.738   2.747   1.486  1.00  0.00     0.178 C 
ATOM     25  C   UNL     1       4.356   3.095   1.895  1.00  0.00     0.178 C 
ATOM     26  C   UNL     1       6.926   4.216   2.026  1.00  0.00     0.284 C 
ATOM     27  C   UNL     1       4.591   4.607   1.891  1.00  0.00     0.284 C 
ATOM     28  N   UNL     1       5.784   4.914   2.661  1.00  0.00    -0.324 N 
ATOM     29  H   UNL     1       6.059   5.895   2.627  1.00  0.00     0.348 HD
BRANCH  28  30
ATOM     30  C   UNL     1       5.550   4.826   4.122  1.00  0.00     0.364 C 
BRANCH  30  31
ATOM     31  C   UNL     1       5.191   3.487   4.776  1.00  0.00     0.279 C 
ATOM     32  O   UNL     1       6.120   2.716   5.078  1.00  0.00    -0.268 OA
ATOM     33  N   UNL     1       3.949   3.054   5.168  1.00  0.00    -0.321 N 
ATOM     34  H   UNL     1       4.060   2.347   5.844  1.00  0.00     0.170 HD
BRANCH  33  35
ATOM     35  C   UNL     1       2.559   3.260   4.948  1.00  0.00     0.041 A 
ATOM     36  C   UNL     1       1.700   2.534   5.796  1.00  0.00     0.029 A 
ATOM     37  C   UNL     1       1.939   3.978   3.931  1.00  0.00     0.029 A 
ATOM     38  C   UNL     1       0.304   2.530   5.629  1.00  0.00     0.041 A 
ATOM     39  C   UNL     1       0.546   3.936   3.714  1.00  0.00     0.041 A 
ATOM     40  C   UNL     1      -0.263   3.223   4.575  1.00  0.00     0.123 A 
ATOM     41  F   UNL     1      -1.589   3.205   4.393  1.00  0.00    -0.207 F 
ENDBRANCH  33  35
ENDBRANCH  30  31
ENDBRANCH  28  30
ENDBRANCH   9  23
ENDBRANCH   3   6
ENDBRANCH   1   2
BRANCH   1  42
ATOM     42  C   UNL     1       0.291   0.461  -3.116  1.00  0.00     0.042 C 
BRANCH  42  43
ATOM     43  C   UNL     1      -1.203   0.121  -3.658  1.00  0.00     0.118 C 
BRANCH  43  44
ATOM     44  N   UNL     1      -2.080   0.765  -4.827  1.00  0.00    -0.352 N 
ATOM     45  C   UNL     1      -2.781   0.395  -6.069  1.00  0.00     0.251 C 
ATOM     46  H   UNL     1      -2.187   1.730  -4.664  1.00  0.00     0.163 HD
ATOM     47  O   UNL     1      -3.972   0.764  -6.074  1.00  0.00    -0.269 OA
BRANCH  45  48
ATOM     48  C   UNL     1      -2.384  -0.385  -7.402  1.00  0.00     0.039 A 
ATOM     49  C   UNL     1      -3.189  -1.419  -7.965  1.00  0.00     0.014 A 
ATOM     50  C   UNL     1      -1.238  -0.190  -8.140  1.00  0.00     0.014 A 
ATOM     51  C   UNL     1      -2.566  -2.577  -8.556  1.00  0.00     0.010 A 
ATOM     52  C   UNL     1      -0.631  -1.305  -8.782  1.00  0.00     0.010 A 
ATOM     53  C   UNL     1      -1.187  -2.595  -8.726  1.00  0.00    -0.014 A 
BRANCH  53  54
ATOM     54  C   UNL     1      -0.315  -3.849  -8.720  1.00  0.00     0.031 A 
ATOM     55  C   UNL     1       0.302  -4.302  -9.958  1.00  0.00     0.074 A 
ATOM     56  C   UNL     1       0.164  -4.590  -7.668  1.00  0.00     0.049 A 
ATOM     57  N   UNL     1       0.274  -5.517 -10.398  1.00  0.00    -0.248 NA
ATOM     58  C   UNL     1       1.065  -3.377 -10.769  1.00  0.00     0.031 C 
ATOM     59  C   UNL     1       1.130  -5.705  -7.562  1.00  0.00     0.029 A 
ATOM     60  N   UNL     1      -0.102  -4.438  -6.322  1.00  0.00    -0.354 N 
ATOM     61  C   UNL     1       1.284  -5.585 -11.334  1.00  0.00     0.074 A 
ATOM     62  C   UNL     1       1.554  -4.208 -11.687  1.00  0.00     0.031 C 
ATOM     63  C   UNL     1       0.982  -6.322  -6.364  1.00  0.00     0.029 A 
ATOM     64  C   UNL     1      -0.102  -5.663  -5.668  1.00  0.00     0.049 A 
ATOM     65  H   UNL     1      -0.270  -3.573  -5.883  1.00  0.00     0.167 HD
ATOM     66  C   UNL     1       2.001  -6.737 -11.522  1.00  0.00     0.037 A 
ATOM     67  C   UNL     1      -1.307  -6.136  -5.223  1.00  0.00     0.037 A 
ATOM     68  C   UNL     1       1.677  -7.758 -10.500  1.00  0.00     0.049 A 
ATOM     69  C   UNL     1      -1.764  -7.272  -6.083  1.00  0.00     0.074 A 
ATOM     70  C   UNL     1       2.381  -8.316  -9.440  1.00  0.00     0.029 A 
ATOM     71  N   UNL     1       0.360  -8.139 -10.290  1.00  0.00    -0.354 N 
ATOM     72  N   UNL     1      -0.992  -7.851  -6.952  1.00  0.00    -0.248 NA
ATOM     73  C   UNL     1      -3.124  -7.797  -6.109  1.00  0.00     0.031 C 
ATOM     74  C   UNL     1       1.466  -9.018  -8.598  1.00  0.00     0.029 A 
ATOM     75  C   UNL     1       0.205  -8.915  -9.152  1.00  0.00     0.049 A 
ATOM     76  H   UNL     1      -0.384  -7.886 -10.884  1.00  0.00     0.167 HD
ATOM     77  C   UNL     1      -1.713  -8.708  -7.718  1.00  0.00     0.074 A 
ATOM     78  C   UNL     1      -3.045  -8.666  -7.134  1.00  0.00     0.031 C 
ATOM     79  C   UNL     1      -1.139  -9.353  -8.776  1.00  0.00     0.037 A 
BRANCH  66  80
ATOM     80  C   UNL     1       3.226  -6.808 -12.432  1.00  0.00     0.058 A 
ATOM     81  C   UNL     1       4.163  -7.857 -12.331  1.00  0.00     0.135 A 
ATOM     82  C   UNL     1       3.522  -5.883 -13.459  1.00  0.00     0.135 A 
ATOM     83  F   UNL     1       3.950  -8.911 -11.532  1.00  0.00    -0.206 F 
ATOM     84  C   UNL     1       5.343  -7.907 -13.084  1.00  0.00     0.059 A 
ATOM     85  C   UNL     1       4.730  -5.856 -14.159  1.00  0.00     0.059 A 
ATOM     86  F   UNL     1       2.603  -5.025 -13.921  1.00  0.00    -0.206 F 
ATOM     87  C   UNL     1       5.637  -6.881 -13.972  1.00  0.00     0.060 A 
BRANCH  87  88
ATOM     88  S   UNL     1       7.142  -6.964 -14.958  1.00  0.00     0.124 S 
ATOM     89  O   UNL     1       8.180  -7.046 -13.936  1.00  0.00    -0.237 OA
ATOM     90  O   UNL     1       6.924  -8.176 -15.741  1.00  0.00    -0.237 OA
ATOM     91  O   UNL     1       7.121  -5.719 -15.722  1.00  0.00    -0.744 OA
ENDBRANCH  87  88
ENDBRANCH  66  80
BRANCH  67  92
ATOM     92  C   UNL     1      -2.223  -5.078  -4.604  1.00  0.00     0.058 A 
ATOM     93  C   UNL     1      -1.616  -4.410  -3.535  1.00  0.00     0.135 A 
ATOM     94  C   UNL     1      -2.817  -4.196  -5.488  1.00  0.00     0.135 A 
ATOM     95  F   UNL     1      -1.495  -5.005  -2.344  1.00  0.00    -0.206 F 
ATOM     96  C   UNL     1      -0.936  -3.215  -3.762  1.00  0.00     0.059 A 
ATOM     97  C   UNL     1      -2.293  -2.905  -5.609  1.00  0.00     0.059 A 
ATOM     98  F   UNL     1      -3.833  -4.579  -6.277  1.00  0.00    -0.206 F 
ATOM     99  C   UNL     1      -1.119  -2.556  -4.973  1.00  0.00     0.060 A 
BRANCH  99 100
ATOM    100  S   UNL     1       0.453  -1.530  -5.711  1.00  0.00     0.124 S 
ATOM    101  O   UNL     1       1.372  -1.773  -4.625  1.00  0.00    -0.237 OA
ATOM    102  O   UNL     1       0.984  -2.204  -6.887  1.00  0.00    -0.237 OA
ATOM    103  O   UNL     1       0.096  -0.155  -5.899  1.00  0.00    -0.744 OA
ENDBRANCH  99 100
ENDBRANCH  67  92
BRANCH  79 104
ATOM    104  C   UNL     1      -1.822 -10.438  -9.559  1.00  0.00     0.058 A 
ATOM    105  C   UNL     1      -2.731 -11.338  -8.976  1.00  0.00     0.135 A 
ATOM    106  C   UNL     1      -1.487 -10.698 -10.907  1.00  0.00     0.135 A 
ATOM    107  F   UNL     1      -3.003 -11.304  -7.663  1.00  0.00    -0.206 F 
ATOM    108  C   UNL     1      -3.363 -12.337  -9.713  1.00  0.00     0.059 A 
ATOM    109  C   UNL     1      -2.063 -11.721 -11.645  1.00  0.00     0.059 A 
ATOM    110  F   UNL     1      -0.586  -9.968 -11.575  1.00  0.00    -0.206 F 
ATOM    111  C   UNL     1      -3.031 -12.512 -11.052  1.00  0.00     0.060 A 
BRANCH 111 112
ATOM    112  S   UNL     1      -3.844 -13.801 -12.001  1.00  0.00     0.124 S 
ATOM    113  O   UNL     1      -3.810 -14.934 -11.081  1.00  0.00    -0.237 OA
ATOM    114  O   UNL     1      -5.158 -13.209 -12.227  1.00  0.00    -0.237 OA
ATOM    115  O   UNL     1      -3.003 -13.938 -13.185  1.00  0.00    -0.744 OA
ENDBRANCH 111 112
ENDBRANCH  79 104
ENDBRANCH  53  54
ENDBRANCH  45  48
ENDBRANCH  43  44
ENDBRANCH  42  43
ENDBRANCH   1  42
TORSDOF 19
