REMARK SMILES Cc1c(CC(=O)NCCCNC(=O)c2ccc(-c3c4nc(c(-c5c(F)cc(S(=O)(=O)[O-])cc5F)c5ccc([nH]5)c(-c5c(F)cc(S(=O)(=O)[O-])cc5F)c5nc(c(-c6c(F)cc(S(=O)(=O)[O-])cc6F)c6ccc3[nH]6)C=C5)C=C4)cc2)c2cc(O)ccc2n1C(=O)c1ccc(Cl)cc1
REMARK SMILES IDX 9 1 8 2 7 3 5 4 6 5 4 7 3 8 1 9 2 10 87 11 80 12 86 13 81 14
REMARK SMILES IDX 85 15 82 16 84 17 88 18 89 19 90 20 91 21 96 22 92 23 95 24
REMARK SMILES IDX 93 25 94 26 83 27 10 29 11 30 12 31 13 33 14 34 15 35 79 36
REMARK SMILES IDX 16 37 78 38 17 39 18 40 19 41 72 42 20 43 77 44 71 45 73 46
REMARK SMILES IDX 21 47 76 48 70 49 69 50 22 52 56 53 35 54 55 55 36 56 39 57
REMARK SMILES IDX 54 58 74 59 37 60 38 61 53 63 75 64 40 65 23 66 24 67 33 68
REMARK SMILES IDX 25 69 26 70 32 71 34 72 27 73 28 74 29 75 30 76 31 77 57 78
REMARK SMILES IDX 58 79 67 80 59 81 60 82 66 83 68 84 61 85 62 86 63 87 64 88
REMARK SMILES IDX 65 89 41 90 42 91 51 92 43 93 44 94 50 95 52 96 45 97 46 98
REMARK SMILES IDX 47 99 48 100 49 101
REMARK H PARENT 7 6 83 28 11 32 73 51 39 62
REMARK Flexibility Score: inf
ROOT
ATOM      1  C   UNL     1       3.521   0.066   2.963  1.00  0.00     0.042 C 
ENDROOT
BRANCH   1   2
ATOM      2  C   UNL     1       2.619  -1.166   2.852  1.00  0.00     0.117 C 
BRANCH   2   3
ATOM      3  N   UNL     1       1.659  -1.260   3.940  1.00  0.00    -0.356 N 
ATOM      4  C   UNL     1       0.311  -1.047   3.927  1.00  0.00     0.224 C 
ATOM      5  O   UNL     1      -0.314  -1.218   4.978  1.00  0.00    -0.275 OA
ATOM      6  H   UNL     1       2.037  -1.514   4.813  1.00  0.00     0.163 HD
BRANCH   4   7
ATOM      7  C   UNL     1      -0.399  -0.671   2.638  1.00  0.00     0.138 C 
BRANCH   7   8
ATOM      8  C   UNL     1      -0.018   0.685   2.121  1.00  0.00    -0.009 A 
ATOM      9  C   UNL     1       0.833   0.062  -0.258  1.00  0.00     0.065 C 
ATOM     10  C   UNL     1       0.515   0.991   0.877  1.00  0.00     0.028 A 
ATOM     11  N   UNL     1       0.787   2.367   0.820  1.00  0.00    -0.280 N 
ATOM     12  C   UNL     1      -0.177   1.914   2.823  1.00  0.00     0.008 A 
ATOM     13  C   UNL     1       0.258   2.949   1.986  1.00  0.00     0.057 A 
ATOM     14  C   UNL     1      -0.680   2.226   4.107  1.00  0.00     0.056 A 
ATOM     15  C   UNL     1       0.117   4.292   2.400  1.00  0.00     0.031 A 
ATOM     16  C   UNL     1      -0.736   3.550   4.527  1.00  0.00     0.116 A 
ATOM     17  C   UNL     1      -0.354   4.577   3.685  1.00  0.00     0.048 A 
BRANCH  11  18
ATOM     18  C   UNL     1       1.476   3.027  -0.239  1.00  0.00     0.262 C 
ATOM     19  O   UNL     1       1.806   2.362  -1.223  1.00  0.00    -0.268 OA
BRANCH  18  20
ATOM     20  C   UNL     1       1.825   4.453  -0.286  1.00  0.00     0.040 A 
ATOM     21  C   UNL     1       2.704   5.015   0.646  1.00  0.00     0.015 A 
ATOM     22  C   UNL     1       1.240   5.242  -1.283  1.00  0.00     0.015 A 
ATOM     23  C   UNL     1       2.910   6.397   0.643  1.00  0.00     0.021 A 
ATOM     24  C   UNL     1       1.456   6.619  -1.287  1.00  0.00     0.021 A 
ATOM     25  C   UNL     1       2.269   7.194  -0.309  1.00  0.00     0.041 A 
ATOM     26  Cl  UNL     1       2.458   8.903  -0.256  1.00  0.00    -0.084 Cl
ENDBRANCH  18  20
ENDBRANCH  11  18
BRANCH  16  27
ATOM     27  O   UNL     1      -1.193   3.802   5.787  1.00  0.00    -0.508 OA
ATOM     28  H   UNL     1      -1.447   3.092   6.344  1.00  0.00     0.293 HD
ENDBRANCH  16  27
ENDBRANCH   7   8
ENDBRANCH   4   7
ENDBRANCH   2   3
ENDBRANCH   1   2
BRANCH   1  29
ATOM     29  C   UNL     1       4.420   0.058   4.200  1.00  0.00     0.118 C 
BRANCH  29  30
ATOM     30  N   UNL     1       5.236  -1.134   4.321  1.00  0.00    -0.352 N 
ATOM     31  C   UNL     1       6.478  -1.520   3.908  1.00  0.00     0.251 C 
ATOM     32  H   UNL     1       4.779  -1.843   4.828  1.00  0.00     0.163 HD
ATOM     33  O   UNL     1       6.847  -2.626   4.315  1.00  0.00    -0.269 OA
BRANCH  31  34
ATOM     34  C   UNL     1       7.373  -0.761   2.992  1.00  0.00     0.039 A 
ATOM     35  C   UNL     1       7.109   0.492   2.439  1.00  0.00     0.014 A 
ATOM     36  C   UNL     1       8.560  -1.423   2.617  1.00  0.00     0.014 A 
ATOM     37  C   UNL     1       7.957   1.021   1.466  1.00  0.00     0.010 A 
ATOM     38  C   UNL     1       9.415  -0.893   1.656  1.00  0.00     0.010 A 
ATOM     39  C   UNL     1       9.082   0.306   1.039  1.00  0.00    -0.014 A 
BRANCH  39  40
ATOM     40  C   UNL     1       9.904   0.880  -0.026  1.00  0.00     0.031 A 
ATOM     41  C   UNL     1      10.504   2.212   0.279  1.00  0.00     0.074 A 
ATOM     42  C   UNL     1      10.189   0.238  -1.178  1.00  0.00     0.049 A 
ATOM     43  N   UNL     1      10.261   3.350  -0.286  1.00  0.00    -0.248 NA
ATOM     44  C   UNL     1      11.407   2.304   1.437  1.00  0.00     0.031 C 
ATOM     45  C   UNL     1       9.929  -1.159  -1.539  1.00  0.00     0.029 A 
ATOM     46  N   UNL     1      10.862   0.708  -2.267  1.00  0.00    -0.354 N 
ATOM     47  C   UNL     1      11.116   4.275   0.314  1.00  0.00     0.074 A 
ATOM     48  C   UNL     1      11.694   3.607   1.451  1.00  0.00     0.031 C 
ATOM     49  C   UNL     1      10.630  -1.474  -2.653  1.00  0.00     0.029 A 
ATOM     50  C   UNL     1      11.263  -0.272  -3.167  1.00  0.00     0.049 A 
ATOM     51  H   UNL     1      11.049   1.665  -2.404  1.00  0.00     0.167 HD
ATOM     52  C   UNL     1      11.419   5.470  -0.270  1.00  0.00     0.037 A 
ATOM     53  C   UNL     1      12.098  -0.108  -4.226  1.00  0.00     0.037 A 
ATOM     54  C   UNL     1      10.478   5.805  -1.306  1.00  0.00     0.049 A 
ATOM     55  C   UNL     1      12.081   1.338  -4.572  1.00  0.00     0.074 A 
ATOM     56  C   UNL     1       9.121   6.060  -1.340  1.00  0.00     0.029 A 
ATOM     57  N   UNL     1      10.844   5.583  -2.611  1.00  0.00    -0.354 N 
ATOM     58  N   UNL     1      11.036   1.964  -5.041  1.00  0.00    -0.248 NA
ATOM     59  C   UNL     1      13.098   2.186  -3.971  1.00  0.00     0.031 C 
ATOM     60  C   UNL     1       8.669   5.482  -2.562  1.00  0.00     0.029 A 
ATOM     61  C   UNL     1       9.784   4.960  -3.220  1.00  0.00     0.049 A 
ATOM     62  H   UNL     1      11.702   5.825  -3.029  1.00  0.00     0.167 HD
ATOM     63  C   UNL     1      11.062   3.210  -4.431  1.00  0.00     0.074 A 
ATOM     64  C   UNL     1      12.396   3.314  -3.842  1.00  0.00     0.031 C 
ATOM     65  C   UNL     1       9.921   3.931  -4.226  1.00  0.00     0.037 A 
BRANCH  52  66
ATOM     66  C   UNL     1      12.738   6.192  -0.121  1.00  0.00     0.058 A 
ATOM     67  C   UNL     1      12.878   7.505  -0.621  1.00  0.00     0.135 A 
ATOM     68  C   UNL     1      13.943   5.547   0.236  1.00  0.00     0.135 A 
ATOM     69  F   UNL     1      11.800   8.214  -0.993  1.00  0.00    -0.206 F 
ATOM     70  C   UNL     1      14.124   8.100  -0.825  1.00  0.00     0.059 A 
ATOM     71  C   UNL     1      15.192   6.141   0.089  1.00  0.00     0.059 A 
ATOM     72  F   UNL     1      13.972   4.275   0.651  1.00  0.00    -0.206 F 
ATOM     73  C   UNL     1      15.277   7.399  -0.484  1.00  0.00     0.060 A 
BRANCH  73  74
ATOM     74  S   UNL     1      16.888   8.112  -0.866  1.00  0.00     0.124 S 
ATOM     75  O   UNL     1      16.874   8.100  -2.324  1.00  0.00    -0.237 OA
ATOM     76  O   UNL     1      16.794   9.425  -0.236  1.00  0.00    -0.237 OA
ATOM     77  O   UNL     1      17.823   7.185  -0.235  1.00  0.00    -0.744 OA
ENDBRANCH  73  74
ENDBRANCH  52  66
BRANCH  53  78
ATOM     78  C   UNL     1      13.189  -1.021  -4.671  1.00  0.00     0.058 A 
ATOM     79  C   UNL     1      13.861  -0.817  -5.891  1.00  0.00     0.135 A 
ATOM     80  C   UNL     1      13.794  -1.929  -3.778  1.00  0.00     0.135 A 
ATOM     81  F   UNL     1      13.370   0.046  -6.795  1.00  0.00    -0.206 F 
ATOM     82  C   UNL     1      15.085  -1.432  -6.184  1.00  0.00     0.059 A 
ATOM     83  C   UNL     1      15.007  -2.560  -4.052  1.00  0.00     0.059 A 
ATOM     84  F   UNL     1      13.271  -2.160  -2.565  1.00  0.00    -0.206 F 
ATOM     85  C   UNL     1      15.663  -2.285  -5.245  1.00  0.00     0.060 A 
BRANCH  85  86
ATOM     86  S   UNL     1      17.324  -2.941  -5.538  1.00  0.00     0.124 S 
ATOM     87  O   UNL     1      17.103  -3.830  -6.673  1.00  0.00    -0.237 OA
ATOM     88  O   UNL     1      18.087  -1.729  -5.816  1.00  0.00    -0.237 OA
ATOM     89  O   UNL     1      17.653  -3.606  -4.280  1.00  0.00    -0.744 OA
ENDBRANCH  85  86
ENDBRANCH  53  78
BRANCH  65  90
ATOM     90  C   UNL     1       8.652   3.484  -4.909  1.00  0.00     0.058 A 
ATOM     91  C   UNL     1       7.994   2.269  -4.644  1.00  0.00     0.135 A 
ATOM     92  C   UNL     1       7.987   4.403  -5.734  1.00  0.00     0.135 A 
ATOM     93  F   UNL     1       8.511   1.378  -3.787  1.00  0.00    -0.206 F 
ATOM     94  C   UNL     1       6.747   1.972  -5.200  1.00  0.00     0.059 A 
ATOM     95  C   UNL     1       6.731   4.140  -6.275  1.00  0.00     0.059 A 
ATOM     96  F   UNL     1       8.534   5.607  -5.977  1.00  0.00    -0.206 F 
ATOM     97  C   UNL     1       6.120   2.917  -6.012  1.00  0.00     0.060 A 
BRANCH  97  98
ATOM     98  S   UNL     1       4.474   2.566  -6.668  1.00  0.00     0.124 S 
ATOM     99  O   UNL     1       4.745   1.505  -7.632  1.00  0.00    -0.237 OA
ATOM    100  O   UNL     1       3.736   2.165  -5.475  1.00  0.00    -0.237 OA
ATOM    101  O   UNL     1       4.057   3.841  -7.247  1.00  0.00    -0.744 OA
ENDBRANCH  97  98
ENDBRANCH  65  90
ENDBRANCH  39  40
ENDBRANCH  31  34
ENDBRANCH  29  30
ENDBRANCH   1  29
TORSDOF 17
