REMARK SMILES O=C(NCCCNC(=O)c1cc(Br)ccc1OC(=O)c1ccc(F)cc1)c1ccc(-c2c3nc(c(-c4c(F)cc(S(=O)(=O)[O-])cc4F)c4ccc([nH]4)c(-c4c(F)cc(S(=O)(=O)[O-])cc4F)c4nc(c(-c5c(F)cc(S(=O)(=O)[O-])cc5F)c5ccc2[nH]5)C=C4)C=C3)cc1
REMARK SMILES IDX 5 1 4 2 3 3 1 4 2 5 27 7 28 8 92 9 29 10 91 11 30 12 31 13
REMARK SMILES IDX 32 14 85 15 33 16 90 17 84 18 86 19 34 20 89 21 83 22 82 23
REMARK SMILES IDX 35 25 69 26 48 27 68 28 49 29 52 30 67 31 87 32 50 33 51 34
REMARK SMILES IDX 66 36 88 37 53 38 36 39 37 40 46 41 38 42 39 43 45 44 47 45
REMARK SMILES IDX 40 46 41 47 42 48 43 49 44 50 70 51 71 52 80 53 72 54 73 55
REMARK SMILES IDX 79 56 81 57 74 58 75 59 76 60 77 61 78 62 54 63 55 64 64 65
REMARK SMILES IDX 56 66 57 67 63 68 65 69 58 70 59 71 60 72 61 73 62 74 6 75
REMARK SMILES IDX 7 76 8 77 9 79 10 80 11 81 16 82 12 83 15 84 13 85 14 86
REMARK SMILES IDX 17 87 18 88 19 89 20 90 21 91 26 92 22 93 25 94 23 95 24 96
REMARK H PARENT 3 6 86 24 52 35 7 78
REMARK Flexibility Score: inf
ROOT
ATOM      1  C   UNL     1       4.922  -2.017  -1.534  1.00  0.00     0.042 C 
ENDROOT
BRANCH   1   2
ATOM      2  C   UNL     1       4.614  -0.530  -1.408  1.00  0.00     0.118 C 
BRANCH   2   3
ATOM      3  N   UNL     1       3.202  -0.262  -1.157  1.00  0.00    -0.352 N 
ATOM      4  O   UNL     1       1.302   0.111  -0.031  1.00  0.00    -0.269 OA
ATOM      5  C   UNL     1       2.532   0.143  -0.028  1.00  0.00     0.251 C 
ATOM      6  H   UNL     1       2.622  -0.397  -1.941  1.00  0.00     0.163 HD
BRANCH   5   7
ATOM      7  C   UNL     1       3.249   0.597   1.187  1.00  0.00     0.039 A 
ATOM      8  C   UNL     1       4.409   1.366   1.109  1.00  0.00     0.014 A 
ATOM      9  C   UNL     1       2.705   0.301   2.444  1.00  0.00     0.014 A 
ATOM     10  C   UNL     1       5.108   1.694   2.267  1.00  0.00     0.010 A 
ATOM     11  C   UNL     1       3.359   0.715   3.612  1.00  0.00     0.010 A 
ATOM     12  C   UNL     1       4.589   1.381   3.534  1.00  0.00    -0.014 A 
BRANCH  12  13
ATOM     13  C   UNL     1       5.339   1.801   4.748  1.00  0.00     0.031 A 
ATOM     14  C   UNL     1       5.927   0.785   5.689  1.00  0.00     0.074 A 
ATOM     15  C   UNL     1       5.550   3.115   4.962  1.00  0.00     0.049 A 
ATOM     16  N   UNL     1       6.675   0.980   6.746  1.00  0.00    -0.248 NA
ATOM     17  C   UNL     1       5.636  -0.631   5.416  1.00  0.00     0.031 C 
ATOM     18  C   UNL     1       5.022   4.197   4.126  1.00  0.00     0.029 A 
ATOM     19  N   UNL     1       6.292   3.766   5.914  1.00  0.00    -0.354 N 
ATOM     20  C   UNL     1       6.936  -0.281   7.269  1.00  0.00     0.074 A 
ATOM     21  C   UNL     1       6.239  -1.234   6.432  1.00  0.00     0.031 C 
ATOM     22  C   UNL     1       5.518   5.366   4.555  1.00  0.00     0.029 A 
ATOM     23  C   UNL     1       6.354   5.126   5.727  1.00  0.00     0.049 A 
ATOM     24  H   UNL     1       6.738   3.303   6.660  1.00  0.00     0.167 HD
ATOM     25  C   UNL     1       7.697  -0.614   8.339  1.00  0.00     0.037 A 
ATOM     26  C   UNL     1       7.013   6.079   6.414  1.00  0.00     0.037 A 
ATOM     27  C   UNL     1       8.400   0.335   9.163  1.00  0.00     0.049 A 
ATOM     28  C   UNL     1       7.846   5.687   7.598  1.00  0.00     0.074 A 
ATOM     29  C   UNL     1       9.198   0.092  10.269  1.00  0.00     0.029 A 
ATOM     30  N   UNL     1       8.398   1.709   8.969  1.00  0.00    -0.354 N 
ATOM     31  N   UNL     1       8.074   4.489   8.080  1.00  0.00    -0.248 NA
ATOM     32  C   UNL     1       8.503   6.772   8.337  1.00  0.00     0.031 C 
ATOM     33  C   UNL     1       9.655   1.321  10.759  1.00  0.00     0.029 A 
ATOM     34  C   UNL     1       9.171   2.327   9.938  1.00  0.00     0.049 A 
ATOM     35  H   UNL     1       7.917   2.176   8.248  1.00  0.00     0.167 HD
ATOM     36  C   UNL     1       8.901   4.674   9.180  1.00  0.00     0.074 A 
ATOM     37  C   UNL     1       9.151   6.099   9.280  1.00  0.00     0.031 C 
ATOM     38  C   UNL     1       9.402   3.747  10.033  1.00  0.00     0.037 A 
BRANCH  25  39
ATOM     39  C   UNL     1       7.804  -2.073   8.687  1.00  0.00     0.058 A 
ATOM     40  C   UNL     1       7.146  -2.591   9.814  1.00  0.00     0.135 A 
ATOM     41  C   UNL     1       8.583  -2.955   7.920  1.00  0.00     0.135 A 
ATOM     42  F   UNL     1       6.385  -1.793  10.579  1.00  0.00    -0.206 F 
ATOM     43  C   UNL     1       7.258  -3.932  10.170  1.00  0.00     0.059 A 
ATOM     44  C   UNL     1       8.693  -4.304   8.247  1.00  0.00     0.059 A 
ATOM     45  F   UNL     1       9.214  -2.515   6.820  1.00  0.00    -0.206 F 
ATOM     46  C   UNL     1       8.034  -4.781   9.380  1.00  0.00     0.060 A 
BRANCH  46  47
ATOM     47  S   UNL     1       8.118  -6.533   9.812  1.00  0.00     0.124 S 
ATOM     48  O   UNL     1       9.028  -6.518  10.951  1.00  0.00    -0.237 OA
ATOM     49  O   UNL     1       6.724  -6.845  10.114  1.00  0.00    -0.237 OA
ATOM     50  O   UNL     1       8.636  -7.154   8.596  1.00  0.00    -0.744 OA
ENDBRANCH  46  47
ENDBRANCH  25  39
BRANCH  26  51
ATOM     51  C   UNL     1       6.923   7.490   5.960  1.00  0.00     0.058 A 
ATOM     52  C   UNL     1       5.734   8.222   6.099  1.00  0.00     0.135 A 
ATOM     53  C   UNL     1       7.998   8.102   5.301  1.00  0.00     0.135 A 
ATOM     54  F   UNL     1       4.675   7.675   6.716  1.00  0.00    -0.206 F 
ATOM     55  C   UNL     1       5.599   9.496   5.561  1.00  0.00     0.059 A 
ATOM     56  C   UNL     1       7.894   9.385   4.772  1.00  0.00     0.059 A 
ATOM     57  F   UNL     1       9.158   7.443   5.155  1.00  0.00    -0.206 F 
ATOM     58  C   UNL     1       6.681  10.063   4.886  1.00  0.00     0.060 A 
BRANCH  58  59
ATOM     59  S   UNL     1       6.469  11.696   4.144  1.00  0.00     0.124 S 
ATOM     60  O   UNL     1       5.616  11.386   3.001  1.00  0.00    -0.237 OA
ATOM     61  O   UNL     1       5.837  12.446   5.224  1.00  0.00    -0.237 OA
ATOM     62  O   UNL     1       7.834  12.097   3.820  1.00  0.00    -0.744 OA
ENDBRANCH  58  59
ENDBRANCH  26  51
BRANCH  38  63
ATOM     63  C   UNL     1      10.270   4.241  11.153  1.00  0.00     0.058 A 
ATOM     64  C   UNL     1      11.659   4.045  11.121  1.00  0.00     0.135 A 
ATOM     65  C   UNL     1       9.718   4.862  12.284  1.00  0.00     0.135 A 
ATOM     66  F   UNL     1      12.235   3.455  10.061  1.00  0.00    -0.206 F 
ATOM     67  C   UNL     1      12.472   4.437  12.179  1.00  0.00     0.059 A 
ATOM     68  C   UNL     1      10.515   5.280  13.346  1.00  0.00     0.059 A 
ATOM     69  F   UNL     1       8.396   5.083  12.355  1.00  0.00    -0.206 F 
ATOM     70  C   UNL     1      11.889   5.050  13.290  1.00  0.00     0.060 A 
BRANCH  70  71
ATOM     71  S   UNL     1      12.959   5.575  14.646  1.00  0.00     0.124 S 
ATOM     72  O   UNL     1      13.265   4.305  15.294  1.00  0.00    -0.237 OA
ATOM     73  O   UNL     1      14.067   6.212  13.941  1.00  0.00    -0.237 OA
ATOM     74  O   UNL     1      12.110   6.484  15.412  1.00  0.00    -0.744 OA
ENDBRANCH  70  71
ENDBRANCH  38  63
ENDBRANCH  12  13
ENDBRANCH   5   7
ENDBRANCH   2   3
ENDBRANCH   1   2
BRANCH   1  75
ATOM     75  C   UNL     1       4.188  -2.719  -2.670  1.00  0.00     0.118 C 
BRANCH  75  76
ATOM     76  N   UNL     1       4.505  -2.179  -3.987  1.00  0.00    -0.352 N 
ATOM     77  C   UNL     1       5.370  -2.635  -4.953  1.00  0.00     0.255 C 
ATOM     78  H   UNL     1       4.022  -1.355  -4.222  1.00  0.00     0.163 HD
ATOM     79  O   UNL     1       5.593  -1.954  -5.950  1.00  0.00    -0.269 OA
BRANCH  77  80
ATOM     80  C   UNL     1       6.023  -3.952  -4.809  1.00  0.00     0.083 A 
ATOM     81  C   UNL     1       5.231  -5.085  -4.577  1.00  0.00     0.033 A 
ATOM     82  C   UNL     1       7.402  -4.111  -4.994  1.00  0.00     0.144 A 
ATOM     83  C   UNL     1       5.829  -6.336  -4.439  1.00  0.00     0.019 A 
ATOM     84  C   UNL     1       7.995  -5.372  -4.874  1.00  0.00     0.049 A 
ATOM     85  Br  UNL     1       4.752  -7.848  -4.080  1.00  0.00    -0.051 Br
ATOM     86  C   UNL     1       7.208  -6.484  -4.572  1.00  0.00     0.019 A 
BRANCH  82  87
ATOM     87  O   UNL     1       8.249  -3.086  -5.446  1.00  0.00    -0.422 OA
BRANCH  87  88
ATOM     88  C   UNL     1       8.445  -2.000  -4.615  1.00  0.00     0.343 C 
ATOM     89  O   UNL     1       7.988  -1.845  -3.492  1.00  0.00    -0.246 OA
BRANCH  88  90
ATOM     90  C   UNL     1       9.335  -1.018  -5.299  1.00  0.00     0.060 A 
ATOM     91  C   UNL     1      10.069  -1.345  -6.453  1.00  0.00     0.019 A 
ATOM     92  C   UNL     1       9.455   0.269  -4.751  1.00  0.00     0.019 A 
ATOM     93  C   UNL     1      10.906  -0.397  -7.047  1.00  0.00     0.040 A 
ATOM     94  C   UNL     1      10.290   1.215  -5.352  1.00  0.00     0.040 A 
ATOM     95  C   UNL     1      11.007   0.874  -6.493  1.00  0.00     0.123 A 
ATOM     96  F   UNL     1      11.810   1.779  -7.067  1.00  0.00    -0.207 F 
ENDBRANCH  88  90
ENDBRANCH  87  88
ENDBRANCH  82  87
ENDBRANCH  77  80
ENDBRANCH  75  76
ENDBRANCH   1  75
TORSDOF 16
