REMARK SMILES CCOc1cnc(C(=O)c2[nH]c3cc(Cl)ccc3c2CC(=O)NCCCNC(=O)c2ccc(-c3c4nc(c(-c5c(F)cc(S(=O)(=O)[O-])cc5F)c5ccc([nH]5)c(-c5c(F)cc(S(=O)(=O)[O-])cc5F)c5nc(c(-c6c(F)cc(S(=O)(=O)[O-])cc6F)c6ccc3[nH]6)C=C5)C=C4)cc2)cc1CC
REMARK SMILES IDX 24 1 23 2 21 3 22 4 20 6 19 7 10 8 11 9 12 10 18 12 13 13
REMARK SMILES IDX 17 14 14 15 16 16 15 17 8 18 9 19 7 20 4 21 5 22 97 23 6 24
REMARK SMILES IDX 96 25 3 26 2 27 1 28 98 29 99 30 25 31 26 32 27 33 28 34
REMARK SMILES IDX 29 36 30 37 31 38 95 39 32 40 94 41 33 42 34 43 35 44 88 45
REMARK SMILES IDX 36 46 93 47 87 48 89 49 37 50 92 51 86 52 85 53 38 55 72 56
REMARK SMILES IDX 51 57 71 58 52 59 55 60 70 61 90 62 53 63 54 64 69 66 91 67
REMARK SMILES IDX 56 68 39 69 40 70 49 71 41 72 42 73 48 74 50 75 43 76 44 77
REMARK SMILES IDX 45 78 46 79 47 80 73 81 74 82 83 83 75 84 76 85 82 86 84 87
REMARK SMILES IDX 77 88 78 89 79 90 80 91 81 92 57 93 58 94 67 95 59 96 60 97
REMARK SMILES IDX 66 98 68 99 61 100 62 101 63 102 64 103 65 104
REMARK H PARENT 23 5 11 11 27 35 89 54 55 65
REMARK Flexibility Score: inf
ROOT
ATOM      1  C   UNL     1      11.459   2.807   1.794  1.00  0.00     0.117 C 
ENDROOT
BRANCH   1   2
ATOM      2  N   UNL     1      10.607   2.956   2.957  1.00  0.00    -0.356 N 
ATOM      3  C   UNL     1       9.507   2.236   3.327  1.00  0.00     0.224 C 
ATOM      4  O   UNL     1       9.065   2.408   4.467  1.00  0.00    -0.275 OA
ATOM      5  H   UNL     1      10.857   3.684   3.571  1.00  0.00     0.163 HD
BRANCH   3   6
ATOM      6  C   UNL     1       8.929   1.159   2.419  1.00  0.00     0.138 C 
BRANCH   6   7
ATOM      7  C   UNL     1       8.480   1.649   1.073  1.00  0.00    -0.002 A 
ATOM      8  C   UNL     1       7.432   2.523   0.803  1.00  0.00     0.093 A 
ATOM      9  N   UNL     1       7.487   2.817  -0.542  1.00  0.00    -0.351 N 
ATOM     10  C   UNL     1       8.346   1.957  -1.184  1.00  0.00     0.048 A 
ATOM     11  H   UNL     1       6.984   3.541  -0.981  1.00  0.00     0.167 HD
ATOM     12  C   UNL     1       8.985   1.210  -0.197  1.00  0.00     0.004 A 
ATOM     13  C   UNL     1       8.607   1.795  -2.551  1.00  0.00     0.047 A 
ATOM     14  C   UNL     1       9.934   0.244  -0.595  1.00  0.00     0.012 A 
ATOM     15  C   UNL     1       9.545   0.825  -2.913  1.00  0.00     0.043 A 
ATOM     16  C   UNL     1      10.203   0.060  -1.956  1.00  0.00     0.021 A 
ATOM     17  Cl  UNL     1       9.893   0.565  -4.578  1.00  0.00    -0.084 Cl
BRANCH   8  18
ATOM     18  C   UNL     1       6.447   3.080   1.720  1.00  0.00     0.227 C 
ATOM     19  O   UNL     1       6.771   3.838   2.625  1.00  0.00    -0.285 OA
BRANCH  18  20
ATOM     20  C   UNL     1       4.999   2.671   1.527  1.00  0.00     0.113 A 
ATOM     21  C   UNL     1       2.337   2.066   1.170  1.00  0.00     0.140 A 
ATOM     22  C   UNL     1       2.805   2.820   2.242  1.00  0.00     0.158 A 
ATOM     23  C   UNL     1       3.249   1.628   0.211  1.00  0.00    -0.002 A 
ATOM     24  N   UNL     1       4.107   3.140   2.436  1.00  0.00    -0.249 NA
ATOM     25  C   UNL     1       4.606   1.880   0.446  1.00  0.00     0.040 A 
BRANCH  21  26
ATOM     26  O   UNL     1       0.998   1.853   1.013  1.00  0.00    -0.492 OA
BRANCH  26  27
ATOM     27  C   UNL     1       0.540   0.707   1.743  1.00  0.00     0.226 C 
ATOM     28  C   UNL     1       0.238  -0.431   0.780  1.00  0.00     0.049 C 
ENDBRANCH  26  27
ENDBRANCH  21  26
BRANCH  23  29
ATOM     29  C   UNL     1       2.831   0.917  -1.052  1.00  0.00     0.036 C 
ATOM     30  C   UNL     1       3.407   1.548  -2.317  1.00  0.00     0.009 C 
ENDBRANCH  23  29
ENDBRANCH  18  20
ENDBRANCH   8  18
ENDBRANCH   6   7
ENDBRANCH   3   6
ENDBRANCH   1   2
BRANCH   1  31
ATOM     31  C   UNL     1      11.249   3.898   0.748  1.00  0.00     0.042 C 
BRANCH  31  32
ATOM     32  C   UNL     1      11.681   5.293   1.197  1.00  0.00     0.118 C 
BRANCH  32  33
ATOM     33  N   UNL     1      13.109   5.378   1.478  1.00  0.00    -0.352 N 
ATOM     34  C   UNL     1      14.102   6.104   0.867  1.00  0.00     0.251 C 
ATOM     35  H   UNL     1      13.413   4.822   2.232  1.00  0.00     0.163 HD
ATOM     36  O   UNL     1      15.275   5.873   1.149  1.00  0.00    -0.269 OA
BRANCH  34  37
ATOM     37  C   UNL     1      13.777   7.139  -0.139  1.00  0.00     0.039 A 
ATOM     38  C   UNL     1      14.554   7.217  -1.300  1.00  0.00     0.014 A 
ATOM     39  C   UNL     1      12.736   8.048   0.065  1.00  0.00     0.014 A 
ATOM     40  C   UNL     1      14.229   8.144  -2.295  1.00  0.00     0.010 A 
ATOM     41  C   UNL     1      12.374   8.928  -0.953  1.00  0.00     0.010 A 
ATOM     42  C   UNL     1      13.105   8.972  -2.150  1.00  0.00    -0.014 A 
BRANCH  42  43
ATOM     43  C   UNL     1      12.633   9.840  -3.260  1.00  0.00     0.031 A 
ATOM     44  C   UNL     1      12.612  11.335  -3.110  1.00  0.00     0.074 A 
ATOM     45  C   UNL     1      12.115   9.266  -4.363  1.00  0.00     0.049 A 
ATOM     46  N   UNL     1      12.118  12.238  -3.917  1.00  0.00    -0.248 NA
ATOM     47  C   UNL     1      13.202  11.883  -1.879  1.00  0.00     0.031 C 
ATOM     48  C   UNL     1      12.030   7.824  -4.602  1.00  0.00     0.029 A 
ATOM     49  N   UNL     1      11.530   9.822  -5.475  1.00  0.00    -0.354 N 
ATOM     50  C   UNL     1      12.321  13.460  -3.288  1.00  0.00     0.074 A 
ATOM     51  C   UNL     1      12.949  13.177  -2.014  1.00  0.00     0.031 C 
ATOM     52  C   UNL     1      11.423   7.608  -5.779  1.00  0.00     0.029 A 
ATOM     53  C   UNL     1      11.035   8.891  -6.357  1.00  0.00     0.049 A 
ATOM     54  H   UNL     1      11.472  10.793  -5.625  1.00  0.00     0.167 HD
ATOM     55  C   UNL     1      12.023  14.703  -3.738  1.00  0.00     0.037 A 
ATOM     56  C   UNL     1      10.320   9.045  -7.488  1.00  0.00     0.037 A 
ATOM     57  C   UNL     1      11.405  14.975  -5.011  1.00  0.00     0.049 A 
ATOM     58  C   UNL     1       9.981  10.429  -7.962  1.00  0.00     0.074 A 
ATOM     59  C   UNL     1      11.141  16.201  -5.596  1.00  0.00     0.029 A 
ATOM     60  N   UNL     1      10.934  14.006  -5.887  1.00  0.00    -0.354 N 
ATOM     61  N   UNL     1      10.261  11.580  -7.400  1.00  0.00    -0.248 NA
ATOM     62  C   UNL     1       9.229  10.538  -9.220  1.00  0.00     0.031 C 
ATOM     63  C   UNL     1      10.463  15.975  -6.800  1.00  0.00     0.029 A 
ATOM     64  C   UNL     1      10.345  14.606  -6.988  1.00  0.00     0.049 A 
ATOM     65  H   UNL     1      11.008  13.034  -5.746  1.00  0.00     0.167 HD
ATOM     66  C   UNL     1       9.721  12.552  -8.234  1.00  0.00     0.074 A 
ATOM     67  C   UNL     1       9.117  11.854  -9.351  1.00  0.00     0.031 C 
ATOM     68  C   UNL     1       9.726  13.900  -8.085  1.00  0.00     0.037 A 
BRANCH  55  69
ATOM     69  C   UNL     1      12.350  15.861  -2.835  1.00  0.00     0.058 A 
ATOM     70  C   UNL     1      13.675  16.244  -2.573  1.00  0.00     0.135 A 
ATOM     71  C   UNL     1      11.324  16.600  -2.222  1.00  0.00     0.135 A 
ATOM     72  F   UNL     1      14.695  15.569  -3.126  1.00  0.00    -0.206 F 
ATOM     73  C   UNL     1      13.974  17.283  -1.698  1.00  0.00     0.059 A 
ATOM     74  C   UNL     1      11.599  17.662  -1.365  1.00  0.00     0.059 A 
ATOM     75  F   UNL     1      10.038  16.283  -2.442  1.00  0.00    -0.206 F 
ATOM     76  C   UNL     1      12.928  17.980  -1.090  1.00  0.00     0.060 A 
BRANCH  76  77
ATOM     77  S   UNL     1      13.332  19.299   0.074  1.00  0.00     0.124 S 
ATOM     78  O   UNL     1      13.761  18.535   1.241  1.00  0.00    -0.237 OA
ATOM     79  O   UNL     1      14.384  20.027  -0.628  1.00  0.00    -0.237 OA
ATOM     80  O   UNL     1      12.070  20.018   0.224  1.00  0.00    -0.744 OA
ENDBRANCH  76  77
ENDBRANCH  55  69
BRANCH  56  81
ATOM     81  C   UNL     1       9.870   7.838  -8.229  1.00  0.00     0.058 A 
ATOM     82  C   UNL     1      10.483   7.455  -9.429  1.00  0.00     0.135 A 
ATOM     83  C   UNL     1       8.869   7.003  -7.707  1.00  0.00     0.135 A 
ATOM     84  F   UNL     1      11.439   8.226  -9.970  1.00  0.00    -0.206 F 
ATOM     85  C   UNL     1      10.128   6.280 -10.084  1.00  0.00     0.059 A 
ATOM     86  C   UNL     1       8.511   5.813  -8.332  1.00  0.00     0.059 A 
ATOM     87  F   UNL     1       8.264   7.318  -6.551  1.00  0.00    -0.206 F 
ATOM     88  C   UNL     1       9.148   5.459  -9.520  1.00  0.00     0.060 A 
BRANCH  88  89
ATOM     89  S   UNL     1       8.764   3.888 -10.325  1.00  0.00     0.124 S 
ATOM     90  O   UNL     1       8.014   4.332 -11.494  1.00  0.00    -0.237 OA
ATOM     91  O   UNL     1      10.093   3.345 -10.586  1.00  0.00    -0.237 OA
ATOM     92  O   UNL     1       7.991   3.175  -9.312  1.00  0.00    -0.744 OA
ENDBRANCH  88  89
ENDBRANCH  56  81
BRANCH  68  93
ATOM     93  C   UNL     1       9.044  14.718  -9.146  1.00  0.00     0.058 A 
ATOM     94  C   UNL     1       7.644  14.788  -9.225  1.00  0.00     0.135 A 
ATOM     95  C   UNL     1       9.792  15.495 -10.044  1.00  0.00     0.135 A 
ATOM     96  F   UNL     1       6.883  14.054  -8.398  1.00  0.00    -0.206 F 
ATOM     97  C   UNL     1       7.009  15.596 -10.162  1.00  0.00     0.059 A 
ATOM     98  C   UNL     1       9.178  16.329 -10.974  1.00  0.00     0.059 A 
ATOM     99  F   UNL     1      11.134  15.468 -10.008  1.00  0.00    -0.206 F 
ATOM    100  C   UNL     1       7.785  16.369 -11.028  1.00  0.00     0.060 A 
BRANCH 100 101
ATOM    101  S   UNL     1       6.947  17.460 -12.199  1.00  0.00     0.124 S 
ATOM    102  O   UNL     1       6.428  16.504 -13.172  1.00  0.00    -0.237 OA
ATOM    103  O   UNL     1       5.950  18.114 -11.358  1.00  0.00    -0.237 OA
ATOM    104  O   UNL     1       8.018  18.328 -12.681  1.00  0.00    -0.744 OA
ENDBRANCH 100 101
ENDBRANCH  68  93
ENDBRANCH  42  43
ENDBRANCH  34  37
ENDBRANCH  32  33
ENDBRANCH  31  32
ENDBRANCH   1  31
TORSDOF 19
