REMARK SMILES O=C(Cc1ccccc1)Nc1cc(Cl)ccc1C(=O)NCCCNC(=O)c1ccc(-c2c3nc(c(-c4c(F)cc(S(=O)(=O)[O-])cc4F)c4ccc([nH]4)c(-c4c(F)cc(S(=O)(=O)[O-])cc4F)c4nc(c(-c5c(F)cc(S(=O)(=O)[O-])cc5F)c5ccc2[nH]5)C=C4)C=C3)cc1
REMARK SMILES IDX 22 1 21 2 20 3 18 4 19 5 17 7 11 8 12 9 13 10 16 11 14 12
REMARK SMILES IDX 15 13 10 14 1 15 2 16 3 18 4 19 5 20 9 21 6 22 8 23 7 24
REMARK SMILES IDX 23 25 24 26 25 27 26 29 27 30 28 31 92 32 29 33 91 34 30 35
REMARK SMILES IDX 31 36 32 37 85 38 33 39 90 40 84 41 86 42 34 43 89 44 83 45
REMARK SMILES IDX 82 46 35 48 69 49 48 50 68 51 49 52 52 53 67 54 87 55 50 56
REMARK SMILES IDX 51 57 66 59 88 60 53 61 36 62 37 63 46 64 38 65 39 66 45 67
REMARK SMILES IDX 47 68 40 69 41 70 42 71 43 72 44 73 70 74 71 75 80 76 72 77
REMARK SMILES IDX 73 78 79 79 81 80 74 81 75 82 76 83 77 84 78 85 54 86 55 87
REMARK SMILES IDX 64 88 56 89 57 90 63 91 65 92 58 93 59 94 60 95 61 96 62 97
REMARK H PARENT 20 6 10 17 24 28 86 47 52 58
REMARK Flexibility Score: inf
ROOT
ATOM      1  C   UNL     1       3.558   2.030   2.130  1.00  0.00     0.042 C 
ENDROOT
BRANCH   1   2
ATOM      2  C   UNL     1       2.712   1.693   0.923  1.00  0.00     0.118 C 
BRANCH   2   3
ATOM      3  N   UNL     1       1.373   2.208   0.867  1.00  0.00    -0.352 N 
ATOM      4  C   UNL     1       0.525   2.181  -0.222  1.00  0.00     0.253 C 
ATOM      5  O   UNL     1      -0.667   2.432  -0.032  1.00  0.00    -0.269 OA
ATOM      6  H   UNL     1       1.025   2.622   1.689  1.00  0.00     0.163 HD
BRANCH   4   7
ATOM      7  C   UNL     1       1.036   2.102  -1.628  1.00  0.00     0.063 A 
ATOM      8  C   UNL     1       1.971   1.210  -2.206  1.00  0.00     0.055 A 
ATOM      9  C   UNL     1       2.491   1.522  -3.481  1.00  0.00     0.047 A 
ATOM     10  C   UNL     1       2.031   2.621  -4.209  1.00  0.00     0.043 A 
ATOM     11  C   UNL     1       0.569   3.194  -2.403  1.00  0.00     0.017 A 
ATOM     12  Cl  UNL     1       2.675   2.945  -5.772  1.00  0.00    -0.084 Cl
ATOM     13  C   UNL     1       1.052   3.448  -3.686  1.00  0.00     0.021 A 
BRANCH   8  14
ATOM     14  N   UNL     1       2.498   0.013  -1.650  1.00  0.00    -0.325 N 
ATOM     15  O   UNL     1       0.649  -0.811  -0.563  1.00  0.00    -0.274 OA
ATOM     16  C   UNL     1       1.859  -0.845  -0.778  1.00  0.00     0.228 C 
ATOM     17  H   UNL     1       3.415  -0.230  -1.915  1.00  0.00     0.169 HD
BRANCH  16  18
ATOM     18  C   UNL     1       2.782  -1.739   0.054  1.00  0.00     0.135 C 
BRANCH  18  19
ATOM     19  C   UNL     1       3.809  -2.594  -0.641  1.00  0.00    -0.039 A 
ATOM     20  C   UNL     1       3.620  -3.980  -0.694  1.00  0.00     0.004 A 
ATOM     21  C   UNL     1       5.033  -2.058  -1.072  1.00  0.00     0.004 A 
ATOM     22  C   UNL     1       4.635  -4.815  -1.160  1.00  0.00     0.000 A 
ATOM     23  C   UNL     1       6.039  -2.893  -1.558  1.00  0.00     0.000 A 
ATOM     24  C   UNL     1       5.842  -4.272  -1.595  1.00  0.00     0.000 A 
ENDBRANCH  18  19
ENDBRANCH  16  18
ENDBRANCH   8  14
ENDBRANCH   4   7
ENDBRANCH   2   3
ENDBRANCH   1   2
BRANCH   1  25
ATOM     25  C   UNL     1       3.101   1.386   3.437  1.00  0.00     0.118 C 
BRANCH  25  26
ATOM     26  N   UNL     1       3.013  -0.076   3.414  1.00  0.00    -0.352 N 
ATOM     27  C   UNL     1       3.781  -1.078   3.976  1.00  0.00     0.251 C 
ATOM     28  H   UNL     1       2.250  -0.414   2.892  1.00  0.00     0.163 HD
ATOM     29  O   UNL     1       3.536  -2.242   3.687  1.00  0.00    -0.269 OA
BRANCH  27  30
ATOM     30  C   UNL     1       4.910  -0.767   4.888  1.00  0.00     0.039 A 
ATOM     31  C   UNL     1       6.056  -1.572   4.878  1.00  0.00     0.014 A 
ATOM     32  C   UNL     1       4.845   0.307   5.767  1.00  0.00     0.014 A 
ATOM     33  C   UNL     1       7.165  -1.221   5.661  1.00  0.00     0.010 A 
ATOM     34  C   UNL     1       5.989   0.738   6.425  1.00  0.00     0.010 A 
ATOM     35  C   UNL     1       7.164  -0.024   6.393  1.00  0.00    -0.014 A 
BRANCH  35  36
ATOM     36  C   UNL     1       8.346   0.465   7.158  1.00  0.00     0.031 A 
ATOM     37  C   UNL     1       8.198   0.801   8.623  1.00  0.00     0.074 A 
ATOM     38  C   UNL     1       9.504   0.732   6.521  1.00  0.00     0.049 A 
ATOM     39  N   UNL     1       9.023   1.436   9.416  1.00  0.00    -0.248 NA
ATOM     40  C   UNL     1       6.926   0.427   9.264  1.00  0.00     0.031 C 
ATOM     41  C   UNL     1       9.762   0.519   5.094  1.00  0.00     0.029 A 
ATOM     42  N   UNL     1      10.680   1.265   6.989  1.00  0.00    -0.354 N 
ATOM     43  C   UNL     1       8.349   1.580  10.625  1.00  0.00     0.074 A 
ATOM     44  C   UNL     1       7.027   1.026  10.441  1.00  0.00     0.031 C 
ATOM     45  C   UNL     1      11.021   0.890   4.811  1.00  0.00     0.029 A 
ATOM     46  C   UNL     1      11.647   1.412   6.021  1.00  0.00     0.049 A 
ATOM     47  H   UNL     1      10.819   1.519   7.930  1.00  0.00     0.167 HD
ATOM     48  C   UNL     1       8.799   2.097  11.794  1.00  0.00     0.037 A 
ATOM     49  C   UNL     1      12.893   1.917   6.097  1.00  0.00     0.037 A 
ATOM     50  C   UNL     1      10.141   2.575  11.992  1.00  0.00     0.049 A 
ATOM     51  C   UNL     1      13.396   2.425   7.421  1.00  0.00     0.074 A 
ATOM     52  C   UNL     1      10.727   3.040  13.156  1.00  0.00     0.029 A 
ATOM     53  N   UNL     1      11.113   2.631  11.004  1.00  0.00    -0.354 N 
ATOM     54  N   UNL     1      12.761   2.509   8.566  1.00  0.00    -0.248 NA
ATOM     55  C   UNL     1      14.787   2.898   7.468  1.00  0.00     0.031 C 
ATOM     56  C   UNL     1      12.047   3.402  12.865  1.00  0.00     0.029 A 
ATOM     57  C   UNL     1      12.294   3.123  11.530  1.00  0.00     0.049 A 
ATOM     58  H   UNL     1      10.982   2.360  10.066  1.00  0.00     0.167 HD
ATOM     59  C   UNL     1      13.684   3.014   9.476  1.00  0.00     0.074 A 
ATOM     60  C   UNL     1      14.922   3.207   8.750  1.00  0.00     0.031 C 
ATOM     61  C   UNL     1      13.522   3.291  10.794  1.00  0.00     0.037 A 
BRANCH  48  62
ATOM     62  C   UNL     1       7.838   2.144  12.953  1.00  0.00     0.058 A 
ATOM     63  C   UNL     1       7.389   0.974  13.588  1.00  0.00     0.135 A 
ATOM     64  C   UNL     1       7.374   3.374  13.447  1.00  0.00     0.135 A 
ATOM     65  F   UNL     1       7.788  -0.230  13.148  1.00  0.00    -0.206 F 
ATOM     66  C   UNL     1       6.483   1.019  14.642  1.00  0.00     0.059 A 
ATOM     67  C   UNL     1       6.492   3.443  14.523  1.00  0.00     0.059 A 
ATOM     68  F   UNL     1       7.771   4.524  12.882  1.00  0.00    -0.206 F 
ATOM     69  C   UNL     1       6.038   2.259  15.101  1.00  0.00     0.060 A 
BRANCH  69  70
ATOM     70  S   UNL     1       4.862   2.298  16.470  1.00  0.00     0.124 S 
ATOM     71  O   UNL     1       3.631   1.880  15.806  1.00  0.00    -0.237 OA
ATOM     72  O   UNL     1       5.436   1.335  17.404  1.00  0.00    -0.237 OA
ATOM     73  O   UNL     1       4.897   3.690  16.908  1.00  0.00    -0.744 OA
ENDBRANCH  69  70
ENDBRANCH  48  62
BRANCH  49  74
ATOM     74  C   UNL     1      13.768   1.927   4.894  1.00  0.00     0.058 A 
ATOM     75  C   UNL     1      14.858   1.049   4.794  1.00  0.00     0.135 A 
ATOM     76  C   UNL     1      13.528   2.793   3.816  1.00  0.00     0.135 A 
ATOM     77  F   UNL     1      15.132   0.205   5.801  1.00  0.00    -0.206 F 
ATOM     78  C   UNL     1      15.690   1.039   3.679  1.00  0.00     0.059 A 
ATOM     79  C   UNL     1      14.331   2.785   2.678  1.00  0.00     0.059 A 
ATOM     80  F   UNL     1      12.486   3.638   3.851  1.00  0.00    -0.206 F 
ATOM     81  C   UNL     1      15.416   1.910   2.624  1.00  0.00     0.060 A 
BRANCH  81  82
ATOM     82  S   UNL     1      16.469   1.852   1.158  1.00  0.00     0.124 S 
ATOM     83  O   UNL     1      17.681   2.502   1.641  1.00  0.00    -0.237 OA
ATOM     84  O   UNL     1      16.569   0.417   0.909  1.00  0.00    -0.237 OA
ATOM     85  O   UNL     1      15.702   2.599   0.165  1.00  0.00    -0.744 OA
ENDBRANCH  81  82
ENDBRANCH  49  74
BRANCH  61  86
ATOM     86  C   UNL     1      14.723   3.784  11.549  1.00  0.00     0.058 A 
ATOM     87  C   UNL     1      15.217   5.086  11.383  1.00  0.00     0.135 A 
ATOM     88  C   UNL     1      15.356   2.955  12.489  1.00  0.00     0.135 A 
ATOM     89  F   UNL     1      14.650   5.916  10.492  1.00  0.00    -0.206 F 
ATOM     90  C   UNL     1      16.314   5.543  12.106  1.00  0.00     0.059 A 
ATOM     91  C   UNL     1      16.437   3.399  13.242  1.00  0.00     0.059 A 
ATOM     92  F   UNL     1      14.914   1.704  12.694  1.00  0.00    -0.206 F 
ATOM     93  C   UNL     1      16.917   4.691  13.034  1.00  0.00     0.060 A 
BRANCH  93  94
ATOM     94  S   UNL     1      18.321   5.305  13.988  1.00  0.00     0.124 S 
ATOM     95  O   UNL     1      19.389   5.266  12.995  1.00  0.00    -0.237 OA
ATOM     96  O   UNL     1      17.873   6.636  14.385  1.00  0.00    -0.237 OA
ATOM     97  O   UNL     1      18.439   4.339  15.076  1.00  0.00    -0.744 OA
ENDBRANCH  93  94
ENDBRANCH  61  86
ENDBRANCH  35  36
ENDBRANCH  27  30
ENDBRANCH  25  26
ENDBRANCH   1  25
TORSDOF 16
