REMARK SMILES CCCC(=O)Nc1cccc(C(=O)N[C@@H](C(=O)NCCCNC(=O)c2ccc(-c3c4nc(c(-c5c(F)cc(S(=O)(=O)[O-])cc5F)c5ccc([nH]5)c(-c5c(F)cc(S(=O)(=O)[O-])cc5F)c5nc(c(-c6c(F)cc(S(=O)(=O)[O-])cc6F)c6ccc3[nH]6)C=C5)C=C4)cc2)C2=C(C)N=N[C@@H]2C)c1
REMARK SMILES IDX 19 1 18 2 16 3 17 4 15 6 14 7 12 8 13 9 11 11 7 12 8 13
REMARK SMILES IDX 98 14 9 15 10 16 6 17 4 18 5 19 3 21 2 22 1 23 91 24 92 25
REMARK SMILES IDX 96 26 93 27 94 28 95 29 97 30 20 31 21 32 22 33 23 34 24 36
REMARK SMILES IDX 25 37 26 38 90 39 27 40 89 41 28 42 29 43 30 44 83 45 31 46
REMARK SMILES IDX 88 47 82 48 84 49 32 50 87 51 81 52 80 53 33 55 67 56 46 57
REMARK SMILES IDX 66 58 47 59 50 60 65 61 85 62 48 63 49 64 64 66 86 67 51 68
REMARK SMILES IDX 34 69 35 70 44 71 36 72 37 73 43 74 45 75 38 76 39 77 40 78
REMARK SMILES IDX 41 79 42 80 68 81 69 82 78 83 70 84 71 85 77 86 79 87 72 88
REMARK SMILES IDX 73 89 74 90 75 91 76 92 52 93 53 94 62 95 54 96 55 97 61 98
REMARK SMILES IDX 63 99 56 100 57 101 58 102 59 103 60 104
REMARK H PARENT 18 5 14 10 6 20 22 35 84 54 50 65
REMARK Flexibility Score: inf
ROOT
ATOM      1  C   UNL     1      -1.654  -1.427  -1.744  1.00  0.00     0.117 C 
ENDROOT
BRANCH   1   2
ATOM      2  N   UNL     1      -2.357  -1.673  -0.508  1.00  0.00    -0.354 N 
ATOM      3  C   UNL     1      -1.881  -1.622   0.772  1.00  0.00     0.247 C 
ATOM      4  O   UNL     1      -2.699  -1.804   1.677  1.00  0.00    -0.272 OA
ATOM      5  H   UNL     1      -3.308  -1.909  -0.599  1.00  0.00     0.163 HD
BRANCH   3   6
ATOM      6  C   UNL     1      -0.399  -1.196   1.034  1.00  0.00     0.202 C 
BRANCH   6   7
ATOM      7  N   UNL     1       0.539  -2.092   0.348  1.00  0.00    -0.337 N 
ATOM      8  C   UNL     1       1.489  -2.028  -0.643  1.00  0.00     0.252 C 
ATOM      9  O   UNL     1       1.975  -3.115  -0.970  1.00  0.00    -0.269 OA
ATOM     10  H   UNL     1       0.466  -3.008   0.701  1.00  0.00     0.165 HD
BRANCH   8  11
ATOM     11  C   UNL     1       1.996  -0.807  -1.351  1.00  0.00     0.041 A 
ATOM     12  C   UNL     1       2.042   1.575  -1.868  1.00  0.00     0.041 A 
ATOM     13  C   UNL     1       3.121   1.416  -2.721  1.00  0.00     0.026 A 
ATOM     14  C   UNL     1       1.455   0.469  -1.245  1.00  0.00     0.040 A 
ATOM     15  C   UNL     1       3.673   0.146  -2.869  1.00  0.00     0.003 A 
ATOM     16  C   UNL     1       3.122  -0.949  -2.183  1.00  0.00     0.014 A 
BRANCH  12  17
ATOM     17  N   UNL     1       1.488   2.841  -1.643  1.00  0.00    -0.326 N 
ATOM     18  C   UNL     1       1.187   3.334  -0.395  1.00  0.00     0.224 C 
ATOM     19  O   UNL     1       0.187   4.029  -0.220  1.00  0.00    -0.275 OA
ATOM     20  H   UNL     1       1.303   3.411  -2.424  1.00  0.00     0.169 HD
BRANCH  18  21
ATOM     21  C   UNL     1       2.205   3.086   0.718  1.00  0.00     0.100 C 
BRANCH  21  22
ATOM     22  C   UNL     1       1.901   1.922   1.655  1.00  0.00     0.006 C 
ATOM     23  C   UNL     1       2.920   0.786   1.618  1.00  0.00     0.004 C 
ENDBRANCH  21  22
ENDBRANCH  18  21
ENDBRANCH  12  17
ENDBRANCH   8  11
ENDBRANCH   6   7
BRANCH   6  24
ATOM     24  C   UNL     1      -0.141  -1.149   2.510  1.00  0.00     0.011 C 
ATOM     25  C   UNL     1      -0.492  -0.187   3.379  1.00  0.00     0.064 C 
ATOM     26  C   UNL     1       0.305  -2.288   3.364  1.00  0.00     0.156 C 
ATOM     27  C   UNL     1      -1.172   1.117   3.123  1.00  0.00     0.069 C 
ATOM     28  N   UNL     1      -0.292  -0.559   4.684  1.00  0.00    -0.160 NA
ATOM     29  N   UNL     1       0.105  -1.754   4.742  1.00  0.00    -0.181 NA
ATOM     30  C   UNL     1       1.771  -2.691   3.252  1.00  0.00     0.040 C 
ENDBRANCH   6  24
ENDBRANCH   3   6
ENDBRANCH   1   2
BRANCH   1  31
ATOM     31  C   UNL     1      -1.293  -2.718  -2.461  1.00  0.00     0.042 C 
BRANCH  31  32
ATOM     32  C   UNL     1      -2.476  -3.289  -3.220  1.00  0.00     0.118 C 
BRANCH  32  33
ATOM     33  N   UNL     1      -2.912  -2.401  -4.293  1.00  0.00    -0.352 N 
ATOM     34  C   UNL     1      -3.197  -2.699  -5.599  1.00  0.00     0.251 C 
ATOM     35  H   UNL     1      -3.017  -1.455  -4.042  1.00  0.00     0.163 HD
ATOM     36  O   UNL     1      -3.357  -1.790  -6.411  1.00  0.00    -0.269 OA
BRANCH  34  37
ATOM     37  C   UNL     1      -3.285  -4.109  -6.014  1.00  0.00     0.039 A 
ATOM     38  C   UNL     1      -2.696  -4.500  -7.216  1.00  0.00     0.014 A 
ATOM     39  C   UNL     1      -3.925  -5.044  -5.196  1.00  0.00     0.014 A 
ATOM     40  C   UNL     1      -2.701  -5.848  -7.571  1.00  0.00     0.010 A 
ATOM     41  C   UNL     1      -3.837  -6.393  -5.499  1.00  0.00     0.010 A 
ATOM     42  C   UNL     1      -3.241  -6.806  -6.697  1.00  0.00    -0.014 A 
BRANCH  42  43
ATOM     43  C   UNL     1      -3.218  -8.250  -7.025  1.00  0.00     0.031 A 
ATOM     44  C   UNL     1      -4.514  -8.998  -7.172  1.00  0.00     0.074 A 
ATOM     45  C   UNL     1      -2.037  -8.892  -7.114  1.00  0.00     0.049 A 
ATOM     46  N   UNL     1      -4.712 -10.275  -7.369  1.00  0.00    -0.248 NA
ATOM     47  C   UNL     1      -5.755  -8.212  -7.047  1.00  0.00     0.031 C 
ATOM     48  C   UNL     1      -0.721  -8.275  -6.933  1.00  0.00     0.029 A 
ATOM     49  N   UNL     1      -1.753 -10.209  -7.369  1.00  0.00    -0.354 N 
ATOM     50  C   UNL     1      -6.091 -10.446  -7.373  1.00  0.00     0.074 A 
ATOM     51  C   UNL     1      -6.681  -9.156  -7.094  1.00  0.00     0.031 C 
ATOM     52  C   UNL     1       0.230  -9.206  -7.110  1.00  0.00     0.029 A 
ATOM     53  C   UNL     1      -0.407 -10.492  -7.371  1.00  0.00     0.049 A 
ATOM     54  H   UNL     1      -2.446 -10.888  -7.534  1.00  0.00     0.167 HD
ATOM     55  C   UNL     1      -6.801 -11.572  -7.616  1.00  0.00     0.037 A 
ATOM     56  C   UNL     1       0.236 -11.661  -7.554  1.00  0.00     0.037 A 
ATOM     57  C   UNL     1      -6.198 -12.843  -7.920  1.00  0.00     0.049 A 
ATOM     58  C   UNL     1      -0.574 -12.899  -7.823  1.00  0.00     0.074 A 
ATOM     59  C   UNL     1      -6.821 -14.035  -8.241  1.00  0.00     0.029 A 
ATOM     60  N   UNL     1      -4.832 -13.085  -7.940  1.00  0.00    -0.354 N 
ATOM     61  N   UNL     1      -1.878 -13.033  -7.889  1.00  0.00    -0.248 NA
ATOM     62  C   UNL     1       0.171 -14.144  -8.049  1.00  0.00     0.031 C 
ATOM     63  C   UNL     1      -5.834 -15.011  -8.405  1.00  0.00     0.029 A 
ATOM     64  C   UNL     1      -4.593 -14.414  -8.246  1.00  0.00     0.049 A 
ATOM     65  H   UNL     1      -4.136 -12.412  -7.763  1.00  0.00     0.167 HD
ATOM     66  C   UNL     1      -2.109 -14.369  -8.196  1.00  0.00     0.074 A 
ATOM     67  C   UNL     1      -0.809 -14.998  -8.312  1.00  0.00     0.031 C 
ATOM     68  C   UNL     1      -3.288 -15.017  -8.368  1.00  0.00     0.037 A 
BRANCH  55  69
ATOM     69  C   UNL     1      -8.302 -11.477  -7.568  1.00  0.00     0.058 A 
ATOM     70  C   UNL     1      -9.028 -10.759  -8.532  1.00  0.00     0.135 A 
ATOM     71  C   UNL     1      -9.027 -12.136  -6.562  1.00  0.00     0.135 A 
ATOM     72  F   UNL     1      -8.387 -10.093  -9.506  1.00  0.00    -0.206 F 
ATOM     73  C   UNL     1     -10.416 -10.673  -8.484  1.00  0.00     0.059 A 
ATOM     74  C   UNL     1     -10.417 -12.091  -6.513  1.00  0.00     0.059 A 
ATOM     75  F   UNL     1      -8.385 -12.834  -5.612  1.00  0.00    -0.206 F 
ATOM     76  C   UNL     1     -11.102 -11.345  -7.471  1.00  0.00     0.060 A 
BRANCH  76  77
ATOM     77  S   UNL     1     -12.902 -11.231  -7.432  1.00  0.00     0.124 S 
ATOM     78  O   UNL     1     -13.097  -9.850  -7.002  1.00  0.00    -0.237 OA
ATOM     79  O   UNL     1     -13.263 -11.521  -8.816  1.00  0.00    -0.237 OA
ATOM     80  O   UNL     1     -13.287 -12.250  -6.460  1.00  0.00    -0.744 OA
ENDBRANCH  76  77
ENDBRANCH  55  69
BRANCH  56  81
ATOM     81  C   UNL     1       1.723 -11.706  -7.513  1.00  0.00     0.058 A 
ATOM     82  C   UNL     1       2.469 -11.945  -8.677  1.00  0.00     0.135 A 
ATOM     83  C   UNL     1       2.427 -11.495  -6.318  1.00  0.00     0.135 A 
ATOM     84  F   UNL     1       1.843 -12.156  -9.844  1.00  0.00    -0.206 F 
ATOM     85  C   UNL     1       3.859 -11.994  -8.654  1.00  0.00     0.059 A 
ATOM     86  C   UNL     1       3.818 -11.510  -6.275  1.00  0.00     0.059 A 
ATOM     87  F   UNL     1       1.762 -11.241  -5.180  1.00  0.00    -0.206 F 
ATOM     88  C   UNL     1       4.525 -11.773  -7.448  1.00  0.00     0.060 A 
BRANCH  88  89
ATOM     89  S   UNL     1       6.331 -11.797  -7.440  1.00  0.00     0.124 S 
ATOM     90  O   UNL     1       6.606 -13.218  -7.618  1.00  0.00    -0.237 OA
ATOM     91  O   UNL     1       6.653 -10.936  -8.574  1.00  0.00    -0.237 OA
ATOM     92  O   UNL     1       6.668 -11.247  -6.130  1.00  0.00    -0.744 OA
ENDBRANCH  88  89
ENDBRANCH  56  81
BRANCH  68  93
ATOM     93  C   UNL     1      -3.230 -16.471  -8.745  1.00  0.00     0.058 A 
ATOM     94  C   UNL     1      -2.844 -17.460  -7.828  1.00  0.00     0.135 A 
ATOM     95  C   UNL     1      -3.628 -16.884 -10.028  1.00  0.00     0.135 A 
ATOM     96  F   UNL     1      -2.449 -17.118  -6.591  1.00  0.00    -0.206 F 
ATOM     97  C   UNL     1      -2.830 -18.806  -8.176  1.00  0.00     0.059 A 
ATOM     98  C   UNL     1      -3.652 -18.227 -10.387  1.00  0.00     0.059 A 
ATOM     99  F   UNL     1      -4.018 -15.979 -10.940  1.00  0.00    -0.206 F 
ATOM    100  C   UNL     1      -3.240 -19.180  -9.457  1.00  0.00     0.060 A 
BRANCH 100 101
ATOM    101  S   UNL     1      -3.255 -20.934  -9.883  1.00  0.00     0.124 S 
ATOM    102  O   UNL     1      -1.829 -21.219 -10.005  1.00  0.00    -0.237 OA
ATOM    103  O   UNL     1      -3.923 -21.529  -8.729  1.00  0.00    -0.237 OA
ATOM    104  O   UNL     1      -4.013 -20.976 -11.129  1.00  0.00    -0.744 OA
ENDBRANCH 100 101
ENDBRANCH  68  93
ENDBRANCH  42  43
ENDBRANCH  34  37
ENDBRANCH  32  33
ENDBRANCH  31  32
ENDBRANCH   1  31
TORSDOF 19
