REMARK SMILES CC(=O)OCc1ccc(C(=O)NCCCNC(=O)c2ccc(-c3c4nc(c(-c5c(F)cc(S(=O)(=O)[O-])cc5F)c5ccc([nH]5)c(-c5c(F)cc(S(=O)(=O)[O-])cc5F)c5nc(c(-c6c(F)cc(S(=O)(=O)[O-])cc6F)c6ccc3[nH]6)C=C5)C=C4)cc2)o1
REMARK SMILES IDX 14 1 13 2 12 3 10 4 11 5 9 7 6 8 7 9 85 10 8 11 5 12 4 13
REMARK SMILES IDX 2 14 1 15 3 16 15 17 16 18 17 19 18 21 19 22 20 23 84 24
REMARK SMILES IDX 21 25 83 26 22 27 23 28 24 29 77 30 25 31 82 32 76 33 78 34
REMARK SMILES IDX 26 35 81 36 75 37 74 38 27 40 61 41 40 42 60 43 41 44 44 45
REMARK SMILES IDX 59 46 79 47 42 48 43 49 58 51 80 52 45 53 28 54 29 55 38 56
REMARK SMILES IDX 30 57 31 58 37 59 39 60 32 61 33 62 34 63 35 64 36 65 62 66
REMARK SMILES IDX 63 67 72 68 64 69 65 70 71 71 73 72 66 73 67 74 68 75 69 76
REMARK SMILES IDX 70 77 46 78 47 79 56 80 48 81 49 82 55 83 57 84 50 85 51 86
REMARK SMILES IDX 52 87 53 88 54 89
REMARK H PARENT 12 6 16 20 78 39 44 50
REMARK Flexibility Score: inf
ROOT
ATOM      1  C   UNL     1       2.315   8.601  -3.032  1.00  0.00     0.042 C 
ENDROOT
BRANCH   1   2
ATOM      2  C   UNL     1       1.241   7.544  -3.272  1.00  0.00     0.118 C 
BRANCH   2   3
ATOM      3  N   UNL     1       1.819   6.226  -3.438  1.00  0.00    -0.349 N 
ATOM      4  C   UNL     1       1.887   5.154  -2.578  1.00  0.00     0.286 C 
ATOM      5  O   UNL     1       2.351   4.115  -3.057  1.00  0.00    -0.266 OA
ATOM      6  H   UNL     1       2.233   6.070  -4.318  1.00  0.00     0.163 HD
BRANCH   4   7
ATOM      7  C   UNL     1       1.416   5.251  -1.209  1.00  0.00     0.191 A 
ATOM      8  C   UNL     1       0.672   4.342   0.673  1.00  0.00     0.142 A 
ATOM      9  C   UNL     1       0.698   5.702   0.884  1.00  0.00     0.050 A 
ATOM     10  O   UNL     1       1.109   4.066  -0.586  1.00  0.00    -0.452 OA
ATOM     11  C   UNL     1       1.201   6.280  -0.309  1.00  0.00     0.057 A 
BRANCH   8  12
ATOM     12  C   UNL     1       0.252   3.200   1.528  1.00  0.00     0.308 C 
BRANCH  12  13
ATOM     13  O   UNL     1       0.907   2.003   1.089  1.00  0.00    -0.458 OA
BRANCH  13  14
ATOM     14  C   UNL     1       0.198   1.240   0.214  1.00  0.00     0.303 C 
ATOM     15  C   UNL     1       0.975   0.008  -0.140  1.00  0.00     0.139 C 
ATOM     16  O   UNL     1      -0.941   1.460  -0.170  1.00  0.00    -0.253 OA
ENDBRANCH  13  14
ENDBRANCH  12  13
ENDBRANCH   8  12
ENDBRANCH   4   7
ENDBRANCH   2   3
ENDBRANCH   1   2
BRANCH   1  17
ATOM     17  C   UNL     1       3.081   8.978  -4.300  1.00  0.00     0.118 C 
BRANCH  17  18
ATOM     18  N   UNL     1       2.227   9.648  -5.273  1.00  0.00    -0.352 N 
ATOM     19  C   UNL     1       2.308  10.910  -5.807  1.00  0.00     0.251 C 
ATOM     20  H   UNL     1       1.471   9.109  -5.600  1.00  0.00     0.163 HD
ATOM     21  O   UNL     1       1.347  11.361  -6.424  1.00  0.00    -0.269 OA
BRANCH  19  22
ATOM     22  C   UNL     1       3.531  11.724  -5.643  1.00  0.00     0.039 A 
ATOM     23  C   UNL     1       3.403  13.098  -5.418  1.00  0.00     0.014 A 
ATOM     24  C   UNL     1       4.801  11.152  -5.758  1.00  0.00     0.014 A 
ATOM     25  C   UNL     1       4.546  13.884  -5.252  1.00  0.00     0.010 A 
ATOM     26  C   UNL     1       5.936  11.922  -5.516  1.00  0.00     0.010 A 
ATOM     27  C   UNL     1       5.821  13.297  -5.266  1.00  0.00    -0.014 A 
BRANCH  27  28
ATOM     28  C   UNL     1       7.045  14.104  -5.024  1.00  0.00     0.031 A 
ATOM     29  C   UNL     1       8.091  14.235  -6.100  1.00  0.00     0.074 A 
ATOM     30  C   UNL     1       7.242  14.666  -3.814  1.00  0.00     0.049 A 
ATOM     31  N   UNL     1       9.257  14.825  -6.050  1.00  0.00    -0.248 NA
ATOM     32  C   UNL     1       7.799  13.596  -7.394  1.00  0.00     0.031 C 
ATOM     33  C   UNL     1       6.321  14.572  -2.679  1.00  0.00     0.029 A 
ATOM     34  N   UNL     1       8.285  15.416  -3.332  1.00  0.00    -0.354 N 
ATOM     35  C   UNL     1       9.841  14.621  -7.295  1.00  0.00     0.074 A 
ATOM     36  C   UNL     1       8.925  13.805  -8.061  1.00  0.00     0.031 C 
ATOM     37  C   UNL     1       6.830  15.255  -1.641  1.00  0.00     0.029 A 
ATOM     38  C   UNL     1       8.130  15.798  -2.019  1.00  0.00     0.049 A 
ATOM     39  H   UNL     1       9.070  15.659  -3.874  1.00  0.00     0.167 HD
ATOM     40  C   UNL     1      11.022  15.091  -7.764  1.00  0.00     0.037 A 
ATOM     41  C   UNL     1       8.949  16.495  -1.207  1.00  0.00     0.037 A 
ATOM     42  C   UNL     1      11.917  15.922  -7.001  1.00  0.00     0.049 A 
ATOM     43  C   UNL     1      10.262  16.994  -1.750  1.00  0.00     0.074 A 
ATOM     44  C   UNL     1      13.113  16.491  -7.402  1.00  0.00     0.029 A 
ATOM     45  N   UNL     1      11.716  16.303  -5.682  1.00  0.00    -0.354 N 
ATOM     46  N   UNL     1      10.770  16.841  -2.950  1.00  0.00    -0.248 NA
ATOM     47  C   UNL     1      11.110  17.767  -0.832  1.00  0.00     0.031 C 
ATOM     48  C   UNL     1      13.659  17.175  -6.311  1.00  0.00     0.029 A 
ATOM     49  C   UNL     1      12.775  17.082  -5.248  1.00  0.00     0.049 A 
ATOM     50  H   UNL     1      10.935  16.056  -5.136  1.00  0.00     0.167 HD
ATOM     51  C   UNL     1      11.981  17.525  -2.940  1.00  0.00     0.074 A 
ATOM     52  C   UNL     1      12.122  18.104  -1.620  1.00  0.00     0.031 C 
ATOM     53  C   UNL     1      12.893  17.663  -3.934  1.00  0.00     0.037 A 
BRANCH  40  54
ATOM     54  C   UNL     1      11.414  14.728  -9.171  1.00  0.00     0.058 A 
ATOM     55  C   UNL     1      10.740  15.259 -10.284  1.00  0.00     0.135 A 
ATOM     56  C   UNL     1      12.511  13.886  -9.414  1.00  0.00     0.135 A 
ATOM     57  F   UNL     1       9.674  16.057 -10.111  1.00  0.00    -0.206 F 
ATOM     58  C   UNL     1      11.126  14.951 -11.584  1.00  0.00     0.059 A 
ATOM     59  C   UNL     1      12.934  13.588 -10.707  1.00  0.00     0.059 A 
ATOM     60  F   UNL     1      13.192  13.349  -8.389  1.00  0.00    -0.206 F 
ATOM     61  C   UNL     1      12.227  14.117 -11.786  1.00  0.00     0.060 A 
BRANCH  61  62
ATOM     62  S   UNL     1      12.727  13.748 -13.481  1.00  0.00     0.124 S 
ATOM     63  O   UNL     1      11.646  12.870 -13.919  1.00  0.00    -0.237 OA
ATOM     64  O   UNL     1      12.753  15.073 -14.092  1.00  0.00    -0.237 OA
ATOM     65  O   UNL     1      14.029  13.109 -13.321  1.00  0.00    -0.744 OA
ENDBRANCH  61  62
ENDBRANCH  40  54
BRANCH  41  66
ATOM     66  C   UNL     1       8.552  16.772   0.200  1.00  0.00     0.058 A 
ATOM     67  C   UNL     1       8.256  18.076   0.624  1.00  0.00     0.135 A 
ATOM     68  C   UNL     1       8.467  15.743   1.151  1.00  0.00     0.135 A 
ATOM     69  F   UNL     1       8.326  19.096  -0.245  1.00  0.00    -0.206 F 
ATOM     70  C   UNL     1       7.919  18.356   1.945  1.00  0.00     0.059 A 
ATOM     71  C   UNL     1       8.103  15.992   2.470  1.00  0.00     0.059 A 
ATOM     72  F   UNL     1       8.720  14.474   0.793  1.00  0.00    -0.206 F 
ATOM     73  C   UNL     1       7.846  17.306   2.861  1.00  0.00     0.060 A 
BRANCH  73  74
ATOM     74  S   UNL     1       7.382  17.675   4.567  1.00  0.00     0.124 S 
ATOM     75  O   UNL     1       8.587  18.330   5.063  1.00  0.00    -0.237 OA
ATOM     76  O   UNL     1       6.215  18.532   4.388  1.00  0.00    -0.237 OA
ATOM     77  O   UNL     1       7.102  16.358   5.131  1.00  0.00    -0.744 OA
ENDBRANCH  73  74
ENDBRANCH  41  66
BRANCH  53  78
ATOM     78  C   UNL     1      14.105  18.509  -3.651  1.00  0.00     0.058 A 
ATOM     79  C   UNL     1      15.128  18.075  -2.794  1.00  0.00     0.135 A 
ATOM     80  C   UNL     1      14.268  19.749  -4.290  1.00  0.00     0.135 A 
ATOM     81  F   UNL     1      15.020  16.900  -2.152  1.00  0.00    -0.206 F 
ATOM     82  C   UNL     1      16.258  18.851  -2.561  1.00  0.00     0.059 A 
ATOM     83  C   UNL     1      15.404  20.528  -4.096  1.00  0.00     0.059 A 
ATOM     84  F   UNL     1      13.324  20.207  -5.128  1.00  0.00    -0.206 F 
ATOM     85  C   UNL     1      16.389  20.075  -3.220  1.00  0.00     0.060 A 
BRANCH  85  86
ATOM     86  S   UNL     1      17.877  21.056  -2.936  1.00  0.00     0.124 S 
ATOM     87  O   UNL     1      17.649  21.551  -1.582  1.00  0.00    -0.237 OA
ATOM     88  O   UNL     1      18.937  20.063  -3.078  1.00  0.00    -0.237 OA
ATOM     89  O   UNL     1      17.826  22.065  -3.989  1.00  0.00    -0.744 OA
ENDBRANCH  85  86
ENDBRANCH  53  78
ENDBRANCH  27  28
ENDBRANCH  19  22
ENDBRANCH  17  18
ENDBRANCH   1  17
TORSDOF 16
