REMARK SMILES O=C(NCCCNC(=O)[C@H]1CC=CC[C@@H]1C(=O)Nc1ccccc1C(=O)NCc1ccco1)c1ccc(-c2c3nc(c(-c4c(F)cc(S(=O)(=O)[O-])cc4F)c4ccc([nH]4)c(-c4c(F)cc(S(=O)(=O)[O-])cc4F)c4nc(c(-c5c(F)cc(S(=O)(=O)[O-])cc5F)c5ccc2[nH]5)C=C4)C=C3)cc1
REMARK SMILES IDX 6 1 5 2 4 3 3 4 1 5 2 6 34 8 35 9 99 10 36 11 98 12 37 13
REMARK SMILES IDX 38 14 39 15 92 16 40 17 97 18 91 19 93 20 41 21 96 22 90 23
REMARK SMILES IDX 89 24 42 26 76 27 55 28 75 29 56 30 59 31 74 32 94 33 57 34
REMARK SMILES IDX 58 35 73 37 95 38 60 39 43 40 44 41 53 42 45 43 46 44 52 45
REMARK SMILES IDX 54 46 47 47 48 48 49 49 50 50 51 51 77 52 78 53 87 54 79 55
REMARK SMILES IDX 80 56 86 57 88 58 81 59 82 60 83 61 84 62 85 63 61 64 62 65
REMARK SMILES IDX 71 66 63 67 64 68 70 69 72 70 65 71 66 72 67 73 68 74 69 75
REMARK SMILES IDX 7 76 8 77 9 79 10 80 11 81 15 82 12 83 14 84 13 85 16 86
REMARK SMILES IDX 17 87 18 88 19 90 20 91 24 92 21 93 23 94 22 95 25 96 26 97
REMARK SMILES IDX 27 98 28 100 29 101 30 102 33 103 31 104 32 105
REMARK H PARENT 3 7 93 25 59 36 7 78 18 89 27 99
REMARK Flexibility Score: inf
ROOT
ATOM      1  C   UNL     1       3.413   2.997   1.757  1.00  0.00     0.117 C 
ENDROOT
BRANCH   1   2
ATOM      2  C   UNL     1       4.104   1.994   0.846  1.00  0.00     0.042 C 
BRANCH   2   3
ATOM      3  C   UNL     1       3.894   0.555   1.292  1.00  0.00     0.118 C 
BRANCH   3   4
ATOM      4  N   UNL     1       2.535   0.118   1.027  1.00  0.00    -0.352 N 
ATOM      5  O   UNL     1       0.805  -0.403  -0.305  1.00  0.00    -0.269 OA
ATOM      6  C   UNL     1       2.015  -0.447  -0.112  1.00  0.00     0.251 C 
ATOM      7  H   UNL     1       1.897   0.244   1.767  1.00  0.00     0.163 HD
BRANCH   6   8
ATOM      8  C   UNL     1       2.907  -1.109  -1.091  1.00  0.00     0.039 A 
ATOM      9  C   UNL     1       4.000  -1.864  -0.659  1.00  0.00     0.014 A 
ATOM     10  C   UNL     1       2.586  -1.071  -2.452  1.00  0.00     0.014 A 
ATOM     11  C   UNL     1       4.827  -2.494  -1.578  1.00  0.00     0.010 A 
ATOM     12  C   UNL     1       3.346  -1.806  -3.367  1.00  0.00     0.010 A 
ATOM     13  C   UNL     1       4.461  -2.537  -2.930  1.00  0.00    -0.014 A 
BRANCH  13  14
ATOM     14  C   UNL     1       5.131  -3.524  -3.812  1.00  0.00     0.031 A 
ATOM     15  C   UNL     1       5.923  -3.098  -5.009  1.00  0.00     0.074 A 
ATOM     16  C   UNL     1       4.983  -4.830  -3.504  1.00  0.00     0.049 A 
ATOM     17  N   UNL     1       6.516  -3.846  -5.902  1.00  0.00    -0.248 NA
ATOM     18  C   UNL     1       6.065  -1.653  -5.247  1.00  0.00     0.031 C 
ATOM     19  C   UNL     1       4.201  -5.344  -2.371  1.00  0.00     0.029 A 
ATOM     20  N   UNL     1       5.473  -5.963  -4.098  1.00  0.00    -0.354 N 
ATOM     21  C   UNL     1       7.073  -2.972  -6.825  1.00  0.00     0.074 A 
ATOM     22  C   UNL     1       6.749  -1.631  -6.386  1.00  0.00     0.031 C 
ATOM     23  C   UNL     1       4.295  -6.679  -2.332  1.00  0.00     0.029 A 
ATOM     24  C   UNL     1       5.064  -7.125  -3.484  1.00  0.00     0.049 A 
ATOM     25  H   UNL     1       6.061  -5.948  -4.888  1.00  0.00     0.167 HD
ATOM     26  C   UNL     1       7.783  -3.275  -7.938  1.00  0.00     0.037 A 
ATOM     27  C   UNL     1       5.242  -8.412  -3.834  1.00  0.00     0.037 A 
ATOM     28  C   UNL     1       8.115  -4.621  -8.335  1.00  0.00     0.049 A 
ATOM     29  C   UNL     1       6.015  -8.709  -5.083  1.00  0.00     0.074 A 
ATOM     30  C   UNL     1       8.902  -5.032  -9.396  1.00  0.00     0.029 A 
ATOM     31  N   UNL     1       7.669  -5.771  -7.699  1.00  0.00    -0.354 N 
ATOM     32  N   UNL     1       6.593  -7.867  -5.907  1.00  0.00    -0.248 NA
ATOM     33  C   UNL     1       6.148 -10.120  -5.464  1.00  0.00     0.031 C 
ATOM     34  C   UNL     1       8.885  -6.429  -9.437  1.00  0.00     0.029 A 
ATOM     35  C   UNL     1       8.127  -6.891  -8.373  1.00  0.00     0.049 A 
ATOM     36  H   UNL     1       7.109  -5.788  -6.889  1.00  0.00     0.167 HD
ATOM     37  C   UNL     1       7.156  -8.647  -6.907  1.00  0.00     0.074 A 
ATOM     38  C   UNL     1       6.878 -10.028  -6.566  1.00  0.00     0.031 C 
ATOM     39  C   UNL     1       7.830  -8.256  -8.015  1.00  0.00     0.037 A 
BRANCH  26  40
ATOM     40  C   UNL     1       8.238  -2.153  -8.828  1.00  0.00     0.058 A 
ATOM     41  C   UNL     1       9.314  -1.322  -8.485  1.00  0.00     0.135 A 
ATOM     42  C   UNL     1       7.655  -1.982 -10.096  1.00  0.00     0.135 A 
ATOM     43  F   UNL     1       9.898  -1.433  -7.282  1.00  0.00    -0.206 F 
ATOM     44  C   UNL     1       9.800  -0.362  -9.369  1.00  0.00     0.059 A 
ATOM     45  C   UNL     1       8.137  -1.042 -11.002  1.00  0.00     0.059 A 
ATOM     46  F   UNL     1       6.619  -2.748 -10.472  1.00  0.00    -0.206 F 
ATOM     47  C   UNL     1       9.211  -0.235 -10.629  1.00  0.00     0.060 A 
BRANCH  47  48
ATOM     48  S   UNL     1       9.891   0.976 -11.783  1.00  0.00     0.124 S 
ATOM     49  O   UNL     1       9.460   2.232 -11.176  1.00  0.00    -0.237 OA
ATOM     50  O   UNL     1      11.322   0.700 -11.716  1.00  0.00    -0.237 OA
ATOM     51  O   UNL     1       9.249   0.639 -13.050  1.00  0.00    -0.744 OA
ENDBRANCH  47  48
ENDBRANCH  26  40
BRANCH  27  52
ATOM     52  C   UNL     1       4.614  -9.496  -3.033  1.00  0.00     0.058 A 
ATOM     53  C   UNL     1       5.391 -10.409  -2.306  1.00  0.00     0.135 A 
ATOM     54  C   UNL     1       3.217  -9.636  -2.976  1.00  0.00     0.135 A 
ATOM     55  F   UNL     1       6.729 -10.318  -2.328  1.00  0.00    -0.206 F 
ATOM     56  C   UNL     1       4.807 -11.438  -1.573  1.00  0.00     0.059 A 
ATOM     57  C   UNL     1       2.610 -10.635  -2.225  1.00  0.00     0.059 A 
ATOM     58  F   UNL     1       2.427  -8.775  -3.637  1.00  0.00    -0.206 F 
ATOM     59  C   UNL     1       3.415 -11.544  -1.542  1.00  0.00     0.060 A 
BRANCH  59  60
ATOM     60  S   UNL     1       2.664 -12.873  -0.579  1.00  0.00     0.124 S 
ATOM     61  O   UNL     1       2.899 -14.025  -1.441  1.00  0.00    -0.237 OA
ATOM     62  O   UNL     1       3.436 -12.833   0.659  1.00  0.00    -0.237 OA
ATOM     63  O   UNL     1       1.272 -12.450  -0.454  1.00  0.00    -0.744 OA
ENDBRANCH  59  60
ENDBRANCH  27  52
BRANCH  39  64
ATOM     64  C   UNL     1       8.310  -9.338  -8.936  1.00  0.00     0.058 A 
ATOM     65  C   UNL     1       7.419 -10.029  -9.772  1.00  0.00     0.135 A 
ATOM     66  C   UNL     1       9.675  -9.651  -9.022  1.00  0.00     0.135 A 
ATOM     67  F   UNL     1       6.102  -9.776  -9.713  1.00  0.00    -0.206 F 
ATOM     68  C   UNL     1       7.866 -11.004 -10.656  1.00  0.00     0.059 A 
ATOM     69  C   UNL     1      10.147 -10.603  -9.919  1.00  0.00     0.059 A 
ATOM     70  F   UNL     1      10.566  -9.014  -8.245  1.00  0.00    -0.206 F 
ATOM     71  C   UNL     1       9.233 -11.279 -10.726  1.00  0.00     0.060 A 
BRANCH  71  72
ATOM     72  S   UNL     1       9.804 -12.508 -11.917  1.00  0.00     0.124 S 
ATOM     73  O   UNL     1       9.372 -13.751 -11.287  1.00  0.00    -0.237 OA
ATOM     74  O   UNL     1       9.084 -12.127 -13.129  1.00  0.00    -0.237 OA
ATOM     75  O   UNL     1      11.248 -12.294 -11.960  1.00  0.00    -0.744 OA
ENDBRANCH  71  72
ENDBRANCH  39  64
ENDBRANCH  13  14
ENDBRANCH   6   8
ENDBRANCH   3   4
ENDBRANCH   2   3
ENDBRANCH   1   2
BRANCH   1  76
ATOM     76  N   UNL     1       4.031   3.009   3.064  1.00  0.00    -0.356 N 
ATOM     77  C   UNL     1       5.215   3.432   3.553  1.00  0.00     0.224 C 
ATOM     78  H   UNL     1       3.454   2.619   3.759  1.00  0.00     0.163 HD
ATOM     79  O   UNL     1       5.438   2.997   4.693  1.00  0.00    -0.275 OA
BRANCH  77  80
ATOM     80  C   UNL     1       6.173   4.473   2.927  1.00  0.00     0.095 C 
ATOM     81  C   UNL     1       7.605   4.138   3.420  1.00  0.00     0.041 C 
ATOM     82  C   UNL     1       6.138   4.849   1.436  1.00  0.00     0.095 C 
ATOM     83  C   UNL     1       8.320   3.170   2.539  1.00  0.00    -0.030 C 
ATOM     84  C   UNL     1       7.085   3.980   0.539  1.00  0.00     0.041 C 
ATOM     85  C   UNL     1       8.064   3.090   1.232  1.00  0.00    -0.030 C 
BRANCH  82  86
ATOM     86  C   UNL     1       6.277   6.324   0.996  1.00  0.00     0.228 C 
ATOM     87  O   UNL     1       6.842   6.591  -0.080  1.00  0.00    -0.274 OA
ATOM     88  N   UNL     1       5.683   7.432   1.490  1.00  0.00    -0.325 N 
ATOM     89  H   UNL     1       5.721   8.142   0.809  1.00  0.00     0.169 HD
BRANCH  88  90
ATOM     90  C   UNL     1       5.033   7.930   2.627  1.00  0.00     0.054 A 
ATOM     91  C   UNL     1       3.991   8.825   2.276  1.00  0.00     0.027 A 
ATOM     92  C   UNL     1       5.314   7.760   3.991  1.00  0.00     0.063 A 
ATOM     93  C   UNL     1       3.129   9.383   3.218  1.00  0.00     0.002 A 
ATOM     94  C   UNL     1       4.371   8.260   4.928  1.00  0.00     0.016 A 
ATOM     95  C   UNL     1       3.284   9.049   4.549  1.00  0.00     0.001 A 
BRANCH  92  96
ATOM     96  C   UNL     1       6.565   7.273   4.667  1.00  0.00     0.253 C 
ATOM     97  O   UNL     1       6.463   6.743   5.775  1.00  0.00    -0.269 OA
ATOM     98  N   UNL     1       7.835   7.458   4.182  1.00  0.00    -0.345 N 
ATOM     99  H   UNL     1       8.556   7.293   4.831  1.00  0.00     0.164 HD
BRANCH  98 100
ATOM    100  C   UNL     1       8.273   7.855   2.873  1.00  0.00     0.191 C 
BRANCH 100 101
ATOM    101  C   UNL     1       9.731   8.061   2.782  1.00  0.00     0.122 A 
ATOM    102  C   UNL     1      10.515   9.185   2.651  1.00  0.00     0.047 A 
ATOM    103  O   UNL     1      10.490   6.938   2.613  1.00  0.00    -0.467 OA
ATOM    104  C   UNL     1      11.813   8.725   2.323  1.00  0.00     0.042 A 
ATOM    105  C   UNL     1      11.747   7.352   2.312  1.00  0.00     0.195 A 
ENDBRANCH 100 101
ENDBRANCH  98 100
ENDBRANCH  92  96
ENDBRANCH  88  90
ENDBRANCH  82  86
ENDBRANCH  77  80
ENDBRANCH   1  76
TORSDOF 18
