REMARK SMILES O=C(NCCCNC(=O)c1ccc(Cl)cc1NC(=O)c1cc(Cl)nnc1Cl)c1ccc(-c2c3nc(c(-c4c(F)cc(S(=O)(=O)[O-])cc4F)c4ccc([nH]4)c(-c4c(F)cc(S(=O)(=O)[O-])cc4F)c4nc(c(-c5c(F)cc(S(=O)(=O)[O-])cc5F)c5ccc2[nH]5)C=C4)C=C3)cc1
REMARK SMILES IDX 4 1 3 2 1 3 2 4 28 6 29 7 93 8 30 9 92 10 31 11 32 12 33 13
REMARK SMILES IDX 86 14 34 15 91 16 85 17 87 18 35 19 90 20 84 21 83 22 36 24
REMARK SMILES IDX 70 25 49 26 69 27 50 28 53 29 68 30 88 31 51 32 52 33 67 35
REMARK SMILES IDX 89 36 54 37 37 38 38 39 47 40 39 41 40 42 46 43 48 44 41 45
REMARK SMILES IDX 42 46 43 47 44 48 45 49 71 50 72 51 81 52 73 53 74 54 80 55
REMARK SMILES IDX 82 56 75 57 76 58 77 59 78 60 79 61 55 62 56 63 65 64 57 65
REMARK SMILES IDX 58 66 64 67 66 68 59 69 60 70 61 71 62 72 63 73 5 74 6 75
REMARK SMILES IDX 7 76 8 77 9 79 10 80 11 81 16 82 12 83 15 84 13 85 14 86
REMARK SMILES IDX 17 87 18 88 19 90 20 91 21 92 26 93 22 94 25 95 27 96 23 97
REMARK SMILES IDX 24 98
REMARK H PARENT 3 5 87 23 53 34 7 78 17 89
REMARK Flexibility Score: inf
ROOT
ATOM      1  C   UNL     1       4.501  -0.776  -1.123  1.00  0.00     0.118 C 
ENDROOT
BRANCH   1   2
ATOM      2  N   UNL     1       3.055  -0.639  -1.005  1.00  0.00    -0.352 N 
ATOM      3  O   UNL     1       1.090  -0.151  -0.034  1.00  0.00    -0.269 OA
ATOM      4  C   UNL     1       2.300   0.049  -0.087  1.00  0.00     0.251 C 
ATOM      5  H   UNL     1       2.537  -1.116  -1.693  1.00  0.00     0.163 HD
BRANCH   4   6
ATOM      6  C   UNL     1       2.933   1.014   0.839  1.00  0.00     0.039 A 
ATOM      7  C   UNL     1       3.881   1.932   0.381  1.00  0.00     0.014 A 
ATOM      8  C   UNL     1       2.530   1.034   2.179  1.00  0.00     0.014 A 
ATOM      9  C   UNL     1       4.518   2.781   1.284  1.00  0.00     0.010 A 
ATOM     10  C   UNL     1       3.131   1.924   3.074  1.00  0.00     0.010 A 
ATOM     11  C   UNL     1       4.156   2.778   2.639  1.00  0.00    -0.014 A 
BRANCH  11  12
ATOM     12  C   UNL     1       4.861   3.684   3.579  1.00  0.00     0.031 A 
ATOM     13  C   UNL     1       5.839   3.135   4.579  1.00  0.00     0.074 A 
ATOM     14  C   UNL     1       4.652   5.012   3.493  1.00  0.00     0.049 A 
ATOM     15  N   UNL     1       6.628   3.784   5.396  1.00  0.00    -0.248 NA
ATOM     16  C   UNL     1       5.949   1.670   4.677  1.00  0.00     0.031 C 
ATOM     17  C   UNL     1       3.707   5.658   2.580  1.00  0.00     0.029 A 
ATOM     18  N   UNL     1       5.228   6.056   4.170  1.00  0.00    -0.354 N 
ATOM     19  C   UNL     1       7.332   2.813   6.097  1.00  0.00     0.074 A 
ATOM     20  C   UNL     1       6.850   1.528   5.640  1.00  0.00     0.031 C 
ATOM     21  C   UNL     1       3.783   6.989   2.740  1.00  0.00     0.029 A 
ATOM     22  C   UNL     1       4.765   7.289   3.778  1.00  0.00     0.049 A 
ATOM     23  H   UNL     1       5.908   5.934   4.872  1.00  0.00     0.167 HD
ATOM     24  C   UNL     1       8.308   2.981   7.020  1.00  0.00     0.037 A 
ATOM     25  C   UNL     1       5.095   8.523   4.206  1.00  0.00     0.037 A 
ATOM     26  C   UNL     1       8.796   4.261   7.460  1.00  0.00     0.049 A 
ATOM     27  C   UNL     1       6.156   8.679   5.259  1.00  0.00     0.074 A 
ATOM     28  C   UNL     1       9.836   4.530   8.332  1.00  0.00     0.029 A 
ATOM     29  N   UNL     1       8.270   5.484   7.075  1.00  0.00    -0.354 N 
ATOM     30  N   UNL     1       6.877   7.752   5.843  1.00  0.00    -0.248 NA
ATOM     31  C   UNL     1       6.450  10.046   5.714  1.00  0.00     0.031 C 
ATOM     32  C   UNL     1       9.911   5.915   8.509  1.00  0.00     0.029 A 
ATOM     33  C   UNL     1       8.939   6.510   7.721  1.00  0.00     0.049 A 
ATOM     34  H   UNL     1       7.530   5.606   6.437  1.00  0.00     0.167 HD
ATOM     35  C   UNL     1       7.711   8.422   6.729  1.00  0.00     0.074 A 
ATOM     36  C   UNL     1       7.422   9.834   6.592  1.00  0.00     0.031 C 
ATOM     37  C   UNL     1       8.631   7.911   7.583  1.00  0.00     0.037 A 
BRANCH  24  38
ATOM     38  C   UNL     1       8.935   1.752   7.614  1.00  0.00     0.058 A 
ATOM     39  C   UNL     1       9.867   0.991   6.892  1.00  0.00     0.135 A 
ATOM     40  C   UNL     1       8.668   1.382   8.941  1.00  0.00     0.135 A 
ATOM     41  F   UNL     1      10.146   1.295   5.615  1.00  0.00    -0.206 F 
ATOM     42  C   UNL     1      10.510  -0.101   7.465  1.00  0.00     0.059 A 
ATOM     43  C   UNL     1       9.312   0.303   9.540  1.00  0.00     0.059 A 
ATOM     44  F   UNL     1       7.781   2.077   9.670  1.00  0.00    -0.206 F 
ATOM     45  C   UNL     1      10.228  -0.435   8.792  1.00  0.00     0.060 A 
BRANCH  45  46
ATOM     46  S   UNL     1      11.094  -1.839   9.525  1.00  0.00     0.124 S 
ATOM     47  O   UNL     1      10.463  -2.961   8.835  1.00  0.00    -0.237 OA
ATOM     48  O   UNL     1      12.482  -1.573   9.162  1.00  0.00    -0.237 OA
ATOM     49  O   UNL     1      10.786  -1.725  10.947  1.00  0.00    -0.744 OA
ENDBRANCH  45  46
ENDBRANCH  24  38
BRANCH  25  50
ATOM     50  C   UNL     1       4.408   9.709   3.635  1.00  0.00     0.058 A 
ATOM     51  C   UNL     1       5.072  10.578   2.758  1.00  0.00     0.135 A 
ATOM     52  C   UNL     1       3.067   9.985   3.944  1.00  0.00     0.135 A 
ATOM     53  F   UNL     1       6.356  10.357   2.438  1.00  0.00    -0.206 F 
ATOM     54  C   UNL     1       4.433  11.687   2.214  1.00  0.00     0.059 A 
ATOM     55  C   UNL     1       2.401  11.076   3.397  1.00  0.00     0.059 A 
ATOM     56  F   UNL     1       2.387   9.173   4.768  1.00  0.00    -0.206 F 
ATOM     57  C   UNL     1       3.097  11.927   2.539  1.00  0.00     0.060 A 
BRANCH  57  58
ATOM     58  S   UNL     1       2.263  13.344   1.791  1.00  0.00     0.124 S 
ATOM     59  O   UNL     1       2.840  14.453   2.541  1.00  0.00    -0.237 OA
ATOM     60  O   UNL     1       2.670  13.237   0.393  1.00  0.00    -0.237 OA
ATOM     61  O   UNL     1       0.851  13.074   2.046  1.00  0.00    -0.744 OA
ENDBRANCH  57  58
ENDBRANCH  25  50
BRANCH  37  62
ATOM     62  C   UNL     1       9.383   8.874   8.454  1.00  0.00     0.058 A 
ATOM     63  C   UNL     1       8.784   9.443   9.588  1.00  0.00     0.135 A 
ATOM     64  C   UNL     1      10.736   9.160   8.210  1.00  0.00     0.135 A 
ATOM     65  F   UNL     1       7.490   9.207   9.858  1.00  0.00    -0.206 F 
ATOM     66  C   UNL     1       9.501  10.263  10.452  1.00  0.00     0.059 A 
ATOM     67  C   UNL     1      11.478   9.961   9.072  1.00  0.00     0.059 A 
ATOM     68  F   UNL     1      11.355   8.633   7.142  1.00  0.00    -0.206 F 
ATOM     69  C   UNL     1      10.850  10.509  10.191  1.00  0.00     0.060 A 
BRANCH  69  70
ATOM     70  S   UNL     1      11.786  11.517  11.361  1.00  0.00     0.124 S 
ATOM     71  O   UNL     1      11.279  12.854  11.069  1.00  0.00    -0.237 OA
ATOM     72  O   UNL     1      11.386  10.955  12.647  1.00  0.00    -0.237 OA
ATOM     73  O   UNL     1      13.175  11.275  10.982  1.00  0.00    -0.744 OA
ENDBRANCH  69  70
ENDBRANCH  37  62
ENDBRANCH  11  12
ENDBRANCH   4   6
ENDBRANCH   1   2
BRANCH   1  74
ATOM     74  C   UNL     1       4.969  -2.206  -0.874  1.00  0.00     0.042 C 
BRANCH  74  75
ATOM     75  C   UNL     1       4.441  -3.224  -1.879  1.00  0.00     0.118 C 
BRANCH  75  76
ATOM     76  N   UNL     1       5.012  -3.057  -3.211  1.00  0.00    -0.352 N 
ATOM     77  C   UNL     1       5.819  -3.913  -3.922  1.00  0.00     0.253 C 
ATOM     78  H   UNL     1       4.788  -2.213  -3.664  1.00  0.00     0.163 HD
ATOM     79  O   UNL     1       6.366  -3.544  -4.957  1.00  0.00    -0.269 OA
BRANCH  77  80
ATOM     80  C   UNL     1       6.083  -5.271  -3.396  1.00  0.00     0.063 A 
ATOM     81  C   UNL     1       4.982  -6.088  -3.093  1.00  0.00     0.017 A 
ATOM     82  C   UNL     1       7.404  -5.718  -3.179  1.00  0.00     0.055 A 
ATOM     83  C   UNL     1       5.175  -7.296  -2.433  1.00  0.00     0.021 A 
ATOM     84  C   UNL     1       7.567  -6.893  -2.440  1.00  0.00     0.047 A 
ATOM     85  C   UNL     1       6.463  -7.671  -2.075  1.00  0.00     0.043 A 
ATOM     86  Cl  UNL     1       6.708  -9.117  -1.173  1.00  0.00    -0.084 Cl
BRANCH  82  87
ATOM     87  N   UNL     1       8.481  -4.966  -3.715  1.00  0.00    -0.321 N 
ATOM     88  C   UNL     1       9.819  -5.226  -3.892  1.00  0.00     0.258 C 
ATOM     89  H   UNL     1       8.214  -4.071  -4.024  1.00  0.00     0.170 HD
ATOM     90  O   UNL     1      10.580  -4.363  -4.324  1.00  0.00    -0.269 OA
BRANCH  88  91
ATOM     91  C   UNL     1      10.409  -6.525  -3.595  1.00  0.00     0.082 A 
ATOM     92  C   UNL     1      11.305  -6.611  -2.528  1.00  0.00     0.060 A 
ATOM     93  C   UNL     1      10.139  -7.650  -4.354  1.00  0.00     0.164 A 
ATOM     94  C   UNL     1      11.826  -7.852  -2.242  1.00  0.00     0.152 A 
ATOM     95  N   UNL     1      10.667  -8.850  -4.035  1.00  0.00    -0.136 NA
ATOM     96  Cl  UNL     1       9.118  -7.681  -5.730  1.00  0.00    -0.059 Cl
ATOM     97  Cl  UNL     1      12.896  -8.099  -0.933  1.00  0.00    -0.060 Cl
ATOM     98  N   UNL     1      11.513  -8.954  -2.956  1.00  0.00    -0.137 NA
ENDBRANCH  88  91
ENDBRANCH  82  87
ENDBRANCH  77  80
ENDBRANCH  75  76
ENDBRANCH  74  75
ENDBRANCH   1  74
TORSDOF 15
