REMARK SMILES C[C@]1(C(=O)N2CCC(CC(=O)NCCCNC(=O)c3ccc(-c4c5nc(c(-c6c(F)cc(S(=O)(=O)[O-])cc6F)c6ccc([nH]6)c(-c6c(F)cc(S(=O)(=O)[O-])cc6F)c6nc(c(-c7c(F)cc(S(=O)(=O)[O-])cc7F)c7ccc4[nH]7)C=C6)C=C5)cc3)CC2)CCC[NH2+]C1
REMARK SMILES IDX 14 1 13 2 12 3 10 4 11 5 9 7 8 8 3 9 4 10 5 11 6 12 86 13
REMARK SMILES IDX 7 14 85 15 2 16 1 17 87 18 91 19 88 20 90 21 89 22 15 25
REMARK SMILES IDX 16 26 17 27 18 29 19 30 20 31 84 32 21 33 83 34 22 35 23 36
REMARK SMILES IDX 24 37 77 38 25 39 82 40 76 41 78 42 26 43 81 44 75 45 74 46
REMARK SMILES IDX 27 48 61 49 40 50 60 51 41 52 44 53 59 54 79 55 42 56 43 57
REMARK SMILES IDX 58 59 80 60 45 61 28 62 29 63 38 64 30 65 31 66 37 67 39 68
REMARK SMILES IDX 32 69 33 70 34 71 35 72 36 73 62 74 63 75 72 76 64 77 65 78
REMARK SMILES IDX 71 79 73 80 66 81 67 82 68 83 69 84 70 85 46 86 47 87 56 88
REMARK SMILES IDX 48 89 49 90 55 91 57 92 50 93 51 94 52 95 53 96 54 97
REMARK H PARENT 12 6 90 23 90 24 16 28 78 47 44 58
REMARK Flexibility Score: inf
ROOT
ATOM      1  C   UNL     1       5.971   0.417  -2.971  1.00  0.00     0.042 C 
ENDROOT
BRANCH   1   2
ATOM      2  C   UNL     1       6.047  -1.072  -3.314  1.00  0.00     0.117 C 
BRANCH   2   3
ATOM      3  N   UNL     1       6.858  -1.822  -2.362  1.00  0.00    -0.356 N 
ATOM      4  C   UNL     1       6.521  -2.740  -1.411  1.00  0.00     0.220 C 
ATOM      5  O   UNL     1       7.423  -3.211  -0.715  1.00  0.00    -0.275 OA
ATOM      6  H   UNL     1       7.823  -1.630  -2.414  1.00  0.00     0.163 HD
BRANCH   4   7
ATOM      7  C   UNL     1       5.083  -3.185  -1.215  1.00  0.00     0.103 C 
BRANCH   7   8
ATOM      8  C   UNL     1       4.346  -2.458  -0.068  1.00  0.00     0.002 C 
ATOM      9  C   UNL     1       0.723  -0.287   0.144  1.00  0.00     0.234 C 
ATOM     10  O   UNL     1      -0.112  -0.322   1.054  1.00  0.00    -0.274 OA
ATOM     11  N   UNL     1       1.930  -0.934   0.292  1.00  0.00    -0.342 N 
ATOM     12  C   UNL     1       1.987  -2.235   0.928  1.00  0.00     0.120 C 
ATOM     13  C   UNL     1       3.173  -0.198   0.373  1.00  0.00     0.120 C 
ATOM     14  C   UNL     1       2.960  -3.112   0.143  1.00  0.00     0.026 C 
ATOM     15  C   UNL     1       4.254  -0.955  -0.372  1.00  0.00     0.026 C 
BRANCH   9  16
ATOM     16  C   UNL     1       0.342   0.253  -1.267  1.00  0.00     0.095 C 
ATOM     17  C   UNL     1      -0.908  -0.593  -1.642  1.00  0.00     0.028 C 
ATOM     18  C   UNL     1      -0.088   1.731  -1.188  1.00  0.00     0.028 C 
ATOM     19  C   UNL     1       1.355   0.044  -2.418  1.00  0.00     0.277 C 
ATOM     20  C   UNL     1       1.099   2.686  -1.275  1.00  0.00     0.063 C 
ATOM     21  N   UNL     1       2.438   1.026  -2.522  1.00  0.00    -0.345 N 
ATOM     22  C   UNL     1       1.946   2.402  -2.509  1.00  0.00     0.260 C 
ATOM     23  H   UNL     1       3.074   0.898  -1.735  1.00  0.00     0.346 HD
ATOM     24  H   UNL     1       2.912   0.873  -3.413  1.00  0.00     0.346 HD
ENDBRANCH   9  16
ENDBRANCH   7   8
ENDBRANCH   4   7
ENDBRANCH   2   3
ENDBRANCH   1   2
BRANCH   1  25
ATOM     25  C   UNL     1       7.258   1.189  -3.230  1.00  0.00     0.118 C 
BRANCH  25  26
ATOM     26  N   UNL     1       7.298   1.712  -4.585  1.00  0.00    -0.352 N 
ATOM     27  C   UNL     1       7.063   2.982  -5.056  1.00  0.00     0.251 C 
ATOM     28  H   UNL     1       7.531   1.051  -5.277  1.00  0.00     0.163 HD
ATOM     29  O   UNL     1       6.855   3.130  -6.259  1.00  0.00    -0.269 OA
BRANCH  27  30
ATOM     30  C   UNL     1       7.044   4.167  -4.157  1.00  0.00     0.039 A 
ATOM     31  C   UNL     1       6.189   5.232  -4.468  1.00  0.00     0.014 A 
ATOM     32  C   UNL     1       7.911   4.290  -3.069  1.00  0.00     0.014 A 
ATOM     33  C   UNL     1       6.178   6.386  -3.674  1.00  0.00     0.010 A 
ATOM     34  C   UNL     1       7.837   5.402  -2.227  1.00  0.00     0.010 A 
ATOM     35  C   UNL     1       6.986   6.474  -2.530  1.00  0.00    -0.014 A 
BRANCH  35  36
ATOM     36  C   UNL     1       6.981   7.687  -1.664  1.00  0.00     0.031 A 
ATOM     37  C   UNL     1       8.238   8.506  -1.496  1.00  0.00     0.074 A 
ATOM     38  C   UNL     1       5.868   8.027  -0.984  1.00  0.00     0.049 A 
ATOM     39  N   UNL     1       8.456   9.540  -0.723  1.00  0.00    -0.248 NA
ATOM     40  C   UNL     1       9.413   8.090  -2.279  1.00  0.00     0.031 C 
ATOM     41  C   UNL     1       4.598   7.300  -1.020  1.00  0.00     0.029 A 
ATOM     42  N   UNL     1       5.628   9.067  -0.119  1.00  0.00    -0.354 N 
ATOM     43  C   UNL     1       9.792   9.880  -0.906  1.00  0.00     0.074 A 
ATOM     44  C   UNL     1      10.348   8.914  -1.829  1.00  0.00     0.031 C 
ATOM     45  C   UNL     1       3.708   7.926  -0.233  1.00  0.00     0.029 A 
ATOM     46  C   UNL     1       4.352   9.076   0.395  1.00  0.00     0.049 A 
ATOM     47  H   UNL     1       6.306   9.742   0.113  1.00  0.00     0.167 HD
ATOM     48  C   UNL     1      10.489  10.913  -0.374  1.00  0.00     0.037 A 
ATOM     49  C   UNL     1       3.766   9.911   1.276  1.00  0.00     0.037 A 
ATOM     50  C   UNL     1       9.925  11.901   0.509  1.00  0.00     0.049 A 
ATOM     51  C   UNL     1       4.553  11.065   1.837  1.00  0.00     0.074 A 
ATOM     52  C   UNL     1      10.534  13.021   1.049  1.00  0.00     0.029 A 
ATOM     53  N   UNL     1       8.620  11.892   0.976  1.00  0.00    -0.354 N 
ATOM     54  N   UNL     1       5.801  11.398   1.610  1.00  0.00    -0.248 NA
ATOM     55  C   UNL     1       3.851  11.959   2.769  1.00  0.00     0.031 C 
ATOM     56  C   UNL     1       9.605  13.672   1.869  1.00  0.00     0.029 A 
ATOM     57  C   UNL     1       8.407  12.980   1.808  1.00  0.00     0.049 A 
ATOM     58  H   UNL     1       7.943  11.213   0.751  1.00  0.00     0.167 HD
ATOM     59  C   UNL     1       6.026  12.553   2.350  1.00  0.00     0.074 A 
ATOM     60  C   UNL     1       4.783  12.868   3.024  1.00  0.00     0.031 C 
ATOM     61  C   UNL     1       7.160  13.287   2.462  1.00  0.00     0.037 A 
BRANCH  48  62
ATOM     62  C   UNL     1      11.944  11.037  -0.741  1.00  0.00     0.058 A 
ATOM     63  C   UNL     1      12.348  11.430  -2.027  1.00  0.00     0.135 A 
ATOM     64  C   UNL     1      12.945  10.796   0.214  1.00  0.00     0.135 A 
ATOM     65  F   UNL     1      11.433  11.661  -2.982  1.00  0.00    -0.206 F 
ATOM     66  C   UNL     1      13.692  11.548  -2.363  1.00  0.00     0.059 A 
ATOM     67  C   UNL     1      14.296  10.934  -0.093  1.00  0.00     0.059 A 
ATOM     68  F   UNL     1      12.616  10.421   1.460  1.00  0.00    -0.206 F 
ATOM     69  C   UNL     1      14.660  11.295  -1.390  1.00  0.00     0.060 A 
BRANCH  69  70
ATOM     70  S   UNL     1      16.401  11.453  -1.842  1.00  0.00     0.124 S 
ATOM     71  O   UNL     1      16.605  10.242  -2.631  1.00  0.00    -0.237 OA
ATOM     72  O   UNL     1      16.420  12.706  -2.589  1.00  0.00    -0.237 OA
ATOM     73  O   UNL     1      17.085  11.484  -0.553  1.00  0.00    -0.744 OA
ENDBRANCH  69  70
ENDBRANCH  48  62
BRANCH  49  74
ATOM     74  C   UNL     1       2.346   9.702   1.663  1.00  0.00     0.058 A 
ATOM     75  C   UNL     1       1.343  10.572   1.212  1.00  0.00     0.135 A 
ATOM     76  C   UNL     1       1.962   8.625   2.477  1.00  0.00     0.135 A 
ATOM     77  F   UNL     1       1.662  11.619   0.437  1.00  0.00    -0.206 F 
ATOM     78  C   UNL     1       0.009  10.392   1.565  1.00  0.00     0.059 A 
ATOM     79  C   UNL     1       0.631   8.410   2.825  1.00  0.00     0.059 A 
ATOM     80  F   UNL     1       2.883   7.755   2.921  1.00  0.00    -0.206 F 
ATOM     81  C   UNL     1      -0.337   9.306   2.371  1.00  0.00     0.060 A 
BRANCH  81  82
ATOM     82  S   UNL     1      -2.078   9.053   2.780  1.00  0.00     0.124 S 
ATOM     83  O   UNL     1      -2.299  10.094   3.776  1.00  0.00    -0.237 OA
ATOM     84  O   UNL     1      -2.728   9.254   1.489  1.00  0.00    -0.237 OA
ATOM     85  O   UNL     1      -2.107   7.681   3.280  1.00  0.00    -0.744 OA
ENDBRANCH  81  82
ENDBRANCH  49  74
BRANCH  61  86
ATOM     86  C   UNL     1       7.106  14.524   3.314  1.00  0.00     0.058 A 
ATOM     87  C   UNL     1       7.089  14.453   4.715  1.00  0.00     0.135 A 
ATOM     88  C   UNL     1       7.127  15.797   2.720  1.00  0.00     0.135 A 
ATOM     89  F   UNL     1       7.061  13.260   5.330  1.00  0.00    -0.206 F 
ATOM     90  C   UNL     1       7.077  15.602   5.500  1.00  0.00     0.059 A 
ATOM     91  C   UNL     1       7.139  16.959   3.486  1.00  0.00     0.059 A 
ATOM     92  F   UNL     1       7.153  15.919   1.384  1.00  0.00    -0.206 F 
ATOM     93  C   UNL     1       7.104  16.851   4.876  1.00  0.00     0.060 A 
BRANCH  93  94
ATOM     94  S   UNL     1       7.128  18.334   5.904  1.00  0.00     0.124 S 
ATOM     95  O   UNL     1       5.740  18.407   6.348  1.00  0.00    -0.237 OA
ATOM     96  O   UNL     1       8.105  17.988   6.932  1.00  0.00    -0.237 OA
ATOM     97  O   UNL     1       7.548  19.382   4.978  1.00  0.00    -0.744 OA
ENDBRANCH  93  94
ENDBRANCH  61  86
ENDBRANCH  35  36
ENDBRANCH  27  30
ENDBRANCH  25  26
ENDBRANCH   1  25
TORSDOF 15
