REMARK SMILES C[C@H](NC(=O)N1CCN(/C=C/c2ccccc2)CC1)C(=O)NCCCNC(=O)c1ccc(-c2c3nc(c(-c4c(F)cc(S(=O)(=O)[O-])cc4F)c4ccc([nH]4)c(-c4c(F)cc(S(=O)(=O)[O-])cc4F)c4nc(c(-c5c(F)cc(S(=O)(=O)[O-])cc5F)c5ccc2[nH]5)C=C4)C=C3)cc1
REMARK SMILES IDX 24 1 23 2 22 3 20 4 21 5 2 7 1 8 3 9 4 10 5 12 6 13 7 14
REMARK SMILES IDX 19 15 8 16 18 17 9 18 10 19 11 20 12 21 13 22 17 23 14 24
REMARK SMILES IDX 16 25 15 26 25 27 26 28 27 29 28 31 29 32 30 33 94 34 31 35
REMARK SMILES IDX 93 36 32 37 33 38 34 39 87 40 35 41 92 42 86 43 88 44 36 45
REMARK SMILES IDX 91 46 85 47 84 48 37 50 71 51 50 52 70 53 51 54 54 55 69 56
REMARK SMILES IDX 89 57 52 58 53 59 68 61 90 62 55 63 38 64 39 65 48 66 40 67
REMARK SMILES IDX 41 68 47 69 49 70 42 71 43 72 44 73 45 74 46 75 72 76 73 77
REMARK SMILES IDX 82 78 74 79 75 80 81 81 83 82 76 83 77 84 78 85 79 86 80 87
REMARK SMILES IDX 56 88 57 89 66 90 58 91 59 92 65 93 67 94 60 95 61 96 62 97
REMARK SMILES IDX 63 98 64 99
REMARK H PARENT 22 6 3 11 26 30 88 49 54 60
REMARK Flexibility Score: inf
ROOT
ATOM      1  C   UNL     1      -1.267  -2.601   0.328  1.00  0.00     0.042 C 
ENDROOT
BRANCH   1   2
ATOM      2  C   UNL     1      -1.070  -1.815  -0.958  1.00  0.00     0.117 C 
BRANCH   2   3
ATOM      3  N   UNL     1      -1.649  -0.487  -0.859  1.00  0.00    -0.354 N 
ATOM      4  C   UNL     1      -1.061   0.736  -0.962  1.00  0.00     0.242 C 
ATOM      5  O   UNL     1      -1.770   1.732  -0.797  1.00  0.00    -0.273 OA
ATOM      6  H   UNL     1      -2.619  -0.469  -0.691  1.00  0.00     0.163 HD
BRANCH   4   7
ATOM      7  C   UNL     1       0.410   0.881  -1.395  1.00  0.00     0.170 C 
ATOM      8  C   UNL     1       0.490   0.418  -2.841  1.00  0.00     0.041 C 
BRANCH   7   9
ATOM      9  N   UNL     1       1.331   0.348  -0.379  1.00  0.00    -0.326 N 
ATOM     10  C   UNL     1       2.119  -0.743  -0.296  1.00  0.00     0.318 C 
ATOM     11  H   UNL     1       1.385   0.918   0.422  1.00  0.00     0.166 HD
ATOM     12  O   UNL     1       2.196  -1.295   0.802  1.00  0.00    -0.249 OA
ATOM     13  N   UNL     1       2.754  -1.225  -1.395  1.00  0.00    -0.321 N 
ATOM     14  C   UNL     1       3.175  -2.623  -1.418  1.00  0.00     0.143 C 
ATOM     15  C   UNL     1       3.465  -0.407  -2.370  1.00  0.00     0.143 C 
ATOM     16  C   UNL     1       2.909  -3.226  -2.802  1.00  0.00     0.137 C 
ATOM     17  C   UNL     1       3.360  -0.970  -3.800  1.00  0.00     0.137 C 
ATOM     18  N   UNL     1       3.559  -2.438  -3.876  1.00  0.00    -0.374 N 
BRANCH  18  19
ATOM     19  C   UNL     1       4.047  -3.002  -5.042  1.00  0.00     0.081 C 
ATOM     20  C   UNL     1       4.209  -4.288  -5.380  1.00  0.00     0.025 C 
BRANCH  20  21
ATOM     21  C   UNL     1       4.854  -4.704  -6.633  1.00  0.00    -0.024 A 
ATOM     22  C   UNL     1       4.439  -5.878  -7.270  1.00  0.00     0.008 A 
ATOM     23  C   UNL     1       5.946  -3.998  -7.158  1.00  0.00     0.008 A 
ATOM     24  C   UNL     1       5.094  -6.327  -8.420  1.00  0.00     0.001 A 
ATOM     25  C   UNL     1       6.597  -4.443  -8.308  1.00  0.00     0.001 A 
ATOM     26  C   UNL     1       6.171  -5.609  -8.938  1.00  0.00     0.000 A 
ENDBRANCH  20  21
ENDBRANCH  18  19
ENDBRANCH   7   9
ENDBRANCH   4   7
ENDBRANCH   2   3
ENDBRANCH   1   2
BRANCH   1  27
ATOM     27  C   UNL     1      -2.725  -2.942   0.596  1.00  0.00     0.118 C 
BRANCH  27  28
ATOM     28  N   UNL     1      -3.283  -3.838  -0.409  1.00  0.00    -0.352 N 
ATOM     29  C   UNL     1      -3.952  -5.024  -0.237  1.00  0.00     0.251 C 
ATOM     30  H   UNL     1      -3.163  -3.553  -1.343  1.00  0.00     0.163 HD
ATOM     31  O   UNL     1      -4.183  -5.739  -1.210  1.00  0.00    -0.269 OA
BRANCH  29  32
ATOM     32  C   UNL     1      -4.371  -5.441   1.117  1.00  0.00     0.039 A 
ATOM     33  C   UNL     1      -4.211  -6.776   1.493  1.00  0.00     0.014 A 
ATOM     34  C   UNL     1      -4.913  -4.517   2.014  1.00  0.00     0.014 A 
ATOM     35  C   UNL     1      -4.548  -7.169   2.789  1.00  0.00     0.010 A 
ATOM     36  C   UNL     1      -5.152  -4.889   3.332  1.00  0.00     0.010 A 
ATOM     37  C   UNL     1      -4.990  -6.223   3.729  1.00  0.00    -0.014 A 
BRANCH  37  38
ATOM     38  C   UNL     1      -5.309  -6.620   5.124  1.00  0.00     0.031 A 
ATOM     39  C   UNL     1      -6.708  -6.449   5.656  1.00  0.00     0.074 A 
ATOM     40  C   UNL     1      -4.332  -7.095   5.921  1.00  0.00     0.049 A 
ATOM     41  N   UNL     1      -7.175  -6.715   6.849  1.00  0.00    -0.248 NA
ATOM     42  C   UNL     1      -7.706  -5.875   4.739  1.00  0.00     0.031 C 
ATOM     43  C   UNL     1      -2.926  -7.249   5.537  1.00  0.00     0.029 A 
ATOM     44  N   UNL     1      -4.369  -7.534   7.220  1.00  0.00    -0.354 N 
ATOM     45  C   UNL     1      -8.512  -6.334   6.826  1.00  0.00     0.074 A 
ATOM     46  C   UNL     1      -8.765  -5.756   5.526  1.00  0.00     0.031 C 
ATOM     47  C   UNL     1      -2.245  -7.781   6.564  1.00  0.00     0.029 A 
ATOM     48  C   UNL     1      -3.152  -7.968   7.691  1.00  0.00     0.049 A 
ATOM     49  H   UNL     1      -5.189  -7.537   7.764  1.00  0.00     0.167 HD
ATOM     50  C   UNL     1      -9.452  -6.481   7.790  1.00  0.00     0.037 A 
ATOM     51  C   UNL     1      -2.807  -8.460   8.897  1.00  0.00     0.037 A 
ATOM     52  C   UNL     1      -9.196  -7.078   9.075  1.00  0.00     0.049 A 
ATOM     53  C   UNL     1      -3.870  -8.619   9.950  1.00  0.00     0.074 A 
ATOM     54  C   UNL     1     -10.088  -7.322  10.104  1.00  0.00     0.029 A 
ATOM     55  N   UNL     1      -7.955  -7.523   9.509  1.00  0.00    -0.354 N 
ATOM     56  N   UNL     1      -5.146  -8.316   9.888  1.00  0.00    -0.248 NA
ATOM     57  C   UNL     1      -3.451  -9.199  11.232  1.00  0.00     0.031 C 
ATOM     58  C   UNL     1      -9.378  -7.867  11.178  1.00  0.00     0.029 A 
ATOM     59  C   UNL     1      -8.055  -8.022  10.797  1.00  0.00     0.049 A 
ATOM     60  H   UNL     1      -7.126  -7.489   8.979  1.00  0.00     0.167 HD
ATOM     61  C   UNL     1      -5.687  -8.699  11.111  1.00  0.00     0.074 A 
ATOM     62  C   UNL     1      -4.603  -9.269  11.884  1.00  0.00     0.031 C 
ATOM     63  C   UNL     1      -6.966  -8.591  11.553  1.00  0.00     0.037 A 
BRANCH  50  64
ATOM     64  C   UNL     1     -10.844  -5.992   7.488  1.00  0.00     0.058 A 
ATOM     65  C   UNL     1     -11.659  -6.622   6.532  1.00  0.00     0.135 A 
ATOM     66  C   UNL     1     -11.385  -4.899   8.185  1.00  0.00     0.135 A 
ATOM     67  F   UNL     1     -11.190  -7.661   5.822  1.00  0.00    -0.206 F 
ATOM     68  C   UNL     1     -12.944  -6.168   6.256  1.00  0.00     0.059 A 
ATOM     69  C   UNL     1     -12.681  -4.449   7.949  1.00  0.00     0.059 A 
ATOM     70  F   UNL     1     -10.652  -4.257   9.109  1.00  0.00    -0.206 F 
ATOM     71  C   UNL     1     -13.448  -5.081   6.972  1.00  0.00     0.060 A 
BRANCH  71  72
ATOM     72  S   UNL     1     -15.122  -4.513   6.609  1.00  0.00     0.124 S 
ATOM     73  O   UNL     1     -14.943  -3.902   5.295  1.00  0.00    -0.237 OA
ATOM     74  O   UNL     1     -15.884  -5.757   6.630  1.00  0.00    -0.237 OA
ATOM     75  O   UNL     1     -15.411  -3.584   7.697  1.00  0.00    -0.744 OA
ENDBRANCH  71  72
ENDBRANCH  50  64
BRANCH  51  76
ATOM     76  C   UNL     1      -1.400  -8.869   9.160  1.00  0.00     0.058 A 
ATOM     77  C   UNL     1      -1.058 -10.219   9.328  1.00  0.00     0.135 A 
ATOM     78  C   UNL     1      -0.369  -7.920   9.242  1.00  0.00     0.135 A 
ATOM     79  F   UNL     1      -2.007 -11.165   9.263  1.00  0.00    -0.206 F 
ATOM     80  C   UNL     1       0.250 -10.614   9.590  1.00  0.00     0.059 A 
ATOM     81  C   UNL     1       0.952  -8.292   9.473  1.00  0.00     0.059 A 
ATOM     82  F   UNL     1      -0.639  -6.617   9.070  1.00  0.00    -0.206 F 
ATOM     83  C   UNL     1       1.250  -9.641   9.659  1.00  0.00     0.060 A 
BRANCH  83  84
ATOM     84  S   UNL     1       2.950 -10.169   9.959  1.00  0.00     0.124 S 
ATOM     85  O   UNL     1       2.892 -10.565  11.361  1.00  0.00    -0.237 OA
ATOM     86  O   UNL     1       3.109 -11.253   8.995  1.00  0.00    -0.237 OA
ATOM     87  O   UNL     1       3.730  -8.967   9.674  1.00  0.00    -0.744 OA
ENDBRANCH  83  84
ENDBRANCH  51  76
BRANCH  63  88
ATOM     88  C   UNL     1      -7.271  -9.145  12.919  1.00  0.00     0.058 A 
ATOM     89  C   UNL     1      -6.793  -8.538  14.092  1.00  0.00     0.135 A 
ATOM     90  C   UNL     1      -8.075 -10.288  13.055  1.00  0.00     0.135 A 
ATOM     91  F   UNL     1      -6.019  -7.444  14.020  1.00  0.00    -0.206 F 
ATOM     92  C   UNL     1      -7.065  -9.072  15.348  1.00  0.00     0.059 A 
ATOM     93  C   UNL     1      -8.389 -10.818  14.302  1.00  0.00     0.059 A 
ATOM     94  F   UNL     1      -8.572 -10.900  11.968  1.00  0.00    -0.206 F 
ATOM     95  C   UNL     1      -7.862 -10.214  15.442  1.00  0.00     0.060 A 
BRANCH  95  96
ATOM     96  S   UNL     1      -8.208 -10.896  17.077  1.00  0.00     0.124 S 
ATOM     97  O   UNL     1      -6.923 -11.494  17.424  1.00  0.00    -0.237 OA
ATOM     98  O   UNL     1      -8.581  -9.708  17.838  1.00  0.00    -0.237 OA
ATOM     99  O   UNL     1      -9.293 -11.840  16.829  1.00  0.00    -0.744 OA
ENDBRANCH  95  96
ENDBRANCH  63  88
ENDBRANCH  37  38
ENDBRANCH  29  32
ENDBRANCH  27  28
ENDBRANCH   1  27
TORSDOF 16
