REMARK SMILES NS(=O)(=O)c1ccc(-n2nc(NC(=O)NCCCC(=O)NCCCNC(=O)c3ccc(-c4c5nc(c(-c6c(F)cc(S(=O)(=O)[O-])cc6F)c6ccc([nH]6)c(-c6c(F)cc(S(=O)(=O)[O-])cc6F)c6nc(c(-c7c(F)cc(S(=O)(=O)[O-])cc7F)c7ccc4[nH]7)C=C6)C=C5)cc3)cc2-c2ccccc2)cc1
REMARK SMILES IDX 19 1 20 2 21 3 18 5 17 6 16 7 15 8 12 9 13 10 14 12 11 14
REMARK SMILES IDX 9 15 10 16 95 17 94 18 8 19 5 20 6 21 103 22 7 23 102 24
REMARK SMILES IDX 2 25 3 26 4 27 1 28 96 31 97 32 101 33 98 34 100 35 99 36
REMARK SMILES IDX 22 37 23 38 24 39 25 40 26 41 27 43 28 44 29 45 93 46 30 47
REMARK SMILES IDX 92 48 31 49 32 50 33 51 86 52 34 53 91 54 85 55 87 56 35 57
REMARK SMILES IDX 90 58 84 59 83 60 36 62 70 63 49 64 69 65 50 66 53 67 68 68
REMARK SMILES IDX 88 69 51 70 52 71 67 73 89 74 54 75 37 76 38 77 47 78 39 79
REMARK SMILES IDX 40 80 46 81 48 82 41 83 42 84 43 85 44 86 45 87 71 88 72 89
REMARK SMILES IDX 81 90 73 91 74 92 80 93 82 94 75 95 76 96 77 97 78 98 79 99
REMARK SMILES IDX 55 100 56 101 65 102 57 103 58 104 64 105 66 106 59 107
REMARK SMILES IDX 60 108 61 109 62 110 63 111
REMARK H PARENT 21 4 12 11 15 13 1 29 1 30 25 42 87 61 53 72
REMARK Flexibility Score: inf
ROOT
ATOM      1  C   UNL     1       6.175  -0.376  -3.450  1.00  0.00     0.220 C 
ATOM      2  O   UNL     1       5.699  -0.438  -2.315  1.00  0.00    -0.275 OA
ATOM      3  N   UNL     1       5.933   0.740  -4.193  1.00  0.00    -0.356 N 
ATOM      4  H   UNL     1       5.454   1.455  -3.714  1.00  0.00     0.163 HD
ENDROOT
BRANCH   1   5
ATOM      5  C   UNL     1       7.036  -1.505  -3.986  1.00  0.00     0.102 C 
BRANCH   5   6
ATOM      6  C   UNL     1       6.250  -2.720  -4.477  1.00  0.00     0.031 C 
BRANCH   6   7
ATOM      7  C   UNL     1       5.412  -2.481  -5.724  1.00  0.00     0.118 C 
BRANCH   7   8
ATOM      8  N   UNL     1       6.156  -2.074  -6.906  1.00  0.00    -0.338 N 
ATOM      9  N   UNL     1       4.547  -2.238  -8.665  1.00  0.00    -0.291 N 
ATOM     10  C   UNL     1       5.785  -1.961  -8.203  1.00  0.00     0.320 C 
ATOM     11  H   UNL     1       4.506  -2.428  -9.630  1.00  0.00     0.173 HD
ATOM     12  O   UNL     1       6.673  -1.690  -9.020  1.00  0.00    -0.248 OA
ATOM     13  H   UNL     1       7.096  -1.840  -6.732  1.00  0.00     0.165 HD
BRANCH   9  14
ATOM     14  C   UNL     1       3.336  -2.301  -8.021  1.00  0.00     0.157 A 
ATOM     15  N   UNL     1       1.935  -2.208  -6.438  1.00  0.00    -0.231 N 
ATOM     16  N   UNL     1       3.017  -1.592  -6.945  1.00  0.00    -0.149 NA
ATOM     17  C   UNL     1       1.316  -2.993  -7.402  1.00  0.00     0.076 A 
ATOM     18  C   UNL     1       2.226  -3.062  -8.444  1.00  0.00     0.078 A 
BRANCH  15  19
ATOM     19  C   UNL     1       1.646  -2.087  -5.053  1.00  0.00     0.065 A 
ATOM     20  C   UNL     1       0.993  -1.831  -2.360  1.00  0.00     0.082 A 
ATOM     21  C   UNL     1       0.915  -3.084  -2.976  1.00  0.00     0.024 A 
ATOM     22  C   UNL     1       1.444  -0.714  -3.068  1.00  0.00     0.024 A 
ATOM     23  C   UNL     1       1.231  -3.212  -4.326  1.00  0.00     0.030 A 
ATOM     24  C   UNL     1       1.798  -0.848  -4.415  1.00  0.00     0.030 A 
BRANCH  20  25
ATOM     25  S   UNL     1       0.498  -1.726  -0.663  1.00  0.00     0.238 S 
ATOM     26  O   UNL     1       1.206  -2.750   0.064  1.00  0.00    -0.207 OA
ATOM     27  O   UNL     1      -0.943  -1.605  -0.644  1.00  0.00    -0.207 OA
BRANCH  25  28
ATOM     28  N   UNL     1       1.111  -0.262  -0.124  1.00  0.00    -0.225 NA
ATOM     29  H   UNL     1       0.863  -0.130   0.856  1.00  0.00     0.137 HD
ATOM     30  H   UNL     1       0.716   0.497  -0.680  1.00  0.00     0.137 HD
ENDBRANCH  25  28
ENDBRANCH  20  25
ENDBRANCH  15  19
BRANCH  17  31
ATOM     31  C   UNL     1      -0.015  -3.567  -7.237  1.00  0.00     0.000 A 
ATOM     32  C   UNL     1      -1.059  -2.769  -6.744  1.00  0.00     0.010 A 
ATOM     33  C   UNL     1      -0.246  -4.924  -7.480  1.00  0.00     0.010 A 
ATOM     34  C   UNL     1      -2.297  -3.329  -6.442  1.00  0.00     0.001 A 
ATOM     35  C   UNL     1      -1.492  -5.481  -7.186  1.00  0.00     0.001 A 
ATOM     36  C   UNL     1      -2.511  -4.687  -6.658  1.00  0.00     0.000 A 
ENDBRANCH  17  31
ENDBRANCH   9  14
ENDBRANCH   7   8
ENDBRANCH   6   7
ENDBRANCH   5   6
ENDBRANCH   1   5
BRANCH   3  37
ATOM     37  C   UNL     1       6.262   1.054  -5.580  1.00  0.00     0.117 C 
BRANCH  37  38
ATOM     38  C   UNL     1       5.040   0.976  -6.496  1.00  0.00     0.042 C 
BRANCH  38  39
ATOM     39  C   UNL     1       4.117   2.171  -6.426  1.00  0.00     0.118 C 
BRANCH  39  40
ATOM     40  N   UNL     1       4.612   3.323  -7.172  1.00  0.00    -0.352 N 
ATOM     41  C   UNL     1       3.974   4.536  -7.365  1.00  0.00     0.251 C 
ATOM     42  H   UNL     1       5.501   3.227  -7.585  1.00  0.00     0.163 HD
ATOM     43  O   UNL     1       4.271   5.244  -8.321  1.00  0.00    -0.269 OA
BRANCH  41  44
ATOM     44  C   UNL     1       2.927   4.956  -6.410  1.00  0.00     0.039 A 
ATOM     45  C   UNL     1       1.828   5.717  -6.813  1.00  0.00     0.014 A 
ATOM     46  C   UNL     1       3.052   4.561  -5.080  1.00  0.00     0.014 A 
ATOM     47  C   UNL     1       0.842   6.015  -5.873  1.00  0.00     0.010 A 
ATOM     48  C   UNL     1       1.990   4.662  -4.223  1.00  0.00     0.010 A 
ATOM     49  C   UNL     1       0.921   5.463  -4.580  1.00  0.00    -0.014 A 
BRANCH  49  50
ATOM     50  C   UNL     1      -0.182   5.581  -3.631  1.00  0.00     0.031 A 
ATOM     51  C   UNL     1      -1.454   5.082  -4.208  1.00  0.00     0.074 A 
ATOM     52  C   UNL     1      -0.031   5.885  -2.320  1.00  0.00     0.049 A 
ATOM     53  N   UNL     1      -2.408   5.788  -4.716  1.00  0.00    -0.248 NA
ATOM     54  C   UNL     1      -1.576   3.640  -4.492  1.00  0.00     0.031 C 
ATOM     55  C   UNL     1       1.226   6.039  -1.573  1.00  0.00     0.029 A 
ATOM     56  N   UNL     1      -0.971   6.039  -1.338  1.00  0.00    -0.354 N 
ATOM     57  C   UNL     1      -3.396   4.865  -5.048  1.00  0.00     0.074 A 
ATOM     58  C   UNL     1      -2.722   3.606  -5.178  1.00  0.00     0.031 C 
ATOM     59  C   UNL     1       0.981   6.034  -0.243  1.00  0.00     0.029 A 
ATOM     60  C   UNL     1      -0.455   6.070  -0.037  1.00  0.00     0.049 A 
ATOM     61  H   UNL     1      -1.933   6.122  -1.531  1.00  0.00     0.167 HD
ATOM     62  C   UNL     1      -4.701   5.155  -4.777  1.00  0.00     0.037 A 
ATOM     63  C   UNL     1      -1.158   6.149   1.124  1.00  0.00     0.037 A 
ATOM     64  C   UNL     1      -4.829   6.559  -4.462  1.00  0.00     0.049 A 
ATOM     65  C   UNL     1      -2.482   6.717   0.782  1.00  0.00     0.074 A 
ATOM     66  C   UNL     1      -4.789   7.753  -5.148  1.00  0.00     0.029 A 
ATOM     67  N   UNL     1      -4.597   6.840  -3.140  1.00  0.00    -0.354 N 
ATOM     68  N   UNL     1      -2.643   7.934   0.339  1.00  0.00    -0.248 NA
ATOM     69  C   UNL     1      -3.608   5.816   0.566  1.00  0.00     0.031 C 
ATOM     70  C   UNL     1      -4.396   8.747  -4.202  1.00  0.00     0.029 A 
ATOM     71  C   UNL     1      -4.270   8.154  -2.949  1.00  0.00     0.049 A 
ATOM     72  H   UNL     1      -4.657   6.175  -2.416  1.00  0.00     0.167 HD
ATOM     73  C   UNL     1      -3.677   7.831  -0.568  1.00  0.00     0.074 A 
ATOM     74  C   UNL     1      -4.336   6.566  -0.265  1.00  0.00     0.031 C 
ATOM     75  C   UNL     1      -3.691   8.594  -1.698  1.00  0.00     0.037 A 
BRANCH  62  76
ATOM     76  C   UNL     1      -5.738   4.161  -4.271  1.00  0.00     0.058 A 
ATOM     77  C   UNL     1      -7.051   4.625  -4.025  1.00  0.00     0.135 A 
ATOM     78  C   UNL     1      -5.457   2.876  -3.753  1.00  0.00     0.135 A 
ATOM     79  F   UNL     1      -7.447   5.828  -4.471  1.00  0.00    -0.206 F 
ATOM     80  C   UNL     1      -7.978   3.908  -3.265  1.00  0.00     0.059 A 
ATOM     81  C   UNL     1      -6.378   2.127  -3.028  1.00  0.00     0.059 A 
ATOM     82  F   UNL     1      -4.255   2.301  -3.847  1.00  0.00    -0.206 F 
ATOM     83  C   UNL     1      -7.625   2.661  -2.761  1.00  0.00     0.060 A 
BRANCH  83  84
ATOM     84  S   UNL     1      -8.796   1.749  -1.742  1.00  0.00     0.124 S 
ATOM     85  O   UNL     1      -8.851   2.578  -0.545  1.00  0.00    -0.237 OA
ATOM     86  O   UNL     1      -9.989   1.752  -2.583  1.00  0.00    -0.237 OA
ATOM     87  O   UNL     1      -8.155   0.446  -1.583  1.00  0.00    -0.744 OA
ENDBRANCH  83  84
ENDBRANCH  62  76
BRANCH  63  88
ATOM     88  C   UNL     1      -0.881   5.587   2.474  1.00  0.00     0.058 A 
ATOM     89  C   UNL     1      -1.575   6.037   3.616  1.00  0.00     0.135 A 
ATOM     90  C   UNL     1      -0.173   4.379   2.619  1.00  0.00     0.135 A 
ATOM     91  F   UNL     1      -2.284   7.175   3.568  1.00  0.00    -0.206 F 
ATOM     92  C   UNL     1      -1.623   5.300   4.806  1.00  0.00     0.059 A 
ATOM     93  C   UNL     1      -0.203   3.629   3.797  1.00  0.00     0.059 A 
ATOM     94  F   UNL     1       0.487   3.844   1.580  1.00  0.00    -0.206 F 
ATOM     95  C   UNL     1      -0.954   4.080   4.878  1.00  0.00     0.060 A 
BRANCH  95  96
ATOM     96  S   UNL     1      -1.171   3.029   6.338  1.00  0.00     0.124 S 
ATOM     97  O   UNL     1      -0.452   3.780   7.362  1.00  0.00    -0.237 OA
ATOM     98  O   UNL     1      -2.623   2.989   6.479  1.00  0.00    -0.237 OA
ATOM     99  O   UNL     1      -0.551   1.768   5.939  1.00  0.00    -0.744 OA
ENDBRANCH  95  96
ENDBRANCH  63  88
BRANCH  75 100
ATOM    100  C   UNL     1      -2.979   9.912  -1.667  1.00  0.00     0.058 A 
ATOM    101  C   UNL     1      -1.587  10.091  -1.598  1.00  0.00     0.135 A 
ATOM    102  C   UNL     1      -3.773  11.060  -1.801  1.00  0.00     0.135 A 
ATOM    103  F   UNL     1      -0.757   9.039  -1.537  1.00  0.00    -0.206 F 
ATOM    104  C   UNL     1      -1.016  11.367  -1.640  1.00  0.00     0.059 A 
ATOM    105  C   UNL     1      -3.225  12.333  -1.876  1.00  0.00     0.059 A 
ATOM    106  F   UNL     1      -5.107  10.946  -1.907  1.00  0.00    -0.206 F 
ATOM    107  C   UNL     1      -1.845  12.481  -1.783  1.00  0.00     0.060 A 
BRANCH 107 108
ATOM    108  S   UNL     1      -1.112  14.127  -1.902  1.00  0.00     0.124 S 
ATOM    109  O   UNL     1      -0.605  14.337  -0.550  1.00  0.00    -0.237 OA
ATOM    110  O   UNL     1      -0.101  13.948  -2.940  1.00  0.00    -0.237 OA
ATOM    111  O   UNL     1      -2.239  14.976  -2.284  1.00  0.00    -0.744 OA
ENDBRANCH 107 108
ENDBRANCH  75 100
ENDBRANCH  49  50
ENDBRANCH  41  44
ENDBRANCH  39  40
ENDBRANCH  38  39
ENDBRANCH  37  38
ENDBRANCH   3  37
TORSDOF 21
