REMARK SMILES Cc1cc(N(C)[C@H](C)C(=O)NCCCNC(=O)c2ccc(-c3c4nc(c(-c5c(F)cc(S(=O)(=O)[O-])cc5F)c5ccc([nH]5)c(-c5c(F)cc(S(=O)(=O)[O-])cc5F)c5nc(c(-c6c(F)cc(S(=O)(=O)[O-])cc6F)c6ccc3[nH]6)C=C5)C=C4)cc2)ncc1[N+](=O)[O-]
REMARK SMILES IDX 13 1 12 2 11 3 9 4 10 5 7 7 8 8 5 9 6 10 4 11 1 12 2 13 3 14
REMARK SMILES IDX 86 15 85 16 84 17 87 18 88 19 89 20 14 21 15 22 16 23 17 25
REMARK SMILES IDX 18 26 19 27 83 28 20 29 82 30 21 31 22 32 23 33 76 34 24 35
REMARK SMILES IDX 81 36 75 37 77 38 25 39 80 40 74 41 73 42 26 44 60 45 39 46
REMARK SMILES IDX 59 47 40 48 43 49 58 50 78 51 41 52 42 53 57 55 79 56 44 57
REMARK SMILES IDX 27 58 28 59 37 60 29 61 30 62 36 63 38 64 31 65 32 66 33 67
REMARK SMILES IDX 34 68 35 69 61 70 62 71 71 72 63 73 64 74 70 75 72 76 65 77
REMARK SMILES IDX 66 78 67 79 68 80 69 81 45 82 46 83 55 84 47 85 48 86 54 87
REMARK SMILES IDX 56 88 49 89 50 90 51 91 52 92 53 93
REMARK H PARENT 11 6 15 24 77 43 43 54
REMARK Flexibility Score: inf
ROOT
ATOM      1  C   UNL     1       1.096  -0.908  -1.587  1.00  0.00     0.042 C 
ENDROOT
BRANCH   1   2
ATOM      2  C   UNL     1       2.234  -0.407  -0.721  1.00  0.00     0.117 C 
BRANCH   2   3
ATOM      3  N   UNL     1       3.121   0.500  -1.425  1.00  0.00    -0.354 N 
ATOM      4  C   UNL     1       3.771   1.622  -1.001  1.00  0.00     0.242 C 
ATOM      5  O   UNL     1       4.635   2.066  -1.768  1.00  0.00    -0.273 OA
ATOM      6  H   UNL     1       3.281   0.267  -2.368  1.00  0.00     0.163 HD
BRANCH   4   7
ATOM      7  C   UNL     1       3.470   2.324   0.343  1.00  0.00     0.169 C 
ATOM      8  C   UNL     1       2.010   2.768   0.455  1.00  0.00     0.042 C 
BRANCH   7   9
ATOM      9  N   UNL     1       3.948   1.608   1.560  1.00  0.00    -0.348 N 
ATOM     10  C   UNL     1       4.194   0.177   1.575  1.00  0.00     0.146 C 
BRANCH   9  11
ATOM     11  C   UNL     1       4.356   2.376   2.645  1.00  0.00     0.129 A 
ATOM     12  C   UNL     1       5.636   1.733   6.144  1.00  0.00     0.052 C 
ATOM     13  C   UNL     1       5.253   2.534   4.933  1.00  0.00     0.032 A 
ATOM     14  C   UNL     1       4.660   1.802   3.884  1.00  0.00     0.057 A 
ATOM     15  C   UNL     1       5.441   3.901   4.719  1.00  0.00     0.290 A 
ATOM     16  C   UNL     1       5.050   4.433   3.497  1.00  0.00     0.199 A 
ATOM     17  N   UNL     1       4.519   3.703   2.483  1.00  0.00    -0.232 NA
BRANCH  15  18
ATOM     18  N   UNL     1       6.021   4.823   5.690  1.00  0.00     0.064 N 
ATOM     19  O   UNL     1       6.490   5.887   5.258  1.00  0.00    -0.258 OA
ATOM     20  O   UNL     1       5.999   4.516   6.888  1.00  0.00    -0.258 OA
ENDBRANCH  15  18
ENDBRANCH   9  11
ENDBRANCH   7   9
ENDBRANCH   4   7
ENDBRANCH   2   3
ENDBRANCH   1   2
BRANCH   1  21
ATOM     21  C   UNL     1       1.566  -1.782  -2.743  1.00  0.00     0.118 C 
BRANCH  21  22
ATOM     22  N   UNL     1       2.246  -2.998  -2.304  1.00  0.00    -0.352 N 
ATOM     23  C   UNL     1       1.847  -4.316  -2.350  1.00  0.00     0.251 C 
ATOM     24  H   UNL     1       3.137  -2.852  -1.911  1.00  0.00     0.163 HD
ATOM     25  O   UNL     1       2.489  -5.165  -1.751  1.00  0.00    -0.269 OA
BRANCH  23  26
ATOM     26  C   UNL     1       0.627  -4.687  -3.100  1.00  0.00     0.039 A 
ATOM     27  C   UNL     1      -0.261  -5.615  -2.550  1.00  0.00     0.014 A 
ATOM     28  C   UNL     1       0.350  -4.104  -4.335  1.00  0.00     0.014 A 
ATOM     29  C   UNL     1      -1.472  -5.876  -3.197  1.00  0.00     0.010 A 
ATOM     30  C   UNL     1      -0.902  -4.268  -4.910  1.00  0.00     0.010 A 
ATOM     31  C   UNL     1      -1.827  -5.162  -4.353  1.00  0.00    -0.014 A 
BRANCH  31  32
ATOM     32  C   UNL     1      -3.147  -5.334  -5.012  1.00  0.00     0.031 A 
ATOM     33  C   UNL     1      -3.211  -5.772  -6.452  1.00  0.00     0.074 A 
ATOM     34  C   UNL     1      -4.276  -5.013  -4.348  1.00  0.00     0.049 A 
ATOM     35  N   UNL     1      -4.248  -5.860  -7.244  1.00  0.00    -0.248 NA
ATOM     36  C   UNL     1      -1.934  -6.119  -7.102  1.00  0.00     0.031 C 
ATOM     37  C   UNL     1      -4.340  -4.519  -2.969  1.00  0.00     0.029 A 
ATOM     38  N   UNL     1      -5.589  -5.041  -4.747  1.00  0.00    -0.354 N 
ATOM     39  C   UNL     1      -3.748  -6.249  -8.481  1.00  0.00     0.074 A 
ATOM     40  C   UNL     1      -2.310  -6.315  -8.356  1.00  0.00     0.031 C 
ATOM     41  C   UNL     1      -5.624  -4.319  -2.630  1.00  0.00     0.029 A 
ATOM     42  C   UNL     1      -6.472  -4.625  -3.777  1.00  0.00     0.049 A 
ATOM     43  H   UNL     1      -5.872  -5.331  -5.644  1.00  0.00     0.167 HD
ATOM     44  C   UNL     1      -4.427  -6.558  -9.611  1.00  0.00     0.037 A 
ATOM     45  C   UNL     1      -7.813  -4.497  -3.812  1.00  0.00     0.037 A 
ATOM     46  C   UNL     1      -5.862  -6.533  -9.714  1.00  0.00     0.049 A 
ATOM     47  C   UNL     1      -8.546  -4.856  -5.077  1.00  0.00     0.074 A 
ATOM     48  C   UNL     1      -6.652  -6.884 -10.794  1.00  0.00     0.029 A 
ATOM     49  N   UNL     1      -6.722  -6.145  -8.698  1.00  0.00    -0.354 N 
ATOM     50  N   UNL     1      -8.059  -5.278  -6.221  1.00  0.00    -0.248 NA
ATOM     51  C   UNL     1     -10.009  -4.728  -5.058  1.00  0.00     0.031 C 
ATOM     52  C   UNL     1      -7.988  -6.672 -10.444  1.00  0.00     0.029 A 
ATOM     53  C   UNL     1      -8.034  -6.236  -9.129  1.00  0.00     0.049 A 
ATOM     54  H   UNL     1      -6.441  -5.849  -7.802  1.00  0.00     0.167 HD
ATOM     55  C   UNL     1      -9.158  -5.496  -7.044  1.00  0.00     0.074 A 
ATOM     56  C   UNL     1     -10.334  -5.171  -6.264  1.00  0.00     0.031 C 
ATOM     57  C   UNL     1      -9.192  -5.925  -8.330  1.00  0.00     0.037 A 
BRANCH  44  58
ATOM     58  C   UNL     1      -3.630  -6.973 -10.817  1.00  0.00     0.058 A 
ATOM     59  C   UNL     1      -2.951  -8.201 -10.861  1.00  0.00     0.135 A 
ATOM     60  C   UNL     1      -3.581  -6.157 -11.959  1.00  0.00     0.135 A 
ATOM     61  F   UNL     1      -2.947  -9.011  -9.790  1.00  0.00    -0.206 F 
ATOM     62  C   UNL     1      -2.233  -8.597 -11.984  1.00  0.00     0.059 A 
ATOM     63  C   UNL     1      -2.894  -6.547 -13.106  1.00  0.00     0.059 A 
ATOM     64  F   UNL     1      -4.208  -4.971 -11.971  1.00  0.00    -0.206 F 
ATOM     65  C   UNL     1      -2.215  -7.764 -13.104  1.00  0.00     0.060 A 
BRANCH  65  66
ATOM     66  S   UNL     1      -1.300  -8.307 -14.562  1.00  0.00     0.124 S 
ATOM     67  O   UNL     1       0.081  -8.149 -14.115  1.00  0.00    -0.237 OA
ATOM     68  O   UNL     1      -1.760  -9.683 -14.723  1.00  0.00    -0.237 OA
ATOM     69  O   UNL     1      -1.734  -7.379 -15.601  1.00  0.00    -0.744 OA
ENDBRANCH  65  66
ENDBRANCH  44  58
BRANCH  45  70
ATOM     70  C   UNL     1      -8.555  -4.029  -2.610  1.00  0.00     0.058 A 
ATOM     71  C   UNL     1      -9.395  -4.899  -1.898  1.00  0.00     0.135 A 
ATOM     72  C   UNL     1      -8.451  -2.705  -2.155  1.00  0.00     0.135 A 
ATOM     73  F   UNL     1      -9.532  -6.173  -2.295  1.00  0.00    -0.206 F 
ATOM     74  C   UNL     1     -10.128  -4.468  -0.797  1.00  0.00     0.059 A 
ATOM     75  C   UNL     1      -9.152  -2.258  -1.039  1.00  0.00     0.059 A 
ATOM     76  F   UNL     1      -7.645  -1.838  -2.786  1.00  0.00    -0.206 F 
ATOM     77  C   UNL     1     -10.001  -3.143  -0.376  1.00  0.00     0.060 A 
BRANCH  77  78
ATOM     78  S   UNL     1     -10.938  -2.600   1.070  1.00  0.00     0.124 S 
ATOM     79  O   UNL     1     -12.289  -2.520   0.529  1.00  0.00    -0.237 OA
ATOM     80  O   UNL     1     -10.691  -3.680   2.019  1.00  0.00    -0.237 OA
ATOM     81  O   UNL     1     -10.316  -1.323   1.410  1.00  0.00    -0.744 OA
ENDBRANCH  77  78
ENDBRANCH  45  70
BRANCH  57  82
ATOM     82  C   UNL     1     -10.542  -6.114  -8.962  1.00  0.00     0.058 A 
ATOM     83  C   UNL     1     -11.340  -5.024  -9.340  1.00  0.00     0.135 A 
ATOM     84  C   UNL     1     -11.016  -7.406  -9.245  1.00  0.00     0.135 A 
ATOM     85  F   UNL     1     -10.934  -3.769  -9.086  1.00  0.00    -0.206 F 
ATOM     86  C   UNL     1     -12.572  -5.207  -9.957  1.00  0.00     0.059 A 
ATOM     87  C   UNL     1     -12.232  -7.612  -9.887  1.00  0.00     0.059 A 
ATOM     88  F   UNL     1     -10.285  -8.482  -8.914  1.00  0.00    -0.206 F 
ATOM     89  C   UNL     1     -13.008  -6.506 -10.229  1.00  0.00     0.060 A 
BRANCH  89  90
ATOM     90  S   UNL     1     -14.592  -6.728 -11.065  1.00  0.00     0.124 S 
ATOM     91  O   UNL     1     -15.535  -6.413  -9.997  1.00  0.00    -0.237 OA
ATOM     92  O   UNL     1     -14.513  -5.753 -12.149  1.00  0.00    -0.237 OA
ATOM     93  O   UNL     1     -14.562  -8.126 -11.485  1.00  0.00    -0.744 OA
ENDBRANCH  89  90
ENDBRANCH  57  82
ENDBRANCH  31  32
ENDBRANCH  23  26
ENDBRANCH  21  22
ENDBRANCH   1  21
TORSDOF 16
