REMARK SMILES COc1ccc(N2C(=O)/C(=C\c3ccc(-c4ccc(Cl)c(C(=O)NCCCNC(=O)c5ccc(-c6c7nc(c(-c8c(F)cc(S(=O)(=O)[O-])cc8F)c8ccc([nH]8)c(-c8c(F)cc(S(=O)(=O)[O-])cc8F)c8nc(c(-c9c(F)cc(S(=O)(=O)[O-])cc9F)c9ccc6[nH]9)C=C8)C=C7)cc5)c4)o3)SC2=S)cc1
REMARK SMILES IDX 25 1 24 2 22 3 23 4 21 6 16 7 17 8 97 9 18 10 19 11 20 12
REMARK SMILES IDX 15 13 12 14 13 15 98 16 14 17 11 18 7 19 8 20 100 21 9 22
REMARK SMILES IDX 10 23 99 24 101 25 6 26 3 27 4 28 103 29 5 30 102 31 2 32
REMARK SMILES IDX 1 33 26 34 27 35 28 36 29 37 30 39 31 40 32 41 96 42 33 43
REMARK SMILES IDX 95 44 34 45 35 46 36 47 89 48 37 49 94 50 88 51 90 52 38 53
REMARK SMILES IDX 93 54 87 55 86 56 39 58 73 59 52 60 72 61 53 62 56 63 71 64
REMARK SMILES IDX 91 65 54 66 55 67 70 69 92 70 57 71 40 72 41 73 50 74 42 75
REMARK SMILES IDX 43 76 49 77 51 78 44 79 45 80 46 81 47 82 48 83 74 84 75 85
REMARK SMILES IDX 84 86 76 87 77 88 83 89 85 90 78 91 79 92 80 93 81 94 82 95
REMARK SMILES IDX 58 96 59 97 68 98 60 99 61 100 67 101 69 102 62 103 63 104
REMARK SMILES IDX 64 105 65 106 66 107
REMARK H PARENT 24 5 28 38 90 57 56 68
REMARK Flexibility Score: inf
ROOT
ATOM      1  C   UNL     1      -3.102  11.318  -3.729  1.00  0.00     0.118 C 
ENDROOT
BRANCH   1   2
ATOM      2  N   UNL     1      -4.563  11.233  -3.666  1.00  0.00    -0.352 N 
ATOM      3  C   UNL     1      -5.489  10.226  -3.881  1.00  0.00     0.252 C 
ATOM      4  O   UNL     1      -6.662  10.493  -3.628  1.00  0.00    -0.269 OA
ATOM      5  H   UNL     1      -4.982  12.086  -3.412  1.00  0.00     0.163 HD
BRANCH   3   6
ATOM      6  C   UNL     1      -5.117   8.882  -4.417  1.00  0.00     0.059 A 
ATOM      7  C   UNL     1      -3.268   7.367  -4.899  1.00  0.00     0.018 A 
ATOM      8  C   UNL     1      -4.080   6.633  -5.757  1.00  0.00     0.013 A 
ATOM      9  C   UNL     1      -3.858   8.369  -4.121  1.00  0.00     0.027 A 
ATOM     10  C   UNL     1      -5.434   6.967  -5.877  1.00  0.00     0.022 A 
ATOM     11  C   UNL     1      -5.944   8.119  -5.253  1.00  0.00     0.053 A 
ATOM     12  Cl  UNL     1      -7.593   8.506  -5.597  1.00  0.00    -0.083 Cl
BRANCH   7  13
ATOM     13  C   UNL     1      -1.814   7.270  -4.869  1.00  0.00     0.134 A 
ATOM     14  C   UNL     1       0.166   6.969  -5.824  1.00  0.00     0.128 A 
ATOM     15  C   UNL     1       0.381   7.560  -4.586  1.00  0.00     0.051 A 
ATOM     16  O   UNL     1      -1.193   6.834  -6.005  1.00  0.00    -0.457 OA
ATOM     17  C   UNL     1      -0.871   7.698  -3.959  1.00  0.00     0.051 A 
BRANCH  14  18
ATOM     18  C   UNL     1       1.154   6.461  -6.708  1.00  0.00     0.068 C 
ATOM     19  N   UNL     1       2.122   3.208  -5.359  1.00  0.00    -0.261 N 
ATOM     20  C   UNL     1       1.295   4.323  -5.387  1.00  0.00     0.270 C 
ATOM     21  C   UNL     1       3.163   3.192  -6.271  1.00  0.00     0.152 C 
ATOM     22  O   UNL     1       0.368   4.537  -4.611  1.00  0.00    -0.268 OA
ATOM     23  C   UNL     1       1.713   5.267  -6.460  1.00  0.00     0.084 C 
ATOM     24  S   UNL     1       3.069   4.630  -7.301  1.00  0.00    -0.054 SA
ATOM     25  S   UNL     1       4.322   2.018  -6.548  1.00  0.00    -0.051 S 
BRANCH  19  26
ATOM     26  C   UNL     1       1.829   2.199  -4.393  1.00  0.00     0.051 A 
ATOM     27  C   UNL     1       1.100   0.438  -2.329  1.00  0.00     0.119 A 
ATOM     28  C   UNL     1       0.138   0.886  -3.225  1.00  0.00     0.048 A 
ATOM     29  C   UNL     1       2.431   0.828  -2.483  1.00  0.00     0.048 A 
ATOM     30  C   UNL     1       0.498   1.769  -4.240  1.00  0.00     0.030 A 
ATOM     31  C   UNL     1       2.797   1.706  -3.514  1.00  0.00     0.030 A 
BRANCH  27  32
ATOM     32  O   UNL     1       0.667  -0.423  -1.359  1.00  0.00    -0.497 OA
ATOM     33  C   UNL     1       1.100  -0.057  -0.052  1.00  0.00     0.278 C 
ENDBRANCH  27  32
ENDBRANCH  19  26
ENDBRANCH  14  18
ENDBRANCH   7  13
ENDBRANCH   3   6
ENDBRANCH   1   2
BRANCH   1  34
ATOM     34  C   UNL     1      -2.559  12.393  -4.654  1.00  0.00     0.042 C 
BRANCH  34  35
ATOM     35  C   UNL     1      -2.819  13.818  -4.201  1.00  0.00     0.118 C 
BRANCH  35  36
ATOM     36  N   UNL     1      -2.193  14.133  -2.922  1.00  0.00    -0.352 N 
ATOM     37  C   UNL     1      -1.117  14.931  -2.611  1.00  0.00     0.251 C 
ATOM     38  H   UNL     1      -2.614  13.698  -2.145  1.00  0.00     0.163 HD
ATOM     39  O   UNL     1      -0.646  14.879  -1.478  1.00  0.00    -0.269 OA
BRANCH  37  40
ATOM     40  C   UNL     1      -0.511  15.829  -3.622  1.00  0.00     0.039 A 
ATOM     41  C   UNL     1       0.874  16.020  -3.619  1.00  0.00     0.014 A 
ATOM     42  C   UNL     1      -1.297  16.511  -4.551  1.00  0.00     0.014 A 
ATOM     43  C   UNL     1       1.468  16.828  -4.594  1.00  0.00     0.010 A 
ATOM     44  C   UNL     1      -0.698  17.222  -5.586  1.00  0.00     0.010 A 
ATOM     45  C   UNL     1       0.692  17.398  -5.616  1.00  0.00    -0.014 A 
BRANCH  45  46
ATOM     46  C   UNL     1       1.307  18.193  -6.711  1.00  0.00     0.031 A 
ATOM     47  C   UNL     1       0.912  19.634  -6.912  1.00  0.00     0.074 A 
ATOM     48  C   UNL     1       2.175  17.603  -7.559  1.00  0.00     0.049 A 
ATOM     49  N   UNL     1       1.267  20.463  -7.860  1.00  0.00    -0.248 NA
ATOM     50  C   UNL     1      -0.029  20.212  -5.937  1.00  0.00     0.031 C 
ATOM     51  C   UNL     1       2.595  16.200  -7.502  1.00  0.00     0.029 A 
ATOM     52  N   UNL     1       2.852  18.103  -8.643  1.00  0.00    -0.354 N 
ATOM     53  C   UNL     1       0.598  21.653  -7.595  1.00  0.00     0.074 A 
ATOM     54  C   UNL     1      -0.243  21.418  -6.443  1.00  0.00     0.031 C 
ATOM     55  C   UNL     1       3.472  15.960  -8.489  1.00  0.00     0.029 A 
ATOM     56  C   UNL     1       3.645  17.174  -9.278  1.00  0.00     0.049 A 
ATOM     57  H   UNL     1       2.778  19.039  -8.939  1.00  0.00     0.167 HD
ATOM     58  C   UNL     1       0.703  22.845  -8.229  1.00  0.00     0.037 A 
ATOM     59  C   UNL     1       4.413  17.286 -10.380  1.00  0.00     0.037 A 
ATOM     60  C   UNL     1       1.557  23.079  -9.364  1.00  0.00     0.049 A 
ATOM     61  C   UNL     1       4.493  18.618 -11.079  1.00  0.00     0.074 A 
ATOM     62  C   UNL     1       1.753  24.257 -10.064  1.00  0.00     0.029 A 
ATOM     63  N   UNL     1       2.365  22.121  -9.958  1.00  0.00    -0.354 N 
ATOM     64  N   UNL     1       3.890  19.744 -10.780  1.00  0.00    -0.248 NA
ATOM     65  C   UNL     1       5.365  18.698 -12.259  1.00  0.00     0.031 C 
ATOM     66  C   UNL     1       2.650  24.002 -11.106  1.00  0.00     0.029 A 
ATOM     67  C   UNL     1       3.054  22.679 -11.022  1.00  0.00     0.049 A 
ATOM     68  H   UNL     1       2.437  21.184  -9.667  1.00  0.00     0.167 HD
ATOM     69  C   UNL     1       4.337  20.673 -11.715  1.00  0.00     0.074 A 
ATOM     70  C   UNL     1       5.274  19.982 -12.575  1.00  0.00     0.031 C 
ATOM     71  C   UNL     1       4.000  21.979 -11.853  1.00  0.00     0.037 A 
BRANCH  58  72
ATOM     72  C   UNL     1      -0.097  24.000  -7.691  1.00  0.00     0.058 A 
ATOM     73  C   UNL     1       0.225  24.599  -6.462  1.00  0.00     0.135 A 
ATOM     74  C   UNL     1      -1.149  24.559  -8.435  1.00  0.00     0.135 A 
ATOM     75  F   UNL     1       1.208  24.093  -5.700  1.00  0.00    -0.206 F 
ATOM     76  C   UNL     1      -0.473  25.703  -5.984  1.00  0.00     0.059 A 
ATOM     77  C   UNL     1      -1.842  25.682  -7.990  1.00  0.00     0.059 A 
ATOM     78  F   UNL     1      -1.502  24.024  -9.614  1.00  0.00    -0.206 F 
ATOM     79  C   UNL     1      -1.500  26.243  -6.760  1.00  0.00     0.060 A 
BRANCH  79  80
ATOM     80  S   UNL     1      -2.364  27.702  -6.141  1.00  0.00     0.124 S 
ATOM     81  O   UNL     1      -3.115  27.143  -5.020  1.00  0.00    -0.237 OA
ATOM     82  O   UNL     1      -1.260  28.587  -5.784  1.00  0.00    -0.237 OA
ATOM     83  O   UNL     1      -3.167  28.132  -7.281  1.00  0.00    -0.744 OA
ENDBRANCH  79  80
ENDBRANCH  58  72
BRANCH  59  84
ATOM     84  C   UNL     1       5.168  16.111 -10.898  1.00  0.00     0.058 A 
ATOM     85  C   UNL     1       6.571  16.087 -10.891  1.00  0.00     0.135 A 
ATOM     86  C   UNL     1       4.502  15.004 -11.449  1.00  0.00     0.135 A 
ATOM     87  F   UNL     1       7.256  17.120 -10.376  1.00  0.00    -0.206 F 
ATOM     88  C   UNL     1       7.287  15.034 -11.451  1.00  0.00     0.059 A 
ATOM     89  C   UNL     1       5.195  13.924 -11.984  1.00  0.00     0.059 A 
ATOM     90  F   UNL     1       3.160  14.963 -11.461  1.00  0.00    -0.206 F 
ATOM     91  C   UNL     1       6.588  13.958 -12.001  1.00  0.00     0.060 A 
BRANCH  91  92
ATOM     92  S   UNL     1       7.524  12.597 -12.730  1.00  0.00     0.124 S 
ATOM     93  O   UNL     1       8.004  13.201 -13.967  1.00  0.00    -0.237 OA
ATOM     94  O   UNL     1       8.535  12.338 -11.710  1.00  0.00    -0.237 OA
ATOM     95  O   UNL     1       6.520  11.548 -12.887  1.00  0.00    -0.744 OA
ENDBRANCH  91  92
ENDBRANCH  59  84
BRANCH  71  96
ATOM     96  C   UNL     1       4.686  22.759 -12.941  1.00  0.00     0.058 A 
ATOM     97  C   UNL     1       4.402  22.546 -14.298  1.00  0.00     0.135 A 
ATOM     98  C   UNL     1       5.610  23.766 -12.615  1.00  0.00     0.135 A 
ATOM     99  F   UNL     1       3.530  21.592 -14.664  1.00  0.00    -0.206 F 
ATOM    100  C   UNL     1       5.033  23.280 -15.297  1.00  0.00     0.059 A 
ATOM    101  C   UNL     1       6.229  24.535 -13.595  1.00  0.00     0.059 A 
ATOM    102  F   UNL     1       5.910  24.020 -11.331  1.00  0.00    -0.206 F 
ATOM    103  C   UNL     1       5.944  24.274 -14.934  1.00  0.00     0.060 A 
BRANCH 103 104
ATOM    104  S   UNL     1       6.735  25.237 -16.240  1.00  0.00     0.124 S 
ATOM    105  O   UNL     1       7.666  24.264 -16.800  1.00  0.00    -0.237 OA
ATOM    106  O   UNL     1       5.605  25.597 -17.090  1.00  0.00    -0.237 OA
ATOM    107  O   UNL     1       7.348  26.349 -15.519  1.00  0.00    -0.744 OA
ENDBRANCH 103 104
ENDBRANCH  71  96
ENDBRANCH  45  46
ENDBRANCH  37  40
ENDBRANCH  35  36
ENDBRANCH  34  35
ENDBRANCH   1  34
TORSDOF 17
