REMARK SMILES O=C(CCS[C@H]1CC(=O)c2ccccc2C1=O)NCCCNC(=O)c1ccc(-c2c3nc(c(-c4c(F)cc(S(=O)(=O)[O-])cc4F)c4ccc([nH]4)c(-c4c(F)cc(S(=O)(=O)[O-])cc4F)c4nc(c(-c5c(F)cc(S(=O)(=O)[O-])cc5F)c5ccc2[nH]5)C=C4)C=C3)cc1
REMARK SMILES IDX 20 1 19 2 18 3 1 4 2 5 3 7 4 8 5 9 6 10 7 11 16 12 8 13
REMARK SMILES IDX 15 14 17 15 9 16 10 17 14 18 11 19 13 20 12 21 21 22 22 23
REMARK SMILES IDX 23 24 24 26 25 27 26 28 90 29 27 30 89 31 28 32 29 33 30 34
REMARK SMILES IDX 83 35 31 36 88 37 82 38 84 39 32 40 87 41 81 42 80 43 33 45
REMARK SMILES IDX 67 46 46 47 66 48 47 49 50 50 65 51 85 52 48 53 49 54 64 56
REMARK SMILES IDX 86 57 51 58 34 59 35 60 44 61 36 62 37 63 43 64 45 65 38 66
REMARK SMILES IDX 39 67 40 68 41 69 42 70 68 71 69 72 78 73 70 74 71 75 77 76
REMARK SMILES IDX 79 77 72 78 73 79 74 80 75 81 76 82 52 83 53 84 62 85 54 86
REMARK SMILES IDX 55 87 61 88 63 89 56 90 57 91 58 92 59 93 60 94
REMARK H PARENT 18 6 22 25 84 44 50 55
REMARK Flexibility Score: inf
ROOT
ATOM      1  C   UNL     1       8.150  -4.842  -1.480  1.00  0.00     0.042 C 
ENDROOT
BRANCH   1   2
ATOM      2  C   UNL     1       7.290  -3.993  -2.408  1.00  0.00     0.117 C 
BRANCH   2   3
ATOM      3  N   UNL     1       6.698  -2.862  -1.724  1.00  0.00    -0.356 N 
ATOM      4  O   UNL     1       7.670  -1.206  -2.988  1.00  0.00    -0.275 OA
ATOM      5  C   UNL     1       6.933  -1.555  -2.072  1.00  0.00     0.220 C 
ATOM      6  H   UNL     1       6.093  -3.041  -0.967  1.00  0.00     0.163 HD
BRANCH   5   7
ATOM      7  C   UNL     1       6.183  -0.550  -1.222  1.00  0.00     0.111 C 
BRANCH   7   8
ATOM      8  C   UNL     1       4.722  -0.421  -1.631  1.00  0.00     0.080 C 
BRANCH   8   9
ATOM      9  S   UNL     1       3.664  -1.840  -1.169  1.00  0.00    -0.149 SA
BRANCH   9  10
ATOM     10  C   UNL     1       3.542  -1.613   0.657  1.00  0.00     0.126 C 
ATOM     11  C   UNL     1       2.096  -1.451   1.091  1.00  0.00     0.104 C 
ATOM     12  C   UNL     1       4.157  -2.829   1.321  1.00  0.00     0.176 C 
ATOM     13  C   UNL     1       1.286  -2.704   0.857  1.00  0.00     0.165 C 
ATOM     14  C   UNL     1       3.305  -4.037   1.453  1.00  0.00     0.030 A 
ATOM     15  O   UNL     1       5.347  -2.868   1.624  1.00  0.00    -0.293 OA
ATOM     16  O   UNL     1       0.095  -2.659   0.564  1.00  0.00    -0.294 OA
ATOM     17  C   UNL     1       1.955  -4.001   1.109  1.00  0.00     0.028 A 
ATOM     18  C   UNL     1       3.891  -5.247   1.829  1.00  0.00     0.012 A 
ATOM     19  C   UNL     1       1.221  -5.191   1.037  1.00  0.00     0.012 A 
ATOM     20  C   UNL     1       3.159  -6.432   1.770  1.00  0.00     0.001 A 
ATOM     21  C   UNL     1       1.832  -6.407   1.348  1.00  0.00     0.001 A 
ENDBRANCH   9  10
ENDBRANCH   8   9
ENDBRANCH   7   8
ENDBRANCH   5   7
ENDBRANCH   2   3
ENDBRANCH   1   2
BRANCH   1  22
ATOM     22  C   UNL     1       7.405  -5.468  -0.305  1.00  0.00     0.118 C 
BRANCH  22  23
ATOM     23  N   UNL     1       6.396  -6.446  -0.690  1.00  0.00    -0.352 N 
ATOM     24  C   UNL     1       6.071  -7.654  -0.113  1.00  0.00     0.251 C 
ATOM     25  H   UNL     1       5.864  -6.207  -1.483  1.00  0.00     0.163 HD
ATOM     26  O   UNL     1       5.218  -8.363  -0.643  1.00  0.00    -0.269 OA
BRANCH  24  27
ATOM     27  C   UNL     1       6.746  -8.123   1.123  1.00  0.00     0.039 A 
ATOM     28  C   UNL     1       7.069  -7.249   2.162  1.00  0.00     0.014 A 
ATOM     29  C   UNL     1       7.061  -9.483   1.245  1.00  0.00     0.014 A 
ATOM     30  C   UNL     1       7.826  -7.686   3.240  1.00  0.00     0.010 A 
ATOM     31  C   UNL     1       7.789  -9.936   2.350  1.00  0.00     0.010 A 
ATOM     32  C   UNL     1       8.223  -9.025   3.323  1.00  0.00    -0.014 A 
BRANCH  32  33
ATOM     33  C   UNL     1       9.211  -9.395   4.362  1.00  0.00     0.031 A 
ATOM     34  C   UNL     1      10.643  -9.615   3.958  1.00  0.00     0.074 A 
ATOM     35  C   UNL     1       8.854  -9.382   5.660  1.00  0.00     0.049 A 
ATOM     36  N   UNL     1      11.681  -9.880   4.706  1.00  0.00    -0.248 NA
ATOM     37  C   UNL     1      10.951  -9.508   2.521  1.00  0.00     0.031 C 
ATOM     38  C   UNL     1       7.507  -9.098   6.159  1.00  0.00     0.029 A 
ATOM     39  N   UNL     1       9.598  -9.572   6.794  1.00  0.00    -0.354 N 
ATOM     40  C   UNL     1      12.760  -9.975   3.836  1.00  0.00     0.074 A 
ATOM     41  C   UNL     1      12.249  -9.769   2.499  1.00  0.00     0.031 C 
ATOM     42  C   UNL     1       7.531  -9.093   7.502  1.00  0.00     0.029 A 
ATOM     43  C   UNL     1       8.880  -9.420   7.956  1.00  0.00     0.049 A 
ATOM     44  H   UNL     1      10.557  -9.796   6.779  1.00  0.00     0.167 HD
ATOM     45  C   UNL     1      14.062 -10.202   4.128  1.00  0.00     0.037 A 
ATOM     46  C   UNL     1       9.267  -9.542   9.241  1.00  0.00     0.037 A 
ATOM     47  C   UNL     1      14.558 -10.396   5.464  1.00  0.00     0.049 A 
ATOM     48  C   UNL     1      10.703  -9.880   9.534  1.00  0.00     0.074 A 
ATOM     49  C   UNL     1      15.851 -10.668   5.871  1.00  0.00     0.029 A 
ATOM     50  N   UNL     1      13.780 -10.331   6.611  1.00  0.00    -0.354 N 
ATOM     51  N   UNL     1      11.704 -10.016   8.697  1.00  0.00    -0.248 NA
ATOM     52  C   UNL     1      11.061 -10.097  10.942  1.00  0.00     0.031 C 
ATOM     53  C   UNL     1      15.849 -10.806   7.263  1.00  0.00     0.029 A 
ATOM     54  C   UNL     1      14.562 -10.576   7.726  1.00  0.00     0.049 A 
ATOM     55  H   UNL     1      12.815 -10.139   6.629  1.00  0.00     0.167 HD
ATOM     56  C   UNL     1      12.812 -10.327   9.476  1.00  0.00     0.074 A 
ATOM     57  C   UNL     1      12.363 -10.339  10.853  1.00  0.00     0.031 C 
ATOM     58  C   UNL     1      14.086 -10.586   9.087  1.00  0.00     0.037 A 
BRANCH  45  59
ATOM     59  C   UNL     1      15.028 -10.280   2.981  1.00  0.00     0.058 A 
ATOM     60  C   UNL     1      15.439  -9.133   2.282  1.00  0.00     0.135 A 
ATOM     61  C   UNL     1      15.566 -11.515   2.587  1.00  0.00     0.135 A 
ATOM     62  F   UNL     1      14.935  -7.931   2.601  1.00  0.00    -0.206 F 
ATOM     63  C   UNL     1      16.336  -9.212   1.221  1.00  0.00     0.059 A 
ATOM     64  C   UNL     1      16.482 -11.614   1.543  1.00  0.00     0.059 A 
ATOM     65  F   UNL     1      15.200 -12.643   3.216  1.00  0.00    -0.206 F 
ATOM     66  C   UNL     1      16.852 -10.457   0.859  1.00  0.00     0.060 A 
BRANCH  66  67
ATOM     67  S   UNL     1      18.015 -10.541  -0.519  1.00  0.00     0.124 S 
ATOM     68  O   UNL     1      17.140 -10.273  -1.656  1.00  0.00    -0.237 OA
ATOM     69  O   UNL     1      18.965  -9.484  -0.188  1.00  0.00    -0.237 OA
ATOM     70  O   UNL     1      18.541 -11.900  -0.440  1.00  0.00    -0.744 OA
ENDBRANCH  66  67
ENDBRANCH  45  59
BRANCH  46  71
ATOM     71  C   UNL     1       8.277  -9.359  10.335  1.00  0.00     0.058 A 
ATOM     72  C   UNL     1       8.344  -8.258  11.200  1.00  0.00     0.135 A 
ATOM     73  C   UNL     1       7.227 -10.273  10.522  1.00  0.00     0.135 A 
ATOM     74  F   UNL     1       9.334  -7.362  11.070  1.00  0.00    -0.206 F 
ATOM     75  C   UNL     1       7.406  -8.066  12.211  1.00  0.00     0.059 A 
ATOM     76  C   UNL     1       6.264 -10.091  11.509  1.00  0.00     0.059 A 
ATOM     77  F   UNL     1       7.112 -11.340   9.717  1.00  0.00    -0.206 F 
ATOM     78  C   UNL     1       6.365  -8.986  12.353  1.00  0.00     0.060 A 
BRANCH  78  79
ATOM     79  S   UNL     1       5.116  -8.694  13.625  1.00  0.00     0.124 S 
ATOM     80  O   UNL     1       5.860  -8.993  14.842  1.00  0.00    -0.237 OA
ATOM     81  O   UNL     1       4.784  -7.289  13.408  1.00  0.00    -0.237 OA
ATOM     82  O   UNL     1       4.059  -9.640  13.281  1.00  0.00    -0.744 OA
ENDBRANCH  78  79
ENDBRANCH  46  71
BRANCH  58  83
ATOM     83  C   UNL     1      15.084 -10.903  10.164  1.00  0.00     0.058 A 
ATOM     84  C   UNL     1      15.095 -12.152  10.803  1.00  0.00     0.135 A 
ATOM     85  C   UNL     1      16.084  -9.978  10.504  1.00  0.00     0.135 A 
ATOM     86  F   UNL     1      14.156 -13.067  10.515  1.00  0.00    -0.206 F 
ATOM     87  C   UNL     1      16.058 -12.470  11.754  1.00  0.00     0.059 A 
ATOM     88  C   UNL     1      17.070 -10.283  11.435  1.00  0.00     0.059 A 
ATOM     89  F   UNL     1      16.121  -8.774   9.912  1.00  0.00    -0.206 F 
ATOM     90  C   UNL     1      17.045 -11.530  12.060  1.00  0.00     0.060 A 
BRANCH  90  91
ATOM     91  S   UNL     1      18.316 -11.975  13.262  1.00  0.00     0.124 S 
ATOM     92  O   UNL     1      17.567 -11.926  14.513  1.00  0.00    -0.237 OA
ATOM     93  O   UNL     1      18.715 -13.306  12.814  1.00  0.00    -0.237 OA
ATOM     94  O   UNL     1      19.324 -10.934  13.091  1.00  0.00    -0.744 OA
ENDBRANCH  90  91
ENDBRANCH  58  83
ENDBRANCH  32  33
ENDBRANCH  24  27
ENDBRANCH  22  23
ENDBRANCH   1  22
TORSDOF 16
