REMARK SMILES C#Cc1cccc(NS(=O)(=O)c2ccc(F)c(C(=O)NCCCNC(=O)c3ccc(-c4c5nc(c(-c6c(F)cc(S(=O)(=O)[O-])cc6F)c6ccc([nH]6)c(-c6c(F)cc(S(=O)(=O)[O-])cc6F)c6nc(c(-c7c(F)cc(S(=O)(=O)[O-])cc7F)c7ccc4[nH]7)C=C6)C=C5)cc3)c2)c1
REMARK SMILES IDX 21 1 20 2 18 3 19 4 17 6 12 7 13 8 93 9 14 10 15 11 16 12
REMARK SMILES IDX 9 13 10 14 11 15 8 16 7 18 3 19 4 20 94 21 5 22 6 23 2 24
REMARK SMILES IDX 1 25 22 26 23 27 24 28 25 29 26 31 27 32 28 33 92 34 29 35
REMARK SMILES IDX 91 36 30 37 31 38 32 39 85 40 33 41 90 42 84 43 86 44 34 45
REMARK SMILES IDX 89 46 83 47 82 48 35 50 69 51 48 52 68 53 49 54 52 55 67 56
REMARK SMILES IDX 87 57 50 58 51 59 66 61 88 62 53 63 36 64 37 65 46 66 38 67
REMARK SMILES IDX 39 68 45 69 47 70 40 71 41 72 42 73 43 74 44 75 70 76 71 77
REMARK SMILES IDX 80 78 72 79 73 80 79 81 81 82 74 83 75 84 76 85 77 86 78 87
REMARK SMILES IDX 54 88 55 89 64 90 56 91 57 92 63 93 65 94 58 95 59 96 60 97
REMARK SMILES IDX 61 98 62 99
REMARK H PARENT 20 5 8 17 24 30 86 49 52 60
REMARK Flexibility Score: inf
ROOT
ATOM      1  C   UNL     1       7.942   3.578   0.057  1.00  0.00     0.118 C 
ENDROOT
BRANCH   1   2
ATOM      2  N   UNL     1       8.364   2.261   0.496  1.00  0.00    -0.352 N 
ATOM      3  C   UNL     1       7.691   1.085   0.695  1.00  0.00     0.254 C 
ATOM      4  O   UNL     1       8.344   0.148   1.160  1.00  0.00    -0.269 OA
ATOM      5  H   UNL     1       9.327   2.201   0.690  1.00  0.00     0.163 HD
BRANCH   3   6
ATOM      6  C   UNL     1       6.290   0.835   0.264  1.00  0.00     0.076 A 
ATOM      7  C   UNL     1       4.649  -0.829  -0.432  1.00  0.00     0.088 A 
ATOM      8  C   UNL     1       3.889   0.158  -1.050  1.00  0.00     0.025 A 
ATOM      9  C   UNL     1       5.891  -0.504   0.137  1.00  0.00     0.039 A 
ATOM     10  C   UNL     1       4.198   1.486  -0.775  1.00  0.00     0.041 A 
ATOM     11  C   UNL     1       5.338   1.802  -0.037  1.00  0.00     0.136 A 
ATOM     12  F   UNL     1       5.405   3.043   0.458  1.00  0.00    -0.206 F 
BRANCH   7  13
ATOM     13  S   UNL     1       3.965  -2.426  -0.034  1.00  0.00     0.261 S 
ATOM     14  O   UNL     1       4.412  -2.755   1.303  1.00  0.00    -0.201 OA
ATOM     15  O   UNL     1       4.270  -3.288  -1.157  1.00  0.00    -0.201 OA
BRANCH  13  16
ATOM     16  N   UNL     1       2.288  -2.346   0.012  1.00  0.00    -0.280 N 
ATOM     17  H   UNL     1       1.815  -3.165  -0.260  1.00  0.00     0.180 HD
BRANCH  16  18
ATOM     18  C   UNL     1       1.456  -1.249   0.392  1.00  0.00     0.050 A 
ATOM     19  C   UNL     1      -0.703  -0.180   0.078  1.00  0.00     0.026 A 
ATOM     20  C   UNL     1      -0.175   1.020   0.545  1.00  0.00     0.017 A 
ATOM     21  C   UNL     1       0.120  -1.306  -0.026  1.00  0.00     0.044 A 
ATOM     22  C   UNL     1       1.109   1.040   1.082  1.00  0.00     0.003 A 
ATOM     23  C   UNL     1       1.889  -0.123   1.089  1.00  0.00     0.027 A 
BRANCH  19  24
ATOM     24  C   UNL     1      -2.096  -0.252  -0.224  1.00  0.00    -0.070 C 
ATOM     25  C   UNL     1      -3.294  -0.270  -0.347  1.00  0.00     0.010 C 
ENDBRANCH  19  24
ENDBRANCH  16  18
ENDBRANCH  13  16
ENDBRANCH   7  13
ENDBRANCH   3   6
ENDBRANCH   1   2
BRANCH   1  26
ATOM     26  C   UNL     1       7.668   4.473   1.266  1.00  0.00     0.042 C 
BRANCH  26  27
ATOM     27  C   UNL     1       8.943   5.134   1.777  1.00  0.00     0.118 C 
BRANCH  27  28
ATOM     28  N   UNL     1       9.475   6.077   0.797  1.00  0.00    -0.352 N 
ATOM     29  C   UNL     1       9.723   7.418   0.911  1.00  0.00     0.251 C 
ATOM     30  H   UNL     1       9.688   5.688  -0.082  1.00  0.00     0.163 HD
ATOM     31  O   UNL     1       9.904   8.087  -0.102  1.00  0.00    -0.269 OA
BRANCH  29  32
ATOM     32  C   UNL     1       9.769   8.049   2.244  1.00  0.00     0.039 A 
ATOM     33  C   UNL     1       9.232   9.327   2.407  1.00  0.00     0.014 A 
ATOM     34  C   UNL     1      10.364   7.389   3.323  1.00  0.00     0.014 A 
ATOM     35  C   UNL     1       9.249   9.922   3.667  1.00  0.00     0.010 A 
ATOM     36  C   UNL     1      10.294   7.943   4.595  1.00  0.00     0.010 A 
ATOM     37  C   UNL     1       9.747   9.220   4.778  1.00  0.00    -0.014 A 
BRANCH  37  38
ATOM     38  C   UNL     1       9.704   9.806   6.139  1.00  0.00     0.031 A 
ATOM     39  C   UNL     1      10.981  10.059   6.892  1.00  0.00     0.074 A 
ATOM     40  C   UNL     1       8.511  10.062   6.710  1.00  0.00     0.049 A 
ATOM     41  N   UNL     1      11.143  10.515   8.107  1.00  0.00    -0.248 NA
ATOM     42  C   UNL     1      12.242   9.737   6.202  1.00  0.00     0.031 C 
ATOM     43  C   UNL     1       7.208   9.818   6.086  1.00  0.00     0.029 A 
ATOM     44  N   UNL     1       8.195  10.581   7.940  1.00  0.00    -0.354 N 
ATOM     45  C   UNL     1      12.515  10.531   8.325  1.00  0.00     0.074 A 
ATOM     46  C   UNL     1      13.140   9.977   7.146  1.00  0.00     0.031 C 
ATOM     47  C   UNL     1       6.237  10.225   6.919  1.00  0.00     0.029 A 
ATOM     48  C   UNL     1       6.843  10.706   8.156  1.00  0.00     0.049 A 
ATOM     49  H   UNL     1       8.873  10.840   8.605  1.00  0.00     0.167 HD
ATOM     50  C   UNL     1      13.191  10.996   9.401  1.00  0.00     0.037 A 
ATOM     51  C   UNL     1       6.165  11.148   9.234  1.00  0.00     0.037 A 
ATOM     52  C   UNL     1      12.555  11.559  10.563  1.00  0.00     0.049 A 
ATOM     53  C   UNL     1       6.940  11.622  10.433  1.00  0.00     0.074 A 
ATOM     54  C   UNL     1      13.151  12.097  11.690  1.00  0.00     0.029 A 
ATOM     55  N   UNL     1      11.183  11.655  10.751  1.00  0.00    -0.354 N 
ATOM     56  N   UNL     1       8.239  11.683  10.602  1.00  0.00    -0.248 NA
ATOM     57  C   UNL     1       6.161  12.089  11.588  1.00  0.00     0.031 C 
ATOM     58  C   UNL     1      12.142  12.456  12.586  1.00  0.00     0.029 A 
ATOM     59  C   UNL     1      10.915  12.213  11.990  1.00  0.00     0.049 A 
ATOM     60  H   UNL     1      10.502  11.369  10.101  1.00  0.00     0.167 HD
ATOM     61  C   UNL     1       8.435  12.220  11.870  1.00  0.00     0.074 A 
ATOM     62  C   UNL     1       7.119  12.480  12.418  1.00  0.00     0.031 C 
ATOM     63  C   UNL     1       9.598  12.473  12.520  1.00  0.00     0.037 A 
BRANCH  50  64
ATOM     64  C   UNL     1      14.695  10.931   9.376  1.00  0.00     0.058 A 
ATOM     65  C   UNL     1      15.391  10.112  10.280  1.00  0.00     0.135 A 
ATOM     66  C   UNL     1      15.453  11.737   8.511  1.00  0.00     0.135 A 
ATOM     67  F   UNL     1      14.720   9.315  11.126  1.00  0.00    -0.206 F 
ATOM     68  C   UNL     1      16.780  10.111  10.342  1.00  0.00     0.059 A 
ATOM     69  C   UNL     1      16.845  11.728   8.533  1.00  0.00     0.059 A 
ATOM     70  F   UNL     1      14.842  12.525   7.611  1.00  0.00    -0.206 F 
ATOM     71  C   UNL     1      17.499  10.924   9.464  1.00  0.00     0.060 A 
BRANCH  71  72
ATOM     72  S   UNL     1      19.302  10.896   9.549  1.00  0.00     0.124 S 
ATOM     73  O   UNL     1      19.552  11.485  10.859  1.00  0.00    -0.237 OA
ATOM     74  O   UNL     1      19.589   9.470   9.424  1.00  0.00    -0.237 OA
ATOM     75  O   UNL     1      19.707  11.711   8.406  1.00  0.00    -0.744 OA
ENDBRANCH  71  72
ENDBRANCH  50  64
BRANCH  51  76
ATOM     76  C   UNL     1       4.678  11.187   9.205  1.00  0.00     0.058 A 
ATOM     77  C   UNL     1       3.916  10.008   9.151  1.00  0.00     0.135 A 
ATOM     78  C   UNL     1       3.987  12.409   9.187  1.00  0.00     0.135 A 
ATOM     79  F   UNL     1       4.525   8.812   9.152  1.00  0.00    -0.206 F 
ATOM     80  C   UNL     1       2.530  10.039   9.050  1.00  0.00     0.059 A 
ATOM     81  C   UNL     1       2.598  12.465   9.119  1.00  0.00     0.059 A 
ATOM     82  F   UNL     1       4.669  13.563   9.247  1.00  0.00    -0.206 F 
ATOM     83  C   UNL     1       1.880  11.273   9.032  1.00  0.00     0.060 A 
BRANCH  83  84
ATOM     84  S   UNL     1       0.081  11.288   8.884  1.00  0.00     0.124 S 
ATOM     85  O   UNL     1      -0.107  10.741   7.543  1.00  0.00    -0.237 OA
ATOM     86  O   UNL     1      -0.321  10.419   9.985  1.00  0.00    -0.237 OA
ATOM     87  O   UNL     1      -0.262  12.697   9.040  1.00  0.00    -0.744 OA
ENDBRANCH  83  84
ENDBRANCH  51  76
BRANCH  63  88
ATOM     88  C   UNL     1       9.518  13.086  13.893  1.00  0.00     0.058 A 
ATOM     89  C   UNL     1       9.992  14.390  14.115  1.00  0.00     0.135 A 
ATOM     90  C   UNL     1       9.065  12.356  15.003  1.00  0.00     0.135 A 
ATOM     91  F   UNL     1      10.444  15.131  13.091  1.00  0.00    -0.206 F 
ATOM     92  C   UNL     1      10.045  14.937  15.392  1.00  0.00     0.059 A 
ATOM     93  C   UNL     1       9.075  12.897  16.285  1.00  0.00     0.059 A 
ATOM     94  F   UNL     1       8.593  11.109  14.844  1.00  0.00    -0.206 F 
ATOM     95  C   UNL     1       9.585  14.182  16.471  1.00  0.00     0.060 A 
BRANCH  95  96
ATOM     96  S   UNL     1       9.658  14.913  18.120  1.00  0.00     0.124 S 
ATOM     97  O   UNL     1      11.096  15.002  18.347  1.00  0.00    -0.237 OA
ATOM     98  O   UNL     1       8.966  16.183  17.921  1.00  0.00    -0.237 OA
ATOM     99  O   UNL     1       8.950  13.945  18.952  1.00  0.00    -0.744 OA
ENDBRANCH  95  96
ENDBRANCH  63  88
ENDBRANCH  37  38
ENDBRANCH  29  32
ENDBRANCH  27  28
ENDBRANCH  26  27
ENDBRANCH   1  26
TORSDOF 17
