REMARK SMILES CC(C)[C@@H]1C(=O)Nc2ccccc2N1C(=O)N[C@H](Cc1ccccc1)C(=O)NCCCNC(=O)c1ccc(-c2c3nc(c(-c4c(F)cc(S(=O)(=O)[O-])cc4F)c4ccc([nH]4)c(-c4c(F)cc(S(=O)(=O)[O-])cc4F)c4nc(c(-c5c(F)cc(S(=O)(=O)[O-])cc5F)c5ccc2[nH]5)C=C4)C=C3)cc1
REMARK SMILES IDX 30 1 29 2 28 3 26 4 27 5 18 7 17 8 15 9 16 10 14 12 4 13
REMARK SMILES IDX 5 14 6 15 7 16 13 17 8 18 12 20 9 21 11 22 10 23 2 24 1 25
REMARK SMILES IDX 3 26 19 27 20 28 21 29 25 30 22 31 24 32 23 33 31 34 32 35
REMARK SMILES IDX 33 36 34 38 35 39 36 40 100 41 37 42 99 43 38 44 39 45 40 46
REMARK SMILES IDX 93 47 41 48 98 49 92 50 94 51 42 52 97 53 91 54 90 55 43 57
REMARK SMILES IDX 77 58 56 59 76 60 57 61 60 62 75 63 95 64 58 65 59 66 74 68
REMARK SMILES IDX 96 69 61 70 44 71 45 72 54 73 46 74 47 75 53 76 55 77 48 78
REMARK SMILES IDX 49 79 50 80 51 81 52 82 78 83 79 84 88 85 80 86 81 87 87 88
REMARK SMILES IDX 89 89 82 90 83 91 84 92 85 93 86 94 62 95 63 96 72 97 64 98
REMARK SMILES IDX 65 99 71 100 73 101 66 102 67 103 68 104 69 105 70 106
REMARK H PARENT 28 6 17 11 7 19 32 37 94 56 60 67
REMARK Flexibility Score: inf
ROOT
ATOM      1  C   UNL     1       5.496   2.164   0.010  1.00  0.00     0.042 C 
ENDROOT
BRANCH   1   2
ATOM      2  C   UNL     1       4.866   0.749   0.252  1.00  0.00     0.117 C 
BRANCH   2   3
ATOM      3  N   UNL     1       3.390   0.576   0.251  1.00  0.00    -0.354 N 
ATOM      4  C   UNL     1       2.675  -0.592  -0.046  1.00  0.00     0.242 C 
ATOM      5  O   UNL     1       2.395  -1.292   0.941  1.00  0.00    -0.273 OA
ATOM      6  H   UNL     1       2.856   1.369   0.485  1.00  0.00     0.163 HD
BRANCH   4   7
ATOM      7  C   UNL     1       2.039  -1.027  -1.502  1.00  0.00     0.177 C 
BRANCH   7   8
ATOM      8  N   UNL     1       3.220  -1.057  -2.292  1.00  0.00    -0.326 N 
ATOM      9  C   UNL     1       3.605  -0.023  -3.050  1.00  0.00     0.323 C 
ATOM     10  O   UNL     1       4.151  -0.389  -4.099  1.00  0.00    -0.248 OA
ATOM     11  H   UNL     1       3.776  -1.869  -2.282  1.00  0.00     0.166 HD
BRANCH   9  12
ATOM     12  N   UNL     1       3.514   1.292  -2.635  1.00  0.00    -0.280 N 
ATOM     13  C   UNL     1       2.515   2.291  -1.812  1.00  0.00     0.184 C 
ATOM     14  C   UNL     1       2.341   3.493  -2.799  1.00  0.00     0.247 C 
ATOM     15  O   UNL     1       1.272   4.061  -3.019  1.00  0.00    -0.272 OA
ATOM     16  N   UNL     1       3.495   4.052  -3.277  1.00  0.00    -0.322 N 
ATOM     17  C   UNL     1       4.734   2.003  -3.062  1.00  0.00     0.070 A 
ATOM     18  C   UNL     1       4.707   3.373  -3.307  1.00  0.00     0.065 A 
ATOM     19  H   UNL     1       3.465   4.977  -3.615  1.00  0.00     0.170 HD
ATOM     20  C   UNL     1       5.987   1.339  -3.130  1.00  0.00     0.028 A 
ATOM     21  C   UNL     1       5.883   4.059  -3.623  1.00  0.00     0.028 A 
ATOM     22  C   UNL     1       7.164   2.025  -3.411  1.00  0.00     0.002 A 
ATOM     23  C   UNL     1       7.110   3.389  -3.652  1.00  0.00     0.002 A 
BRANCH  13  24
ATOM     24  C   UNL     1       1.052   2.185  -1.007  1.00  0.00     0.015 C 
ATOM     25  C   UNL     1       0.517   1.153   0.024  1.00  0.00     0.010 C 
ATOM     26  C   UNL     1       0.880   3.483  -0.144  1.00  0.00     0.010 C 
ENDBRANCH  13  24
ENDBRANCH   9  12
ENDBRANCH   7   8
BRANCH   7  27
ATOM     27  C   UNL     1       0.959  -0.476  -2.556  1.00  0.00     0.070 C 
BRANCH  27  28
ATOM     28  C   UNL     1      -0.555  -0.530  -2.606  1.00  0.00    -0.045 A 
ATOM     29  C   UNL     1      -1.260   0.602  -3.087  1.00  0.00     0.004 A 
ATOM     30  C   UNL     1      -1.268  -1.717  -2.457  1.00  0.00     0.004 A 
ATOM     31  C   UNL     1      -2.634   0.582  -3.316  1.00  0.00     0.000 A 
ATOM     32  C   UNL     1      -2.643  -1.752  -2.733  1.00  0.00     0.000 A 
ATOM     33  C   UNL     1      -3.329  -0.604  -3.142  1.00  0.00     0.000 A 
ENDBRANCH  27  28
ENDBRANCH   7  27
ENDBRANCH   4   7
ENDBRANCH   2   3
ENDBRANCH   1   2
BRANCH   1  34
ATOM     34  C   UNL     1       5.448   3.352   0.989  1.00  0.00     0.118 C 
BRANCH  34  35
ATOM     35  N   UNL     1       6.750   4.051   0.973  1.00  0.00    -0.352 N 
ATOM     36  C   UNL     1       7.320   4.921   0.064  1.00  0.00     0.251 C 
ATOM     37  H   UNL     1       7.316   3.860   1.755  1.00  0.00     0.163 HD
ATOM     38  O   UNL     1       8.511   4.736  -0.202  1.00  0.00    -0.269 OA
BRANCH  36  39
ATOM     39  C   UNL     1       6.652   6.135  -0.504  1.00  0.00     0.039 A 
ATOM     40  C   UNL     1       7.293   6.803  -1.570  1.00  0.00     0.014 A 
ATOM     41  C   UNL     1       5.567   6.765   0.104  1.00  0.00     0.014 A 
ATOM     42  C   UNL     1       6.888   8.083  -1.990  1.00  0.00     0.010 A 
ATOM     43  C   UNL     1       5.141   8.035  -0.338  1.00  0.00     0.010 A 
ATOM     44  C   UNL     1       5.820   8.729  -1.359  1.00  0.00    -0.014 A 
BRANCH  44  45
ATOM     45  C   UNL     1       5.481  10.158  -1.661  1.00  0.00     0.031 A 
ATOM     46  C   UNL     1       5.721  11.223  -0.613  1.00  0.00     0.074 A 
ATOM     47  C   UNL     1       4.938  10.516  -2.843  1.00  0.00     0.049 A 
ATOM     48  N   UNL     1       5.395  12.492  -0.618  1.00  0.00    -0.248 NA
ATOM     49  C   UNL     1       6.407  10.789   0.614  1.00  0.00     0.031 C 
ATOM     50  C   UNL     1       4.663   9.607  -3.954  1.00  0.00     0.029 A 
ATOM     51  N   UNL     1       4.500  11.739  -3.300  1.00  0.00    -0.354 N 
ATOM     52  C   UNL     1       5.803  12.998   0.614  1.00  0.00     0.074 A 
ATOM     53  C   UNL     1       6.371  11.889   1.351  1.00  0.00     0.031 C 
ATOM     54  C   UNL     1       4.093  10.297  -4.957  1.00  0.00     0.029 A 
ATOM     55  C   UNL     1       3.928  11.691  -4.551  1.00  0.00     0.049 A 
ATOM     56  H   UNL     1       4.588  12.570  -2.780  1.00  0.00     0.167 HD
ATOM     57  C   UNL     1       5.726  14.268   1.087  1.00  0.00     0.037 A 
ATOM     58  C   UNL     1       3.320  12.651  -5.281  1.00  0.00     0.037 A 
ATOM     59  C   UNL     1       5.186  15.377   0.340  1.00  0.00     0.049 A 
ATOM     60  C   UNL     1       3.224  14.052  -4.734  1.00  0.00     0.074 A 
ATOM     61  C   UNL     1       5.108  16.709   0.710  1.00  0.00     0.029 A 
ATOM     62  N   UNL     1       4.628  15.284  -0.927  1.00  0.00    -0.354 N 
ATOM     63  N   UNL     1       3.642  14.517  -3.581  1.00  0.00    -0.248 NA
ATOM     64  C   UNL     1       2.579  15.060  -5.588  1.00  0.00     0.031 C 
ATOM     65  C   UNL     1       4.458  17.412  -0.312  1.00  0.00     0.029 A 
ATOM     66  C   UNL     1       4.182  16.529  -1.343  1.00  0.00     0.049 A 
ATOM     67  H   UNL     1       4.559  14.455  -1.454  1.00  0.00     0.167 HD
ATOM     68  C   UNL     1       3.334  15.874  -3.581  1.00  0.00     0.074 A 
ATOM     69  C   UNL     1       2.704  16.158  -4.854  1.00  0.00     0.031 C 
ATOM     70  C   UNL     1       3.556  16.801  -2.615  1.00  0.00     0.037 A 
BRANCH  57  71
ATOM     71  C   UNL     1       6.220  14.525   2.489  1.00  0.00     0.058 A 
ATOM     72  C   UNL     1       7.581  14.449   2.826  1.00  0.00     0.135 A 
ATOM     73  C   UNL     1       5.317  14.868   3.511  1.00  0.00     0.135 A 
ATOM     74  F   UNL     1       8.490  14.118   1.895  1.00  0.00    -0.206 F 
ATOM     75  C   UNL     1       8.024  14.655   4.130  1.00  0.00     0.059 A 
ATOM     76  C   UNL     1       5.742  15.111   4.816  1.00  0.00     0.059 A 
ATOM     77  F   UNL     1       4.004  14.965   3.250  1.00  0.00    -0.206 F 
ATOM     78  C   UNL     1       7.096  14.980   5.120  1.00  0.00     0.060 A 
BRANCH  78  79
ATOM     79  S   UNL     1       7.683  15.218   6.811  1.00  0.00     0.124 S 
ATOM     80  O   UNL     1       7.983  13.846   7.210  1.00  0.00    -0.237 OA
ATOM     81  O   UNL     1       8.839  16.089   6.621  1.00  0.00    -0.237 OA
ATOM     82  O   UNL     1       6.543  15.832   7.484  1.00  0.00    -0.744 OA
ENDBRANCH  78  79
ENDBRANCH  57  71
BRANCH  58  83
ATOM     83  C   UNL     1       2.759  12.315  -6.620  1.00  0.00     0.058 A 
ATOM     84  C   UNL     1       3.363  12.781  -7.797  1.00  0.00     0.135 A 
ATOM     85  C   UNL     1       1.629  11.491  -6.751  1.00  0.00     0.135 A 
ATOM     86  F   UNL     1       4.435  13.586  -7.727  1.00  0.00    -0.206 F 
ATOM     87  C   UNL     1       2.874  12.440  -9.054  1.00  0.00     0.059 A 
ATOM     88  C   UNL     1       1.136  11.115  -7.998  1.00  0.00     0.059 A 
ATOM     89  F   UNL     1       1.016  11.012  -5.657  1.00  0.00    -0.206 F 
ATOM     90  C   UNL     1       1.766  11.597  -9.145  1.00  0.00     0.060 A 
BRANCH  90  91
ATOM     91  S   UNL     1       1.192  11.086 -10.781  1.00  0.00     0.124 S 
ATOM     92  O   UNL     1       0.597  12.325 -11.283  1.00  0.00    -0.237 OA
ATOM     93  O   UNL     1       2.441  10.678 -11.425  1.00  0.00    -0.237 OA
ATOM     94  O   UNL     1       0.262  10.010 -10.494  1.00  0.00    -0.744 OA
ENDBRANCH  90  91
ENDBRANCH  58  83
BRANCH  70  95
ATOM     95  C   UNL     1       3.144  18.220  -2.902  1.00  0.00     0.058 A 
ATOM     96  C   UNL     1       1.796  18.610  -2.927  1.00  0.00     0.135 A 
ATOM     97  C   UNL     1       4.116  19.215  -3.102  1.00  0.00     0.135 A 
ATOM     98  F   UNL     1       0.826  17.700  -2.748  1.00  0.00    -0.206 F 
ATOM     99  C   UNL     1       1.425  19.931  -3.163  1.00  0.00     0.059 A 
ATOM    100  C   UNL     1       3.769  20.547  -3.310  1.00  0.00     0.059 A 
ATOM    101  F   UNL     1       5.421  18.901  -3.077  1.00  0.00    -0.206 F 
ATOM    102  C   UNL     1       2.419  20.893  -3.351  1.00  0.00     0.060 A 
BRANCH 102 103
ATOM    103  S   UNL     1       1.925  22.608  -3.623  1.00  0.00     0.124 S 
ATOM    104  O   UNL     1       1.415  22.554  -4.989  1.00  0.00    -0.237 OA
ATOM    105  O   UNL     1       0.924  22.814  -2.580  1.00  0.00    -0.237 OA
ATOM    106  O   UNL     1       3.168  23.353  -3.446  1.00  0.00    -0.744 OA
ENDBRANCH 102 103
ENDBRANCH  70  95
ENDBRANCH  44  45
ENDBRANCH  36  39
ENDBRANCH  34  35
ENDBRANCH   1  34
TORSDOF 18
