REMARK SMILES O=C(NCCCNC(=O)c1csc(CNc2ccc(-n3cccn3)nc2)c1)c1ccc(-c2c3nc(c(-c4c(F)cc(S(=O)(=O)[O-])cc4F)c4ccc([nH]4)c(-c4c(F)cc(S(=O)(=O)[O-])cc4F)c4nc(c(-c5c(F)cc(S(=O)(=O)[O-])cc5F)c5ccc2[nH]5)C=C4)C=C3)cc1
REMARK SMILES IDX 5 1 4 2 3 3 1 4 2 5 28 7 29 8 93 9 30 10 92 11 31 12 32 13
REMARK SMILES IDX 33 14 86 15 34 16 91 17 85 18 87 19 35 20 90 21 84 22 83 23
REMARK SMILES IDX 36 25 70 26 49 27 69 28 50 29 53 30 68 31 88 32 51 33 52 34
REMARK SMILES IDX 67 36 89 37 54 38 37 39 38 40 47 41 39 42 40 43 46 44 48 45
REMARK SMILES IDX 41 46 42 47 43 48 44 49 45 50 71 51 72 52 81 53 73 54 74 55
REMARK SMILES IDX 80 56 82 57 75 58 76 59 77 60 78 61 79 62 55 63 56 64 65 65
REMARK SMILES IDX 57 66 58 67 64 68 66 69 59 70 60 71 61 72 62 73 63 74 6 75
REMARK SMILES IDX 7 76 8 77 9 79 10 80 11 81 27 82 12 83 13 84 14 85 15 86
REMARK SMILES IDX 16 88 17 89 26 90 18 91 25 92 19 93 20 94 21 95 24 96 22 97
REMARK SMILES IDX 23 98
REMARK H PARENT 3 6 87 24 53 35 7 78 15 87
REMARK Flexibility Score: inf
ROOT
ATOM      1  C   UNL     1       4.858  -1.107  -2.021  1.00  0.00     0.042 C 
ENDROOT
BRANCH   1   2
ATOM      2  C   UNL     1       4.672   0.296  -1.443  1.00  0.00     0.118 C 
BRANCH   2   3
ATOM      3  N   UNL     1       3.300   0.754  -1.349  1.00  0.00    -0.352 N 
ATOM      4  O   UNL     1       1.261   1.205  -0.625  1.00  0.00    -0.269 OA
ATOM      5  C   UNL     1       2.275   0.521  -0.473  1.00  0.00     0.251 C 
ATOM      6  H   UNL     1       3.051   1.368  -2.076  1.00  0.00     0.163 HD
BRANCH   5   7
ATOM      7  C   UNL     1       2.285  -0.537   0.570  1.00  0.00     0.039 A 
ATOM      8  C   UNL     1       3.425  -1.171   1.070  1.00  0.00     0.014 A 
ATOM      9  C   UNL     1       1.025  -0.937   1.046  1.00  0.00     0.014 A 
ATOM     10  C   UNL     1       3.312  -2.268   1.916  1.00  0.00     0.010 A 
ATOM     11  C   UNL     1       0.908  -2.005   1.923  1.00  0.00     0.010 A 
ATOM     12  C   UNL     1       2.051  -2.707   2.308  1.00  0.00    -0.014 A 
BRANCH  12  13
ATOM     13  C   UNL     1       1.956  -3.878   3.177  1.00  0.00     0.031 A 
ATOM     14  C   UNL     1       2.431  -3.705   4.587  1.00  0.00     0.074 A 
ATOM     15  C   UNL     1       1.271  -4.967   2.771  1.00  0.00     0.049 A 
ATOM     16  N   UNL     1       3.193  -4.472   5.304  1.00  0.00    -0.248 NA
ATOM     17  C   UNL     1       2.032  -2.463   5.275  1.00  0.00     0.031 C 
ATOM     18  C   UNL     1       0.503  -5.124   1.529  1.00  0.00     0.029 A 
ATOM     19  N   UNL     1       0.982  -6.107   3.454  1.00  0.00    -0.354 N 
ATOM     20  C   UNL     1       3.217  -3.909   6.583  1.00  0.00     0.074 A 
ATOM     21  C   UNL     1       2.587  -2.619   6.476  1.00  0.00     0.031 C 
ATOM     22  C   UNL     1      -0.356  -6.156   1.670  1.00  0.00     0.029 A 
ATOM     23  C   UNL     1      -0.113  -6.794   2.951  1.00  0.00     0.049 A 
ATOM     24  H   UNL     1       1.501  -6.415   4.232  1.00  0.00     0.167 HD
ATOM     25  C   UNL     1       3.581  -4.598   7.700  1.00  0.00     0.037 A 
ATOM     26  C   UNL     1      -0.848  -7.729   3.602  1.00  0.00     0.037 A 
ATOM     27  C   UNL     1       4.364  -5.761   7.397  1.00  0.00     0.049 A 
ATOM     28  C   UNL     1      -0.029  -8.235   4.734  1.00  0.00     0.074 A 
ATOM     29  C   UNL     1       5.587  -5.979   6.794  1.00  0.00     0.029 A 
ATOM     30  N   UNL     1       3.762  -6.994   7.455  1.00  0.00    -0.354 N 
ATOM     31  N   UNL     1       1.083  -8.905   4.597  1.00  0.00    -0.248 NA
ATOM     32  C   UNL     1      -0.228  -7.622   6.039  1.00  0.00     0.031 C 
ATOM     33  C   UNL     1       5.435  -7.203   6.080  1.00  0.00     0.029 A 
ATOM     34  C   UNL     1       4.139  -7.662   6.318  1.00  0.00     0.049 A 
ATOM     35  H   UNL     1       3.176  -7.331   8.171  1.00  0.00     0.167 HD
ATOM     36  C   UNL     1       1.894  -8.477   5.639  1.00  0.00     0.074 A 
ATOM     37  C   UNL     1       1.000  -7.758   6.543  1.00  0.00     0.031 C 
ATOM     38  C   UNL     1       3.257  -8.507   5.545  1.00  0.00     0.037 A 
BRANCH  25  39
ATOM     39  C   UNL     1       2.964  -4.368   9.059  1.00  0.00     0.058 A 
ATOM     40  C   UNL     1       3.568  -4.897  10.217  1.00  0.00     0.135 A 
ATOM     41  C   UNL     1       1.647  -3.880   9.224  1.00  0.00     0.135 A 
ATOM     42  F   UNL     1       4.810  -5.404  10.168  1.00  0.00    -0.206 F 
ATOM     43  C   UNL     1       2.891  -4.989  11.435  1.00  0.00     0.059 A 
ATOM     44  C   UNL     1       0.975  -3.913  10.440  1.00  0.00     0.059 A 
ATOM     45  F   UNL     1       0.922  -3.440   8.187  1.00  0.00    -0.206 F 
ATOM     46  C   UNL     1       1.586  -4.511  11.530  1.00  0.00     0.060 A 
BRANCH  46  47
ATOM     47  S   UNL     1       0.659  -4.752  13.057  1.00  0.00     0.124 S 
ATOM     48  O   UNL     1       0.429  -6.192  13.030  1.00  0.00    -0.237 OA
ATOM     49  O   UNL     1       1.599  -4.274  14.065  1.00  0.00    -0.237 OA
ATOM     50  O   UNL     1      -0.524  -3.919  12.866  1.00  0.00    -0.744 OA
ENDBRANCH  46  47
ENDBRANCH  25  39
BRANCH  26  51
ATOM     51  C   UNL     1      -2.327  -7.878   3.532  1.00  0.00     0.058 A 
ATOM     52  C   UNL     1      -2.972  -9.045   3.971  1.00  0.00     0.135 A 
ATOM     53  C   UNL     1      -3.163  -6.775   3.253  1.00  0.00     0.135 A 
ATOM     54  F   UNL     1      -2.252 -10.128   4.301  1.00  0.00    -0.206 F 
ATOM     55  C   UNL     1      -4.362  -9.111   4.137  1.00  0.00     0.059 A 
ATOM     56  C   UNL     1      -4.547  -6.822   3.390  1.00  0.00     0.059 A 
ATOM     57  F   UNL     1      -2.651  -5.581   2.918  1.00  0.00    -0.206 F 
ATOM     58  C   UNL     1      -5.140  -7.988   3.852  1.00  0.00     0.060 A 
BRANCH  58  59
ATOM     59  S   UNL     1      -6.916  -8.019   4.190  1.00  0.00     0.124 S 
ATOM     60  O   UNL     1      -7.397  -8.962   3.187  1.00  0.00    -0.237 OA
ATOM     61  O   UNL     1      -6.957  -8.481   5.573  1.00  0.00    -0.237 OA
ATOM     62  O   UNL     1      -7.325  -6.631   3.988  1.00  0.00    -0.744 OA
ENDBRANCH  58  59
ENDBRANCH  26  51
BRANCH  38  63
ATOM     63  C   UNL     1       3.875  -9.231   4.376  1.00  0.00     0.058 A 
ATOM     64  C   UNL     1       3.748  -8.795   3.045  1.00  0.00     0.135 A 
ATOM     65  C   UNL     1       4.776 -10.277   4.621  1.00  0.00     0.135 A 
ATOM     66  F   UNL     1       3.003  -7.726   2.740  1.00  0.00    -0.206 F 
ATOM     67  C   UNL     1       4.452  -9.393   2.001  1.00  0.00     0.059 A 
ATOM     68  C   UNL     1       5.515 -10.869   3.598  1.00  0.00     0.059 A 
ATOM     69  F   UNL     1       4.998 -10.691   5.879  1.00  0.00    -0.206 F 
ATOM     70  C   UNL     1       5.341 -10.426   2.288  1.00  0.00     0.060 A 
BRANCH  70  71
ATOM     71  S   UNL     1       6.341 -11.109   0.948  1.00  0.00     0.124 S 
ATOM     72  O   UNL     1       5.361 -11.895   0.206  1.00  0.00    -0.237 OA
ATOM     73  O   UNL     1       6.834  -9.909   0.278  1.00  0.00    -0.237 OA
ATOM     74  O   UNL     1       7.364 -11.883   1.648  1.00  0.00    -0.744 OA
ENDBRANCH  70  71
ENDBRANCH  38  63
ENDBRANCH  12  13
ENDBRANCH   5   7
ENDBRANCH   2   3
ENDBRANCH   1   2
BRANCH   1  75
ATOM     75  C   UNL     1       4.301  -1.296  -3.433  1.00  0.00     0.118 C 
BRANCH  75  76
ATOM     76  N   UNL     1       4.806  -0.293  -4.358  1.00  0.00    -0.352 N 
ATOM     77  C   UNL     1       5.704  -0.396  -5.388  1.00  0.00     0.252 C 
ATOM     78  H   UNL     1       4.442   0.611  -4.221  1.00  0.00     0.163 HD
ATOM     79  O   UNL     1       6.216   0.632  -5.820  1.00  0.00    -0.269 OA
BRANCH  77  80
ATOM     80  C   UNL     1       6.028  -1.700  -5.948  1.00  0.00     0.050 A 
ATOM     81  C   UNL     1       5.105  -2.684  -6.250  1.00  0.00     0.079 A 
ATOM     82  C   UNL     1       7.341  -2.095  -6.378  1.00  0.00     0.031 A 
ATOM     83  S   UNL     1       5.811  -4.060  -6.974  1.00  0.00    -0.146 S 
ATOM     84  C   UNL     1       7.374  -3.361  -6.926  1.00  0.00     0.024 A 
BRANCH  84  85
ATOM     85  C   UNL     1       8.556  -4.131  -7.447  1.00  0.00     0.159 C 
BRANCH  85  86
ATOM     86  N   UNL     1       8.855  -5.314  -6.654  1.00  0.00    -0.379 N 
ATOM     87  H   UNL     1       9.038  -5.225  -5.691  1.00  0.00     0.160 HD
BRANCH  86  88
ATOM     88  C   UNL     1       8.883  -6.565  -7.249  1.00  0.00     0.053 A 
ATOM     89  C   UNL     1       9.617  -6.828  -8.404  1.00  0.00     0.031 A 
ATOM     90  C   UNL     1       8.114  -7.619  -6.755  1.00  0.00     0.139 A 
ATOM     91  C   UNL     1       9.613  -8.106  -8.970  1.00  0.00     0.051 A 
ATOM     92  N   UNL     1       8.033  -8.848  -7.316  1.00  0.00    -0.235 NA
ATOM     93  C   UNL     1       8.810  -9.091  -8.398  1.00  0.00     0.153 A 
BRANCH  93  94
ATOM     94  N   UNL     1       8.809 -10.405  -8.958  1.00  0.00    -0.223 N 
ATOM     95  C   UNL     1       9.835 -11.013  -9.661  1.00  0.00     0.117 A 
ATOM     96  N   UNL     1       7.734 -11.231  -8.856  1.00  0.00    -0.175 NA
ATOM     97  C   UNL     1       9.396 -12.267 -10.013  1.00  0.00     0.042 A 
ATOM     98  C   UNL     1       8.089 -12.335  -9.510  1.00  0.00     0.135 A 
ENDBRANCH  93  94
ENDBRANCH  86  88
ENDBRANCH  85  86
ENDBRANCH  84  85
ENDBRANCH  77  80
ENDBRANCH  75  76
ENDBRANCH   1  75
TORSDOF 17
