REMARK SMILES O=C(NCCCNC(=O)[C@H](CC1=c2ccccc2=NC1)NC(=O)c1ccc(N2CCCCC2=O)cc1)c1ccc(-c2c3nc(c(-c4c(F)cc(S(=O)(=O)[O-])cc4F)c4ccc([nH]4)c(-c4c(F)cc(S(=O)(=O)[O-])cc4F)c4nc(c(-c5c(F)cc(S(=O)(=O)[O-])cc5F)c5ccc2[nH]5)C=C4)C=C3)cc1
REMARK SMILES IDX 5 1 4 2 3 3 1 4 2 5 37 7 38 8 102 9 39 10 101 11 40 12 41 13
REMARK SMILES IDX 42 14 95 15 43 16 100 17 94 18 96 19 44 20 99 21 93 22 92 23
REMARK SMILES IDX 45 25 79 26 58 27 78 28 59 29 62 30 77 31 97 32 60 33 61 34
REMARK SMILES IDX 76 36 98 37 63 38 46 39 47 40 56 41 48 42 49 43 55 44 57 45
REMARK SMILES IDX 50 46 51 47 52 48 53 49 54 50 80 51 81 52 90 53 82 54 83 55
REMARK SMILES IDX 89 56 91 57 84 58 85 59 86 60 87 61 88 62 64 63 65 64 74 65
REMARK SMILES IDX 66 66 67 67 73 68 75 69 68 70 69 71 70 72 71 73 72 74 6 75
REMARK SMILES IDX 7 76 8 77 9 79 10 80 21 81 22 82 23 84 24 85 25 86 36 87
REMARK SMILES IDX 26 88 35 89 27 90 28 91 29 92 33 93 30 94 32 95 34 96 31 97
REMARK SMILES IDX 11 98 12 99 13 100 20 101 14 102 18 103 19 104 15 105 17 106
REMARK SMILES IDX 16 107
REMARK H PARENT 3 6 96 24 62 35 7 78 21 83
REMARK Flexibility Score: inf
ROOT
ATOM      1  C   UNL     1       3.986  -4.113   0.532  1.00  0.00     0.042 C 
ENDROOT
BRANCH   1   2
ATOM      2  C   UNL     1       4.489  -3.966   1.961  1.00  0.00     0.118 C 
BRANCH   2   3
ATOM      3  N   UNL     1       4.561  -2.573   2.372  1.00  0.00    -0.352 N 
ATOM      4  O   UNL     1       3.846  -0.606   3.152  1.00  0.00    -0.269 OA
ATOM      5  C   UNL     1       3.747  -1.831   3.188  1.00  0.00     0.251 C 
ATOM      6  H   UNL     1       5.326  -2.078   2.000  1.00  0.00     0.163 HD
BRANCH   5   7
ATOM      7  C   UNL     1       2.774  -2.466   4.108  1.00  0.00     0.039 A 
ATOM      8  C   UNL     1       1.607  -1.766   4.434  1.00  0.00     0.014 A 
ATOM      9  C   UNL     1       3.048  -3.679   4.745  1.00  0.00     0.014 A 
ATOM     10  C   UNL     1       0.729  -2.276   5.393  1.00  0.00     0.010 A 
ATOM     11  C   UNL     1       2.124  -4.237   5.625  1.00  0.00     0.010 A 
ATOM     12  C   UNL     1       0.985  -3.514   6.000  1.00  0.00    -0.014 A 
BRANCH  12  13
ATOM     13  C   UNL     1       0.153  -4.004   7.127  1.00  0.00     0.031 A 
ATOM     14  C   UNL     1       0.770  -4.126   8.498  1.00  0.00     0.074 A 
ATOM     15  C   UNL     1      -1.131  -4.353   6.928  1.00  0.00     0.049 A 
ATOM     16  N   UNL     1       0.245  -4.585   9.604  1.00  0.00    -0.248 NA
ATOM     17  C   UNL     1       2.176  -3.707   8.634  1.00  0.00     0.031 C 
ATOM     18  C   UNL     1      -1.831  -4.307   5.644  1.00  0.00     0.029 A 
ATOM     19  N   UNL     1      -2.076  -4.811   7.809  1.00  0.00    -0.354 N 
ATOM     20  C   UNL     1       1.262  -4.541  10.551  1.00  0.00     0.074 A 
ATOM     21  C   UNL     1       2.449  -4.062   9.879  1.00  0.00     0.031 C 
ATOM     22  C   UNL     1      -3.108  -4.682   5.830  1.00  0.00     0.029 A 
ATOM     23  C   UNL     1      -3.307  -5.021   7.237  1.00  0.00     0.049 A 
ATOM     24  H   UNL     1      -1.890  -4.975   8.762  1.00  0.00     0.167 HD
ATOM     25  C   UNL     1       1.207  -4.838  11.870  1.00  0.00     0.037 A 
ATOM     26  C   UNL     1      -4.465  -5.432   7.788  1.00  0.00     0.037 A 
ATOM     27  C   UNL     1       0.009  -5.239  12.552  1.00  0.00     0.049 A 
ATOM     28  C   UNL     1      -4.514  -5.737   9.259  1.00  0.00     0.074 A 
ATOM     29  C   UNL     1      -0.177  -5.477  13.901  1.00  0.00     0.029 A 
ATOM     30  N   UNL     1      -1.215  -5.448  11.932  1.00  0.00    -0.354 N 
ATOM     31  N   UNL     1      -3.553  -5.651  10.148  1.00  0.00    -0.248 NA
ATOM     32  C   UNL     1      -5.798  -6.202   9.801  1.00  0.00     0.031 C 
ATOM     33  C   UNL     1      -1.511  -5.851  14.096  1.00  0.00     0.029 A 
ATOM     34  C   UNL     1      -2.159  -5.827  12.870  1.00  0.00     0.049 A 
ATOM     35  H   UNL     1      -1.386  -5.342  10.969  1.00  0.00     0.167 HD
ATOM     36  C   UNL     1      -4.117  -6.045  11.356  1.00  0.00     0.074 A 
ATOM     37  C   UNL     1      -5.505  -6.359  11.087  1.00  0.00     0.031 C 
ATOM     38  C   UNL     1      -3.535  -6.140  12.576  1.00  0.00     0.037 A 
BRANCH  25  39
ATOM     39  C   UNL     1       2.482  -4.715  12.654  1.00  0.00     0.058 A 
ATOM     40  C   UNL     1       3.026  -3.462  12.976  1.00  0.00     0.135 A 
ATOM     41  C   UNL     1       3.178  -5.861  13.071  1.00  0.00     0.135 A 
ATOM     42  F   UNL     1       2.408  -2.336  12.584  1.00  0.00    -0.206 F 
ATOM     43  C   UNL     1       4.240  -3.347  13.645  1.00  0.00     0.059 A 
ATOM     44  C   UNL     1       4.383  -5.769  13.762  1.00  0.00     0.059 A 
ATOM     45  F   UNL     1       2.701  -7.083  12.787  1.00  0.00    -0.206 F 
ATOM     46  C   UNL     1       4.917  -4.507  14.023  1.00  0.00     0.060 A 
BRANCH  46  47
ATOM     47  S   UNL     1       6.511  -4.347  14.856  1.00  0.00     0.124 S 
ATOM     48  O   UNL     1       7.393  -4.044  13.733  1.00  0.00    -0.237 OA
ATOM     49  O   UNL     1       6.273  -3.248  15.787  1.00  0.00    -0.237 OA
ATOM     50  O   UNL     1       6.704  -5.655  15.472  1.00  0.00    -0.744 OA
ENDBRANCH  46  47
ENDBRANCH  25  39
BRANCH  26  51
ATOM     51  C   UNL     1      -5.680  -5.527   6.942  1.00  0.00     0.058 A 
ATOM     52  C   UNL     1      -6.665  -4.530   6.997  1.00  0.00     0.135 A 
ATOM     53  C   UNL     1      -5.851  -6.570   6.019  1.00  0.00     0.135 A 
ATOM     54  F   UNL     1      -6.544  -3.517   7.868  1.00  0.00    -0.206 F 
ATOM     55  C   UNL     1      -7.774  -4.557   6.160  1.00  0.00     0.059 A 
ATOM     56  C   UNL     1      -6.946  -6.611   5.162  1.00  0.00     0.059 A 
ATOM     57  F   UNL     1      -4.928  -7.538   5.922  1.00  0.00    -0.206 F 
ATOM     58  C   UNL     1      -7.902  -5.598   5.239  1.00  0.00     0.060 A 
BRANCH  58  59
ATOM     59  S   UNL     1      -9.300  -5.572   4.095  1.00  0.00     0.124 S 
ATOM     60  O   UNL     1     -10.403  -5.955   4.969  1.00  0.00    -0.237 OA
ATOM     61  O   UNL     1      -9.298  -4.185   3.639  1.00  0.00    -0.237 OA
ATOM     62  O   UNL     1      -8.924  -6.556   3.083  1.00  0.00    -0.744 OA
ENDBRANCH  58  59
ENDBRANCH  26  51
BRANCH  38  63
ATOM     63  C   UNL     1      -4.383  -6.616  13.717  1.00  0.00     0.058 A 
ATOM     64  C   UNL     1      -4.636  -7.982  13.905  1.00  0.00     0.135 A 
ATOM     65  C   UNL     1      -4.845  -5.716  14.690  1.00  0.00     0.135 A 
ATOM     66  F   UNL     1      -4.218  -8.878  12.997  1.00  0.00    -0.206 F 
ATOM     67  C   UNL     1      -5.313  -8.443  15.028  1.00  0.00     0.059 A 
ATOM     68  C   UNL     1      -5.512  -6.157  15.828  1.00  0.00     0.059 A 
ATOM     69  F   UNL     1      -4.619  -4.399  14.554  1.00  0.00    -0.206 F 
ATOM     70  C   UNL     1      -5.738  -7.524  15.989  1.00  0.00     0.060 A 
BRANCH  70  71
ATOM     71  S   UNL     1      -6.538  -8.145  17.484  1.00  0.00     0.124 S 
ATOM     72  O   UNL     1      -7.864  -8.493  16.986  1.00  0.00    -0.237 OA
ATOM     73  O   UNL     1      -5.683  -9.269  17.853  1.00  0.00    -0.237 OA
ATOM     74  O   UNL     1      -6.488  -7.004  18.394  1.00  0.00    -0.744 OA
ENDBRANCH  70  71
ENDBRANCH  38  63
ENDBRANCH  12  13
ENDBRANCH   5   7
ENDBRANCH   2   3
ENDBRANCH   1   2
BRANCH   1  75
ATOM     75  C   UNL     1       4.866  -3.422  -0.500  1.00  0.00     0.117 C 
BRANCH  75  76
ATOM     76  N   UNL     1       6.204  -3.983  -0.558  1.00  0.00    -0.354 N 
ATOM     77  C   UNL     1       6.809  -4.764  -1.497  1.00  0.00     0.242 C 
ATOM     78  H   UNL     1       6.772  -3.762   0.214  1.00  0.00     0.163 HD
ATOM     79  O   UNL     1       7.970  -5.122  -1.280  1.00  0.00    -0.273 OA
BRANCH  77  80
ATOM     80  C   UNL     1       6.076  -5.216  -2.770  1.00  0.00     0.175 C 
BRANCH  80  81
ATOM     81  N   UNL     1       5.027  -6.175  -2.394  1.00  0.00    -0.340 N 
ATOM     82  C   UNL     1       4.894  -7.498  -2.728  1.00  0.00     0.251 C 
ATOM     83  H   UNL     1       4.316  -5.814  -1.818  1.00  0.00     0.164 HD
ATOM     84  O   UNL     1       3.933  -8.146  -2.326  1.00  0.00    -0.269 OA
BRANCH  82  85
ATOM     85  C   UNL     1       5.861  -8.114  -3.651  1.00  0.00     0.039 A 
ATOM     86  C   UNL     1       7.212  -8.219  -3.327  1.00  0.00     0.016 A 
ATOM     87  C   UNL     1       5.404  -8.527  -4.898  1.00  0.00     0.016 A 
ATOM     88  C   UNL     1       8.125  -8.621  -4.308  1.00  0.00     0.027 A 
ATOM     89  C   UNL     1       6.323  -8.924  -5.871  1.00  0.00     0.027 A 
ATOM     90  C   UNL     1       7.702  -8.934  -5.613  1.00  0.00     0.044 A 
BRANCH  90  91
ATOM     91  N   UNL     1       8.660  -9.200  -6.656  1.00  0.00    -0.312 N 
ATOM     92  C   UNL     1       9.837 -10.004  -6.299  1.00  0.00     0.125 C 
ATOM     93  C   UNL     1       8.381  -8.868  -7.992  1.00  0.00     0.226 C 
ATOM     94  C   UNL     1      11.023  -9.829  -7.232  1.00  0.00     0.022 C 
ATOM     95  C   UNL     1       9.525  -8.979  -8.985  1.00  0.00     0.101 C 
ATOM     96  O   UNL     1       7.332  -8.365  -8.402  1.00  0.00    -0.275 OA
ATOM     97  C   UNL     1      10.560 -10.030  -8.657  1.00  0.00     0.012 C 
ENDBRANCH  90  91
ENDBRANCH  82  85
ENDBRANCH  80  81
BRANCH  80  98
ATOM     98  C   UNL     1       5.548  -4.045  -3.616  1.00  0.00     0.068 C 
BRANCH  98  99
ATOM     99  C   UNL     1       5.763  -4.243  -5.081  1.00  0.00    -0.037 C 
ATOM    100  C   UNL     1       4.968  -4.860  -5.947  1.00  0.00     0.001 A 
ATOM    101  C   UNL     1       6.978  -3.701  -5.769  1.00  0.00     0.174 C 
ATOM    102  C   UNL     1       3.717  -5.540  -5.861  1.00  0.00     0.010 A 
ATOM    103  C   UNL     1       5.702  -4.727  -7.215  1.00  0.00     0.065 A 
ATOM    104  N   UNL     1       6.827  -4.076  -7.195  1.00  0.00    -0.280 NA
ATOM    105  C   UNL     1       3.204  -6.082  -6.978  1.00  0.00     0.001 A 
ATOM    106  C   UNL     1       5.073  -5.349  -8.399  1.00  0.00     0.028 A 
ATOM    107  C   UNL     1       3.896  -5.982  -8.253  1.00  0.00     0.002 A 
ENDBRANCH  98  99
ENDBRANCH  80  98
ENDBRANCH  77  80
ENDBRANCH  75  76
ENDBRANCH   1  75
TORSDOF 18
