REMARK SMILES CCc1ccnc(C(=O)c2[nH]c3ccc(OC(F)(F)F)cc3c2CC(=O)NCCCNC(=O)c2ccc(-c3c4nc(c(-c5c(F)cc(S(=O)(=O)[O-])cc5F)c5ccc([nH]5)c(-c5c(F)cc(S(=O)(=O)[O-])cc5F)c5nc(c(-c6c(F)cc(S(=O)(=O)[O-])cc6F)c6ccc3[nH]6)C=C5)C=C4)cc2)c1
REMARK SMILES IDX 28 1 27 2 25 3 26 4 24 6 23 7 10 8 11 9 12 10 22 12 13 13
REMARK SMILES IDX 21 14 14 15 15 16 8 17 9 18 7 19 3 20 4 21 100 22 5 23 6 24
REMARK SMILES IDX 2 25 1 26 16 27 17 28 18 29 19 30 20 31 29 32 30 33 31 34
REMARK SMILES IDX 32 35 33 37 34 38 35 39 99 40 36 41 98 42 37 43 38 44 39 45
REMARK SMILES IDX 92 46 40 47 97 48 91 49 93 50 41 51 96 52 90 53 89 54 42 56
REMARK SMILES IDX 76 57 55 58 75 59 56 60 59 61 74 62 94 63 57 64 58 65 73 67
REMARK SMILES IDX 95 68 60 69 43 70 44 71 53 72 45 73 46 74 52 75 54 76 47 77
REMARK SMILES IDX 48 78 49 79 50 80 51 81 77 82 78 83 87 84 79 85 80 86 86 87
REMARK SMILES IDX 88 88 81 89 82 90 83 91 84 92 85 93 61 94 62 95 71 96 63 97
REMARK SMILES IDX 64 98 70 99 72 100 65 101 66 102 67 103 68 104 69 105
REMARK H PARENT 27 5 11 11 31 36 93 55 59 66
REMARK Flexibility Score: inf
ROOT
ATOM      1  C   UNL     1       0.244   8.784   1.486  1.00  0.00     0.117 C 
ENDROOT
BRANCH   1   2
ATOM      2  N   UNL     1       1.185   8.281   2.468  1.00  0.00    -0.356 N 
ATOM      3  C   UNL     1       1.974   7.168   2.426  1.00  0.00     0.224 C 
ATOM      4  O   UNL     1       2.835   7.038   3.300  1.00  0.00    -0.275 OA
ATOM      5  H   UNL     1       1.266   8.823   3.286  1.00  0.00     0.163 HD
BRANCH   3   6
ATOM      6  C   UNL     1       1.888   6.186   1.267  1.00  0.00     0.138 C 
BRANCH   6   7
ATOM      7  C   UNL     1       0.561   5.500   1.114  1.00  0.00    -0.002 A 
ATOM      8  C   UNL     1      -0.055   4.637   2.016  1.00  0.00     0.093 A 
ATOM      9  N   UNL     1      -1.306   4.349   1.521  1.00  0.00    -0.352 N 
ATOM     10  C   UNL     1      -1.442   4.836   0.244  1.00  0.00     0.046 A 
ATOM     11  H   UNL     1      -2.006   3.863   2.013  1.00  0.00     0.167 HD
ATOM     12  C   UNL     1      -0.287   5.557  -0.043  1.00  0.00     0.008 A 
ATOM     13  C   UNL     1      -2.499   4.709  -0.661  1.00  0.00     0.030 A 
ATOM     14  C   UNL     1      -0.187   6.174  -1.307  1.00  0.00     0.057 A 
ATOM     15  C   UNL     1      -2.372   5.333  -1.909  1.00  0.00     0.049 A 
ATOM     16  C   UNL     1      -1.230   6.061  -2.238  1.00  0.00     0.130 A 
BRANCH   8  17
ATOM     17  C   UNL     1       0.430   4.143   3.294  1.00  0.00     0.227 C 
ATOM     18  O   UNL     1       0.508   4.882   4.269  1.00  0.00    -0.285 OA
BRANCH  17  19
ATOM     19  C   UNL     1       0.828   2.685   3.386  1.00  0.00     0.113 A 
ATOM     20  C   UNL     1       0.979   0.445   2.488  1.00  0.00    -0.044 A 
ATOM     21  C   UNL     1       1.556   0.054   3.696  1.00  0.00     0.024 A 
ATOM     22  C   UNL     1       0.614   1.789   2.336  1.00  0.00     0.036 A 
ATOM     23  C   UNL     1       1.747   1.006   4.685  1.00  0.00     0.112 A 
ATOM     24  N   UNL     1       1.393   2.301   4.559  1.00  0.00    -0.253 NA
BRANCH  20  25
ATOM     25  C   UNL     1       0.693  -0.571   1.409  1.00  0.00     0.032 C 
ATOM     26  C   UNL     1       1.235  -0.189   0.038  1.00  0.00     0.009 C 
ENDBRANCH  20  25
ENDBRANCH  17  19
ENDBRANCH   8  17
BRANCH  16  27
ATOM     27  O   UNL     1      -0.994   6.716  -3.414  1.00  0.00    -0.406 OA
BRANCH  27  28
ATOM     28  C   UNL     1      -1.999   6.668  -4.412  1.00  0.00     0.573 C 
ATOM     29  F   UNL     1      -2.218   5.399  -4.817  1.00  0.00    -0.132 F 
ATOM     30  F   UNL     1      -3.150   7.216  -3.975  1.00  0.00    -0.132 F 
ATOM     31  F   UNL     1      -1.573   7.379  -5.481  1.00  0.00    -0.132 F 
ENDBRANCH  27  28
ENDBRANCH  16  27
ENDBRANCH   6   7
ENDBRANCH   3   6
ENDBRANCH   1   2
BRANCH   1  32
ATOM     32  C   UNL     1      -1.214   8.506   1.845  1.00  0.00     0.042 C 
BRANCH  32  33
ATOM     33  C   UNL     1      -1.724   9.254   3.074  1.00  0.00     0.118 C 
BRANCH  33  34
ATOM     34  N   UNL     1      -1.758  10.697   2.881  1.00  0.00    -0.352 N 
ATOM     35  C   UNL     1      -2.794  11.592   2.982  1.00  0.00     0.251 C 
ATOM     36  H   UNL     1      -0.893  11.098   2.638  1.00  0.00     0.163 HD
ATOM     37  O   UNL     1      -2.616  12.747   2.602  1.00  0.00    -0.269 OA
BRANCH  35  38
ATOM     38  C   UNL     1      -4.117  11.195   3.522  1.00  0.00     0.039 A 
ATOM     39  C   UNL     1      -5.266  11.742   2.937  1.00  0.00     0.014 A 
ATOM     40  C   UNL     1      -4.243  10.355   4.632  1.00  0.00     0.014 A 
ATOM     41  C   UNL     1      -6.532  11.407   3.425  1.00  0.00     0.010 A 
ATOM     42  C   UNL     1      -5.508   9.975   5.083  1.00  0.00     0.010 A 
ATOM     43  C   UNL     1      -6.665  10.501   4.488  1.00  0.00    -0.014 A 
BRANCH  43  44
ATOM     44  C   UNL     1      -8.004  10.095   4.989  1.00  0.00     0.031 A 
ATOM     45  C   UNL     1      -8.448  10.482   6.373  1.00  0.00     0.074 A 
ATOM     46  C   UNL     1      -8.794   9.319   4.224  1.00  0.00     0.049 A 
ATOM     47  N   UNL     1      -9.541  10.151   7.012  1.00  0.00    -0.248 NA
ATOM     48  C   UNL     1      -7.531  11.331   7.148  1.00  0.00     0.031 C 
ATOM     49  C   UNL     1      -8.460   8.834   2.884  1.00  0.00     0.029 A 
ATOM     50  N   UNL     1     -10.034   8.786   4.472  1.00  0.00    -0.354 N 
ATOM     51  C   UNL     1      -9.434  10.728   8.271  1.00  0.00     0.074 A 
ATOM     52  C   UNL     1      -8.154  11.405   8.315  1.00  0.00     0.031 C 
ATOM     53  C   UNL     1      -9.472   8.080   2.426  1.00  0.00     0.029 A 
ATOM     54  C   UNL     1     -10.513   8.006   3.447  1.00  0.00     0.049 A 
ATOM     55  H   UNL     1     -10.534   8.947   5.305  1.00  0.00     0.167 HD
ATOM     56  C   UNL     1     -10.322  10.707   9.294  1.00  0.00     0.037 A 
ATOM     57  C   UNL     1     -11.658   7.303   3.342  1.00  0.00     0.037 A 
ATOM     58  C   UNL     1     -11.608  10.061   9.242  1.00  0.00     0.049 A 
ATOM     59  C   UNL     1     -12.651   7.332   4.467  1.00  0.00     0.074 A 
ATOM     60  C   UNL     1     -12.602  10.037  10.205  1.00  0.00     0.029 A 
ATOM     61  N   UNL     1     -12.078   9.325   8.164  1.00  0.00    -0.354 N 
ATOM     62  N   UNL     1     -12.555   7.925   5.633  1.00  0.00    -0.248 NA
ATOM     63  C   UNL     1     -13.910   6.604   4.262  1.00  0.00     0.031 C 
ATOM     64  C   UNL     1     -13.666   9.269   9.717  1.00  0.00     0.029 A 
ATOM     65  C   UNL     1     -13.345   8.836   8.440  1.00  0.00     0.049 A 
ATOM     66  H   UNL     1     -11.585   9.174   7.326  1.00  0.00     0.167 HD
ATOM     67  C   UNL     1     -13.745   7.653   6.296  1.00  0.00     0.074 A 
ATOM     68  C   UNL     1     -14.550   6.850   5.398  1.00  0.00     0.031 C 
ATOM     69  C   UNL     1     -14.133   8.035   7.538  1.00  0.00     0.037 A 
BRANCH  56  70
ATOM     70  C   UNL     1      -9.917  11.405  10.562  1.00  0.00     0.058 A 
ATOM     71  C   UNL     1      -9.888  12.806  10.650  1.00  0.00     0.135 A 
ATOM     72  C   UNL     1      -9.535  10.668  11.693  1.00  0.00     0.135 A 
ATOM     73  F   UNL     1     -10.231  13.557   9.592  1.00  0.00    -0.206 F 
ATOM     74  C   UNL     1      -9.449  13.452  11.801  1.00  0.00     0.059 A 
ATOM     75  C   UNL     1      -9.114  11.293  12.862  1.00  0.00     0.059 A 
ATOM     76  F   UNL     1      -9.549   9.326  11.661  1.00  0.00    -0.206 F 
ATOM     77  C   UNL     1      -9.051  12.686  12.898  1.00  0.00     0.060 A 
BRANCH  77  78
ATOM     78  S   UNL     1      -8.442  13.528  14.375  1.00  0.00     0.124 S 
ATOM     79  O   UNL     1      -7.059  13.806  13.999  1.00  0.00    -0.237 OA
ATOM     80  O   UNL     1      -9.319  14.691  14.464  1.00  0.00    -0.237 OA
ATOM     81  O   UNL     1      -8.621  12.532  15.427  1.00  0.00    -0.744 OA
ENDBRANCH  77  78
ENDBRANCH  56  70
BRANCH  57  82
ATOM     82  C   UNL     1     -11.922   6.535   2.100  1.00  0.00     0.058 A 
ATOM     83  C   UNL     1     -12.795   7.030   1.123  1.00  0.00     0.135 A 
ATOM     84  C   UNL     1     -11.251   5.332   1.837  1.00  0.00     0.135 A 
ATOM     85  F   UNL     1     -13.461   8.175   1.336  1.00  0.00    -0.206 F 
ATOM     86  C   UNL     1     -12.989   6.363  -0.082  1.00  0.00     0.059 A 
ATOM     87  C   UNL     1     -11.418   4.654   0.634  1.00  0.00     0.059 A 
ATOM     88  F   UNL     1     -10.393   4.829   2.738  1.00  0.00    -0.206 F 
ATOM     89  C   UNL     1     -12.289   5.179  -0.321  1.00  0.00     0.060 A 
BRANCH  89  90
ATOM     90  S   UNL     1     -12.460   4.373  -1.928  1.00  0.00     0.124 S 
ATOM     91  O   UNL     1     -13.732   3.678  -1.775  1.00  0.00    -0.237 OA
ATOM     92  O   UNL     1     -12.457   5.507  -2.847  1.00  0.00    -0.237 OA
ATOM     93  O   UNL     1     -11.276   3.520  -1.999  1.00  0.00    -0.744 OA
ENDBRANCH  89  90
ENDBRANCH  57  82
BRANCH  69  94
ATOM     94  C   UNL     1     -15.495   7.599   7.994  1.00  0.00     0.058 A 
ATOM     95  C   UNL     1     -15.733   6.290   8.439  1.00  0.00     0.135 A 
ATOM     96  C   UNL     1     -16.562   8.511   8.028  1.00  0.00     0.135 A 
ATOM     97  F   UNL     1     -14.746   5.380   8.418  1.00  0.00    -0.206 F 
ATOM     98  C   UNL     1     -16.988   5.893   8.888  1.00  0.00     0.059 A 
ATOM     99  C   UNL     1     -17.822   8.140   8.489  1.00  0.00     0.059 A 
ATOM    100  F   UNL     1     -16.383   9.776   7.619  1.00  0.00    -0.206 F 
ATOM    101  C   UNL     1     -18.028   6.825   8.907  1.00  0.00     0.060 A 
BRANCH 101 102
ATOM    102  S   UNL     1     -19.647   6.313   9.521  1.00  0.00     0.124 S 
ATOM    103  O   UNL     1     -20.193   5.618   8.360  1.00  0.00    -0.237 OA
ATOM    104  O   UNL     1     -19.303   5.470  10.661  1.00  0.00    -0.237 OA
ATOM    105  O   UNL     1     -20.294   7.578   9.859  1.00  0.00    -0.744 OA
ENDBRANCH 101 102
ENDBRANCH  69  94
ENDBRANCH  43  44
ENDBRANCH  35  38
ENDBRANCH  33  34
ENDBRANCH  32  33
ENDBRANCH   1  32
TORSDOF 19
