REMARK SMILES O=C(NCCCNC(=O)[C@@H]1CCCCC[C@H]1NC(=O)N1CCS(=O)(=O)CC1)c1ccc(-c2c3nc(c(-c4c(F)cc(S(=O)(=O)[O-])cc4F)c4ccc([nH]4)c(-c4c(F)cc(S(=O)(=O)[O-])cc4F)c4nc(c(-c5c(F)cc(S(=O)(=O)[O-])cc5F)c5ccc2[nH]5)C=C4)C=C3)cc1
REMARK SMILES IDX 5 1 4 2 3 3 1 4 2 5 28 7 29 8 93 9 30 10 92 11 31 12 32 13
REMARK SMILES IDX 33 14 86 15 34 16 91 17 85 18 87 19 35 20 90 21 84 22 83 23
REMARK SMILES IDX 36 25 70 26 49 27 69 28 50 29 53 30 68 31 88 32 51 33 52 34
REMARK SMILES IDX 67 36 89 37 54 38 37 39 38 40 47 41 39 42 40 43 46 44 48 45
REMARK SMILES IDX 41 46 42 47 43 48 44 49 45 50 71 51 72 52 81 53 73 54 74 55
REMARK SMILES IDX 80 56 82 57 75 58 76 59 77 60 78 61 79 62 55 63 56 64 65 65
REMARK SMILES IDX 57 66 58 67 64 68 66 69 59 70 60 71 61 72 62 73 63 74 6 75
REMARK SMILES IDX 7 76 8 77 9 79 10 80 11 81 12 82 13 83 16 85 15 86 14 87
REMARK SMILES IDX 17 89 18 90 19 92 20 93 21 94 27 95 22 96 26 97 23 98 24 99
REMARK SMILES IDX 25 100
REMARK H PARENT 3 6 87 24 53 35 7 78 17 91
REMARK Flexibility Score: 90.00
ROOT
ATOM      1  C   UNL     1       4.220  -2.450  -0.750  1.00  0.00     0.042 C 
ENDROOT
BRANCH   1   2
ATOM      2  C   UNL     1       3.966  -1.155  -1.511  1.00  0.00     0.118 C 
BRANCH   2   3
ATOM      3  N   UNL     1       2.632  -0.641  -1.244  1.00  0.00    -0.352 N 
ATOM      4  O   UNL     1       0.957   0.329  -0.151  1.00  0.00    -0.269 OA
ATOM      5  C   UNL     1       2.167   0.325  -0.381  1.00  0.00     0.251 C 
ATOM      6  H   UNL     1       1.927  -1.064  -1.785  1.00  0.00     0.163 HD
BRANCH   5   7
ATOM      7  C   UNL     1       3.037   1.339   0.281  1.00  0.00     0.039 A 
ATOM      8  C   UNL     1       4.217   1.821  -0.285  1.00  0.00     0.014 A 
ATOM      9  C   UNL     1       2.583   1.929   1.472  1.00  0.00     0.014 A 
ATOM     10  C   UNL     1       4.987   2.781   0.381  1.00  0.00     0.010 A 
ATOM     11  C   UNL     1       3.304   2.967   2.086  1.00  0.00     0.010 A 
ATOM     12  C   UNL     1       4.528   3.395   1.556  1.00  0.00    -0.014 A 
BRANCH  12  13
ATOM     13  C   UNL     1       5.300   4.523   2.159  1.00  0.00     0.031 A 
ATOM     14  C   UNL     1       5.858   4.436   3.556  1.00  0.00     0.074 A 
ATOM     15  C   UNL     1       5.507   5.644   1.434  1.00  0.00     0.049 A 
ATOM     16  N   UNL     1       6.564   5.320   4.220  1.00  0.00    -0.248 NA
ATOM     17  C   UNL     1       5.573   3.210   4.313  1.00  0.00     0.031 C 
ATOM     18  C   UNL     1       5.001   5.875   0.078  1.00  0.00     0.029 A 
ATOM     19  N   UNL     1       6.208   6.791   1.720  1.00  0.00    -0.354 N 
ATOM     20  C   UNL     1       6.789   4.766   5.477  1.00  0.00     0.074 A 
ATOM     21  C   UNL     1       6.111   3.487   5.493  1.00  0.00     0.031 C 
ATOM     22  C   UNL     1       5.457   7.054  -0.370  1.00  0.00     0.029 A 
ATOM     23  C   UNL     1       6.234   7.697   0.684  1.00  0.00     0.049 A 
ATOM     24  H   UNL     1       6.651   6.950   2.585  1.00  0.00     0.167 HD
ATOM     25  C   UNL     1       7.504   5.269   6.515  1.00  0.00     0.037 A 
ATOM     26  C   UNL     1       6.809   8.912   0.587  1.00  0.00     0.037 A 
ATOM     27  C   UNL     1       8.198   6.535   6.486  1.00  0.00     0.049 A 
ATOM     28  C   UNL     1       7.586   9.454   1.754  1.00  0.00     0.074 A 
ATOM     29  C   UNL     1       8.989   7.105   7.469  1.00  0.00     0.029 A 
ATOM     30  N   UNL     1       8.179   7.431   5.425  1.00  0.00    -0.354 N 
ATOM     31  N   UNL     1       7.823   8.897   2.917  1.00  0.00    -0.248 NA
ATOM     32  C   UNL     1       8.174  10.791   1.596  1.00  0.00     0.031 C 
ATOM     33  C   UNL     1       9.401   8.367   7.027  1.00  0.00     0.029 A 
ATOM     34  C   UNL     1       8.923   8.559   5.741  1.00  0.00     0.049 A 
ATOM     35  H   UNL     1       7.708   7.286   4.573  1.00  0.00     0.167 HD
ATOM     36  C   UNL     1       8.617   9.798   3.616  1.00  0.00     0.074 A 
ATOM     37  C   UNL     1       8.824  10.935   2.743  1.00  0.00     0.031 C 
ATOM     38  C   UNL     1       9.133   9.687   4.866  1.00  0.00     0.037 A 
BRANCH  25  39
ATOM     39  C   UNL     1       7.550   4.461   7.787  1.00  0.00     0.058 A 
ATOM     40  C   UNL     1       8.232   3.236   7.871  1.00  0.00     0.135 A 
ATOM     41  C   UNL     1       6.918   4.932   8.951  1.00  0.00     0.135 A 
ATOM     42  F   UNL     1       8.855   2.733   6.793  1.00  0.00    -0.206 F 
ATOM     43  C   UNL     1       8.243   2.485   9.044  1.00  0.00     0.059 A 
ATOM     44  C   UNL     1       6.945   4.214  10.144  1.00  0.00     0.059 A 
ATOM     45  F   UNL     1       6.261   6.103   8.938  1.00  0.00    -0.206 F 
ATOM     46  C   UNL     1       7.591   2.980  10.174  1.00  0.00     0.060 A 
BRANCH  46  47
ATOM     47  S   UNL     1       7.596   1.985  11.681  1.00  0.00     0.124 S 
ATOM     48  O   UNL     1       6.670   0.913  11.326  1.00  0.00    -0.237 OA
ATOM     49  O   UNL     1       8.998   1.597  11.796  1.00  0.00    -0.237 OA
ATOM     50  O   UNL     1       7.119   2.911  12.704  1.00  0.00    -0.744 OA
ENDBRANCH  46  47
ENDBRANCH  25  39
BRANCH  26  51
ATOM     51  C   UNL     1       6.691   9.687  -0.679  1.00  0.00     0.058 A 
ATOM     52  C   UNL     1       7.806   9.890  -1.507  1.00  0.00     0.135 A 
ATOM     53  C   UNL     1       5.461  10.214  -1.102  1.00  0.00     0.135 A 
ATOM     54  F   UNL     1       9.007   9.416  -1.143  1.00  0.00    -0.206 F 
ATOM     55  C   UNL     1       7.708  10.592  -2.704  1.00  0.00     0.059 A 
ATOM     56  C   UNL     1       5.331  10.894  -2.309  1.00  0.00     0.059 A 
ATOM     57  F   UNL     1       4.361  10.037  -0.354  1.00  0.00    -0.206 F 
ATOM     58  C   UNL     1       6.463  11.084  -3.101  1.00  0.00     0.060 A 
BRANCH  58  59
ATOM     59  S   UNL     1       6.334  11.934  -4.689  1.00  0.00     0.124 S 
ATOM     60  O   UNL     1       7.020  13.189  -4.408  1.00  0.00    -0.237 OA
ATOM     61  O   UNL     1       7.028  11.014  -5.585  1.00  0.00    -0.237 OA
ATOM     62  O   UNL     1       4.893  12.035  -4.901  1.00  0.00    -0.744 OA
ENDBRANCH  58  59
ENDBRANCH  26  51
BRANCH  38  63
ATOM     63  C   UNL     1      10.022  10.802   5.350  1.00  0.00     0.058 A 
ATOM     64  C   UNL     1       9.520  12.073   5.673  1.00  0.00     0.135 A 
ATOM     65  C   UNL     1      11.399  10.581   5.525  1.00  0.00     0.135 A 
ATOM     66  F   UNL     1       8.214  12.344   5.518  1.00  0.00    -0.206 F 
ATOM     67  C   UNL     1      10.355  13.094   6.120  1.00  0.00     0.059 A 
ATOM     68  C   UNL     1      12.247  11.577   6.001  1.00  0.00     0.059 A 
ATOM     69  F   UNL     1      11.933   9.383   5.241  1.00  0.00    -0.206 F 
ATOM     70  C   UNL     1      11.718  12.835   6.282  1.00  0.00     0.060 A 
BRANCH  70  71
ATOM     71  S   UNL     1      12.787  14.160   6.883  1.00  0.00     0.124 S 
ATOM     72  O   UNL     1      12.868  15.027   5.713  1.00  0.00    -0.237 OA
ATOM     73  O   UNL     1      12.027  14.688   8.012  1.00  0.00    -0.237 OA
ATOM     74  O   UNL     1      14.023  13.467   7.237  1.00  0.00    -0.744 OA
ENDBRANCH  70  71
ENDBRANCH  38  63
ENDBRANCH  12  13
ENDBRANCH   5   7
ENDBRANCH   2   3
ENDBRANCH   1   2
BRANCH   1  75
ATOM     75  C   UNL     1       3.773  -3.726  -1.449  1.00  0.00     0.117 C 
BRANCH  75  76
ATOM     76  N   UNL     1       4.880  -4.311  -2.183  1.00  0.00    -0.356 N 
ATOM     77  C   UNL     1       5.973  -5.029  -1.834  1.00  0.00     0.225 C 
ATOM     78  H   UNL     1       4.824  -4.149  -3.152  1.00  0.00     0.163 HD
ATOM     79  O   UNL     1       6.860  -5.042  -2.703  1.00  0.00    -0.275 OA
BRANCH  77  80
ATOM     80  C   UNL     1       6.172  -5.913  -0.580  1.00  0.00     0.101 C 
BRANCH  80  81
ATOM     81  C   UNL     1       6.185  -7.358  -1.140  1.00  0.00     0.015 C 
BRANCH  81  82
ATOM     82  C   UNL     1       6.222  -8.510  -0.146  1.00  0.00     0.001 C 
BRANCH  82  83
ATOM     83  C   UNL     1       4.834  -8.920   0.328  1.00  0.00     0.000 CG0
ATOM     84  G   UNL     1       4.117  -7.931   1.239  1.00  0.00     0.000 G0
ENDBRANCH  82  83
ENDBRANCH  81  82
ENDBRANCH  80  81
BRANCH  80  85
ATOM     85  C   UNL     1       5.331  -5.666   0.695  1.00  0.00     0.096 C 
BRANCH  85  86
ATOM     86  C   UNL     1       4.022  -6.487   0.731  1.00  0.00     0.026 C 
BRANCH  86  87
ATOM     87  C   UNL     1       4.117  -7.931   1.239  1.00  0.00     0.002 CG0
ATOM     88  G   UNL     1       4.834  -8.920   0.328  1.00  0.00     0.000 G0
ENDBRANCH  86  87
ENDBRANCH  85  86
BRANCH  85  89
ATOM     89  N   UNL     1       6.110  -5.940   1.924  1.00  0.00    -0.334 N 
ATOM     90  C   UNL     1       6.731  -5.248   2.893  1.00  0.00     0.317 C 
ATOM     91  H   UNL     1       6.197  -6.909   2.075  1.00  0.00     0.165 HD
ATOM     92  O   UNL     1       7.585  -5.885   3.516  1.00  0.00    -0.249 OA
ATOM     93  N   UNL     1       6.471  -3.937   3.162  1.00  0.00    -0.323 N 
ATOM     94  C   UNL     1       5.176  -3.274   3.041  1.00  0.00     0.137 C 
ATOM     95  C   UNL     1       7.444  -3.200   3.988  1.00  0.00     0.137 C 
ATOM     96  C   UNL     1       5.308  -1.964   2.304  1.00  0.00     0.158 C 
ATOM     97  C   UNL     1       7.864  -1.906   3.324  1.00  0.00     0.158 C 
ATOM     98  S   UNL     1       6.448  -0.865   3.075  1.00  0.00     0.153 S 
ATOM     99  O   UNL     1       6.793   0.134   2.079  1.00  0.00    -0.229 OA
ATOM    100  O   UNL     1       5.894  -0.481   4.356  1.00  0.00    -0.229 OA
ENDBRANCH  85  89
ENDBRANCH  80  85
ENDBRANCH  77  80
ENDBRANCH  75  76
ENDBRANCH   1  75
TORSDOF 14
