REMARK SMILES O=C(CCn1cc(/C=C2/[NH+]=C(S)N(c3ccccc3)C2=O)c(-c2ccc(Br)cc2)n1)NCCCNC(=O)c1ccc(-c2c3nc(c(-c4c(F)cc(S(=O)(=O)[O-])cc4F)c4ccc([nH]4)c(-c4c(F)cc(S(=O)(=O)[O-])cc4F)c4nc(c(-c5c(F)cc(S(=O)(=O)[O-])cc5F)c5ccc2[nH]5)C=C4)C=C3)cc1
REMARK SMILES IDX 32 1 31 2 1 3 2 4 3 6 4 7 5 8 6 9 30 10 7 11 22 12 8 13 9 14
REMARK SMILES IDX 10 15 20 16 11 17 13 19 21 20 12 21 14 23 15 24 19 25 16 26
REMARK SMILES IDX 18 27 17 28 23 29 24 30 29 31 25 32 28 33 26 34 27 35 33 36
REMARK SMILES IDX 34 37 35 38 36 39 37 41 38 42 39 43 103 44 40 45 102 46
REMARK SMILES IDX 41 47 42 48 43 49 96 50 44 51 101 52 95 53 97 54 45 55
REMARK SMILES IDX 100 56 94 57 93 58 46 60 80 61 59 62 79 63 60 64 63 65 78 66
REMARK SMILES IDX 98 67 61 68 62 69 77 71 99 72 64 73 47 74 48 75 57 76 49 77
REMARK SMILES IDX 50 78 56 79 58 80 51 81 52 82 53 83 54 84 55 85 81 86 82 87
REMARK SMILES IDX 91 88 83 89 84 90 90 91 92 92 85 93 86 94 87 95 88 96 89 97
REMARK SMILES IDX 65 98 66 99 75 100 67 101 68 102 74 103 76 104 69 105 70 106
REMARK SMILES IDX 71 107 72 108 73 109
REMARK H PARENT 31 5 10 18 12 22 35 40 97 59 63 70
REMARK Flexibility Score: inf
ROOT
ATOM      1  C   UNL     1       1.622   1.471   1.935  1.00  0.00     0.117 C 
ENDROOT
BRANCH   1   2
ATOM      2  N   UNL     1       2.475   0.755   0.994  1.00  0.00    -0.356 N 
ATOM      3  O   UNL     1       0.908   0.429  -0.649  1.00  0.00    -0.275 OA
ATOM      4  C   UNL     1       2.064   0.340  -0.249  1.00  0.00     0.221 C 
ATOM      5  H   UNL     1       3.400   0.557   1.266  1.00  0.00     0.163 HD
BRANCH   4   6
ATOM      6  C   UNL     1       3.181  -0.197  -1.118  1.00  0.00     0.123 C 
BRANCH   6   7
ATOM      7  C   UNL     1       4.030   0.942  -1.688  1.00  0.00     0.154 C 
BRANCH   7   8
ATOM      8  N   UNL     1       4.883   1.635  -0.731  1.00  0.00    -0.271 N 
ATOM      9  C   UNL     1       4.983   2.990  -0.534  1.00  0.00     0.117 A 
ATOM     10  N   UNL     1       5.652   0.924   0.117  1.00  0.00    -0.172 NA
ATOM     11  C   UNL     1       5.948   3.170   0.434  1.00  0.00     0.025 A 
ATOM     12  C   UNL     1       6.362   1.852   0.780  1.00  0.00     0.100 A 
BRANCH  11  13
ATOM     13  C   UNL     1       6.280   4.389   1.114  1.00  0.00     0.072 C 
ATOM     14  C   UNL     1       7.457   4.773   1.649  1.00  0.00     0.217 C 
ATOM     15  N   UNL     1       7.506   5.630   2.722  1.00  0.00    -0.228 N 
ATOM     16  C   UNL     1       8.837   4.231   1.433  1.00  0.00     0.386 C 
ATOM     17  C   UNL     1       8.673   5.410   3.254  1.00  0.00     0.321 C 
ATOM     18  H   UNL     1       6.816   6.266   3.020  1.00  0.00     0.313 HD
ATOM     19  N   UNL     1       9.503   4.537   2.600  1.00  0.00    -0.149 N 
ATOM     20  O   UNL     1       9.219   3.741   0.371  1.00  0.00    -0.236 OA
BRANCH  17  21
ATOM     21  S   UNL     1       9.088   6.322   4.672  1.00  0.00    -0.055 SA
ATOM     22  H   UNL     1       8.025   7.083   5.048  1.00  0.00     0.116 HD
ENDBRANCH  17  21
BRANCH  19  23
ATOM     23  C   UNL     1      10.778   3.988   2.979  1.00  0.00     0.137 A 
ATOM     24  C   UNL     1      11.187   3.885   4.323  1.00  0.00     0.052 A 
ATOM     25  C   UNL     1      11.633   3.404   2.026  1.00  0.00     0.052 A 
ATOM     26  C   UNL     1      12.391   3.268   4.693  1.00  0.00     0.004 A 
ATOM     27  C   UNL     1      12.817   2.748   2.395  1.00  0.00     0.004 A 
ATOM     28  C   UNL     1      13.193   2.681   3.729  1.00  0.00     0.000 A 
ENDBRANCH  19  23
ENDBRANCH  11  13
BRANCH  12  29
ATOM     29  C   UNL     1       7.354   1.505   1.783  1.00  0.00     0.003 A 
ATOM     30  C   UNL     1       7.140   1.828   3.127  1.00  0.00     0.011 A 
ATOM     31  C   UNL     1       8.600   1.015   1.382  1.00  0.00     0.011 A 
ATOM     32  C   UNL     1       8.147   1.607   4.068  1.00  0.00     0.016 A 
ATOM     33  C   UNL     1       9.597   0.769   2.332  1.00  0.00     0.016 A 
ATOM     34  C   UNL     1       9.342   1.008   3.679  1.00  0.00     0.018 A 
ATOM     35  Br  UNL     1      10.582   0.431   4.986  1.00  0.00    -0.051 Br
ENDBRANCH  12  29
ENDBRANCH   7   8
ENDBRANCH   6   7
ENDBRANCH   4   6
ENDBRANCH   1   2
BRANCH   1  36
ATOM     36  C   UNL     1       1.400   0.741   3.263  1.00  0.00     0.042 C 
BRANCH  36  37
ATOM     37  C   UNL     1       2.706   0.402   3.946  1.00  0.00     0.118 C 
BRANCH  37  38
ATOM     38  N   UNL     1       3.284   1.372   4.837  1.00  0.00    -0.352 N 
ATOM     39  C   UNL     1       4.439   1.233   5.581  1.00  0.00     0.251 C 
ATOM     40  H   UNL     1       2.805   2.227   4.926  1.00  0.00     0.163 HD
ATOM     41  O   UNL     1       4.752   2.159   6.331  1.00  0.00    -0.269 OA
BRANCH  39  42
ATOM     42  C   UNL     1       5.350   0.044   5.457  1.00  0.00     0.039 A 
ATOM     43  C   UNL     1       6.436  -0.036   6.338  1.00  0.00     0.014 A 
ATOM     44  C   UNL     1       5.272  -0.907   4.434  1.00  0.00     0.014 A 
ATOM     45  C   UNL     1       7.470  -0.939   6.083  1.00  0.00     0.010 A 
ATOM     46  C   UNL     1       6.270  -1.820   4.196  1.00  0.00     0.010 A 
ATOM     47  C   UNL     1       7.418  -1.761   4.948  1.00  0.00    -0.014 A 
BRANCH  47  48
ATOM     48  C   UNL     1       8.505  -2.668   4.599  1.00  0.00     0.031 A 
ATOM     49  C   UNL     1       8.818  -3.581   5.697  1.00  0.00     0.074 A 
ATOM     50  C   UNL     1       9.057  -2.781   3.370  1.00  0.00     0.049 A 
ATOM     51  N   UNL     1       9.890  -3.602   6.408  1.00  0.00    -0.248 NA
ATOM     52  C   UNL     1       7.730  -4.442   6.191  1.00  0.00     0.031 C 
ATOM     53  C   UNL     1       8.581  -2.078   2.184  1.00  0.00     0.029 A 
ATOM     54  N   UNL     1      10.069  -3.563   2.868  1.00  0.00    -0.354 N 
ATOM     55  C   UNL     1       9.732  -4.716   7.207  1.00  0.00     0.074 A 
ATOM     56  C   UNL     1       8.322  -5.019   7.236  1.00  0.00     0.031 C 
ATOM     57  C   UNL     1       9.235  -2.498   1.093  1.00  0.00     0.029 A 
ATOM     58  C   UNL     1      10.136  -3.561   1.472  1.00  0.00     0.049 A 
ATOM     59  H   UNL     1      10.687  -4.077   3.437  1.00  0.00     0.167 HD
ATOM     60  C   UNL     1      10.792  -5.532   7.430  1.00  0.00     0.037 A 
ATOM     61  C   UNL     1      10.782  -4.404   0.624  1.00  0.00     0.037 A 
ATOM     62  C   UNL     1      12.050  -4.881   7.163  1.00  0.00     0.049 A 
ATOM     63  C   UNL     1      11.882  -5.047   1.387  1.00  0.00     0.074 A 
ATOM     64  C   UNL     1      12.591  -3.678   7.576  1.00  0.00     0.029 A 
ATOM     65  N   UNL     1      12.769  -5.273   6.058  1.00  0.00    -0.354 N 
ATOM     66  N   UNL     1      12.959  -4.423   1.787  1.00  0.00    -0.248 NA
ATOM     67  C   UNL     1      11.587  -6.273   2.116  1.00  0.00     0.031 C 
ATOM     68  C   UNL     1      13.343  -3.199   6.473  1.00  0.00     0.029 A 
ATOM     69  C   UNL     1      13.323  -4.163   5.462  1.00  0.00     0.049 A 
ATOM     70  H   UNL     1      12.872  -6.200   5.744  1.00  0.00     0.167 HD
ATOM     71  C   UNL     1      13.164  -4.873   3.083  1.00  0.00     0.074 A 
ATOM     72  C   UNL     1      12.389  -6.106   3.171  1.00  0.00     0.031 C 
ATOM     73  C   UNL     1      13.684  -4.058   4.052  1.00  0.00     0.037 A 
BRANCH  60  74
ATOM     74  C   UNL     1      10.602  -7.011   7.496  1.00  0.00     0.058 A 
ATOM     75  C   UNL     1      11.492  -7.803   8.227  1.00  0.00     0.135 A 
ATOM     76  C   UNL     1       9.658  -7.694   6.693  1.00  0.00     0.135 A 
ATOM     77  F   UNL     1      12.462  -7.234   8.960  1.00  0.00    -0.206 F 
ATOM     78  C   UNL     1      11.437  -9.194   8.178  1.00  0.00     0.059 A 
ATOM     79  C   UNL     1       9.535  -9.072   6.687  1.00  0.00     0.059 A 
ATOM     80  F   UNL     1       8.872  -7.047   5.820  1.00  0.00    -0.206 F 
ATOM     81  C   UNL     1      10.452  -9.815   7.408  1.00  0.00     0.060 A 
BRANCH  81  82
ATOM     82  S   UNL     1      10.413 -11.609   7.293  1.00  0.00     0.124 S 
ATOM     83  O   UNL     1      11.526 -11.858   6.384  1.00  0.00    -0.237 OA
ATOM     84  O   UNL     1      10.614 -12.010   8.681  1.00  0.00    -0.237 OA
ATOM     85  O   UNL     1       9.082 -11.879   6.756  1.00  0.00    -0.744 OA
ENDBRANCH  81  82
ENDBRANCH  60  74
BRANCH  61  86
ATOM     86  C   UNL     1      10.323  -4.796  -0.750  1.00  0.00     0.058 A 
ATOM     87  C   UNL     1      11.135  -5.501  -1.655  1.00  0.00     0.135 A 
ATOM     88  C   UNL     1       8.972  -4.649  -1.155  1.00  0.00     0.135 A 
ATOM     89  F   UNL     1      12.419  -5.749  -1.357  1.00  0.00    -0.206 F 
ATOM     90  C   UNL     1      10.637  -6.029  -2.862  1.00  0.00     0.059 A 
ATOM     91  C   UNL     1       8.470  -5.114  -2.365  1.00  0.00     0.059 A 
ATOM     92  F   UNL     1       8.042  -4.131  -0.342  1.00  0.00    -0.206 F 
ATOM     93  C   UNL     1       9.298  -5.836  -3.203  1.00  0.00     0.060 A 
BRANCH  93  94
ATOM     94  S   UNL     1       8.584  -6.658  -4.648  1.00  0.00     0.124 S 
ATOM     95  O   UNL     1       9.273  -5.999  -5.751  1.00  0.00    -0.237 OA
ATOM     96  O   UNL     1       8.940  -8.053  -4.410  1.00  0.00    -0.237 OA
ATOM     97  O   UNL     1       7.157  -6.359  -4.540  1.00  0.00    -0.744 OA
ENDBRANCH  93  94
ENDBRANCH  61  86
BRANCH  73  98
ATOM     98  C   UNL     1      14.514  -2.842   3.657  1.00  0.00     0.058 A 
ATOM     99  C   UNL     1      14.148  -1.837   2.742  1.00  0.00     0.135 A 
ATOM    100  C   UNL     1      15.719  -2.627   4.362  1.00  0.00     0.135 A 
ATOM    101  F   UNL     1      12.975  -1.871   2.092  1.00  0.00    -0.206 F 
ATOM    102  C   UNL     1      14.957  -0.715   2.510  1.00  0.00     0.059 A 
ATOM    103  C   UNL     1      16.499  -1.484   4.199  1.00  0.00     0.059 A 
ATOM    104  F   UNL     1      16.139  -3.521   5.273  1.00  0.00    -0.206 F 
ATOM    105  C   UNL     1      16.117  -0.533   3.262  1.00  0.00     0.060 A 
BRANCH 105 106
ATOM    106  S   UNL     1      17.154   0.925   2.999  1.00  0.00     0.124 S 
ATOM    107  O   UNL     1      17.117   1.093   1.550  1.00  0.00    -0.237 OA
ATOM    108  O   UNL     1      16.453   1.945   3.771  1.00  0.00    -0.237 OA
ATOM    109  O   UNL     1      18.448   0.522   3.544  1.00  0.00    -0.744 OA
ENDBRANCH 105 106
ENDBRANCH  73  98
ENDBRANCH  47  48
ENDBRANCH  39  42
ENDBRANCH  37  38
ENDBRANCH  36  37
ENDBRANCH   1  36
TORSDOF 19
