REMARK SMILES O=C(NCCCNC(=O)c1cc(-c2ccc(F)c(C(F)(F)F)c2)cnc1O)c1ccc(-c2c3nc(c(-c4c(F)cc(S(=O)(=O)[O-])cc4F)c4ccc([nH]4)c(-c4c(F)cc(S(=O)(=O)[O-])cc4F)c4nc(c(-c5c(F)cc(S(=O)(=O)[O-])cc5F)c5ccc2[nH]5)C=C4)C=C3)cc1
REMARK SMILES IDX 4 1 3 2 1 3 2 4 28 6 29 7 93 8 30 9 92 10 31 11 32 12 33 13
REMARK SMILES IDX 86 14 34 15 91 16 85 17 87 18 35 19 90 20 84 21 83 22 36 24
REMARK SMILES IDX 70 25 49 26 69 27 50 28 53 29 68 30 88 31 51 32 52 33 67 35
REMARK SMILES IDX 89 36 54 37 37 38 38 39 47 40 39 41 40 42 46 43 48 44 41 45
REMARK SMILES IDX 42 46 43 47 44 48 45 49 71 50 72 51 81 52 73 53 74 54 80 55
REMARK SMILES IDX 82 56 75 57 76 58 77 59 78 60 79 61 55 62 56 63 65 64 57 65
REMARK SMILES IDX 58 66 64 67 66 68 59 69 60 70 61 71 62 72 63 73 5 74 6 75
REMARK SMILES IDX 7 76 8 77 9 79 10 80 11 81 26 82 12 83 25 84 24 85 27 86
REMARK SMILES IDX 13 88 14 89 23 90 15 91 18 92 16 93 17 94 19 95 20 96 21 97
REMARK SMILES IDX 22 98
REMARK H PARENT 3 5 87 23 53 34 7 78 27 87
REMARK Flexibility Score: inf
ROOT
ATOM      1  C   UNL     1       4.508  -1.347  -0.028  1.00  0.00     0.118 C 
ENDROOT
BRANCH   1   2
ATOM      2  N   UNL     1       3.070  -1.155  -0.132  1.00  0.00    -0.352 N 
ATOM      3  O   UNL     1       1.093  -0.113   0.027  1.00  0.00    -0.269 OA
ATOM      4  C   UNL     1       2.313  -0.011  -0.076  1.00  0.00     0.251 C 
ATOM      5  H   UNL     1       2.553  -1.983  -0.265  1.00  0.00     0.163 HD
BRANCH   4   6
ATOM      6  C   UNL     1       2.942   1.327  -0.135  1.00  0.00     0.039 A 
ATOM      7  C   UNL     1       2.375   2.373   0.600  1.00  0.00     0.014 A 
ATOM      8  C   UNL     1       4.037   1.580  -0.965  1.00  0.00     0.014 A 
ATOM      9  C   UNL     1       2.917   3.659   0.518  1.00  0.00     0.010 A 
ATOM     10  C   UNL     1       4.638   2.834  -0.967  1.00  0.00     0.010 A 
ATOM     11  C   UNL     1       4.059   3.898  -0.261  1.00  0.00    -0.014 A 
BRANCH  11  12
ATOM     12  C   UNL     1       4.603   5.267  -0.447  1.00  0.00     0.031 A 
ATOM     13  C   UNL     1       4.601   5.878  -1.826  1.00  0.00     0.074 A 
ATOM     14  C   UNL     1       5.125   5.945   0.593  1.00  0.00     0.049 A 
ATOM     15  N   UNL     1       5.120   7.006  -2.234  1.00  0.00    -0.248 NA
ATOM     16  C   UNL     1       3.954   5.097  -2.896  1.00  0.00     0.031 C 
ATOM     17  C   UNL     1       5.197   5.458   1.971  1.00  0.00     0.029 A 
ATOM     18  N   UNL     1       5.696   7.191   0.650  1.00  0.00    -0.354 N 
ATOM     19  C   UNL     1       4.879   7.059  -3.603  1.00  0.00     0.074 A 
ATOM     20  C   UNL     1       4.230   5.822  -3.969  1.00  0.00     0.031 C 
ATOM     21  C   UNL     1       5.750   6.408   2.743  1.00  0.00     0.029 A 
ATOM     22  C   UNL     1       6.112   7.551   1.910  1.00  0.00     0.049 A 
ATOM     23  H   UNL     1       5.799   7.772  -0.138  1.00  0.00     0.167 HD
ATOM     24  C   UNL     1       5.142   8.063  -4.472  1.00  0.00     0.037 A 
ATOM     25  C   UNL     1       6.721   8.674   2.340  1.00  0.00     0.037 A 
ATOM     26  C   UNL     1       5.747   9.312  -4.094  1.00  0.00     0.049 A 
ATOM     27  C   UNL     1       7.030   9.766   1.351  1.00  0.00     0.074 A 
ATOM     28  C   UNL     1       6.017  10.412  -4.889  1.00  0.00     0.029 A 
ATOM     29  N   UNL     1       6.166   9.632  -2.811  1.00  0.00    -0.354 N 
ATOM     30  N   UNL     1       6.776   9.809   0.064  1.00  0.00    -0.248 NA
ATOM     31  C   UNL     1       7.712  10.959   1.870  1.00  0.00     0.031 C 
ATOM     32  C   UNL     1       6.637  11.381  -4.095  1.00  0.00     0.029 A 
ATOM     33  C   UNL     1       6.712  10.904  -2.796  1.00  0.00     0.049 A 
ATOM     34  H   UNL     1       6.088   9.041  -2.027  1.00  0.00     0.167 HD
ATOM     35  C   UNL     1       7.252  11.040  -0.376  1.00  0.00     0.074 A 
ATOM     36  C   UNL     1       7.790  11.718   0.785  1.00  0.00     0.031 C 
ATOM     37  C   UNL     1       7.247  11.561  -1.629  1.00  0.00     0.037 A 
BRANCH  24  38
ATOM     38  C   UNL     1       4.759   7.858  -5.912  1.00  0.00     0.058 A 
ATOM     39  C   UNL     1       3.415   7.824  -6.318  1.00  0.00     0.135 A 
ATOM     40  C   UNL     1       5.745   7.724  -6.904  1.00  0.00     0.135 A 
ATOM     41  F   UNL     1       2.432   7.926  -5.410  1.00  0.00    -0.206 F 
ATOM     42  C   UNL     1       3.061   7.638  -7.650  1.00  0.00     0.059 A 
ATOM     43  C   UNL     1       5.413   7.568  -8.247  1.00  0.00     0.059 A 
ATOM     44  F   UNL     1       7.045   7.745  -6.572  1.00  0.00    -0.206 F 
ATOM     45  C   UNL     1       4.068   7.513  -8.608  1.00  0.00     0.060 A 
BRANCH  45  46
ATOM     46  S   UNL     1       3.587   7.283 -10.332  1.00  0.00     0.124 S 
ATOM     47  O   UNL     1       3.042   5.929 -10.304  1.00  0.00    -0.237 OA
ATOM     48  O   UNL     1       2.614   8.353 -10.528  1.00  0.00    -0.237 OA
ATOM     49  O   UNL     1       4.842   7.439 -11.060  1.00  0.00    -0.744 OA
ENDBRANCH  45  46
ENDBRANCH  24  38
BRANCH  25  50
ATOM     50  C   UNL     1       7.052   8.830   3.782  1.00  0.00     0.058 A 
ATOM     51  C   UNL     1       6.349   9.742   4.583  1.00  0.00     0.135 A 
ATOM     52  C   UNL     1       8.050   8.057   4.394  1.00  0.00     0.135 A 
ATOM     53  F   UNL     1       5.393  10.511   4.042  1.00  0.00    -0.206 F 
ATOM     54  C   UNL     1       6.624   9.884   5.939  1.00  0.00     0.059 A 
ATOM     55  C   UNL     1       8.328   8.164   5.754  1.00  0.00     0.059 A 
ATOM     56  F   UNL     1       8.745   7.162   3.674  1.00  0.00    -0.206 F 
ATOM     57  C   UNL     1       7.611   9.084   6.517  1.00  0.00     0.060 A 
BRANCH  57  58
ATOM     58  S   UNL     1       7.910   9.232   8.292  1.00  0.00     0.124 S 
ATOM     59  O   UNL     1       8.520  10.554   8.380  1.00  0.00    -0.237 OA
ATOM     60  O   UNL     1       6.561   9.114   8.838  1.00  0.00    -0.237 OA
ATOM     61  O   UNL     1       8.795   8.108   8.580  1.00  0.00    -0.744 OA
ENDBRANCH  57  58
ENDBRANCH  25  50
BRANCH  37  62
ATOM     62  C   UNL     1       7.836  12.932  -1.814  1.00  0.00     0.058 A 
ATOM     63  C   UNL     1       9.221  13.146  -1.762  1.00  0.00     0.135 A 
ATOM     64  C   UNL     1       7.012  14.029  -2.117  1.00  0.00     0.135 A 
ATOM     65  F   UNL     1      10.052  12.132  -1.471  1.00  0.00    -0.206 F 
ATOM     66  C   UNL     1       9.770  14.404  -1.986  1.00  0.00     0.059 A 
ATOM     67  C   UNL     1       7.542  15.290  -2.373  1.00  0.00     0.059 A 
ATOM     68  F   UNL     1       5.681  13.875  -2.192  1.00  0.00    -0.206 F 
ATOM     69  C   UNL     1       8.922  15.469  -2.296  1.00  0.00     0.060 A 
BRANCH  69  70
ATOM     70  S   UNL     1       9.655  17.086  -2.622  1.00  0.00     0.124 S 
ATOM     71  O   UNL     1      10.106  17.478  -1.290  1.00  0.00    -0.237 OA
ATOM     72  O   UNL     1      10.709  16.762  -3.578  1.00  0.00    -0.237 OA
ATOM     73  O   UNL     1       8.543  17.862  -3.161  1.00  0.00    -0.744 OA
ENDBRANCH  69  70
ENDBRANCH  37  62
ENDBRANCH  11  12
ENDBRANCH   4   6
ENDBRANCH   1   2
BRANCH   1  74
ATOM     74  C   UNL     1       4.906  -2.119   1.222  1.00  0.00     0.042 C 
BRANCH  74  75
ATOM     75  C   UNL     1       4.306  -3.514   1.308  1.00  0.00     0.118 C 
BRANCH  75  76
ATOM     76  N   UNL     1       4.758  -4.383   0.224  1.00  0.00    -0.352 N 
ATOM     77  C   UNL     1       5.636  -5.434   0.273  1.00  0.00     0.256 C 
ATOM     78  H   UNL     1       4.380  -4.187  -0.664  1.00  0.00     0.163 HD
ATOM     79  O   UNL     1       6.080  -5.929  -0.761  1.00  0.00    -0.269 OA
BRANCH  77  80
ATOM     80  C   UNL     1       6.031  -5.990   1.570  1.00  0.00     0.102 A 
ATOM     81  C   UNL     1       7.392  -6.104   1.870  1.00  0.00     0.029 A 
ATOM     82  C   UNL     1       5.098  -6.438   2.500  1.00  0.00     0.223 A 
ATOM     83  C   UNL     1       7.785  -6.602   3.116  1.00  0.00     0.001 A 
ATOM     84  N   UNL     1       5.437  -6.893   3.718  1.00  0.00    -0.221 NA
ATOM     85  C   UNL     1       6.759  -6.951   3.999  1.00  0.00     0.124 A 
BRANCH  82  86
ATOM     86  O   UNL     1       3.752  -6.452   2.269  1.00  0.00    -0.493 OA
ATOM     87  H   UNL     1       3.415  -6.154   1.447  1.00  0.00     0.295 HD
ENDBRANCH  82  86
BRANCH  83  88
ATOM     88  C   UNL     1       9.195  -6.779   3.483  1.00  0.00    -0.016 A 
ATOM     89  C   UNL     1       9.661  -8.036   3.907  1.00  0.00     0.012 A 
ATOM     90  C   UNL     1      10.108  -5.710   3.441  1.00  0.00     0.025 A 
ATOM     91  C   UNL     1      10.989  -8.216   4.293  1.00  0.00     0.040 A 
ATOM     92  C   UNL     1      11.448  -5.883   3.832  1.00  0.00     0.092 A 
ATOM     93  C   UNL     1      11.866  -7.140   4.257  1.00  0.00     0.135 A 
ATOM     94  F   UNL     1      13.133  -7.331   4.648  1.00  0.00    -0.206 F 
BRANCH  92  95
ATOM     95  C   UNL     1      12.433  -4.752   3.833  1.00  0.00     0.419 C 
ATOM     96  F   UNL     1      12.841  -4.414   5.086  1.00  0.00    -0.166 F 
ATOM     97  F   UNL     1      13.562  -5.028   3.124  1.00  0.00    -0.166 F 
ATOM     98  F   UNL     1      11.929  -3.608   3.288  1.00  0.00    -0.166 F 
ENDBRANCH  92  95
ENDBRANCH  83  88
ENDBRANCH  77  80
ENDBRANCH  75  76
ENDBRANCH  74  75
ENDBRANCH   1  74
TORSDOF 16
