REMARK SMILES Cc1cc(Br)cc([N+](=O)[O-])c1OCCC[C@@](C)([NH3+])C(=O)NCCCNC(=O)c1ccc(-c2c3nc(c(-c4c(F)cc(S(=O)(=O)[O-])cc4F)c4ccc([nH]4)c(-c4c(F)cc(S(=O)(=O)[O-])cc4F)c4nc(c(-c5c(F)cc(S(=O)(=O)[O-])cc5F)c5ccc2[nH]5)C=C4)C=C3)cc1
REMARK SMILES IDX 19 1 20 2 21 3 16 5 17 6 15 7 14 8 13 9 12 10 11 11 1 12
REMARK SMILES IDX 2 13 3 14 4 15 7 16 5 17 6 18 8 19 9 20 10 21 18 22 22 26
REMARK SMILES IDX 23 27 24 28 25 29 26 30 27 32 28 33 29 34 93 35 30 36 92 37
REMARK SMILES IDX 31 38 32 39 33 40 86 41 34 42 91 43 85 44 87 45 35 46 90 47
REMARK SMILES IDX 84 48 83 49 36 51 70 52 49 53 69 54 50 55 53 56 68 57 88 58
REMARK SMILES IDX 51 59 52 60 67 62 89 63 54 64 37 65 38 66 47 67 39 68 40 69
REMARK SMILES IDX 46 70 48 71 41 72 42 73 43 74 44 75 45 76 71 77 72 78 81 79
REMARK SMILES IDX 73 80 74 81 80 82 82 83 75 84 76 85 77 86 78 87 79 88 55 89
REMARK SMILES IDX 56 90 65 91 57 92 58 93 64 94 66 95 59 96 60 97 61 98 62 99
REMARK SMILES IDX 63 100
REMARK H PARENT 21 4 18 23 18 24 18 25 25 31 87 50 53 61
REMARK Flexibility Score: inf
ROOT
ATOM      1  C   UNL     1      -4.576  -2.626   1.384  1.00  0.00     0.280 C 
ATOM      2  O   UNL     1      -5.372  -1.700   1.584  1.00  0.00    -0.268 OA
ATOM      3  N   UNL     1      -3.948  -3.072   2.503  1.00  0.00    -0.351 N 
ATOM      4  H   UNL     1      -3.977  -2.429   3.247  1.00  0.00     0.163 HD
ENDROOT
BRANCH   1   5
ATOM      5  C   UNL     1      -4.396  -3.231  -0.045  1.00  0.00     0.171 C 
ATOM      6  C   UNL     1      -5.568  -4.206  -0.233  1.00  0.00     0.090 C 
BRANCH   5   7
ATOM      7  C   UNL     1      -4.357  -2.174  -1.210  1.00  0.00     0.082 C 
BRANCH   7   8
ATOM      8  C   UNL     1      -5.087  -0.818  -1.082  1.00  0.00     0.049 C 
BRANCH   8   9
ATOM      9  C   UNL     1      -4.355   0.335  -0.341  1.00  0.00     0.230 C 
BRANCH   9  10
ATOM     10  O   UNL     1      -3.191   0.752  -1.076  1.00  0.00    -0.487 OA
BRANCH  10  11
ATOM     11  C   UNL     1      -2.074   1.128  -0.357  1.00  0.00     0.200 A 
ATOM     12  C   UNL     1      -1.524  -1.281   0.285  1.00  0.00     0.049 C 
ATOM     13  C   UNL     1      -1.157   0.139   0.046  1.00  0.00    -0.001 A 
ATOM     14  C   UNL     1       0.201   0.453   0.219  1.00  0.00     0.023 A 
ATOM     15  C   UNL     1       0.645   1.757   0.091  1.00  0.00     0.025 A 
ATOM     16  C   UNL     1      -1.624   2.461  -0.365  1.00  0.00     0.312 A 
ATOM     17  Br  UNL     1       2.490   2.125   0.247  1.00  0.00    -0.051 Br
ATOM     18  C   UNL     1      -0.266   2.776  -0.141  1.00  0.00     0.105 A 
BRANCH  16  19
ATOM     19  N   UNL     1      -2.550   3.582  -0.530  1.00  0.00     0.066 N 
ATOM     20  O   UNL     1      -2.074   4.666  -0.902  1.00  0.00    -0.258 OA
ATOM     21  O   UNL     1      -3.737   3.416  -0.218  1.00  0.00    -0.258 OA
ENDBRANCH  16  19
ENDBRANCH  10  11
ENDBRANCH   9  10
ENDBRANCH   8   9
ENDBRANCH   7   8
ENDBRANCH   5   7
BRANCH   5  22
ATOM     22  N   UNL     1      -3.179  -4.073  -0.169  1.00  0.00    -0.345 N 
ATOM     23  H   UNL     1      -3.115  -4.439  -1.119  1.00  0.00     0.345 HD
ATOM     24  H   UNL     1      -3.233  -4.848   0.491  1.00  0.00     0.345 HD
ATOM     25  H   UNL     1      -2.354  -3.509   0.035  1.00  0.00     0.345 HD
ENDBRANCH   5  22
ENDBRANCH   1   5
BRANCH   3  26
ATOM     26  C   UNL     1      -3.242  -4.300   2.832  1.00  0.00     0.118 C 
BRANCH  26  27
ATOM     27  C   UNL     1      -1.878  -4.034   3.470  1.00  0.00     0.042 C 
BRANCH  27  28
ATOM     28  C   UNL     1      -1.916  -3.164   4.729  1.00  0.00     0.118 C 
BRANCH  28  29
ATOM     29  N   UNL     1      -2.837  -3.671   5.739  1.00  0.00    -0.352 N 
ATOM     30  C   UNL     1      -2.600  -4.264   6.950  1.00  0.00     0.251 C 
ATOM     31  H   UNL     1      -3.789  -3.570   5.512  1.00  0.00     0.163 HD
ATOM     32  O   UNL     1      -3.532  -4.830   7.531  1.00  0.00    -0.269 OA
BRANCH  30  33
ATOM     33  C   UNL     1      -1.257  -4.248   7.562  1.00  0.00     0.039 A 
ATOM     34  C   UNL     1      -0.789  -5.400   8.202  1.00  0.00     0.014 A 
ATOM     35  C   UNL     1      -0.476  -3.089   7.556  1.00  0.00     0.014 A 
ATOM     36  C   UNL     1       0.485  -5.410   8.775  1.00  0.00     0.010 A 
ATOM     37  C   UNL     1       0.823  -3.124   8.059  1.00  0.00     0.010 A 
ATOM     38  C   UNL     1       1.317  -4.283   8.677  1.00  0.00    -0.014 A 
BRANCH  38  39
ATOM     39  C   UNL     1       2.707  -4.300   9.204  1.00  0.00     0.031 A 
ATOM     40  C   UNL     1       3.112  -3.372  10.317  1.00  0.00     0.074 A 
ATOM     41  C   UNL     1       3.623  -5.106   8.632  1.00  0.00     0.049 A 
ATOM     42  N   UNL     1       4.287  -3.207  10.869  1.00  0.00    -0.248 NA
ATOM     43  C   UNL     1       2.065  -2.495  10.862  1.00  0.00     0.031 C 
ATOM     44  C   UNL     1       3.363  -6.025   7.522  1.00  0.00     0.029 A 
ATOM     45  N   UNL     1       4.957  -5.281   8.901  1.00  0.00    -0.354 N 
ATOM     46  C   UNL     1       4.126  -2.197  11.812  1.00  0.00     0.074 A 
ATOM     47  C   UNL     1       2.753  -1.749  11.713  1.00  0.00     0.031 C 
ATOM     48  C   UNL     1       4.489  -6.693   7.231  1.00  0.00     0.029 A 
ATOM     49  C   UNL     1       5.562  -6.220   8.100  1.00  0.00     0.049 A 
ATOM     50  H   UNL     1       5.435  -4.780   9.601  1.00  0.00     0.167 HD
ATOM     51  C   UNL     1       5.031  -1.703  12.692  1.00  0.00     0.037 A 
ATOM     52  C   UNL     1       6.838  -6.653   8.068  1.00  0.00     0.037 A 
ATOM     53  C   UNL     1       6.393  -2.163  12.788  1.00  0.00     0.049 A 
ATOM     54  C   UNL     1       7.833  -6.072   9.034  1.00  0.00     0.074 A 
ATOM     55  C   UNL     1       7.373  -1.772  13.684  1.00  0.00     0.029 A 
ATOM     56  N   UNL     1       6.972  -3.106  11.951  1.00  0.00    -0.354 N 
ATOM     57  N   UNL     1       7.648  -5.166   9.965  1.00  0.00    -0.248 NA
ATOM     58  C   UNL     1       9.211  -6.574   8.947  1.00  0.00     0.031 C 
ATOM     59  C   UNL     1       8.559  -2.436  13.351  1.00  0.00     0.029 A 
ATOM     60  C   UNL     1       8.305  -3.287  12.287  1.00  0.00     0.049 A 
ATOM     61  H   UNL     1       6.505  -3.578  11.224  1.00  0.00     0.167 HD
ATOM     62  C   UNL     1       8.878  -5.012  10.596  1.00  0.00     0.074 A 
ATOM     63  C   UNL     1       9.797  -5.923   9.943  1.00  0.00     0.031 C 
ATOM     64  C   UNL     1       9.212  -4.196  11.627  1.00  0.00     0.037 A 
BRANCH  51  65
ATOM     65  C   UNL     1       4.573  -0.592  13.603  1.00  0.00     0.058 A 
ATOM     66  C   UNL     1       3.605  -0.801  14.601  1.00  0.00     0.135 A 
ATOM     67  C   UNL     1       5.096   0.704  13.466  1.00  0.00     0.135 A 
ATOM     68  F   UNL     1       3.063  -2.017  14.773  1.00  0.00    -0.206 F 
ATOM     69  C   UNL     1       3.129   0.245  15.384  1.00  0.00     0.059 A 
ATOM     70  C   UNL     1       4.660   1.758  14.264  1.00  0.00     0.059 A 
ATOM     71  F   UNL     1       6.030   0.963  12.537  1.00  0.00    -0.206 F 
ATOM     72  C   UNL     1       3.655   1.524  15.201  1.00  0.00     0.060 A 
BRANCH  72  73
ATOM     73  S   UNL     1       2.989   2.882  16.187  1.00  0.00     0.124 S 
ATOM     74  O   UNL     1       1.685   3.080  15.563  1.00  0.00    -0.237 OA
ATOM     75  O   UNL     1       2.968   2.311  17.530  1.00  0.00    -0.237 OA
ATOM     76  O   UNL     1       3.953   3.958  15.981  1.00  0.00    -0.744 OA
ENDBRANCH  72  73
ENDBRANCH  51  65
BRANCH  52  77
ATOM     77  C   UNL     1       7.225  -7.731   7.120  1.00  0.00     0.058 A 
ATOM     78  C   UNL     1       7.507  -9.023   7.588  1.00  0.00     0.135 A 
ATOM     79  C   UNL     1       7.274  -7.512   5.735  1.00  0.00     0.135 A 
ATOM     80  F   UNL     1       7.482  -9.279   8.905  1.00  0.00    -0.206 F 
ATOM     81  C   UNL     1       7.822 -10.061   6.718  1.00  0.00     0.059 A 
ATOM     82  C   UNL     1       7.563  -8.540   4.843  1.00  0.00     0.059 A 
ATOM     83  F   UNL     1       6.997  -6.297   5.236  1.00  0.00    -0.206 F 
ATOM     84  C   UNL     1       7.837  -9.811   5.345  1.00  0.00     0.060 A 
BRANCH  84  85
ATOM     85  S   UNL     1       8.165 -11.188   4.222  1.00  0.00     0.124 S 
ATOM     86  O   UNL     1       9.581 -11.435   4.464  1.00  0.00    -0.237 OA
ATOM     87  O   UNL     1       7.244 -12.207   4.715  1.00  0.00    -0.237 OA
ATOM     88  O   UNL     1       7.834 -10.637   2.911  1.00  0.00    -0.744 OA
ENDBRANCH  84  85
ENDBRANCH  52  77
BRANCH  64  89
ATOM     89  C   UNL     1      10.625  -4.270  12.139  1.00  0.00     0.058 A 
ATOM     90  C   UNL     1      11.709  -3.766  11.403  1.00  0.00     0.135 A 
ATOM     91  C   UNL     1      10.892  -4.810  13.409  1.00  0.00     0.135 A 
ATOM     92  F   UNL     1      11.513  -3.247  10.180  1.00  0.00    -0.206 F 
ATOM     93  C   UNL     1      13.009  -3.815  11.897  1.00  0.00     0.059 A 
ATOM     94  C   UNL     1      12.179  -4.842  13.935  1.00  0.00     0.059 A 
ATOM     95  F   UNL     1       9.892  -5.298  14.159  1.00  0.00    -0.206 F 
ATOM     96  C   UNL     1      13.233  -4.352  13.166  1.00  0.00     0.060 A 
BRANCH  96  97
ATOM     97  S   UNL     1      14.920  -4.377  13.809  1.00  0.00     0.124 S 
ATOM     98  O   UNL     1      15.527  -5.431  13.004  1.00  0.00    -0.237 OA
ATOM     99  O   UNL     1      15.380  -3.020  13.528  1.00  0.00    -0.237 OA
ATOM    100  O   UNL     1      14.741  -4.691  15.223  1.00  0.00    -0.744 OA
ENDBRANCH  96  97
ENDBRANCH  64  89
ENDBRANCH  38  39
ENDBRANCH  30  33
ENDBRANCH  28  29
ENDBRANCH  27  28
ENDBRANCH  26  27
ENDBRANCH   3  26
TORSDOF 20
