REMARK SMILES Cc1cc(S(=O)(=O)Nc2ccc(Cl)cc2F)ccc1OCC(=O)NCCCNC(=O)c1ccc(-c2c3nc(c(-c4c(F)cc(S(=O)(=O)[O-])cc4F)c4ccc([nH]4)c(-c4c(F)cc(S(=O)(=O)[O-])cc4F)c4nc(c(-c5c(F)cc(S(=O)(=O)[O-])cc5F)c5ccc2[nH]5)C=C4)C=C3)cc1
REMARK SMILES IDX 25 1 24 2 22 3 23 4 21 6 20 7 19 8 1 9 2 10 3 11 4 12 18 13
REMARK SMILES IDX 17 14 5 15 6 16 7 17 8 18 9 20 10 21 15 22 11 23 14 24 16 25
REMARK SMILES IDX 12 26 13 27 26 28 27 29 28 30 29 31 30 33 31 34 32 35 96 36
REMARK SMILES IDX 33 37 95 38 34 39 35 40 36 41 89 42 37 43 94 44 88 45 90 46
REMARK SMILES IDX 38 47 93 48 87 49 86 50 39 52 73 53 52 54 72 55 53 56 56 57
REMARK SMILES IDX 71 58 91 59 54 60 55 61 70 63 92 64 57 65 40 66 41 67 50 68
REMARK SMILES IDX 42 69 43 70 49 71 51 72 44 73 45 74 46 75 47 76 48 77 74 78
REMARK SMILES IDX 75 79 84 80 76 81 77 82 83 83 85 84 78 85 79 86 80 87 81 88
REMARK SMILES IDX 82 89 58 90 59 91 68 92 60 93 61 94 67 95 69 96 62 97 63 98
REMARK SMILES IDX 64 99 65 100 66 101
REMARK H PARENT 24 5 8 19 28 32 90 51 56 62
REMARK Flexibility Score: inf
ROOT
ATOM      1  C   UNL     1       1.991   4.145   2.622  1.00  0.00     0.117 C 
ENDROOT
BRANCH   1   2
ATOM      2  N   UNL     1       2.826   2.954   2.551  1.00  0.00    -0.353 N 
ATOM      3  C   UNL     1       3.156   2.186   1.470  1.00  0.00     0.257 C 
ATOM      4  O   UNL     1       3.982   1.282   1.612  1.00  0.00    -0.271 OA
ATOM      5  H   UNL     1       3.209   2.658   3.409  1.00  0.00     0.163 HD
BRANCH   3   6
ATOM      6  C   UNL     1       2.548   2.493   0.099  1.00  0.00     0.329 C 
BRANCH   6   7
ATOM      7  O   UNL     1       1.171   2.259  -0.092  1.00  0.00    -0.484 OA
BRANCH   7   8
ATOM      8  C   UNL     1       0.615   1.018   0.023  1.00  0.00     0.123 A 
ATOM      9  C   UNL     1       2.544  -0.525  -0.740  1.00  0.00     0.048 C 
ATOM     10  C   UNL     1       1.133  -0.238  -0.319  1.00  0.00    -0.008 A 
ATOM     11  C   UNL     1       0.266  -1.357  -0.269  1.00  0.00     0.029 A 
ATOM     12  C   UNL     1      -1.069  -1.246   0.140  1.00  0.00     0.088 A 
ATOM     13  C   UNL     1      -0.715   1.100   0.473  1.00  0.00     0.048 A 
ATOM     14  C   UNL     1      -1.531  -0.023   0.597  1.00  0.00     0.026 A 
BRANCH  12  15
ATOM     15  S   UNL     1      -2.109  -2.672  -0.102  1.00  0.00     0.262 S 
ATOM     16  O   UNL     1      -2.028  -3.039  -1.500  1.00  0.00    -0.201 OA
ATOM     17  O   UNL     1      -1.740  -3.619   0.929  1.00  0.00    -0.201 OA
BRANCH  15  18
ATOM     18  N   UNL     1      -3.702  -2.280   0.252  1.00  0.00    -0.277 N 
ATOM     19  H   UNL     1      -4.216  -2.929   0.785  1.00  0.00     0.180 HD
BRANCH  18  20
ATOM     20  C   UNL     1      -4.375  -1.092  -0.151  1.00  0.00     0.085 A 
ATOM     21  C   UNL     1      -5.323  -0.596   0.753  1.00  0.00     0.031 A 
ATOM     22  C   UNL     1      -4.100  -0.352  -1.309  1.00  0.00     0.148 A 
ATOM     23  C   UNL     1      -5.887   0.668   0.567  1.00  0.00     0.023 A 
ATOM     24  C   UNL     1      -4.656   0.912  -1.498  1.00  0.00     0.062 A 
ATOM     25  F   UNL     1      -3.227  -0.790  -2.224  1.00  0.00    -0.205 F 
ATOM     26  C   UNL     1      -5.530   1.427  -0.545  1.00  0.00     0.044 A 
ATOM     27  Cl  UNL     1      -6.154   3.019  -0.724  1.00  0.00    -0.084 Cl
ENDBRANCH  18  20
ENDBRANCH  15  18
ENDBRANCH  12  15
ENDBRANCH   7   8
ENDBRANCH   6   7
ENDBRANCH   3   6
ENDBRANCH   1   2
BRANCH   1  28
ATOM     28  C   UNL     1       0.526   3.825   2.874  1.00  0.00     0.042 C 
BRANCH  28  29
ATOM     29  C   UNL     1       0.246   3.346   4.291  1.00  0.00     0.118 C 
BRANCH  29  30
ATOM     30  N   UNL     1      -0.445   4.341   5.099  1.00  0.00    -0.352 N 
ATOM     31  C   UNL     1      -1.093   4.144   6.306  1.00  0.00     0.251 C 
ATOM     32  H   UNL     1      -0.453   5.260   4.745  1.00  0.00     0.163 HD
ATOM     33  O   UNL     1      -1.868   4.957   6.779  1.00  0.00    -0.269 OA
BRANCH  31  34
ATOM     34  C   UNL     1      -0.693   2.950   7.075  1.00  0.00     0.039 A 
ATOM     35  C   UNL     1       0.116   3.159   8.198  1.00  0.00     0.014 A 
ATOM     36  C   UNL     1      -0.871   1.679   6.536  1.00  0.00     0.014 A 
ATOM     37  C   UNL     1       0.886   2.110   8.689  1.00  0.00     0.010 A 
ATOM     38  C   UNL     1      -0.045   0.661   6.971  1.00  0.00     0.010 A 
ATOM     39  C   UNL     1       0.861   0.887   8.020  1.00  0.00    -0.014 A 
BRANCH  39  40
ATOM     40  C   UNL     1       1.802  -0.193   8.291  1.00  0.00     0.031 A 
ATOM     41  C   UNL     1       1.363  -1.399   9.026  1.00  0.00     0.074 A 
ATOM     42  C   UNL     1       3.051  -0.134   7.780  1.00  0.00     0.049 A 
ATOM     43  N   UNL     1       2.152  -2.199   9.661  1.00  0.00    -0.248 NA
ATOM     44  C   UNL     1      -0.041  -1.780   9.126  1.00  0.00     0.031 C 
ATOM     45  C   UNL     1       4.006  -1.230   7.662  1.00  0.00     0.029 A 
ATOM     46  N   UNL     1       3.780   1.005   7.423  1.00  0.00    -0.354 N 
ATOM     47  C   UNL     1       1.430  -3.325   9.991  1.00  0.00     0.074 A 
ATOM     48  C   UNL     1       0.057  -2.984   9.695  1.00  0.00     0.031 C 
ATOM     49  C   UNL     1       5.238  -0.720   7.514  1.00  0.00     0.029 A 
ATOM     50  C   UNL     1       5.134   0.719   7.687  1.00  0.00     0.049 A 
ATOM     51  H   UNL     1       3.417   1.844   7.059  1.00  0.00     0.167 HD
ATOM     52  C   UNL     1       2.086  -4.473  10.335  1.00  0.00     0.037 A 
ATOM     53  C   UNL     1       5.843   1.442   8.604  1.00  0.00     0.037 A 
ATOM     54  C   UNL     1       3.533  -4.263  10.364  1.00  0.00     0.049 A 
ATOM     55  C   UNL     1       6.347   0.624   9.771  1.00  0.00     0.074 A 
ATOM     56  C   UNL     1       4.527  -4.513   9.431  1.00  0.00     0.029 A 
ATOM     57  N   UNL     1       4.101  -3.434  11.328  1.00  0.00    -0.354 N 
ATOM     58  N   UNL     1       5.900  -0.562  10.078  1.00  0.00    -0.248 NA
ATOM     59  C   UNL     1       7.381   1.083  10.696  1.00  0.00     0.031 C 
ATOM     60  C   UNL     1       5.678  -3.778   9.802  1.00  0.00     0.029 A 
ATOM     61  C   UNL     1       5.392  -3.092  10.970  1.00  0.00     0.049 A 
ATOM     62  H   UNL     1       3.647  -3.134  12.148  1.00  0.00     0.167 HD
ATOM     63  C   UNL     1       6.518  -1.008  11.218  1.00  0.00     0.074 A 
ATOM     64  C   UNL     1       7.459   0.046  11.549  1.00  0.00     0.031 C 
ATOM     65  C   UNL     1       6.195  -2.204  11.797  1.00  0.00     0.037 A 
BRANCH  52  66
ATOM     66  C   UNL     1       1.432  -5.844  10.303  1.00  0.00     0.058 A 
ATOM     67  C   UNL     1       2.166  -6.991   9.925  1.00  0.00     0.135 A 
ATOM     68  C   UNL     1       0.069  -6.087  10.565  1.00  0.00     0.135 A 
ATOM     69  F   UNL     1       3.495  -6.955   9.765  1.00  0.00    -0.206 F 
ATOM     70  C   UNL     1       1.574  -8.232   9.685  1.00  0.00     0.059 A 
ATOM     71  C   UNL     1      -0.560  -7.304  10.278  1.00  0.00     0.059 A 
ATOM     72  F   UNL     1      -0.698  -5.160  11.157  1.00  0.00    -0.206 F 
ATOM     73  C   UNL     1       0.201  -8.370   9.820  1.00  0.00     0.060 A 
BRANCH  73  74
ATOM     74  S   UNL     1      -0.559  -9.951   9.403  1.00  0.00     0.124 S 
ATOM     75  O   UNL     1      -0.056 -10.190   8.054  1.00  0.00    -0.237 OA
ATOM     76  O   UNL     1      -0.030 -10.826  10.443  1.00  0.00    -0.237 OA
ATOM     77  O   UNL     1      -1.990  -9.672   9.487  1.00  0.00    -0.744 OA
ENDBRANCH  73  74
ENDBRANCH  52  66
BRANCH  53  78
ATOM     78  C   UNL     1       5.437   2.873   8.658  1.00  0.00     0.058 A 
ATOM     79  C   UNL     1       5.707   3.671   7.529  1.00  0.00     0.135 A 
ATOM     80  C   UNL     1       4.451   3.322   9.546  1.00  0.00     0.135 A 
ATOM     81  F   UNL     1       6.654   3.296   6.653  1.00  0.00    -0.206 F 
ATOM     82  C   UNL     1       4.924   4.773   7.205  1.00  0.00     0.059 A 
ATOM     83  C   UNL     1       3.656   4.432   9.245  1.00  0.00     0.059 A 
ATOM     84  F   UNL     1       4.154   2.609  10.642  1.00  0.00    -0.206 F 
ATOM     85  C   UNL     1       3.857   5.104   8.038  1.00  0.00     0.060 A 
BRANCH  85  86
ATOM     86  S   UNL     1       2.650   6.303   7.421  1.00  0.00     0.124 S 
ATOM     87  O   UNL     1       3.462   7.507   7.283  1.00  0.00    -0.237 OA
ATOM     88  O   UNL     1       2.223   5.687   6.164  1.00  0.00    -0.237 OA
ATOM     89  O   UNL     1       1.643   6.338   8.474  1.00  0.00    -0.744 OA
ENDBRANCH  85  86
ENDBRANCH  53  78
BRANCH  65  90
ATOM     90  C   UNL     1       6.682  -2.695  13.140  1.00  0.00     0.058 A 
ATOM     91  C   UNL     1       6.982  -1.853  14.223  1.00  0.00     0.135 A 
ATOM     92  C   UNL     1       6.733  -4.084  13.415  1.00  0.00     0.135 A 
ATOM     93  F   UNL     1       6.860  -0.521  14.125  1.00  0.00    -0.206 F 
ATOM     94  C   UNL     1       7.376  -2.346  15.469  1.00  0.00     0.059 A 
ATOM     95  C   UNL     1       7.071  -4.597  14.665  1.00  0.00     0.059 A 
ATOM     96  F   UNL     1       6.444  -4.994  12.473  1.00  0.00    -0.206 F 
ATOM     97  C   UNL     1       7.420  -3.721  15.681  1.00  0.00     0.060 A 
BRANCH  97  98
ATOM     98  S   UNL     1       7.874  -4.370  17.300  1.00  0.00     0.124 S 
ATOM     99  O   UNL     1       9.315  -4.544  17.150  1.00  0.00    -0.237 OA
ATOM    100  O   UNL     1       7.460  -3.303  18.207  1.00  0.00    -0.237 OA
ATOM    101  O   UNL     1       7.093  -5.599  17.396  1.00  0.00    -0.744 OA
ENDBRANCH  97  98
ENDBRANCH  65  90
ENDBRANCH  39  40
ENDBRANCH  31  34
ENDBRANCH  29  30
ENDBRANCH  28  29
ENDBRANCH   1  28
TORSDOF 18
