REMARK SMILES CCN1C(=O)N(CC)[C@H]2NC(=O)N(CCCC(=O)NCCCNC(=O)c3ccc(-c4c5nc(c(-c6c(F)cc(S(=O)(=O)[O-])cc6F)c6ccc([nH]6)c(-c6c(F)cc(S(=O)(=O)[O-])cc6F)c6nc(c(-c7c(F)cc(S(=O)(=O)[O-])cc7F)c7ccc4[nH]7)C=C6)C=C5)cc3)[C@@H]21
REMARK SMILES IDX 20 1 19 2 17 3 18 4 16 6 15 7 14 8 13 9 3 10 4 11 92 12 5 13
REMARK SMILES IDX 6 14 9 15 10 16 11 17 12 19 2 20 1 21 7 22 8 23 21 24 22 25
REMARK SMILES IDX 23 26 24 27 25 29 26 30 27 31 91 32 28 33 90 34 29 35 30 36
REMARK SMILES IDX 31 37 84 38 32 39 89 40 83 41 85 42 33 43 88 44 82 45 81 46
REMARK SMILES IDX 34 48 68 49 47 50 67 51 48 52 51 53 66 54 86 55 49 56 50 57
REMARK SMILES IDX 65 59 87 60 52 61 35 62 36 63 45 64 37 65 38 66 44 67 46 68
REMARK SMILES IDX 39 69 40 70 41 71 42 72 43 73 69 74 70 75 79 76 71 77 72 78
REMARK SMILES IDX 78 79 80 80 73 81 74 82 75 83 76 84 77 85 53 86 54 87 63 88
REMARK SMILES IDX 55 89 56 90 62 91 64 92 57 93 58 94 59 95 60 96 61 97
REMARK H PARENT 19 5 10 18 23 28 85 47 51 58
REMARK Flexibility Score: inf
ROOT
ATOM      1  C   UNL     1      -1.070   0.158   0.693  1.00  0.00     0.117 C 
ENDROOT
BRANCH   1   2
ATOM      2  N   UNL     1      -0.797   0.209  -0.721  1.00  0.00    -0.356 N 
ATOM      3  C   UNL     1       0.266   0.591  -1.454  1.00  0.00     0.220 C 
ATOM      4  O   UNL     1       0.161   0.343  -2.666  1.00  0.00    -0.275 OA
ATOM      5  H   UNL     1      -1.552  -0.102  -1.270  1.00  0.00     0.163 HD
BRANCH   3   6
ATOM      6  C   UNL     1       1.604   1.138  -0.965  1.00  0.00     0.102 C 
BRANCH   6   7
ATOM      7  C   UNL     1       1.967   2.091   0.182  1.00  0.00     0.031 C 
BRANCH   7   8
ATOM      8  C   UNL     1       1.166   2.282   1.456  1.00  0.00     0.124 C 
BRANCH   8   9
ATOM      9  N   UNL     1       1.467   1.618   2.732  1.00  0.00    -0.300 N 
ATOM     10  N   UNL     1       1.255  -1.104   2.970  1.00  0.00    -0.300 N 
ATOM     11  C   UNL     1       1.458  -1.798   4.223  1.00  0.00     0.323 C 
ATOM     12  C   UNL     1       1.761   0.252   3.170  1.00  0.00     0.231 C 
ATOM     13  O   UNL     1       1.511  -3.010   4.373  1.00  0.00    -0.248 OA
ATOM     14  N   UNL     1       1.677  -0.836   5.214  1.00  0.00    -0.300 N 
ATOM     15  C   UNL     1       1.338   0.406   4.643  1.00  0.00     0.228 C 
ATOM     16  N   UNL     1       1.860   1.651   5.006  1.00  0.00    -0.314 N 
ATOM     17  C   UNL     1       1.712   2.456   3.876  1.00  0.00     0.320 C 
ATOM     18  H   UNL     1       2.250   1.906   5.873  1.00  0.00     0.167 HD
ATOM     19  O   UNL     1       1.742   3.679   3.914  1.00  0.00    -0.249 OA
BRANCH  10  20
ATOM     20  C   UNL     1       1.320  -1.923   1.771  1.00  0.00     0.120 C 
ATOM     21  C   UNL     1       2.495  -1.609   0.885  1.00  0.00     0.027 C 
ENDBRANCH  10  20
BRANCH  14  22
ATOM     22  C   UNL     1       2.230  -1.042   6.535  1.00  0.00     0.120 C 
ATOM     23  C   UNL     1       1.502  -2.091   7.359  1.00  0.00     0.027 C 
ENDBRANCH  14  22
ENDBRANCH   8   9
ENDBRANCH   7   8
ENDBRANCH   6   7
ENDBRANCH   3   6
ENDBRANCH   1   2
BRANCH   1  24
ATOM     24  C   UNL     1      -1.990   1.272   1.159  1.00  0.00     0.042 C 
BRANCH  24  25
ATOM     25  C   UNL     1      -3.432   0.837   1.248  1.00  0.00     0.118 C 
BRANCH  25  26
ATOM     26  N   UNL     1      -3.686   0.006   2.421  1.00  0.00    -0.352 N 
ATOM     27  C   UNL     1      -4.683   0.132   3.364  1.00  0.00     0.251 C 
ATOM     28  H   UNL     1      -3.063  -0.744   2.556  1.00  0.00     0.163 HD
ATOM     29  O   UNL     1      -4.660  -0.559   4.377  1.00  0.00    -0.269 OA
BRANCH  27  30
ATOM     30  C   UNL     1      -5.743   1.145   3.163  1.00  0.00     0.039 A 
ATOM     31  C   UNL     1      -6.146   1.937   4.240  1.00  0.00     0.014 A 
ATOM     32  C   UNL     1      -6.276   1.368   1.892  1.00  0.00     0.014 A 
ATOM     33  C   UNL     1      -7.011   3.012   4.016  1.00  0.00     0.010 A 
ATOM     34  C   UNL     1      -7.020   2.514   1.650  1.00  0.00     0.010 A 
ATOM     35  C   UNL     1      -7.408   3.344   2.710  1.00  0.00    -0.014 A 
BRANCH  35  36
ATOM     36  C   UNL     1      -8.236   4.544   2.423  1.00  0.00     0.031 A 
ATOM     37  C   UNL     1      -9.559   4.388   1.718  1.00  0.00     0.074 A 
ATOM     38  C   UNL     1      -7.761   5.773   2.716  1.00  0.00     0.049 A 
ATOM     39  N   UNL     1     -10.383   5.312   1.296  1.00  0.00    -0.248 NA
ATOM     40  C   UNL     1      -9.995   3.015   1.408  1.00  0.00     0.031 C 
ATOM     41  C   UNL     1      -6.458   6.057   3.325  1.00  0.00     0.029 A 
ATOM     42  N   UNL     1      -8.312   7.016   2.529  1.00  0.00    -0.354 N 
ATOM     43  C   UNL     1     -11.412   4.634   0.651  1.00  0.00     0.074 A 
ATOM     44  C   UNL     1     -11.078   3.229   0.677  1.00  0.00     0.031 C 
ATOM     45  C   UNL     1      -6.326   7.383   3.489  1.00  0.00     0.029 A 
ATOM     46  C   UNL     1      -7.511   8.049   2.958  1.00  0.00     0.049 A 
ATOM     47  H   UNL     1      -9.200   7.155   2.125  1.00  0.00     0.167 HD
ATOM     48  C   UNL     1     -12.548   5.135   0.112  1.00  0.00     0.037 A 
ATOM     49  C   UNL     1      -7.704   9.382   2.918  1.00  0.00     0.037 A 
ATOM     50  C   UNL     1     -12.895   6.531   0.138  1.00  0.00     0.049 A 
ATOM     51  C   UNL     1      -8.992   9.912   2.345  1.00  0.00     0.074 A 
ATOM     52  C   UNL     1     -14.062   7.133  -0.296  1.00  0.00     0.029 A 
ATOM     53  N   UNL     1     -12.078   7.541   0.624  1.00  0.00    -0.354 N 
ATOM     54  N   UNL     1      -9.995   9.248   1.821  1.00  0.00    -0.248 NA
ATOM     55  C   UNL     1      -9.180  11.369   2.365  1.00  0.00     0.031 C 
ATOM     56  C   UNL     1     -13.930   8.513  -0.122  1.00  0.00     0.029 A 
ATOM     57  C   UNL     1     -12.705   8.766   0.475  1.00  0.00     0.049 A 
ATOM     58  H   UNL     1     -11.185   7.407   1.016  1.00  0.00     0.167 HD
ATOM     59  C   UNL     1     -10.942  10.204   1.470  1.00  0.00     0.074 A 
ATOM     60  C   UNL     1     -10.400  11.489   1.860  1.00  0.00     0.031 C 
ATOM     61  C   UNL     1     -12.150  10.035   0.877  1.00  0.00     0.037 A 
BRANCH  48  62
ATOM     62  C   UNL     1     -13.505   4.172  -0.535  1.00  0.00     0.058 A 
ATOM     63  C   UNL     1     -14.238   3.237   0.215  1.00  0.00     0.135 A 
ATOM     64  C   UNL     1     -13.730   4.216  -1.921  1.00  0.00     0.135 A 
ATOM     65  F   UNL     1     -14.050   3.137   1.541  1.00  0.00    -0.206 F 
ATOM     66  C   UNL     1     -15.141   2.367  -0.387  1.00  0.00     0.059 A 
ATOM     67  C   UNL     1     -14.652   3.377  -2.540  1.00  0.00     0.059 A 
ATOM     68  F   UNL     1     -13.054   5.086  -2.688  1.00  0.00    -0.206 F 
ATOM     69  C   UNL     1     -15.345   2.448  -1.765  1.00  0.00     0.060 A 
BRANCH  69  70
ATOM     70  S   UNL     1     -16.542   1.331  -2.524  1.00  0.00     0.124 S 
ATOM     71  O   UNL     1     -15.841   0.053  -2.440  1.00  0.00    -0.237 OA
ATOM     72  O   UNL     1     -17.700   1.476  -1.648  1.00  0.00    -0.237 OA
ATOM     73  O   UNL     1     -16.705   1.869  -3.870  1.00  0.00    -0.744 OA
ENDBRANCH  69  70
ENDBRANCH  48  62
BRANCH  49  74
ATOM     74  C   UNL     1      -6.664  10.306   3.448  1.00  0.00     0.058 A 
ATOM     75  C   UNL     1      -6.885  11.058   4.612  1.00  0.00     0.135 A 
ATOM     76  C   UNL     1      -5.426  10.457   2.802  1.00  0.00     0.135 A 
ATOM     77  F   UNL     1      -8.052  10.954   5.265  1.00  0.00    -0.206 F 
ATOM     78  C   UNL     1      -5.929  11.943   5.104  1.00  0.00     0.059 A 
ATOM     79  C   UNL     1      -4.443  11.313   3.291  1.00  0.00     0.059 A 
ATOM     80  F   UNL     1      -5.154   9.748   1.695  1.00  0.00    -0.206 F 
ATOM     81  C   UNL     1      -4.710  12.063   4.435  1.00  0.00     0.060 A 
BRANCH  81  82
ATOM     82  S   UNL     1      -3.465  13.189   5.100  1.00  0.00     0.124 S 
ATOM     83  O   UNL     1      -4.043  14.489   4.778  1.00  0.00    -0.237 OA
ATOM     84  O   UNL     1      -3.451  12.829   6.515  1.00  0.00    -0.237 OA
ATOM     85  O   UNL     1      -2.259  12.833   4.358  1.00  0.00    -0.744 OA
ENDBRANCH  81  82
ENDBRANCH  49  74
BRANCH  61  86
ATOM     86  C   UNL     1     -12.984  11.263   0.641  1.00  0.00     0.058 A 
ATOM     87  C   UNL     1     -12.648  12.205  -0.344  1.00  0.00     0.135 A 
ATOM     88  C   UNL     1     -14.167  11.468   1.369  1.00  0.00     0.135 A 
ATOM     89  F   UNL     1     -11.525  12.059  -1.065  1.00  0.00    -0.206 F 
ATOM     90  C   UNL     1     -13.443  13.321  -0.581  1.00  0.00     0.059 A 
ATOM     91  C   UNL     1     -14.994  12.559   1.127  1.00  0.00     0.059 A 
ATOM     92  F   UNL     1     -14.541  10.589   2.314  1.00  0.00    -0.206 F 
ATOM     93  C   UNL     1     -14.617  13.488   0.158  1.00  0.00     0.060 A 
BRANCH  93  94
ATOM     94  S   UNL     1     -15.656  14.922  -0.184  1.00  0.00     0.124 S 
ATOM     95  O   UNL     1     -14.866  16.003   0.396  1.00  0.00    -0.237 OA
ATOM     96  O   UNL     1     -15.739  14.907  -1.641  1.00  0.00    -0.237 OA
ATOM     97  O   UNL     1     -16.902  14.613   0.512  1.00  0.00    -0.744 OA
ENDBRANCH  93  94
ENDBRANCH  61  86
ENDBRANCH  35  36
ENDBRANCH  27  30
ENDBRANCH  25  26
ENDBRANCH  24  25
ENDBRANCH   1  24
TORSDOF 18
