REMARK SMILES CCc1nc(N2CC[N@H+](CC=C(C)C)[C@H](C(=O)NCCCNC(=O)c3ccc(-c4c5nc(c(-c6c(F)cc(S(=O)(=O)[O-])cc6F)c6ccc([nH]6)c(-c6c(F)cc(S(=O)(=O)[O-])cc6F)c6nc(c(-c7c(F)cc(S(=O)(=O)[O-])cc7F)c7ccc4[nH]7)C=C6)C=C5)cc3)C2)no1
REMARK SMILES IDX 20 1 19 2 18 3 16 4 17 5 15 7 6 8 7 9 91 10 8 11 9 12 5 14
REMARK SMILES IDX 3 15 4 16 93 17 92 18 2 19 1 20 10 21 11 22 12 23 13 24
REMARK SMILES IDX 14 25 21 26 22 27 23 28 24 30 25 31 26 32 90 33 27 34 89 35
REMARK SMILES IDX 28 36 29 37 30 38 83 39 31 40 88 41 82 42 84 43 32 44 87 45
REMARK SMILES IDX 81 46 80 47 33 49 67 50 46 51 66 52 47 53 50 54 65 55 85 56
REMARK SMILES IDX 48 57 49 58 64 60 86 61 51 62 34 63 35 64 44 65 36 66 37 67
REMARK SMILES IDX 43 68 45 69 38 70 39 71 40 72 41 73 42 74 68 75 69 76 78 77
REMARK SMILES IDX 70 78 71 79 77 80 79 81 72 82 73 83 74 84 75 85 76 86 52 87
REMARK SMILES IDX 53 88 62 89 54 90 55 91 61 92 63 93 56 94 57 95 58 96 59 97
REMARK SMILES IDX 60 98
REMARK H PARENT 18 6 9 13 22 29 84 48 50 59
REMARK Flexibility Score: inf
ROOT
ATOM      1  C   UNL     1      -1.218   1.214  -6.631  1.00  0.00     0.042 C 
ENDROOT
BRANCH   1   2
ATOM      2  C   UNL     1      -0.278   0.134  -6.108  1.00  0.00     0.118 C 
BRANCH   2   3
ATOM      3  N   UNL     1       0.899  -0.034  -6.945  1.00  0.00    -0.351 N 
ATOM      4  C   UNL     1       2.207   0.324  -6.868  1.00  0.00     0.280 C 
ATOM      5  O   UNL     1       2.904  -0.147  -7.781  1.00  0.00    -0.268 OA
ATOM      6  H   UNL     1       0.699  -0.528  -7.772  1.00  0.00     0.163 HD
BRANCH   4   7
ATOM      7  C   UNL     1       2.862   1.198  -5.758  1.00  0.00     0.294 C 
ATOM      8  N   UNL     1       2.614   2.668  -3.725  1.00  0.00    -0.326 N 
ATOM      9  C   UNL     1       3.610   3.601  -4.232  1.00  0.00     0.181 C 
ATOM     10  C   UNL     1       1.936   1.806  -4.699  1.00  0.00     0.195 C 
ATOM     11  C   UNL     1       4.533   2.908  -5.260  1.00  0.00     0.284 C 
ATOM     12  N   UNL     1       3.868   2.146  -6.331  1.00  0.00    -0.318 N 
ATOM     13  H   UNL     1       4.554   1.539  -6.780  1.00  0.00     0.349 HD
BRANCH   8  14
ATOM     14  C   UNL     1       2.067   2.837  -2.499  1.00  0.00     0.266 A 
ATOM     15  C   UNL     1       1.005   2.243  -0.794  1.00  0.00     0.227 A 
ATOM     16  N   UNL     1       1.247   1.850  -2.019  1.00  0.00    -0.176 NA
ATOM     17  O   UNL     1       1.556   3.452  -0.500  1.00  0.00    -0.337 OA
ATOM     18  N   UNL     1       2.272   3.839  -1.633  1.00  0.00    -0.038 NA
BRANCH  15  19
ATOM     19  C   UNL     1       0.320   1.516   0.298  1.00  0.00     0.097 C 
ATOM     20  C   UNL     1       0.731   0.049   0.311  1.00  0.00     0.014 C 
ENDBRANCH  15  19
ENDBRANCH   8  14
BRANCH  12  21
ATOM     21  C   UNL     1       3.466   2.955  -7.481  1.00  0.00     0.291 C 
BRANCH  21  22
ATOM     22  C   UNL     1       2.430   4.011  -7.226  1.00  0.00     0.032 C 
ATOM     23  C   UNL     1       2.618   5.346  -7.242  1.00  0.00    -0.075 C 
ATOM     24  C   UNL     1       1.493   6.288  -6.910  1.00  0.00     0.039 C 
ATOM     25  C   UNL     1       3.942   5.995  -7.536  1.00  0.00     0.039 C 
ENDBRANCH  21  22
ENDBRANCH  12  21
ENDBRANCH   4   7
ENDBRANCH   2   3
ENDBRANCH   1   2
BRANCH   1  26
ATOM     26  C   UNL     1      -2.027   0.772  -7.848  1.00  0.00     0.118 C 
BRANCH  26  27
ATOM     27  N   UNL     1      -2.934  -0.326  -7.534  1.00  0.00    -0.352 N 
ATOM     28  C   UNL     1      -4.304  -0.393  -7.570  1.00  0.00     0.251 C 
ATOM     29  H   UNL     1      -2.489  -1.157  -7.249  1.00  0.00     0.163 HD
ATOM     30  O   UNL     1      -4.868  -1.340  -7.028  1.00  0.00    -0.269 OA
BRANCH  28  31
ATOM     31  C   UNL     1      -5.098   0.652  -8.251  1.00  0.00     0.039 A 
ATOM     32  C   UNL     1      -6.324   1.035  -7.697  1.00  0.00     0.014 A 
ATOM     33  C   UNL     1      -4.674   1.211  -9.458  1.00  0.00     0.014 A 
ATOM     34  C   UNL     1      -7.096   2.013  -8.329  1.00  0.00     0.010 A 
ATOM     35  C   UNL     1      -5.404   2.241 -10.043  1.00  0.00     0.010 A 
ATOM     36  C   UNL     1      -6.629   2.643  -9.493  1.00  0.00    -0.014 A 
BRANCH  36  37
ATOM     37  C   UNL     1      -7.412   3.715 -10.157  1.00  0.00     0.031 A 
ATOM     38  C   UNL     1      -7.949   3.509 -11.547  1.00  0.00     0.074 A 
ATOM     39  C   UNL     1      -7.584   4.896  -9.532  1.00  0.00     0.049 A 
ATOM     40  N   UNL     1      -8.610   4.342 -12.311  1.00  0.00    -0.248 NA
ATOM     41  C   UNL     1      -7.683   2.204 -12.173  1.00  0.00     0.031 C 
ATOM     42  C   UNL     1      -7.073   5.229  -8.200  1.00  0.00     0.029 A 
ATOM     43  N   UNL     1      -8.234   6.034  -9.933  1.00  0.00    -0.354 N 
ATOM     44  C   UNL     1      -8.819   3.671 -13.511  1.00  0.00     0.074 A 
ATOM     45  C   UNL     1      -8.168   2.385 -13.392  1.00  0.00     0.031 C 
ATOM     46  C   UNL     1      -7.463   6.472  -7.879  1.00  0.00     0.029 A 
ATOM     47  C   UNL     1      -8.218   7.037  -8.993  1.00  0.00     0.049 A 
ATOM     48  H   UNL     1      -8.671   6.125 -10.810  1.00  0.00     0.167 HD
ATOM     49  C   UNL     1      -9.510   4.080 -14.603  1.00  0.00     0.037 A 
ATOM     50  C   UNL     1      -8.756   8.271  -9.025  1.00  0.00     0.037 A 
ATOM     51  C   UNL     1     -10.175   5.353 -14.702  1.00  0.00     0.049 A 
ATOM     52  C   UNL     1      -9.518   8.706 -10.246  1.00  0.00     0.074 A 
ATOM     53  C   UNL     1     -10.954   5.842 -15.736  1.00  0.00     0.029 A 
ATOM     54  N   UNL     1     -10.135   6.343 -13.730  1.00  0.00    -0.354 N 
ATOM     55  N   UNL     1      -9.758   8.038 -11.350  1.00  0.00    -0.248 NA
ATOM     56  C   UNL     1     -10.083  10.061 -10.225  1.00  0.00     0.031 C 
ATOM     57  C   UNL     1     -11.352   7.143 -15.405  1.00  0.00     0.029 A 
ATOM     58  C   UNL     1     -10.858   7.449 -14.147  1.00  0.00     0.049 A 
ATOM     59  H   UNL     1      -9.662   6.270 -12.870  1.00  0.00     0.167 HD
ATOM     60  C   UNL     1     -10.525   8.881 -12.144  1.00  0.00     0.074 A 
ATOM     61  C   UNL     1     -10.715  10.105 -11.390  1.00  0.00     0.031 C 
ATOM     62  C   UNL     1     -11.032   8.661 -13.384  1.00  0.00     0.037 A 
BRANCH  49  63
ATOM     63  C   UNL     1      -9.565   3.135 -15.774  1.00  0.00     0.058 A 
ATOM     64  C   UNL     1     -10.279   1.926 -15.715  1.00  0.00     0.135 A 
ATOM     65  C   UNL     1      -8.876   3.428 -16.962  1.00  0.00     0.135 A 
ATOM     66  F   UNL     1     -10.946   1.589 -14.599  1.00  0.00    -0.206 F 
ATOM     67  C   UNL     1     -10.260   1.017 -16.767  1.00  0.00     0.059 A 
ATOM     68  C   UNL     1      -8.868   2.546 -18.039  1.00  0.00     0.059 A 
ATOM     69  F   UNL     1      -8.182   4.571 -17.077  1.00  0.00    -0.206 F 
ATOM     70  C   UNL     1      -9.541   1.330 -17.921  1.00  0.00     0.060 A 
BRANCH  70  71
ATOM     71  S   UNL     1      -9.482   0.120 -19.260  1.00  0.00     0.124 S 
ATOM     72  O   UNL     1      -8.527  -0.849 -18.731  1.00  0.00    -0.237 OA
ATOM     73  O   UNL     1     -10.867  -0.334 -19.336  1.00  0.00    -0.237 OA
ATOM     74  O   UNL     1      -9.018   0.901 -20.402  1.00  0.00    -0.744 OA
ENDBRANCH  70  71
ENDBRANCH  49  63
BRANCH  50  75
ATOM     75  C   UNL     1      -8.643   9.154  -7.835  1.00  0.00     0.058 A 
ATOM     76  C   UNL     1      -9.757   9.389  -7.016  1.00  0.00     0.135 A 
ATOM     77  C   UNL     1      -7.422   9.738  -7.465  1.00  0.00     0.135 A 
ATOM     78  F   UNL     1     -10.946   8.855  -7.333  1.00  0.00    -0.206 F 
ATOM     79  C   UNL     1      -9.667  10.173  -5.872  1.00  0.00     0.059 A 
ATOM     80  C   UNL     1      -7.302  10.510  -6.313  1.00  0.00     0.059 A 
ATOM     81  F   UNL     1      -6.324   9.529  -8.208  1.00  0.00    -0.206 F 
ATOM     82  C   UNL     1      -8.432  10.724  -5.524  1.00  0.00     0.060 A 
BRANCH  82  83
ATOM     83  S   UNL     1      -8.312  11.675  -3.994  1.00  0.00     0.124 S 
ATOM     84  O   UNL     1      -9.002  12.907  -4.358  1.00  0.00    -0.237 OA
ATOM     85  O   UNL     1      -9.004  10.812  -3.042  1.00  0.00    -0.237 OA
ATOM     86  O   UNL     1      -6.872  11.795  -3.786  1.00  0.00    -0.744 OA
ENDBRANCH  82  83
ENDBRANCH  50  75
BRANCH  62  87
ATOM     87  C   UNL     1     -11.862   9.758 -13.988  1.00  0.00     0.058 A 
ATOM     88  C   UNL     1     -11.281  10.940 -14.473  1.00  0.00     0.135 A 
ATOM     89  C   UNL     1     -13.253   9.610 -14.113  1.00  0.00     0.135 A 
ATOM     90  F   UNL     1      -9.956  11.134 -14.370  1.00  0.00    -0.206 F 
ATOM     91  C   UNL     1     -12.053  11.951 -15.036  1.00  0.00     0.059 A 
ATOM     92  C   UNL     1     -14.041  10.597 -14.697  1.00  0.00     0.059 A 
ATOM     93  F   UNL     1     -13.856   8.494 -13.675  1.00  0.00    -0.206 F 
ATOM     94  C   UNL     1     -13.434  11.770 -15.142  1.00  0.00     0.060 A 
BRANCH  94  95
ATOM     95  S   UNL     1     -14.425  13.078 -15.895  1.00  0.00     0.124 S 
ATOM     96  O   UNL     1     -14.474  14.063 -14.820  1.00  0.00    -0.237 OA
ATOM     97  O   UNL     1     -13.625  13.448 -17.058  1.00  0.00    -0.237 OA
ATOM     98  O   UNL     1     -15.689  12.414 -16.197  1.00  0.00    -0.744 OA
ENDBRANCH  94  95
ENDBRANCH  62  87
ENDBRANCH  36  37
ENDBRANCH  28  31
ENDBRANCH  26  27
ENDBRANCH   1  26
TORSDOF 17
