REMARK SMILES C[C@@H]1C[C@@H](C)C[NH+](C(C)(C)C(=O)NCCCNC(=O)c2ccc(-c3c4nc(c(-c5c(F)cc(S(=O)(=O)[O-])cc5F)c5ccc([nH]5)c(-c5c(F)cc(S(=O)(=O)[O-])cc5F)c5nc(c(-c6c(F)cc(S(=O)(=O)[O-])cc6F)c6ccc3[nH]6)C=C5)C=C4)cc2)C1
REMARK SMILES IDX 16 1 15 2 14 3 13 4 11 5 12 6 8 8 9 9 10 10 7 11 1 12 2 13
REMARK SMILES IDX 3 14 86 15 4 16 6 17 5 18 17 20 18 21 19 23 20 24 21 25
REMARK SMILES IDX 85 26 22 27 84 28 23 29 24 30 25 31 78 32 26 33 83 34 77 35
REMARK SMILES IDX 79 36 27 37 82 38 76 39 75 40 28 42 62 43 41 44 61 45 42 46
REMARK SMILES IDX 45 47 60 48 80 49 43 50 44 51 59 53 81 54 46 55 29 56 30 57
REMARK SMILES IDX 39 58 31 59 32 60 38 61 40 62 33 63 34 64 35 65 36 66 37 67
REMARK SMILES IDX 63 68 64 69 73 70 65 71 66 72 72 73 74 74 67 75 68 76 69 77
REMARK SMILES IDX 70 78 71 79 47 80 48 81 57 82 49 83 50 84 56 85 58 86 51 87
REMARK SMILES IDX 52 88 53 89 54 90 55 91
REMARK H PARENT 13 7 7 19 17 22 79 41 45 52
REMARK Flexibility Score: inf
ROOT
ATOM      1  C   UNL     1      -1.487   6.620  -3.229  1.00  0.00     0.118 C 
ENDROOT
BRANCH   1   2
ATOM      2  C   UNL     1      -1.787   5.806  -1.982  1.00  0.00     0.042 C 
BRANCH   2   3
ATOM      3  C   UNL     1      -2.445   4.467  -2.280  1.00  0.00     0.118 C 
BRANCH   3   4
ATOM      4  N   UNL     1      -1.562   3.587  -3.025  1.00  0.00    -0.351 N 
ATOM      5  C   UNL     1      -0.902   2.442  -2.680  1.00  0.00     0.280 C 
ATOM      6  O   UNL     1      -0.026   2.098  -3.482  1.00  0.00    -0.268 OA
ATOM      7  H   UNL     1      -1.409   3.870  -3.955  1.00  0.00     0.163 HD
BRANCH   5   8
ATOM      8  C   UNL     1      -1.226   1.663  -1.349  1.00  0.00     0.171 C 
ATOM      9  C   UNL     1      -2.734   1.367  -1.221  1.00  0.00     0.090 C 
ATOM     10  C   UNL     1      -0.695   2.566  -0.206  1.00  0.00     0.090 C 
BRANCH   8  11
ATOM     11  N   UNL     1      -0.458   0.370  -1.290  1.00  0.00    -0.322 N 
ATOM     12  C   UNL     1       1.913  -0.651   0.233  1.00  0.00     0.013 C 
ATOM     13  C   UNL     1       0.565  -1.371   0.116  1.00  0.00     0.042 C 
ATOM     14  C   UNL     1       0.529  -2.357  -1.057  1.00  0.00     0.018 C 
ATOM     15  C   UNL     1      -0.581  -0.362  -0.019  1.00  0.00     0.266 C 
ATOM     16  C   UNL     1       0.414  -1.650  -2.417  1.00  0.00     0.042 C 
ATOM     17  C   UNL     1      -0.689  -0.572  -2.401  1.00  0.00     0.266 C 
ATOM     18  C   UNL     1       0.154  -2.672  -3.524  1.00  0.00     0.013 C 
ATOM     19  H   UNL     1       0.495   0.723  -1.380  1.00  0.00     0.349 HD
ENDBRANCH   8  11
ENDBRANCH   5   8
ENDBRANCH   3   4
ENDBRANCH   2   3
ENDBRANCH   1   2
BRANCH   1  20
ATOM     20  N   UNL     1      -2.695   6.934  -3.981  1.00  0.00    -0.352 N 
ATOM     21  C   UNL     1      -3.326   8.139  -4.166  1.00  0.00     0.251 C 
ATOM     22  H   UNL     1      -3.123   6.166  -4.424  1.00  0.00     0.163 HD
ATOM     23  O   UNL     1      -4.470   8.165  -4.606  1.00  0.00    -0.269 OA
BRANCH  21  24
ATOM     24  C   UNL     1      -2.625   9.395  -3.824  1.00  0.00     0.039 A 
ATOM     25  C   UNL     1      -3.337  10.435  -3.224  1.00  0.00     0.014 A 
ATOM     26  C   UNL     1      -1.267   9.548  -4.111  1.00  0.00     0.014 A 
ATOM     27  C   UNL     1      -2.669  11.607  -2.864  1.00  0.00     0.010 A 
ATOM     28  C   UNL     1      -0.584  10.664  -3.651  1.00  0.00     0.010 A 
ATOM     29  C   UNL     1      -1.281  11.719  -3.047  1.00  0.00    -0.014 A 
BRANCH  29  30
ATOM     30  C   UNL     1      -0.539  12.945  -2.662  1.00  0.00     0.031 A 
ATOM     31  C   UNL     1       0.194  13.732  -3.718  1.00  0.00     0.074 A 
ATOM     32  C   UNL     1      -0.469  13.309  -1.367  1.00  0.00     0.049 A 
ATOM     33  N   UNL     1       0.972  14.773  -3.580  1.00  0.00    -0.248 NA
ATOM     34  C   UNL     1       0.063  13.264  -5.109  1.00  0.00     0.031 C 
ATOM     35  C   UNL     1      -1.095  12.595  -0.250  1.00  0.00     0.029 A 
ATOM     36  N   UNL     1       0.169  14.364  -0.767  1.00  0.00    -0.354 N 
ATOM     37  C   UNL     1       1.437  15.069  -4.857  1.00  0.00     0.074 A 
ATOM     38  C   UNL     1       0.907  14.061  -5.746  1.00  0.00     0.031 C 
ATOM     39  C   UNL     1      -0.830  13.248   0.893  1.00  0.00     0.029 A 
ATOM     40  C   UNL     1       0.017  14.399   0.599  1.00  0.00     0.049 A 
ATOM     41  H   UNL     1       0.688  15.034  -1.269  1.00  0.00     0.167 HD
ATOM     42  C   UNL     1       2.210  16.105  -5.257  1.00  0.00     0.037 A 
ATOM     43  C   UNL     1       0.513  15.258   1.511  1.00  0.00     0.037 A 
ATOM     44  C   UNL     1       2.701  17.125  -4.368  1.00  0.00     0.049 A 
ATOM     45  C   UNL     1       1.366  16.407   1.040  1.00  0.00     0.074 A 
ATOM     46  C   UNL     1       3.442  18.251  -4.678  1.00  0.00     0.029 A 
ATOM     47  N   UNL     1       2.499  17.143  -2.996  1.00  0.00    -0.354 N 
ATOM     48  N   UNL     1       1.743  16.708  -0.180  1.00  0.00    -0.248 NA
ATOM     49  C   UNL     1       1.852  17.338   2.067  1.00  0.00     0.031 C 
ATOM     50  C   UNL     1       3.728  18.925  -3.487  1.00  0.00     0.029 A 
ATOM     51  C   UNL     1       3.116  18.252  -2.442  1.00  0.00     0.049 A 
ATOM     52  H   UNL     1       1.991  16.468  -2.491  1.00  0.00     0.167 HD
ATOM     53  C   UNL     1       2.481  17.882  -0.071  1.00  0.00     0.074 A 
ATOM     54  C   UNL     1       2.487  18.240   1.332  1.00  0.00     0.031 C 
ATOM     55  C   UNL     1       3.096  18.600  -1.044  1.00  0.00     0.037 A 
BRANCH  42  56
ATOM     56  C   UNL     1       2.563  16.195  -6.717  1.00  0.00     0.058 A 
ATOM     57  C   UNL     1       1.599  16.494  -7.694  1.00  0.00     0.135 A 
ATOM     58  C   UNL     1       3.890  16.022  -7.143  1.00  0.00     0.135 A 
ATOM     59  F   UNL     1       0.311  16.652  -7.347  1.00  0.00    -0.206 F 
ATOM     60  C   UNL     1       1.932  16.592  -9.040  1.00  0.00     0.059 A 
ATOM     61  C   UNL     1       4.252  16.146  -8.481  1.00  0.00     0.059 A 
ATOM     62  F   UNL     1       4.853  15.731  -6.253  1.00  0.00    -0.206 F 
ATOM     63  C   UNL     1       3.262  16.420  -9.424  1.00  0.00     0.060 A 
BRANCH  63  64
ATOM     64  S   UNL     1       3.679  16.572 -11.174  1.00  0.00     0.124 S 
ATOM     65  O   UNL     1       3.093  15.352 -11.720  1.00  0.00    -0.237 OA
ATOM     66  O   UNL     1       3.012  17.816 -11.545  1.00  0.00    -0.237 OA
ATOM     67  O   UNL     1       5.138  16.622 -11.174  1.00  0.00    -0.744 OA
ENDBRANCH  63  64
ENDBRANCH  42  56
BRANCH  43  68
ATOM     68  C   UNL     1       0.198  15.080   2.954  1.00  0.00     0.058 A 
ATOM     69  C   UNL     1      -0.628  15.990   3.631  1.00  0.00     0.135 A 
ATOM     70  C   UNL     1       0.713  13.998   3.685  1.00  0.00     0.135 A 
ATOM     71  F   UNL     1      -1.142  17.043   2.978  1.00  0.00    -0.206 F 
ATOM     72  C   UNL     1      -0.911  15.850   4.986  1.00  0.00     0.059 A 
ATOM     73  C   UNL     1       0.420  13.820   5.034  1.00  0.00     0.059 A 
ATOM     74  F   UNL     1       1.492  13.087   3.081  1.00  0.00    -0.206 F 
ATOM     75  C   UNL     1      -0.383  14.760   5.679  1.00  0.00     0.060 A 
BRANCH  75  76
ATOM     76  S   UNL     1      -0.785  14.570   7.429  1.00  0.00     0.124 S 
ATOM     77  O   UNL     1       0.002  15.640   8.030  1.00  0.00    -0.237 OA
ATOM     78  O   UNL     1      -2.232  14.761   7.433  1.00  0.00    -0.237 OA
ATOM     79  O   UNL     1      -0.339  13.213   7.730  1.00  0.00    -0.744 OA
ENDBRANCH  75  76
ENDBRANCH  43  68
BRANCH  55  80
ATOM     80  C   UNL     1       3.783  19.875  -0.636  1.00  0.00     0.058 A 
ATOM     81  C   UNL     1       4.981  19.871   0.093  1.00  0.00     0.135 A 
ATOM     82  C   UNL     1       3.260  21.116  -1.035  1.00  0.00     0.135 A 
ATOM     83  F   UNL     1       5.521  18.712   0.503  1.00  0.00    -0.206 F 
ATOM     84  C   UNL     1       5.625  21.056   0.436  1.00  0.00     0.059 A 
ATOM     85  C   UNL     1       3.903  22.311  -0.731  1.00  0.00     0.059 A 
ATOM     86  F   UNL     1       2.123  21.175  -1.746  1.00  0.00    -0.206 F 
ATOM     87  C   UNL     1       5.079  22.271   0.017  1.00  0.00     0.060 A 
BRANCH  87  88
ATOM     88  S   UNL     1       5.942  23.799   0.440  1.00  0.00     0.124 S 
ATOM     89  O   UNL     1       5.663  23.907   1.868  1.00  0.00    -0.237 OA
ATOM     90  O   UNL     1       7.323  23.485   0.085  1.00  0.00    -0.237 OA
ATOM     91  O   UNL     1       5.296  24.800  -0.404  1.00  0.00    -0.744 OA
ENDBRANCH  87  88
ENDBRANCH  55  80
ENDBRANCH  29  30
ENDBRANCH  21  24
ENDBRANCH   1  20
TORSDOF 14
