REMARK SMILES Cc1cccc(CS[C@@H]2CC[C@]([NH3+])(C(=O)NCCCNC(=O)c3ccc(-c4c5nc(c(-c6c(F)cc(S(=O)(=O)[O-])cc6F)c6ccc([nH]6)c(-c6c(F)cc(S(=O)(=O)[O-])cc6F)c6nc(c(-c7c(F)cc(S(=O)(=O)[O-])cc7F)c7ccc4[nH]7)C=C6)C=C5)cc3)C2)c1
REMARK SMILES IDX 18 1 17 2 16 3 14 4 15 5 12 7 9 8 10 9 89 10 11 11 8 12 7 13
REMARK SMILES IDX 6 14 1 15 2 16 3 17 90 18 4 19 5 20 13 21 19 25 20 26 21 27
REMARK SMILES IDX 22 29 23 30 24 31 88 32 25 33 87 34 26 35 27 36 28 37 81 38
REMARK SMILES IDX 29 39 86 40 80 41 82 42 30 43 85 44 79 45 78 46 31 48 65 49
REMARK SMILES IDX 44 50 64 51 45 52 48 53 63 54 83 55 46 56 47 57 62 59 84 60
REMARK SMILES IDX 49 61 32 62 33 63 42 64 34 65 35 66 41 67 43 68 36 69 37 70
REMARK SMILES IDX 38 71 39 72 40 73 66 74 67 75 76 76 68 77 69 78 75 79 77 80
REMARK SMILES IDX 70 81 71 82 72 83 73 84 74 85 50 86 51 87 60 88 52 89 53 90
REMARK SMILES IDX 59 91 61 92 54 93 55 94 56 95 57 96 58 97
REMARK H PARENT 16 6 13 22 13 23 13 24 20 28 82 47 48 58
REMARK Flexibility Score: inf
ROOT
ATOM      1  C   UNL     1       2.236   0.915  -5.742  1.00  0.00     0.042 C 
ENDROOT
BRANCH   1   2
ATOM      2  C   UNL     1       2.522   0.966  -4.244  1.00  0.00     0.118 C 
BRANCH   2   3
ATOM      3  N   UNL     1       2.475   2.322  -3.710  1.00  0.00    -0.351 N 
ATOM      4  C   UNL     1       1.435   3.143  -3.401  1.00  0.00     0.281 C 
ATOM      5  O   UNL     1       1.727   4.258  -2.948  1.00  0.00    -0.268 OA
ATOM      6  H   UNL     1       3.361   2.718  -3.543  1.00  0.00     0.163 HD
BRANCH   4   7
ATOM      7  C   UNL     1      -0.058   2.796  -3.691  1.00  0.00     0.175 C 
ATOM      8  C   UNL     1      -2.260   2.794  -2.602  1.00  0.00     0.054 C 
ATOM      9  C   UNL     1      -1.981   1.387  -3.128  1.00  0.00     0.022 C 
ATOM     10  C   UNL     1      -0.942   3.563  -2.675  1.00  0.00     0.093 C 
ATOM     11  C   UNL     1      -0.491   1.351  -3.452  1.00  0.00     0.080 C 
BRANCH   8  12
ATOM     12  S   UNL     1      -3.184   2.840  -1.017  1.00  0.00    -0.154 SA
BRANCH  12  13
ATOM     13  C   UNL     1      -1.901   2.599   0.261  1.00  0.00     0.105 C 
BRANCH  13  14
ATOM     14  C   UNL     1      -1.158   1.290   0.218  1.00  0.00    -0.038 A 
ATOM     15  C   UNL     1       2.451   0.053  -0.044  1.00  0.00     0.044 C 
ATOM     16  C   UNL     1       0.956   0.069   0.092  1.00  0.00    -0.051 A 
ATOM     17  C   UNL     1       0.252  -1.139   0.150  1.00  0.00     0.003 A 
ATOM     18  C   UNL     1       0.245   1.276   0.135  1.00  0.00     0.008 A 
ATOM     19  C   UNL     1      -1.138  -1.139   0.265  1.00  0.00     0.001 A 
ATOM     20  C   UNL     1      -1.838   0.067   0.308  1.00  0.00     0.004 A 
ENDBRANCH  13  14
ENDBRANCH  12  13
ENDBRANCH   8  12
BRANCH   7  21
ATOM     21  N   UNL     1      -0.387   3.219  -5.072  1.00  0.00    -0.345 N 
ATOM     22  H   UNL     1      -1.362   2.996  -5.273  1.00  0.00     0.345 HD
ATOM     23  H   UNL     1       0.217   2.726  -5.731  1.00  0.00     0.345 HD
ATOM     24  H   UNL     1      -0.241   4.224  -5.164  1.00  0.00     0.345 HD
ENDBRANCH   7  21
ENDBRANCH   4   7
ENDBRANCH   2   3
ENDBRANCH   1   2
BRANCH   1  25
ATOM     25  C   UNL     1       3.500   0.699  -6.563  1.00  0.00     0.118 C 
BRANCH  25  26
ATOM     26  N   UNL     1       3.672  -0.667  -7.048  1.00  0.00    -0.352 N 
ATOM     27  C   UNL     1       4.723  -1.157  -7.806  1.00  0.00     0.251 C 
ATOM     28  H   UNL     1       2.965  -1.310  -6.811  1.00  0.00     0.163 HD
ATOM     29  O   UNL     1       4.713  -2.272  -8.301  1.00  0.00    -0.269 OA
BRANCH  27  30
ATOM     30  C   UNL     1       5.902  -0.276  -7.938  1.00  0.00     0.039 A 
ATOM     31  C   UNL     1       7.029  -0.592  -7.174  1.00  0.00     0.014 A 
ATOM     32  C   UNL     1       5.743   0.982  -8.516  1.00  0.00     0.014 A 
ATOM     33  C   UNL     1       7.912   0.424  -6.816  1.00  0.00     0.010 A 
ATOM     34  C   UNL     1       6.580   2.000  -8.101  1.00  0.00     0.010 A 
ATOM     35  C   UNL     1       7.623   1.733  -7.198  1.00  0.00    -0.014 A 
BRANCH  35  36
ATOM     36  C   UNL     1       8.282   2.906  -6.627  1.00  0.00     0.031 A 
ATOM     37  C   UNL     1       9.206   3.714  -7.453  1.00  0.00     0.074 A 
ATOM     38  C   UNL     1       7.965   3.316  -5.380  1.00  0.00     0.049 A 
ATOM     39  N   UNL     1       9.953   4.671  -7.013  1.00  0.00    -0.248 NA
ATOM     40  C   UNL     1       9.419   3.423  -8.865  1.00  0.00     0.031 C 
ATOM     41  C   UNL     1       8.207   4.629  -4.792  1.00  0.00     0.029 A 
ATOM     42  N   UNL     1       7.561   2.520  -4.303  1.00  0.00    -0.354 N 
ATOM     43  C   UNL     1      10.531   5.291  -8.098  1.00  0.00     0.074 A 
ATOM     44  C   UNL     1      10.258   4.404  -9.201  1.00  0.00     0.031 C 
ATOM     45  C   UNL     1       8.209   4.512  -3.456  1.00  0.00     0.029 A 
ATOM     46  C   UNL     1       8.133   3.096  -3.146  1.00  0.00     0.049 A 
ATOM     47  H   UNL     1       6.991   1.718  -4.342  1.00  0.00     0.167 HD
ATOM     48  C   UNL     1      11.060   6.541  -7.940  1.00  0.00     0.037 A 
ATOM     49  C   UNL     1       9.067   2.409  -2.421  1.00  0.00     0.037 A 
ATOM     50  C   UNL     1      11.269   6.835  -6.515  1.00  0.00     0.049 A 
ATOM     51  C   UNL     1      10.448   3.035  -2.403  1.00  0.00     0.074 A 
ATOM     52  C   UNL     1      10.609   7.585  -5.555  1.00  0.00     0.029 A 
ATOM     53  N   UNL     1      12.187   6.060  -5.821  1.00  0.00    -0.354 N 
ATOM     54  N   UNL     1      10.772   4.139  -3.019  1.00  0.00    -0.248 NA
ATOM     55  C   UNL     1      11.597   2.408  -1.744  1.00  0.00     0.031 C 
ATOM     56  C   UNL     1      11.080   7.174  -4.270  1.00  0.00     0.029 A 
ATOM     57  C   UNL     1      12.036   6.191  -4.453  1.00  0.00     0.049 A 
ATOM     58  H   UNL     1      12.863   5.487  -6.249  1.00  0.00     0.167 HD
ATOM     59  C   UNL     1      12.125   4.324  -2.926  1.00  0.00     0.074 A 
ATOM     60  C   UNL     1      12.597   3.235  -2.091  1.00  0.00     0.031 C 
ATOM     61  C   UNL     1      12.795   5.315  -3.576  1.00  0.00     0.037 A 
BRANCH  48  62
ATOM     62  C   UNL     1      11.185   7.579  -9.053  1.00  0.00     0.058 A 
ATOM     63  C   UNL     1      11.326   8.952  -8.736  1.00  0.00     0.135 A 
ATOM     64  C   UNL     1      11.057   7.331 -10.437  1.00  0.00     0.135 A 
ATOM     65  F   UNL     1      11.515   9.361  -7.473  1.00  0.00    -0.206 F 
ATOM     66  C   UNL     1      11.256   9.975  -9.692  1.00  0.00     0.059 A 
ATOM     67  C   UNL     1      10.967   8.332 -11.406  1.00  0.00     0.059 A 
ATOM     68  F   UNL     1      11.029   6.102 -10.951  1.00  0.00    -0.206 F 
ATOM     69  C   UNL     1      11.048   9.656 -11.026  1.00  0.00     0.060 A 
BRANCH  69  70
ATOM     70  S   UNL     1      10.878  10.966 -12.250  1.00  0.00     0.124 S 
ATOM     71  O   UNL     1       9.721  11.701 -11.751  1.00  0.00    -0.237 OA
ATOM     72  O   UNL     1      12.162  11.650 -12.146  1.00  0.00    -0.237 OA
ATOM     73  O   UNL     1      10.659  10.240 -13.499  1.00  0.00    -0.744 OA
ENDBRANCH  69  70
ENDBRANCH  48  62
BRANCH  49  74
ATOM     74  C   UNL     1       8.781   0.951  -2.357  1.00  0.00     0.058 A 
ATOM     75  C   UNL     1       7.603   0.545  -1.700  1.00  0.00     0.135 A 
ATOM     76  C   UNL     1       9.377   0.046  -3.246  1.00  0.00     0.135 A 
ATOM     77  F   UNL     1       6.998   1.370  -0.831  1.00  0.00    -0.206 F 
ATOM     78  C   UNL     1       6.952  -0.634  -2.036  1.00  0.00     0.059 A 
ATOM     79  C   UNL     1       8.747  -1.150  -3.588  1.00  0.00     0.059 A 
ATOM     80  F   UNL     1      10.501   0.379  -3.899  1.00  0.00    -0.206 F 
ATOM     81  C   UNL     1       7.502  -1.442  -3.030  1.00  0.00     0.060 A 
BRANCH  81  82
ATOM     82  S   UNL     1       6.453  -2.743  -3.718  1.00  0.00     0.124 S 
ATOM     83  O   UNL     1       6.281  -3.628  -2.571  1.00  0.00    -0.237 OA
ATOM     84  O   UNL     1       5.269  -1.982  -4.113  1.00  0.00    -0.237 OA
ATOM     85  O   UNL     1       7.256  -3.273  -4.814  1.00  0.00    -0.744 OA
ENDBRANCH  81  82
ENDBRANCH  49  74
BRANCH  61  86
ATOM     86  C   UNL     1      14.270   5.493  -3.416  1.00  0.00     0.058 A 
ATOM     87  C   UNL     1      14.843   5.711  -2.153  1.00  0.00     0.135 A 
ATOM     88  C   UNL     1      15.130   5.554  -4.527  1.00  0.00     0.135 A 
ATOM     89  F   UNL     1      14.082   5.682  -1.047  1.00  0.00    -0.206 F 
ATOM     90  C   UNL     1      16.203   5.968  -1.996  1.00  0.00     0.059 A 
ATOM     91  C   UNL     1      16.486   5.842  -4.398  1.00  0.00     0.059 A 
ATOM     92  F   UNL     1      14.670   5.315  -5.766  1.00  0.00    -0.206 F 
ATOM     93  C   UNL     1      17.016   6.035  -3.126  1.00  0.00     0.060 A 
BRANCH  93  94
ATOM     94  S   UNL     1      18.770   6.416  -2.938  1.00  0.00     0.124 S 
ATOM     95  O   UNL     1      18.794   7.263  -1.749  1.00  0.00    -0.237 OA
ATOM     96  O   UNL     1      19.340   5.083  -2.774  1.00  0.00    -0.237 OA
ATOM     97  O   UNL     1      19.098   7.095  -4.188  1.00  0.00    -0.744 OA
ENDBRANCH  93  94
ENDBRANCH  61  86
ENDBRANCH  35  36
ENDBRANCH  27  30
ENDBRANCH  25  26
ENDBRANCH   1  25
TORSDOF 17
