REMARK SMILES Cc1csc(C[C@@H](Cc2ccc(Br)cc2)C(=O)NCCCNC(=O)c2ccc(-c3c4nc(c(-c5c(F)cc(S(=O)(=O)[O-])cc5F)c5ccc([nH]5)c(-c5c(F)cc(S(=O)(=O)[O-])cc5F)c5nc(c(-c6c(F)cc(S(=O)(=O)[O-])cc6F)c6ccc3[nH]6)C=C5)C=C4)cc2)n1
REMARK SMILES IDX 20 1 19 2 18 3 16 4 17 5 7 7 6 8 5 9 1 10 2 11 3 12 91 13
REMARK SMILES IDX 4 14 8 15 9 16 10 17 15 18 11 19 14 20 12 21 13 22 21 23
REMARK SMILES IDX 22 24 23 25 24 27 25 28 26 29 90 30 27 31 89 32 28 33 29 34
REMARK SMILES IDX 30 35 83 36 31 37 88 38 82 39 84 40 32 41 87 42 81 43 80 44
REMARK SMILES IDX 33 46 67 47 46 48 66 49 47 50 50 51 65 52 85 53 48 54 49 55
REMARK SMILES IDX 64 57 86 58 51 59 34 60 35 61 44 62 36 63 37 64 43 65 45 66
REMARK SMILES IDX 38 67 39 68 40 69 41 70 42 71 68 72 69 73 78 74 70 75 71 76
REMARK SMILES IDX 77 77 79 78 72 79 73 80 74 81 75 82 76 83 52 84 53 85 62 86
REMARK SMILES IDX 54 87 55 88 61 89 63 90 56 91 57 92 58 93 59 94 60 95
REMARK H PARENT 18 6 22 26 84 45 50 56
REMARK Flexibility Score: inf
ROOT
ATOM      1  C   UNL     1       2.246   5.403   2.305  1.00  0.00     0.042 C 
ENDROOT
BRANCH   1   2
ATOM      2  C   UNL     1       1.407   5.292   1.053  1.00  0.00     0.117 C 
BRANCH   2   3
ATOM      3  N   UNL     1       2.142   5.155  -0.185  1.00  0.00    -0.356 N 
ATOM      4  C   UNL     1       1.821   4.414  -1.284  1.00  0.00     0.223 C 
ATOM      5  O   UNL     1       2.407   4.684  -2.337  1.00  0.00    -0.275 OA
ATOM      6  H   UNL     1       2.983   5.663  -0.242  1.00  0.00     0.163 HD
BRANCH   4   7
ATOM      7  C   UNL     1       0.819   3.257  -1.240  1.00  0.00     0.089 C 
BRANCH   7   8
ATOM      8  C   UNL     1       1.262   2.214  -0.201  1.00  0.00     0.081 C 
BRANCH   8   9
ATOM      9  C   UNL     1       0.532   0.910  -0.277  1.00  0.00     0.094 A 
ATOM     10  C   UNL     1      -2.608  -0.812  -0.061  1.00  0.00     0.067 C 
ATOM     11  C   UNL     1      -1.158  -0.519  -0.156  1.00  0.00     0.048 A 
ATOM     12  C   UNL     1      -0.110  -1.417  -0.118  1.00  0.00     0.090 A 
ATOM     13  N   UNL     1      -0.777   0.802  -0.272  1.00  0.00    -0.247 NA
ATOM     14  S   UNL     1       1.384  -0.582  -0.220  1.00  0.00    -0.127 S 
ENDBRANCH   8   9
ENDBRANCH   7   8
BRANCH   7  15
ATOM     15  C   UNL     1      -0.665   3.705  -1.337  1.00  0.00     0.049 C 
BRANCH  15  16
ATOM     16  C   UNL     1      -1.327   4.420  -0.179  1.00  0.00    -0.047 A 
ATOM     17  C   UNL     1      -1.688   3.735   0.991  1.00  0.00     0.005 A 
ATOM     18  C   UNL     1      -1.552   5.806  -0.238  1.00  0.00     0.005 A 
ATOM     19  C   UNL     1      -2.150   4.428   2.113  1.00  0.00     0.016 A 
ATOM     20  C   UNL     1      -2.025   6.501   0.881  1.00  0.00     0.016 A 
ATOM     21  C   UNL     1      -2.295   5.811   2.060  1.00  0.00     0.017 A 
ATOM     22  Br  UNL     1      -2.823   6.758   3.607  1.00  0.00    -0.051 Br
ENDBRANCH  15  16
ENDBRANCH   7  15
ENDBRANCH   4   7
ENDBRANCH   2   3
ENDBRANCH   1   2
BRANCH   1  23
ATOM     23  C   UNL     1       2.811   6.795   2.519  1.00  0.00     0.118 C 
BRANCH  23  24
ATOM     24  N   UNL     1       1.782   7.824   2.660  1.00  0.00    -0.352 N 
ATOM     25  C   UNL     1       1.403   8.592   3.739  1.00  0.00     0.251 C 
ATOM     26  H   UNL     1       1.268   7.999   1.838  1.00  0.00     0.163 HD
ATOM     27  O   UNL     1       0.408   9.299   3.658  1.00  0.00    -0.269 OA
BRANCH  25  28
ATOM     28  C   UNL     1       2.185   8.546   4.992  1.00  0.00     0.039 A 
ATOM     29  C   UNL     1       1.518   8.548   6.221  1.00  0.00     0.014 A 
ATOM     30  C   UNL     1       3.577   8.489   4.956  1.00  0.00     0.014 A 
ATOM     31  C   UNL     1       2.249   8.398   7.403  1.00  0.00     0.010 A 
ATOM     32  C   UNL     1       4.286   8.210   6.115  1.00  0.00     0.010 A 
ATOM     33  C   UNL     1       3.634   8.175   7.355  1.00  0.00    -0.014 A 
BRANCH  33  34
ATOM     34  C   UNL     1       4.444   7.930   8.575  1.00  0.00     0.031 A 
ATOM     35  C   UNL     1       5.603   8.841   8.891  1.00  0.00     0.074 A 
ATOM     36  C   UNL     1       4.213   6.837   9.329  1.00  0.00     0.049 A 
ATOM     37  N   UNL     1       6.533   8.712   9.800  1.00  0.00    -0.248 NA
ATOM     38  C   UNL     1       5.768  10.028   8.034  1.00  0.00     0.031 C 
ATOM     39  C   UNL     1       3.166   5.840   9.084  1.00  0.00     0.029 A 
ATOM     40  N   UNL     1       4.860   6.366  10.444  1.00  0.00    -0.354 N 
ATOM     41  C   UNL     1       7.411   9.771   9.596  1.00  0.00     0.074 A 
ATOM     42  C   UNL     1       6.936  10.500   8.442  1.00  0.00     0.031 C 
ATOM     43  C   UNL     1       3.229   4.892  10.033  1.00  0.00     0.029 A 
ATOM     44  C   UNL     1       4.343   5.186  10.927  1.00  0.00     0.049 A 
ATOM     45  H   UNL     1       5.623   6.830  10.859  1.00  0.00     0.167 HD
ATOM     46  C   UNL     1       8.499  10.121  10.321  1.00  0.00     0.037 A 
ATOM     47  C   UNL     1       4.731   4.425  11.968  1.00  0.00     0.037 A 
ATOM     48  C   UNL     1       8.923   9.430  11.509  1.00  0.00     0.049 A 
ATOM     49  C   UNL     1       5.905   4.869  12.798  1.00  0.00     0.074 A 
ATOM     50  C   UNL     1       9.954   9.755  12.372  1.00  0.00     0.029 A 
ATOM     51  N   UNL     1       8.328   8.280  12.008  1.00  0.00    -0.354 N 
ATOM     52  N   UNL     1       6.685   5.911  12.629  1.00  0.00    -0.248 NA
ATOM     53  C   UNL     1       6.247   4.043  13.963  1.00  0.00     0.031 C 
ATOM     54  C   UNL     1      10.002   8.783  13.377  1.00  0.00     0.029 A 
ATOM     55  C   UNL     1       8.976   7.876  13.162  1.00  0.00     0.049 A 
ATOM     56  H   UNL     1       7.559   7.820  11.601  1.00  0.00     0.167 HD
ATOM     57  C   UNL     1       7.594   5.878  13.680  1.00  0.00     0.074 A 
ATOM     58  C   UNL     1       7.259   4.722  14.486  1.00  0.00     0.031 C 
ATOM     59  C   UNL     1       8.616   6.728  13.954  1.00  0.00     0.037 A 
BRANCH  46  60
ATOM     60  C   UNL     1       9.292  11.314   9.861  1.00  0.00     0.058 A 
ATOM     61  C   UNL     1       8.781  12.619   9.950  1.00  0.00     0.135 A 
ATOM     62  C   UNL     1      10.589  11.154   9.349  1.00  0.00     0.135 A 
ATOM     63  F   UNL     1       7.539  12.829  10.415  1.00  0.00    -0.206 F 
ATOM     64  C   UNL     1       9.513  13.719   9.516  1.00  0.00     0.059 A 
ATOM     65  C   UNL     1      11.352  12.243   8.937  1.00  0.00     0.059 A 
ATOM     66  F   UNL     1      11.127   9.929   9.240  1.00  0.00    -0.206 F 
ATOM     67  C   UNL     1      10.799  13.521   9.011  1.00  0.00     0.060 A 
BRANCH  67  68
ATOM     68  S   UNL     1      11.740  14.959   8.461  1.00  0.00     0.124 S 
ATOM     69  O   UNL     1      11.079  15.273   7.198  1.00  0.00    -0.237 OA
ATOM     70  O   UNL     1      11.518  15.911   9.545  1.00  0.00    -0.237 OA
ATOM     71  O   UNL     1      13.103  14.450   8.347  1.00  0.00    -0.744 OA
ENDBRANCH  67  68
ENDBRANCH  46  60
BRANCH  47  72
ATOM     72  C   UNL     1       3.985   3.182  12.300  1.00  0.00     0.058 A 
ATOM     73  C   UNL     1       3.168   3.117  13.439  1.00  0.00     0.135 A 
ATOM     74  C   UNL     1       4.059   2.043  11.484  1.00  0.00     0.135 A 
ATOM     75  F   UNL     1       3.067   4.178  14.253  1.00  0.00    -0.206 F 
ATOM     76  C   UNL     1       2.465   1.962  13.768  1.00  0.00     0.059 A 
ATOM     77  C   UNL     1       3.346   0.884  11.778  1.00  0.00     0.059 A 
ATOM     78  F   UNL     1       4.811   2.060  10.372  1.00  0.00    -0.206 F 
ATOM     79  C   UNL     1       2.560   0.850  12.929  1.00  0.00     0.060 A 
BRANCH  79  80
ATOM     80  S   UNL     1       1.607  -0.629  13.339  1.00  0.00     0.124 S 
ATOM     81  O   UNL     1       2.374  -1.173  14.453  1.00  0.00    -0.237 OA
ATOM     82  O   UNL     1       0.301  -0.070  13.675  1.00  0.00    -0.237 OA
ATOM     83  O   UNL     1       1.647  -1.405  12.103  1.00  0.00    -0.744 OA
ENDBRANCH  79  80
ENDBRANCH  47  72
BRANCH  59  84
ATOM     84  C   UNL     1       9.421   6.460  15.193  1.00  0.00     0.058 A 
ATOM     85  C   UNL     1      10.346   5.407  15.256  1.00  0.00     0.135 A 
ATOM     86  C   UNL     1       9.304   7.303  16.310  1.00  0.00     0.135 A 
ATOM     87  F   UNL     1      10.490   4.571  14.216  1.00  0.00    -0.206 F 
ATOM     88  C   UNL     1      11.114   5.185  16.394  1.00  0.00     0.059 A 
ATOM     89  C   UNL     1      10.080   7.114  17.449  1.00  0.00     0.059 A 
ATOM     90  F   UNL     1       8.441   8.331  16.295  1.00  0.00    -0.206 F 
ATOM     91  C   UNL     1      10.974   6.045  17.485  1.00  0.00     0.060 A 
BRANCH  91  92
ATOM     92  S   UNL     1      12.000   5.767  18.944  1.00  0.00     0.124 S 
ATOM     93  O   UNL     1      11.340   4.616  19.552  1.00  0.00    -0.237 OA
ATOM     94  O   UNL     1      13.313   5.511  18.360  1.00  0.00    -0.237 OA
ATOM     95  O   UNL     1      11.884   7.021  19.684  1.00  0.00    -0.744 OA
ENDBRANCH  91  92
ENDBRANCH  59  84
ENDBRANCH  33  34
ENDBRANCH  25  28
ENDBRANCH  23  24
ENDBRANCH   1  23
TORSDOF 17
