REMARK SMILES Cc1ccccc1NC(=O)CSc1nc(C(=O)NCCCNC(=O)c2ccc(-c3c4nc(c(-c5c(F)cc(S(=O)(=O)[O-])cc5F)c5ccc([nH]5)c(-c5c(F)cc(S(=O)(=O)[O-])cc5F)c5nc(c(-c6c(F)cc(S(=O)(=O)[O-])cc6F)c6ccc3[nH]6)C=C5)C=C4)cc2)c2ccccc2n1
REMARK SMILES IDX 19 1 18 2 16 3 17 4 15 6 13 7 14 8 97 9 96 10 91 11 95 12
REMARK SMILES IDX 92 13 94 14 93 15 12 16 11 17 9 18 8 19 10 21 7 22 1 23 2 24
REMARK SMILES IDX 3 25 4 26 6 27 5 28 20 29 21 30 22 31 23 32 24 34 25 35
REMARK SMILES IDX 26 36 90 37 27 38 89 39 28 40 29 41 30 42 83 43 31 44 88 45
REMARK SMILES IDX 82 46 84 47 32 48 87 49 81 50 80 51 33 53 67 54 46 55 66 56
REMARK SMILES IDX 47 57 50 58 65 59 85 60 48 61 49 62 64 64 86 65 51 66 34 67
REMARK SMILES IDX 35 68 44 69 36 70 37 71 43 72 45 73 38 74 39 75 40 76 41 77
REMARK SMILES IDX 42 78 68 79 69 80 78 81 70 82 71 83 77 84 79 85 72 86 73 87
REMARK SMILES IDX 74 88 75 89 76 90 52 91 53 92 62 93 54 94 55 95 61 96 63 97
REMARK SMILES IDX 56 98 57 99 58 100 59 101 60 102
REMARK H PARENT 18 5 8 20 22 33 84 52 50 63
REMARK Flexibility Score: inf
ROOT
ATOM      1  C   UNL     1      -0.597   7.450  -6.730  1.00  0.00     0.118 C 
ENDROOT
BRANCH   1   2
ATOM      2  N   UNL     1      -0.695   7.789  -5.317  1.00  0.00    -0.351 N 
ATOM      3  C   UNL     1      -0.560   7.082  -4.143  1.00  0.00     0.270 C 
ATOM      4  O   UNL     1      -0.593   7.729  -3.092  1.00  0.00    -0.267 OA
ATOM      5  H   UNL     1      -0.906   8.739  -5.167  1.00  0.00     0.163 HD
BRANCH   3   6
ATOM      6  C   UNL     1      -0.504   5.584  -4.059  1.00  0.00     0.140 A 
ATOM      7  C   UNL     1      -1.445   3.795  -3.000  1.00  0.00     0.189 A 
ATOM      8  N   UNL     1      -1.302   5.111  -3.069  1.00  0.00    -0.217 NA
ATOM      9  N   UNL     1      -0.982   2.929  -3.906  1.00  0.00    -0.222 NA
ATOM     10  C   UNL     1      -0.178   3.410  -4.858  1.00  0.00     0.076 A 
ATOM     11  C   UNL     1       0.218   4.747  -4.918  1.00  0.00     0.032 A 
ATOM     12  C   UNL     1       0.273   2.536  -5.839  1.00  0.00     0.029 A 
ATOM     13  C   UNL     1       1.258   5.110  -5.814  1.00  0.00     0.013 A 
ATOM     14  C   UNL     1       1.164   2.942  -6.834  1.00  0.00     0.002 A 
ATOM     15  C   UNL     1       1.691   4.224  -6.797  1.00  0.00     0.001 A 
BRANCH   7  16
ATOM     16  S   UNL     1      -2.354   3.124  -1.643  1.00  0.00    -0.076 SA
BRANCH  16  17
ATOM     17  C   UNL     1      -1.447   3.882  -0.259  1.00  0.00     0.178 C 
BRANCH  17  18
ATOM     18  C   UNL     1       0.032   3.553  -0.227  1.00  0.00     0.234 C 
ATOM     19  N   UNL     1       0.566   2.316  -0.028  1.00  0.00    -0.325 N 
ATOM     20  H   UNL     1       1.550   2.337  -0.020  1.00  0.00     0.169 HD
ATOM     21  O   UNL     1       0.863   4.465  -0.350  1.00  0.00    -0.274 OA
BRANCH  19  22
ATOM     22  C   UNL     1       0.066   1.014   0.169  1.00  0.00     0.044 A 
ATOM     23  C   UNL     1       2.438   0.017  -0.177  1.00  0.00     0.046 C 
ATOM     24  C   UNL     1       0.949  -0.085   0.038  1.00  0.00    -0.027 A 
ATOM     25  C   UNL     1       0.430  -1.397   0.077  1.00  0.00     0.005 A 
ATOM     26  C   UNL     1      -0.923  -1.631   0.292  1.00  0.00     0.000 A 
ATOM     27  C   UNL     1      -1.271   0.750   0.474  1.00  0.00     0.026 A 
ATOM     28  C   UNL     1      -1.768  -0.557   0.517  1.00  0.00     0.002 A 
ENDBRANCH  19  22
ENDBRANCH  17  18
ENDBRANCH  16  17
ENDBRANCH   7  16
ENDBRANCH   3   6
ENDBRANCH   1   2
BRANCH   1  29
ATOM     29  C   UNL     1      -1.915   7.447  -7.475  1.00  0.00     0.042 C 
BRANCH  29  30
ATOM     30  C   UNL     1      -1.906   8.446  -8.620  1.00  0.00     0.118 C 
BRANCH  30  31
ATOM     31  N   UNL     1      -1.111   8.054  -9.787  1.00  0.00    -0.352 N 
ATOM     32  C   UNL     1      -1.142   8.645 -11.049  1.00  0.00     0.251 C 
ATOM     33  H   UNL     1      -0.493   7.297  -9.668  1.00  0.00     0.163 HD
ATOM     34  O   UNL     1      -0.515   8.219 -12.000  1.00  0.00    -0.269 OA
BRANCH  32  35
ATOM     35  C   UNL     1      -1.957   9.875 -11.158  1.00  0.00     0.039 A 
ATOM     36  C   UNL     1      -1.282  11.084 -10.960  1.00  0.00     0.014 A 
ATOM     37  C   UNL     1      -3.325   9.752 -10.934  1.00  0.00     0.014 A 
ATOM     38  C   UNL     1      -1.928  12.109 -10.281  1.00  0.00     0.010 A 
ATOM     39  C   UNL     1      -3.934  10.738 -10.182  1.00  0.00     0.010 A 
ATOM     40  C   UNL     1      -3.208  11.877  -9.787  1.00  0.00    -0.014 A 
BRANCH  40  41
ATOM     41  C   UNL     1      -3.823  12.699  -8.749  1.00  0.00     0.031 A 
ATOM     42  C   UNL     1      -5.020  13.501  -9.082  1.00  0.00     0.074 A 
ATOM     43  C   UNL     1      -3.364  12.662  -7.475  1.00  0.00     0.049 A 
ATOM     44  N   UNL     1      -5.517  14.412  -8.319  1.00  0.00    -0.248 NA
ATOM     45  C   UNL     1      -5.714  13.395 -10.367  1.00  0.00     0.031 C 
ATOM     46  C   UNL     1      -4.062  13.113  -6.271  1.00  0.00     0.029 A 
ATOM     47  N   UNL     1      -2.055  12.409  -7.038  1.00  0.00    -0.354 N 
ATOM     48  C   UNL     1      -6.735  14.767  -8.842  1.00  0.00     0.074 A 
ATOM     49  C   UNL     1      -6.743  14.225 -10.173  1.00  0.00     0.031 C 
ATOM     50  C   UNL     1      -3.162  13.361  -5.309  1.00  0.00     0.029 A 
ATOM     51  C   UNL     1      -1.846  13.226  -5.904  1.00  0.00     0.049 A 
ATOM     52  H   UNL     1      -1.410  11.785  -7.442  1.00  0.00     0.167 HD
ATOM     53  C   UNL     1      -7.653  15.342  -8.018  1.00  0.00     0.037 A 
ATOM     54  C   UNL     1      -0.893  14.203  -5.893  1.00  0.00     0.037 A 
ATOM     55  C   UNL     1      -6.996  15.897  -6.832  1.00  0.00     0.049 A 
ATOM     56  C   UNL     1      -1.441  15.601  -5.711  1.00  0.00     0.074 A 
ATOM     57  C   UNL     1      -6.961  15.546  -5.495  1.00  0.00     0.029 A 
ATOM     58  N   UNL     1      -5.990  16.850  -7.011  1.00  0.00    -0.354 N 
ATOM     59  N   UNL     1      -2.704  15.914  -5.830  1.00  0.00    -0.248 NA
ATOM     60  C   UNL     1      -0.612  16.760  -5.394  1.00  0.00     0.031 C 
ATOM     61  C   UNL     1      -5.840  16.198  -4.905  1.00  0.00     0.029 A 
ATOM     62  C   UNL     1      -5.229  16.987  -5.867  1.00  0.00     0.049 A 
ATOM     63  H   UNL     1      -5.843  17.356  -7.843  1.00  0.00     0.167 HD
ATOM     64  C   UNL     1      -2.863  17.268  -5.678  1.00  0.00     0.074 A 
ATOM     65  C   UNL     1      -1.527  17.745  -5.365  1.00  0.00     0.031 C 
ATOM     66  C   UNL     1      -4.074  17.882  -5.844  1.00  0.00     0.037 A 
BRANCH  53  67
ATOM     67  C   UNL     1      -9.158  15.207  -8.195  1.00  0.00     0.058 A 
ATOM     68  C   UNL     1     -10.045  15.824  -7.286  1.00  0.00     0.135 A 
ATOM     69  C   UNL     1      -9.793  14.362  -9.138  1.00  0.00     0.135 A 
ATOM     70  F   UNL     1      -9.588  16.631  -6.316  1.00  0.00    -0.206 F 
ATOM     71  C   UNL     1     -11.432  15.610  -7.304  1.00  0.00     0.059 A 
ATOM     72  C   UNL     1     -11.174  14.174  -9.207  1.00  0.00     0.059 A 
ATOM     73  F   UNL     1      -9.113  13.605 -10.004  1.00  0.00    -0.206 F 
ATOM     74  C   UNL     1     -11.988  14.779  -8.269  1.00  0.00     0.060 A 
BRANCH  74  75
ATOM     75  S   UNL     1     -13.762  14.459  -8.278  1.00  0.00     0.124 S 
ATOM     76  O   UNL     1     -13.922  13.622  -7.093  1.00  0.00    -0.237 OA
ATOM     77  O   UNL     1     -14.325  15.802  -8.193  1.00  0.00    -0.237 OA
ATOM     78  O   UNL     1     -13.978  13.777  -9.553  1.00  0.00    -0.744 OA
ENDBRANCH  74  75
ENDBRANCH  53  67
BRANCH  54  79
ATOM     79  C   UNL     1       0.339  13.825  -6.636  1.00  0.00     0.058 A 
ATOM     80  C   UNL     1       1.133  12.801  -6.084  1.00  0.00     0.135 A 
ATOM     81  C   UNL     1       0.477  14.084  -8.007  1.00  0.00     0.135 A 
ATOM     82  F   UNL     1       1.056  12.528  -4.771  1.00  0.00    -0.206 F 
ATOM     83  C   UNL     1       1.888  11.950  -6.881  1.00  0.00     0.059 A 
ATOM     84  C   UNL     1       1.238  13.245  -8.827  1.00  0.00     0.059 A 
ATOM     85  F   UNL     1      -0.248  15.050  -8.588  1.00  0.00    -0.206 F 
ATOM     86  C   UNL     1       1.874  12.137  -8.261  1.00  0.00     0.060 A 
BRANCH  86  87
ATOM     87  S   UNL     1       2.507  10.793  -9.294  1.00  0.00     0.124 S 
ATOM     88  O   UNL     1       3.916  10.757  -8.918  1.00  0.00    -0.237 OA
ATOM     89  O   UNL     1       1.701   9.662  -8.832  1.00  0.00    -0.237 OA
ATOM     90  O   UNL     1       2.226  11.250 -10.650  1.00  0.00    -0.744 OA
ENDBRANCH  86  87
ENDBRANCH  54  79
BRANCH  66  91
ATOM     91  C   UNL     1      -4.298  19.381  -5.930  1.00  0.00     0.058 A 
ATOM     92  C   UNL     1      -3.337  20.306  -6.378  1.00  0.00     0.135 A 
ATOM     93  C   UNL     1      -5.581  19.927  -5.674  1.00  0.00     0.135 A 
ATOM     94  F   UNL     1      -2.122  19.913  -6.785  1.00  0.00    -0.206 F 
ATOM     95  C   UNL     1      -3.597  21.677  -6.477  1.00  0.00     0.059 A 
ATOM     96  C   UNL     1      -5.879  21.280  -5.825  1.00  0.00     0.059 A 
ATOM     97  F   UNL     1      -6.603  19.153  -5.279  1.00  0.00    -0.206 F 
ATOM     98  C   UNL     1      -4.871  22.156  -6.196  1.00  0.00     0.060 A 
BRANCH  98  99
ATOM     99  S   UNL     1      -5.235  23.913  -6.376  1.00  0.00     0.124 S 
ATOM    100  O   UNL     1      -4.973  24.405  -5.027  1.00  0.00    -0.237 OA
ATOM    101  O   UNL     1      -4.283  24.341  -7.397  1.00  0.00    -0.237 OA
ATOM    102  O   UNL     1      -6.633  23.921  -6.793  1.00  0.00    -0.744 OA
ENDBRANCH  98  99
ENDBRANCH  66  91
ENDBRANCH  40  41
ENDBRANCH  32  35
ENDBRANCH  30  31
ENDBRANCH  29  30
ENDBRANCH   1  29
TORSDOF 17
