REMARK SMILES Cc1ccc(OCC(=O)NC(=S)Nc2ccc(C(=O)NCCCNC(=O)c3ccc(-c4c5nc(c(-c6c(F)cc(S(=O)(=O)[O-])cc6F)c6ccc([nH]6)c(-c6c(F)cc(S(=O)(=O)[O-])cc6F)c6nc(c(-c7c(F)cc(S(=O)(=O)[O-])cc7F)c7ccc4[nH]7)C=C6)C=C5)cc3)cc2)cc1
REMARK SMILES IDX 18 1 19 2 20 3 17 5 14 6 15 7 94 8 16 9 93 10 13 11 11 13
REMARK SMILES IDX 12 14 10 15 8 16 9 17 7 19 6 20 5 21 1 22 2 23 3 24 96 25
REMARK SMILES IDX 4 26 95 27 21 28 22 29 23 30 24 31 25 32 26 34 27 35 28 36
REMARK SMILES IDX 92 37 29 38 91 39 30 40 31 41 32 42 85 43 33 44 90 45 84 46
REMARK SMILES IDX 86 47 34 48 89 49 83 50 82 51 35 53 69 54 48 55 68 56 49 57
REMARK SMILES IDX 52 58 67 59 87 60 50 61 51 62 66 64 88 65 53 66 36 67 37 68
REMARK SMILES IDX 46 69 38 70 39 71 45 72 47 73 40 74 41 75 42 76 43 77 44 78
REMARK SMILES IDX 70 79 71 80 80 81 72 82 73 83 79 84 81 85 74 86 75 87 76 88
REMARK SMILES IDX 77 89 78 90 54 91 55 92 64 93 56 94 57 95 63 96 65 97 58 98
REMARK SMILES IDX 59 99 60 100 61 101 62 102
REMARK H PARENT 20 4 13 12 10 18 24 33 86 52 52 63
REMARK Flexibility Score: inf
ROOT
ATOM      1  C   UNL     1      -4.053   1.693  -3.968  1.00  0.00     0.251 C 
ATOM      2  O   UNL     1      -4.859   1.671  -4.892  1.00  0.00    -0.269 OA
ATOM      3  N   UNL     1      -2.880   2.406  -4.054  1.00  0.00    -0.352 N 
ATOM      4  H   UNL     1      -2.663   2.760  -4.947  1.00  0.00     0.163 HD
ENDROOT
BRANCH   1   5
ATOM      5  C   UNL     1      -4.371   0.961  -2.727  1.00  0.00     0.039 A 
ATOM      6  C   UNL     1      -4.867  -0.263  -0.283  1.00  0.00     0.040 A 
ATOM      7  C   UNL     1      -3.838  -0.735  -1.099  1.00  0.00     0.027 A 
ATOM      8  C   UNL     1      -5.732   0.735  -0.742  1.00  0.00     0.027 A 
ATOM      9  C   UNL     1      -3.565  -0.098  -2.308  1.00  0.00     0.016 A 
ATOM     10  C   UNL     1      -5.498   1.331  -1.985  1.00  0.00     0.016 A 
BRANCH   6  11
ATOM     11  N   UNL     1      -4.978  -0.831   0.990  1.00  0.00    -0.332 N 
ATOM     12  H   UNL     1      -4.755  -1.788   1.043  1.00  0.00     0.169 HD
BRANCH  11  13
ATOM     13  C   UNL     1      -5.343  -0.260   2.154  1.00  0.00     0.177 C 
ATOM     14  S   UNL     1      -6.073  -1.210   3.325  1.00  0.00    -0.040 S 
BRANCH  13  15
ATOM     15  N   UNL     1      -5.093   1.054   2.458  1.00  0.00    -0.300 N 
ATOM     16  C   UNL     1      -4.261   2.099   2.080  1.00  0.00     0.264 C 
ATOM     17  O   UNL     1      -4.519   3.209   2.567  1.00  0.00    -0.271 OA
ATOM     18  H   UNL     1      -5.699   1.351   3.175  1.00  0.00     0.172 HD
BRANCH  16  19
ATOM     19  C   UNL     1      -3.060   1.922   1.153  1.00  0.00     0.329 C 
BRANCH  19  20
ATOM     20  O   UNL     1      -2.328   0.740   1.436  1.00  0.00    -0.484 OA
BRANCH  20  21
ATOM     21  C   UNL     1      -1.045   0.652   0.967  1.00  0.00     0.120 A 
ATOM     22  C   UNL     1       3.032  -0.090  -0.274  1.00  0.00     0.044 C 
ATOM     23  C   UNL     1       1.618   0.169   0.157  1.00  0.00    -0.051 A 
ATOM     24  C   UNL     1       0.771  -0.894   0.480  1.00  0.00     0.007 A 
ATOM     25  C   UNL     1       1.118   1.472   0.231  1.00  0.00     0.007 A 
ATOM     26  C   UNL     1      -0.543  -0.650   0.891  1.00  0.00     0.047 A 
ATOM     27  C   UNL     1      -0.207   1.714   0.627  1.00  0.00     0.047 A 
ENDBRANCH  20  21
ENDBRANCH  19  20
ENDBRANCH  16  19
ENDBRANCH  13  15
ENDBRANCH  11  13
ENDBRANCH   6  11
ENDBRANCH   1   5
BRANCH   3  28
ATOM     28  C   UNL     1      -1.910   2.711  -3.003  1.00  0.00     0.118 C 
BRANCH  28  29
ATOM     29  C   UNL     1      -0.660   1.844  -3.095  1.00  0.00     0.042 C 
BRANCH  29  30
ATOM     30  C   UNL     1       0.421   2.418  -4.005  1.00  0.00     0.118 C 
BRANCH  30  31
ATOM     31  N   UNL     1       1.654   2.756  -3.287  1.00  0.00    -0.352 N 
ATOM     32  C   UNL     1       2.927   2.926  -3.798  1.00  0.00     0.251 C 
ATOM     33  H   UNL     1       1.564   2.877  -2.314  1.00  0.00     0.163 HD
ATOM     34  O   UNL     1       3.917   3.105  -3.095  1.00  0.00    -0.269 OA
BRANCH  32  35
ATOM     35  C   UNL     1       3.038   3.009  -5.264  1.00  0.00     0.039 A 
ATOM     36  C   UNL     1       3.157   4.292  -5.809  1.00  0.00     0.014 A 
ATOM     37  C   UNL     1       2.610   1.926  -6.026  1.00  0.00     0.014 A 
ATOM     38  C   UNL     1       2.608   4.539  -7.061  1.00  0.00     0.010 A 
ATOM     39  C   UNL     1       1.978   2.196  -7.224  1.00  0.00     0.010 A 
ATOM     40  C   UNL     1       1.913   3.513  -7.701  1.00  0.00    -0.014 A 
BRANCH  40  41
ATOM     41  C   UNL     1       1.005   3.757  -8.818  1.00  0.00     0.031 A 
ATOM     42  C   UNL     1       1.403   3.353 -10.181  1.00  0.00     0.074 A 
ATOM     43  C   UNL     1      -0.203   4.326  -8.601  1.00  0.00     0.049 A 
ATOM     44  N   UNL     1       0.873   3.807 -11.264  1.00  0.00    -0.248 NA
ATOM     45  C   UNL     1       2.496   2.420 -10.422  1.00  0.00     0.031 C 
ATOM     46  C   UNL     1      -1.308   4.444  -9.547  1.00  0.00     0.029 A 
ATOM     47  N   UNL     1      -0.580   5.138  -7.522  1.00  0.00    -0.354 N 
ATOM     48  C   UNL     1       1.380   3.089 -12.322  1.00  0.00     0.074 A 
ATOM     49  C   UNL     1       2.407   2.252 -11.744  1.00  0.00     0.031 C 
ATOM     50  C   UNL     1      -2.084   5.473  -9.175  1.00  0.00     0.029 A 
ATOM     51  C   UNL     1      -1.441   6.126  -8.049  1.00  0.00     0.049 A 
ATOM     52  H   UNL     1      -0.300   5.039  -6.583  1.00  0.00     0.167 HD
ATOM     53  C   UNL     1       0.810   3.218 -13.555  1.00  0.00     0.037 A 
ATOM     54  C   UNL     1      -1.079   7.442  -8.011  1.00  0.00     0.037 A 
ATOM     55  C   UNL     1      -0.190   4.285 -13.567  1.00  0.00     0.049 A 
ATOM     56  C   UNL     1      -0.816   8.062  -9.370  1.00  0.00     0.074 A 
ATOM     57  C   UNL     1      -1.570   4.339 -13.458  1.00  0.00     0.029 A 
ATOM     58  N   UNL     1       0.249   5.585 -13.394  1.00  0.00    -0.354 N 
ATOM     59  N   UNL     1      -0.932   7.428 -10.508  1.00  0.00    -0.248 NA
ATOM     60  C   UNL     1      -0.347   9.437  -9.555  1.00  0.00     0.031 C 
ATOM     61  C   UNL     1      -1.943   5.687 -13.169  1.00  0.00     0.029 A 
ATOM     62  C   UNL     1      -0.792   6.450 -13.119  1.00  0.00     0.049 A 
ATOM     63  H   UNL     1       1.192   5.861 -13.458  1.00  0.00     0.167 HD
ATOM     64  C   UNL     1      -0.536   8.246 -11.534  1.00  0.00     0.074 A 
ATOM     65  C   UNL     1      -0.194   9.500 -10.889  1.00  0.00     0.031 C 
ATOM     66  C   UNL     1      -0.479   7.842 -12.836  1.00  0.00     0.037 A 
BRANCH  53  67
ATOM     67  C   UNL     1       1.020   2.221 -14.672  1.00  0.00     0.058 A 
ATOM     68  C   UNL     1      -0.020   1.927 -15.579  1.00  0.00     0.135 A 
ATOM     69  C   UNL     1       2.193   1.462 -14.858  1.00  0.00     0.135 A 
ATOM     70  F   UNL     1      -1.155   2.640 -15.595  1.00  0.00    -0.206 F 
ATOM     71  C   UNL     1       0.049   0.876 -16.498  1.00  0.00     0.059 A 
ATOM     72  C   UNL     1       2.262   0.361 -15.717  1.00  0.00     0.059 A 
ATOM     73  F   UNL     1       3.338   1.791 -14.245  1.00  0.00    -0.206 F 
ATOM     74  C   UNL     1       1.176   0.066 -16.527  1.00  0.00     0.060 A 
BRANCH  74  75
ATOM     75  S   UNL     1       1.200  -1.365 -17.623  1.00  0.00     0.124 S 
ATOM     76  O   UNL     1      -0.051  -2.037 -17.282  1.00  0.00    -0.237 OA
ATOM     77  O   UNL     1       1.248  -0.738 -18.938  1.00  0.00    -0.237 OA
ATOM     78  O   UNL     1       2.410  -2.078 -17.223  1.00  0.00    -0.744 OA
ENDBRANCH  74  75
ENDBRANCH  53  67
BRANCH  54  79
ATOM     79  C   UNL     1      -0.470   7.824  -6.707  1.00  0.00     0.058 A 
ATOM     80  C   UNL     1      -1.313   7.813  -5.576  1.00  0.00     0.135 A 
ATOM     81  C   UNL     1       0.909   7.768  -6.478  1.00  0.00     0.135 A 
ATOM     82  F   UNL     1      -2.645   7.894  -5.733  1.00  0.00    -0.206 F 
ATOM     83  C   UNL     1      -0.825   7.587  -4.293  1.00  0.00     0.059 A 
ATOM     84  C   UNL     1       1.423   7.541  -5.196  1.00  0.00     0.059 A 
ATOM     85  F   UNL     1       1.765   7.804  -7.510  1.00  0.00    -0.206 F 
ATOM     86  C   UNL     1       0.541   7.379  -4.125  1.00  0.00     0.060 A 
BRANCH  86  87
ATOM     87  S   UNL     1       1.121   6.800  -2.511  1.00  0.00     0.124 S 
ATOM     88  O   UNL     1       0.461   7.724  -1.594  1.00  0.00    -0.237 OA
ATOM     89  O   UNL     1       0.618   5.427  -2.479  1.00  0.00    -0.237 OA
ATOM     90  O   UNL     1       2.569   6.939  -2.610  1.00  0.00    -0.744 OA
ENDBRANCH  86  87
ENDBRANCH  54  79
BRANCH  66  91
ATOM     91  C   UNL     1      -0.099   8.756 -13.966  1.00  0.00     0.058 A 
ATOM     92  C   UNL     1      -0.708  10.008 -14.150  1.00  0.00     0.135 A 
ATOM     93  C   UNL     1       0.791   8.339 -14.979  1.00  0.00     0.135 A 
ATOM     94  F   UNL     1      -1.601  10.470 -13.261  1.00  0.00    -0.206 F 
ATOM     95  C   UNL     1      -0.426  10.813 -15.255  1.00  0.00     0.059 A 
ATOM     96  C   UNL     1       1.050   9.103 -16.112  1.00  0.00     0.059 A 
ATOM     97  F   UNL     1       1.464   7.183 -14.881  1.00  0.00    -0.206 F 
ATOM     98  C   UNL     1       0.454  10.351 -16.232  1.00  0.00     0.060 A 
BRANCH  98  99
ATOM     99  S   UNL     1       0.810  11.375 -17.673  1.00  0.00     0.124 S 
ATOM    100  O   UNL     1      -0.461  12.056 -17.907  1.00  0.00    -0.237 OA
ATOM    101  O   UNL     1       1.892  12.214 -17.170  1.00  0.00    -0.237 OA
ATOM    102  O   UNL     1       1.187  10.401 -18.692  1.00  0.00    -0.744 OA
ENDBRANCH  98  99
ENDBRANCH  66  91
ENDBRANCH  40  41
ENDBRANCH  32  35
ENDBRANCH  30  31
ENDBRANCH  29  30
ENDBRANCH  28  29
ENDBRANCH   3  28
TORSDOF 19
