REMARK SMILES CC(C)(C)OC(=O)N1CCC[C@H]1C(=O)N[C@@H](Cc1ccccc1)C(=O)NCCCNC(=O)c1ccc(-c2c3nc(c(-c4c(F)cc(S(=O)(=O)[O-])cc4F)c4ccc([nH]4)c(-c4c(F)cc(S(=O)(=O)[O-])cc4F)c4nc(c(-c5c(F)cc(S(=O)(=O)[O-])cc5F)c5ccc2[nH]5)C=C4)C=C3)cc1
REMARK SMILES IDX 27 1 26 2 24 3 25 4 16 6 15 7 13 8 14 9 12 11 8 12 9 13
REMARK SMILES IDX 10 14 11 15 6 16 7 17 5 18 2 19 1 20 3 21 4 22 17 23 18 24
REMARK SMILES IDX 19 25 23 26 20 27 22 28 21 29 28 30 29 31 30 32 31 33 32 35
REMARK SMILES IDX 33 36 34 37 98 38 35 39 97 40 36 41 37 42 38 43 91 44 39 45
REMARK SMILES IDX 96 46 90 47 92 48 40 49 95 50 89 51 88 52 41 54 75 55 54 56
REMARK SMILES IDX 74 57 55 58 58 59 73 60 93 61 56 62 57 63 72 65 94 66 59 67
REMARK SMILES IDX 42 68 43 69 52 70 44 71 45 72 51 73 53 74 46 75 47 76 48 77
REMARK SMILES IDX 49 78 50 79 76 80 77 81 86 82 78 83 79 84 85 85 87 86 80 87
REMARK SMILES IDX 81 88 82 89 83 90 84 91 60 92 61 93 70 94 62 95 63 96 69 97
REMARK SMILES IDX 71 98 64 99 65 100 66 101 67 102 68 103
REMARK H PARENT 26 5 15 10 30 34 92 53 58 64
REMARK Flexibility Score: inf
ROOT
ATOM      1  C   UNL     1      -0.768   5.363  -5.926  1.00  0.00     0.117 C 
ENDROOT
BRANCH   1   2
ATOM      2  N   UNL     1      -0.255   4.307  -5.073  1.00  0.00    -0.354 N 
ATOM      3  C   UNL     1      -0.762   3.821  -3.905  1.00  0.00     0.242 C 
ATOM      4  O   UNL     1      -0.596   2.613  -3.709  1.00  0.00    -0.273 OA
ATOM      5  H   UNL     1       0.578   3.881  -5.382  1.00  0.00     0.163 HD
BRANCH   3   6
ATOM      6  C   UNL     1      -1.620   4.662  -2.936  1.00  0.00     0.175 C 
BRANCH   6   7
ATOM      7  N   UNL     1      -1.141   6.032  -2.800  1.00  0.00    -0.342 N 
ATOM      8  C   UNL     1      -0.222   6.555  -1.938  1.00  0.00     0.243 C 
ATOM      9  O   UNL     1       0.172   7.692  -2.223  1.00  0.00    -0.273 OA
ATOM     10  H   UNL     1      -1.541   6.678  -3.426  1.00  0.00     0.164 HD
BRANCH   8  11
ATOM     11  C   UNL     1       0.182   5.857  -0.599  1.00  0.00     0.178 C 
ATOM     12  N   UNL     1       0.895   4.581  -0.727  1.00  0.00    -0.296 N 
ATOM     13  C   UNL     1       2.316   4.776  -0.516  1.00  0.00     0.124 C 
ATOM     14  C   UNL     1       2.323   5.822   0.586  1.00  0.00     0.024 C 
ATOM     15  C   UNL     1       1.167   6.744   0.201  1.00  0.00     0.037 C 
BRANCH  12  16
ATOM     16  C   UNL     1       0.302   3.365  -0.463  1.00  0.00     0.410 C 
ATOM     17  O   UNL     1      -0.811   3.260   0.041  1.00  0.00    -0.224 OA
BRANCH  16  18
ATOM     18  O   UNL     1       1.076   2.334  -0.873  1.00  0.00    -0.444 OA
BRANCH  18  19
ATOM     19  C   UNL     1       0.643   0.945  -0.857  1.00  0.00     0.106 C 
ATOM     20  C   UNL     1       1.182   0.296   0.420  1.00  0.00     0.056 C 
ATOM     21  C   UNL     1       1.329   0.305  -2.074  1.00  0.00     0.056 C 
ATOM     22  C   UNL     1      -0.871   0.710  -0.966  1.00  0.00     0.056 C 
ENDBRANCH  18  19
ENDBRANCH  16  18
ENDBRANCH  12  16
ENDBRANCH   8  11
ENDBRANCH   6   7
BRANCH   6  23
ATOM     23  C   UNL     1      -3.138   4.526  -3.160  1.00  0.00     0.070 C 
BRANCH  23  24
ATOM     24  C   UNL     1      -3.661   4.688  -4.565  1.00  0.00    -0.045 A 
ATOM     25  C   UNL     1      -4.097   5.934  -5.034  1.00  0.00     0.004 A 
ATOM     26  C   UNL     1      -3.700   3.583  -5.432  1.00  0.00     0.004 A 
ATOM     27  C   UNL     1      -4.528   6.077  -6.355  1.00  0.00     0.000 A 
ATOM     28  C   UNL     1      -4.127   3.730  -6.753  1.00  0.00     0.000 A 
ATOM     29  C   UNL     1      -4.533   4.980  -7.216  1.00  0.00     0.000 A 
ENDBRANCH  23  24
ENDBRANCH   6  23
ENDBRANCH   3   6
ENDBRANCH   1   2
BRANCH   1  30
ATOM     30  C   UNL     1       0.241   5.891  -6.926  1.00  0.00     0.042 C 
BRANCH  30  31
ATOM     31  C   UNL     1       0.733   4.835  -7.907  1.00  0.00     0.118 C 
BRANCH  31  32
ATOM     32  N   UNL     1      -0.329   4.260  -8.731  1.00  0.00    -0.352 N 
ATOM     33  C   UNL     1      -0.594   4.406 -10.074  1.00  0.00     0.251 C 
ATOM     34  H   UNL     1      -0.955   3.673  -8.248  1.00  0.00     0.163 HD
ATOM     35  O   UNL     1      -1.631   3.954 -10.550  1.00  0.00    -0.269 OA
BRANCH  33  36
ATOM     36  C   UNL     1       0.358   5.147 -10.926  1.00  0.00     0.039 A 
ATOM     37  C   UNL     1      -0.120   6.119 -11.808  1.00  0.00     0.014 A 
ATOM     38  C   UNL     1       1.728   4.921 -10.806  1.00  0.00     0.014 A 
ATOM     39  C   UNL     1       0.787   6.946 -12.477  1.00  0.00     0.010 A 
ATOM     40  C   UNL     1       2.620   5.819 -11.373  1.00  0.00     0.010 A 
ATOM     41  C   UNL     1       2.162   6.846 -12.213  1.00  0.00    -0.014 A 
BRANCH  41  42
ATOM     42  C   UNL     1       3.155   7.789 -12.791  1.00  0.00     0.031 A 
ATOM     43  C   UNL     1       4.301   7.252 -13.607  1.00  0.00     0.074 A 
ATOM     44  C   UNL     1       3.098   9.101 -12.485  1.00  0.00     0.049 A 
ATOM     45  N   UNL     1       5.370   7.867 -14.040  1.00  0.00    -0.248 NA
ATOM     46  C   UNL     1       4.264   5.816 -13.933  1.00  0.00     0.031 C 
ATOM     47  C   UNL     1       2.074   9.738 -11.651  1.00  0.00     0.029 A 
ATOM     48  N   UNL     1       3.932  10.136 -12.825  1.00  0.00    -0.354 N 
ATOM     49  C   UNL     1       6.149   6.888 -14.647  1.00  0.00     0.074 A 
ATOM     50  C   UNL     1       5.457   5.630 -14.476  1.00  0.00     0.031 C 
ATOM     51  C   UNL     1       2.324  11.055 -11.572  1.00  0.00     0.029 A 
ATOM     52  C   UNL     1       3.548  11.352 -12.308  1.00  0.00     0.049 A 
ATOM     53  H   UNL     1       4.732  10.020 -13.388  1.00  0.00     0.167 HD
ATOM     54  C   UNL     1       7.321   7.028 -15.310  1.00  0.00     0.037 A 
ATOM     55  C   UNL     1       4.123  12.566 -12.409  1.00  0.00     0.037 A 
ATOM     56  C   UNL     1       7.969   8.292 -15.533  1.00  0.00     0.049 A 
ATOM     57  C   UNL     1       5.399  12.707 -13.193  1.00  0.00     0.074 A 
ATOM     58  C   UNL     1       9.117   8.557 -16.258  1.00  0.00     0.029 A 
ATOM     59  N   UNL     1       7.513   9.508 -15.044  1.00  0.00    -0.354 N 
ATOM     60  N   UNL     1       6.097  11.777 -13.802  1.00  0.00    -0.248 NA
ATOM     61  C   UNL     1       5.964  14.058 -13.308  1.00  0.00     0.031 C 
ATOM     62  C   UNL     1       9.368   9.932 -16.189  1.00  0.00     0.029 A 
ATOM     63  C   UNL     1       8.358  10.527 -15.449  1.00  0.00     0.049 A 
ATOM     64  H   UNL     1       6.707   9.629 -14.492  1.00  0.00     0.167 HD
ATOM     65  C   UNL     1       7.168  12.435 -14.396  1.00  0.00     0.074 A 
ATOM     66  C   UNL     1       7.022  13.841 -14.078  1.00  0.00     0.031 C 
ATOM     67  C   UNL     1       8.181  11.923 -15.137  1.00  0.00     0.037 A 
BRANCH  54  68
ATOM     68  C   UNL     1       7.961   5.780 -15.854  1.00  0.00     0.058 A 
ATOM     69  C   UNL     1       7.397   5.072 -16.927  1.00  0.00     0.135 A 
ATOM     70  C   UNL     1       9.150   5.284 -15.296  1.00  0.00     0.135 A 
ATOM     71  F   UNL     1       6.252   5.492 -17.488  1.00  0.00    -0.206 F 
ATOM     72  C   UNL     1       7.963   3.892 -17.398  1.00  0.00     0.059 A 
ATOM     73  C   UNL     1       9.751   4.122 -15.772  1.00  0.00     0.059 A 
ATOM     74  F   UNL     1       9.734   5.922 -14.269  1.00  0.00    -0.206 F 
ATOM     75  C   UNL     1       9.137   3.421 -16.809  1.00  0.00     0.060 A 
BRANCH  75  76
ATOM     76  S   UNL     1       9.851   1.879 -17.418  1.00  0.00     0.124 S 
ATOM     77  O   UNL     1       8.962   0.891 -16.813  1.00  0.00    -0.237 OA
ATOM     78  O   UNL     1       9.737   2.029 -18.865  1.00  0.00    -0.237 OA
ATOM     79  O   UNL     1      11.212   1.905 -16.893  1.00  0.00    -0.744 OA
ENDBRANCH  75  76
ENDBRANCH  54  68
BRANCH  55  80
ATOM     80  C   UNL     1       3.476  13.751 -11.786  1.00  0.00     0.058 A 
ATOM     81  C   UNL     1       2.843  14.718 -12.582  1.00  0.00     0.135 A 
ATOM     82  C   UNL     1       3.458  13.936 -10.396  1.00  0.00     0.135 A 
ATOM     83  F   UNL     1       2.838  14.587 -13.918  1.00  0.00    -0.206 F 
ATOM     84  C   UNL     1       2.228  15.834 -12.025  1.00  0.00     0.059 A 
ATOM     85  C   UNL     1       2.830  15.034  -9.813  1.00  0.00     0.059 A 
ATOM     86  F   UNL     1       4.033  13.031  -9.589  1.00  0.00    -0.206 F 
ATOM     87  C   UNL     1       2.225  15.982 -10.638  1.00  0.00     0.060 A 
BRANCH  87  88
ATOM     88  S   UNL     1       1.380  17.410  -9.922  1.00  0.00     0.124 S 
ATOM     89  O   UNL     1       2.320  18.485 -10.215  1.00  0.00    -0.237 OA
ATOM     90  O   UNL     1       0.128  17.434 -10.672  1.00  0.00    -0.237 OA
ATOM     91  O   UNL     1       1.250  17.049  -8.513  1.00  0.00    -0.744 OA
ENDBRANCH  87  88
ENDBRANCH  55  80
BRANCH  67  92
ATOM     92  C   UNL     1       9.187  12.888 -15.694  1.00  0.00     0.058 A 
ATOM     93  C   UNL     1      10.179  13.463 -14.886  1.00  0.00     0.135 A 
ATOM     94  C   UNL     1       9.197  13.186 -17.066  1.00  0.00     0.135 A 
ATOM     95  F   UNL     1      10.206  13.214 -13.568  1.00  0.00    -0.206 F 
ATOM     96  C   UNL     1      11.143  14.312 -15.419  1.00  0.00     0.059 A 
ATOM     97  C   UNL     1      10.164  14.015 -17.623  1.00  0.00     0.059 A 
ATOM     98  F   UNL     1       8.272  12.653 -17.880  1.00  0.00    -0.206 F 
ATOM     99  C   UNL     1      11.129  14.579 -16.790  1.00  0.00     0.060 A 
BRANCH  99 100
ATOM    100  S   UNL     1      12.415  15.642 -17.479  1.00  0.00     0.124 S 
ATOM    101  O   UNL     1      11.960  16.963 -17.061  1.00  0.00    -0.237 OA
ATOM    102  O   UNL     1      13.619  15.147 -16.818  1.00  0.00    -0.237 OA
ATOM    103  O   UNL     1      12.342  15.376 -18.913  1.00  0.00    -0.744 OA
ENDBRANCH  99 100
ENDBRANCH  67  92
ENDBRANCH  41  42
ENDBRANCH  33  36
ENDBRANCH  31  32
ENDBRANCH  30  31
ENDBRANCH   1  30
TORSDOF 20
