REMARK SMILES O=C(NCCCNC(=O)[C@@H]1CCC(=O)N1C(=O)/C=C/c1ccccc1)c1ccc(-c2c3nc(c(-c4c(F)cc(S(=O)(=O)[O-])cc4F)c4ccc([nH]4)c(-c4c(F)cc(S(=O)(=O)[O-])cc4F)c4nc(c(-c5c(F)cc(S(=O)(=O)[O-])cc5F)c5ccc2[nH]5)C=C4)C=C3)cc1
REMARK SMILES IDX 5 1 4 2 3 3 1 4 2 5 26 7 27 8 91 9 28 10 90 11 29 12 30 13
REMARK SMILES IDX 31 14 84 15 32 16 89 17 83 18 85 19 33 20 88 21 82 22 81 23
REMARK SMILES IDX 34 25 68 26 47 27 67 28 48 29 51 30 66 31 86 32 49 33 50 34
REMARK SMILES IDX 65 36 87 37 52 38 35 39 36 40 45 41 37 42 38 43 44 44 46 45
REMARK SMILES IDX 39 46 40 47 41 48 42 49 43 50 69 51 70 52 79 53 71 54 72 55
REMARK SMILES IDX 78 56 80 57 73 58 74 59 75 60 76 61 77 62 53 63 54 64 63 65
REMARK SMILES IDX 55 66 56 67 62 68 64 69 57 70 58 71 59 72 60 73 61 74 6 75
REMARK SMILES IDX 7 76 8 77 9 79 10 80 11 81 15 82 12 83 13 84 14 85 16 86
REMARK SMILES IDX 17 87 18 88 19 89 20 90 21 91 25 92 22 93 24 94 23 95
REMARK H PARENT 3 6 85 24 51 35 7 78
REMARK Flexibility Score: inf
ROOT
ATOM      1  C   UNL     1       4.455  -0.777   2.491  1.00  0.00     0.042 C 
ENDROOT
BRANCH   1   2
ATOM      2  C   UNL     1       4.368  -1.072   0.994  1.00  0.00     0.118 C 
BRANCH   2   3
ATOM      3  N   UNL     1       2.990  -1.126   0.541  1.00  0.00    -0.352 N 
ATOM      4  O   UNL     1       1.071  -0.319  -0.287  1.00  0.00    -0.269 OA
ATOM      5  C   UNL     1       2.298  -0.257  -0.264  1.00  0.00     0.251 C 
ATOM      6  H   UNL     1       2.474  -1.902   0.859  1.00  0.00     0.163 HD
BRANCH   5   7
ATOM      7  C   UNL     1       3.005   0.742  -1.099  1.00  0.00     0.039 A 
ATOM      8  C   UNL     1       4.159   0.409  -1.816  1.00  0.00     0.014 A 
ATOM      9  C   UNL     1       2.437   2.012  -1.247  1.00  0.00     0.014 A 
ATOM     10  C   UNL     1       4.785   1.364  -2.618  1.00  0.00     0.010 A 
ATOM     11  C   UNL     1       3.034   2.950  -2.092  1.00  0.00     0.010 A 
ATOM     12  C   UNL     1       4.218   2.637  -2.778  1.00  0.00    -0.014 A 
BRANCH  12  13
ATOM     13  C   UNL     1       4.815   3.618  -3.719  1.00  0.00     0.031 A 
ATOM     14  C   UNL     1       5.433   4.888  -3.211  1.00  0.00     0.074 A 
ATOM     15  C   UNL     1       4.748   3.380  -5.043  1.00  0.00     0.049 A 
ATOM     16  N   UNL     1       5.916   5.897  -3.888  1.00  0.00    -0.248 NA
ATOM     17  C   UNL     1       5.506   5.049  -1.752  1.00  0.00     0.031 C 
ATOM     18  C   UNL     1       4.155   2.189  -5.655  1.00  0.00     0.029 A 
ATOM     19  N   UNL     1       5.164   4.132  -6.112  1.00  0.00    -0.354 N 
ATOM     20  C   UNL     1       6.329   6.826  -2.941  1.00  0.00     0.074 A 
ATOM     21  C   UNL     1       6.024   6.264  -1.641  1.00  0.00     0.031 C 
ATOM     22  C   UNL     1       4.244   2.292  -6.989  1.00  0.00     0.029 A 
ATOM     23  C   UNL     1       4.856   3.573  -7.329  1.00  0.00     0.049 A 
ATOM     24  H   UNL     1       5.638   4.990  -6.017  1.00  0.00     0.167 HD
ATOM     25  C   UNL     1       6.909   8.035  -3.139  1.00  0.00     0.037 A 
ATOM     26  C   UNL     1       5.018   4.046  -8.579  1.00  0.00     0.037 A 
ATOM     27  C   UNL     1       7.216   8.582  -4.436  1.00  0.00     0.049 A 
ATOM     28  C   UNL     1       5.658   5.389  -8.779  1.00  0.00     0.074 A 
ATOM     29  C   UNL     1       7.841   9.778  -4.740  1.00  0.00     0.029 A 
ATOM     30  N   UNL     1       6.912   7.971  -5.645  1.00  0.00    -0.354 N 
ATOM     31  N   UNL     1       6.081   6.237  -7.873  1.00  0.00    -0.248 NA
ATOM     32  C   UNL     1       5.845   5.841 -10.164  1.00  0.00     0.031 C 
ATOM     33  C   UNL     1       7.884   9.907  -6.133  1.00  0.00     0.029 A 
ATOM     34  C   UNL     1       7.319   8.774  -6.697  1.00  0.00     0.049 A 
ATOM     35  H   UNL     1       6.471   7.096  -5.740  1.00  0.00     0.167 HD
ATOM     36  C   UNL     1       6.600   7.317  -8.576  1.00  0.00     0.074 A 
ATOM     37  C   UNL     1       6.440   7.014  -9.985  1.00  0.00     0.031 C 
ATOM     38  C   UNL     1       7.160   8.454  -8.095  1.00  0.00     0.037 A 
BRANCH  25  39
ATOM     39  C   UNL     1       7.218   8.857  -1.920  1.00  0.00     0.058 A 
ATOM     40  C   UNL     1       8.269   8.524  -1.051  1.00  0.00     0.135 A 
ATOM     41  C   UNL     1       6.444   9.986  -1.609  1.00  0.00     0.135 A 
ATOM     42  F   UNL     1       9.032   7.446  -1.295  1.00  0.00    -0.206 F 
ATOM     43  C   UNL     1       8.514   9.255   0.107  1.00  0.00     0.059 A 
ATOM     44  C   UNL     1       6.685  10.745  -0.468  1.00  0.00     0.059 A 
ATOM     45  F   UNL     1       5.429  10.351  -2.409  1.00  0.00    -0.206 F 
ATOM     46  C   UNL     1       7.706  10.356   0.398  1.00  0.00     0.060 A 
BRANCH  46  47
ATOM     47  S   UNL     1       7.994  11.265   1.931  1.00  0.00     0.124 S 
ATOM     48  O   UNL     1       7.364  10.384   2.910  1.00  0.00    -0.237 OA
ATOM     49  O   UNL     1       9.451  11.336   1.989  1.00  0.00    -0.237 OA
ATOM     50  O   UNL     1       7.317  12.537   1.702  1.00  0.00    -0.744 OA
ENDBRANCH  46  47
ENDBRANCH  25  39
BRANCH  26  51
ATOM     51  C   UNL     1       4.554   3.223  -9.724  1.00  0.00     0.058 A 
ATOM     52  C   UNL     1       5.464   2.511 -10.516  1.00  0.00     0.135 A 
ATOM     53  C   UNL     1       3.184   3.055  -9.982  1.00  0.00     0.135 A 
ATOM     54  F   UNL     1       6.782   2.645 -10.309  1.00  0.00    -0.206 F 
ATOM     55  C   UNL     1       5.033   1.645 -11.516  1.00  0.00     0.059 A 
ATOM     56  C   UNL     1       2.728   2.181 -10.963  1.00  0.00     0.059 A 
ATOM     57  F   UNL     1       2.276   3.704  -9.237  1.00  0.00    -0.206 F 
ATOM     58  C   UNL     1       3.662   1.477 -11.724  1.00  0.00     0.060 A 
BRANCH  58  59
ATOM     59  S   UNL     1       3.110   0.264 -12.943  1.00  0.00     0.124 S 
ATOM     60  O   UNL     1       3.348   0.975 -14.194  1.00  0.00    -0.237 OA
ATOM     61  O   UNL     1       3.991  -0.868 -12.674  1.00  0.00    -0.237 OA
ATOM     62  O   UNL     1       1.708   0.052 -12.593  1.00  0.00    -0.744 OA
ENDBRANCH  58  59
ENDBRANCH  26  51
BRANCH  38  63
ATOM     63  C   UNL     1       7.671   9.453  -9.092  1.00  0.00     0.058 A 
ATOM     64  C   UNL     1       6.804  10.325  -9.767  1.00  0.00     0.135 A 
ATOM     65  C   UNL     1       9.051   9.601  -9.303  1.00  0.00     0.135 A 
ATOM     66  F   UNL     1       5.476  10.216  -9.605  1.00  0.00    -0.206 F 
ATOM     67  C   UNL     1       7.288  11.315 -10.616  1.00  0.00     0.059 A 
ATOM     68  C   UNL     1       9.558  10.594 -10.134  1.00  0.00     0.059 A 
ATOM     69  F   UNL     1       9.920   8.793  -8.676  1.00  0.00    -0.206 F 
ATOM     70  C   UNL     1       8.668  11.446 -10.787  1.00  0.00     0.060 A 
BRANCH  70  71
ATOM     71  S   UNL     1       9.291  12.783 -11.830  1.00  0.00     0.124 S 
ATOM     72  O   UNL     1       9.041  12.254 -13.166  1.00  0.00    -0.237 OA
ATOM     73  O   UNL     1       8.456  13.911 -11.428  1.00  0.00    -0.237 OA
ATOM     74  O   UNL     1      10.696  12.885 -11.446  1.00  0.00    -0.744 OA
ENDBRANCH  70  71
ENDBRANCH  38  63
ENDBRANCH  12  13
ENDBRANCH   5   7
ENDBRANCH   2   3
ENDBRANCH   1   2
BRANCH   1  75
ATOM     75  C   UNL     1       3.999  -1.941   3.377  1.00  0.00     0.117 C 
BRANCH  75  76
ATOM     76  N   UNL     1       4.941  -3.044   3.316  1.00  0.00    -0.354 N 
ATOM     77  C   UNL     1       6.075  -3.333   4.010  1.00  0.00     0.243 C 
ATOM     78  H   UNL     1       4.714  -3.718   2.636  1.00  0.00     0.163 HD
ATOM     79  O   UNL     1       6.785  -4.202   3.489  1.00  0.00    -0.273 OA
BRANCH  77  80
ATOM     80  C   UNL     1       6.413  -2.743   5.408  1.00  0.00     0.183 C 
ATOM     81  C   UNL     1       6.040  -1.289   5.646  1.00  0.00     0.046 C 
ATOM     82  N   UNL     1       7.870  -2.756   5.556  1.00  0.00    -0.266 N 
ATOM     83  C   UNL     1       7.188  -0.705   6.433  1.00  0.00     0.103 C 
ATOM     84  C   UNL     1       8.350  -1.492   5.911  1.00  0.00     0.230 C 
ATOM     85  O   UNL     1       9.486  -1.054   5.853  1.00  0.00    -0.274 OA
BRANCH  82  86
ATOM     86  C   UNL     1       8.529  -3.948   5.823  1.00  0.00     0.253 C 
ATOM     87  O   UNL     1       7.965  -4.974   6.196  1.00  0.00    -0.269 OA
BRANCH  86  88
ATOM     88  C   UNL     1      10.007  -3.918   5.718  1.00  0.00     0.072 C 
ATOM     89  C   UNL     1      10.729  -3.522   6.777  1.00  0.00     0.014 C 
BRANCH  89  90
ATOM     90  C   UNL     1      12.183  -3.295   6.792  1.00  0.00    -0.025 A 
ATOM     91  C   UNL     1      12.720  -2.524   7.834  1.00  0.00     0.008 A 
ATOM     92  C   UNL     1      13.056  -3.799   5.819  1.00  0.00     0.008 A 
ATOM     93  C   UNL     1      14.090  -2.259   7.901  1.00  0.00     0.001 A 
ATOM     94  C   UNL     1      14.428  -3.532   5.885  1.00  0.00     0.001 A 
ATOM     95  C   UNL     1      14.944  -2.763   6.926  1.00  0.00     0.000 A 
ENDBRANCH  89  90
ENDBRANCH  86  88
ENDBRANCH  82  86
ENDBRANCH  77  80
ENDBRANCH  75  76
ENDBRANCH   1  75
TORSDOF 16
