REMARK SMILES C[C@H](O)C[NH2+][C@H](CC(=O)Nc1cccc2ccccc12)C(=O)NCCCNC(=O)c1ccc(-c2c3nc(c(-c4c(F)cc(S(=O)(=O)[O-])cc4F)c4ccc([nH]4)c(-c4c(F)cc(S(=O)(=O)[O-])cc4F)c4nc(c(-c5c(F)cc(S(=O)(=O)[O-])cc5F)c5ccc2[nH]5)C=C4)C=C3)cc1
REMARK SMILES IDX 24 1 23 2 21 3 22 4 6 6 5 7 4 10 2 11 1 12 3 13 7 15 8 16
REMARK SMILES IDX 9 17 10 18 11 20 12 21 20 22 13 23 15 24 19 25 14 26 16 27
REMARK SMILES IDX 18 28 17 29 25 30 26 31 27 32 28 33 29 35 30 36 31 37 95 38
REMARK SMILES IDX 32 39 94 40 33 41 34 42 35 43 88 44 36 45 93 46 87 47 89 48
REMARK SMILES IDX 37 49 92 50 86 51 85 52 38 54 72 55 51 56 71 57 52 58 55 59
REMARK SMILES IDX 70 60 90 61 53 62 54 63 69 65 91 66 56 67 39 68 40 69 49 70
REMARK SMILES IDX 41 71 42 72 48 73 50 74 43 75 44 76 45 77 46 78 47 79 73 80
REMARK SMILES IDX 74 81 83 82 75 83 76 84 82 85 84 86 77 87 78 88 79 89 80 90
REMARK SMILES IDX 81 91 57 92 58 93 67 94 59 95 60 96 66 97 68 98 61 99 62 100
REMARK SMILES IDX 63 101 64 102 65 103
REMARK H PARENT 23 5 5 8 5 9 3 14 10 19 27 34 89 53 55 64
REMARK Flexibility Score: inf
ROOT
ATOM      1  C   UNL     1      -1.870   2.838  -1.726  1.00  0.00     0.118 C 
ENDROOT
BRANCH   1   2
ATOM      2  N   UNL     1      -2.514   1.927  -2.650  1.00  0.00    -0.351 N 
ATOM      3  C   UNL     1      -3.377   0.914  -2.218  1.00  0.00     0.278 C 
ATOM      4  O   UNL     1      -4.507   0.910  -2.717  1.00  0.00    -0.268 OA
ATOM      5  H   UNL     1      -2.339   2.023  -3.614  1.00  0.00     0.163 HD
BRANCH   3   6
ATOM      6  C   UNL     1      -2.882  -0.256  -1.272  1.00  0.00     0.282 C 
BRANCH   6   7
ATOM      7  N   UNL     1      -3.904  -0.947  -0.379  1.00  0.00    -0.333 N 
ATOM      8  H   UNL     1      -4.753  -1.097  -0.924  1.00  0.00     0.347 HD
ATOM      9  H   UNL     1      -3.474  -1.816  -0.064  1.00  0.00     0.347 HD
BRANCH   7  10
ATOM     10  C   UNL     1      -4.261  -0.197   0.826  1.00  0.00     0.292 C 
BRANCH  10  11
ATOM     11  C   UNL     1      -4.597  -0.836   2.190  1.00  0.00     0.166 C 
ATOM     12  C   UNL     1      -4.657   0.296   3.239  1.00  0.00     0.044 C 
BRANCH  11  13
ATOM     13  O   UNL     1      -3.554  -1.748   2.546  1.00  0.00    -0.388 OA
ATOM     14  H   UNL     1      -2.709  -1.273   2.586  1.00  0.00     0.211 HD
ENDBRANCH  11  13
ENDBRANCH  10  11
ENDBRANCH   7  10
ENDBRANCH   6   7
BRANCH   6  15
ATOM     15  C   UNL     1      -1.440  -0.192  -0.779  1.00  0.00     0.175 C 
BRANCH  15  16
ATOM     16  C   UNL     1      -0.974   0.192   0.620  1.00  0.00     0.230 C 
ATOM     17  O   UNL     1      -0.136  -0.570   1.140  1.00  0.00    -0.274 OA
ATOM     18  N   UNL     1      -1.189   1.314   1.355  1.00  0.00    -0.325 N 
ATOM     19  H   UNL     1      -0.499   1.367   2.056  1.00  0.00     0.169 HD
BRANCH  18  20
ATOM     20  C   UNL     1      -2.052   2.442   1.479  1.00  0.00     0.049 A 
ATOM     21  C   UNL     1      -3.266   2.586   0.802  1.00  0.00     0.027 A 
ATOM     22  C   UNL     1      -1.710   3.466   2.400  1.00  0.00     0.005 A 
ATOM     23  C   UNL     1      -4.186   3.599   1.049  1.00  0.00     0.003 A 
ATOM     24  C   UNL     1      -2.647   4.511   2.650  1.00  0.00    -0.016 A 
ATOM     25  C   UNL     1      -0.460   3.552   3.058  1.00  0.00     0.011 A 
ATOM     26  C   UNL     1      -3.879   4.553   1.991  1.00  0.00     0.009 A 
ATOM     27  C   UNL     1      -2.333   5.548   3.530  1.00  0.00     0.009 A 
ATOM     28  C   UNL     1      -0.158   4.605   3.921  1.00  0.00     0.001 A 
ATOM     29  C   UNL     1      -1.095   5.599   4.160  1.00  0.00     0.001 A 
ENDBRANCH  18  20
ENDBRANCH  15  16
ENDBRANCH   6  15
ENDBRANCH   3   6
ENDBRANCH   1   2
BRANCH   1  30
ATOM     30  C   UNL     1      -0.738   3.761  -2.122  1.00  0.00     0.042 C 
BRANCH  30  31
ATOM     31  C   UNL     1      -1.085   5.254  -2.031  1.00  0.00     0.118 C 
BRANCH  31  32
ATOM     32  N   UNL     1      -1.775   5.719  -0.816  1.00  0.00    -0.352 N 
ATOM     33  C   UNL     1      -1.566   6.830  -0.018  1.00  0.00     0.251 C 
ATOM     34  H   UNL     1      -2.513   5.139  -0.520  1.00  0.00     0.163 HD
ATOM     35  O   UNL     1      -2.380   7.158   0.834  1.00  0.00    -0.269 OA
BRANCH  33  36
ATOM     36  C   UNL     1      -0.340   7.624  -0.185  1.00  0.00     0.039 A 
ATOM     37  C   UNL     1       0.460   7.925   0.923  1.00  0.00     0.014 A 
ATOM     38  C   UNL     1       0.033   8.027  -1.460  1.00  0.00     0.014 A 
ATOM     39  C   UNL     1       1.700   8.539   0.725  1.00  0.00     0.010 A 
ATOM     40  C   UNL     1       1.313   8.499  -1.666  1.00  0.00     0.010 A 
ATOM     41  C   UNL     1       2.158   8.777  -0.579  1.00  0.00    -0.014 A 
BRANCH  41  42
ATOM     42  C   UNL     1       3.484   9.364  -0.890  1.00  0.00     0.031 A 
ATOM     43  C   UNL     1       3.529  10.608  -1.739  1.00  0.00     0.074 A 
ATOM     44  C   UNL     1       4.616   8.714  -0.555  1.00  0.00     0.049 A 
ATOM     45  N   UNL     1       4.530  11.132  -2.392  1.00  0.00    -0.248 NA
ATOM     46  C   UNL     1       2.249  11.315  -1.937  1.00  0.00     0.031 C 
ATOM     47  C   UNL     1       4.695   7.479   0.230  1.00  0.00     0.029 A 
ATOM     48  N   UNL     1       5.924   8.990  -0.863  1.00  0.00    -0.354 N 
ATOM     49  C   UNL     1       3.993  12.197  -3.106  1.00  0.00     0.074 A 
ATOM     50  C   UNL     1       2.567  12.193  -2.874  1.00  0.00     0.031 C 
ATOM     51  C   UNL     1       5.983   7.118   0.358  1.00  0.00     0.029 A 
ATOM     52  C   UNL     1       6.816   8.059  -0.381  1.00  0.00     0.049 A 
ATOM     53  H   UNL     1       6.200   9.781  -1.381  1.00  0.00     0.167 HD
ATOM     54  C   UNL     1       4.636  13.122  -3.855  1.00  0.00     0.037 A 
ATOM     55  C   UNL     1       8.151   7.973  -0.538  1.00  0.00     0.037 A 
ATOM     56  C   UNL     1       6.064  13.147  -4.023  1.00  0.00     0.049 A 
ATOM     57  C   UNL     1       8.847   9.019  -1.372  1.00  0.00     0.074 A 
ATOM     58  C   UNL     1       6.835  14.060  -4.717  1.00  0.00     0.029 A 
ATOM     59  N   UNL     1       6.936  12.224  -3.463  1.00  0.00    -0.354 N 
ATOM     60  N   UNL     1       8.330  10.037  -2.020  1.00  0.00    -0.248 NA
ATOM     61  C   UNL     1      10.307   8.909  -1.494  1.00  0.00     0.031 C 
ATOM     62  C   UNL     1       8.173  13.673  -4.601  1.00  0.00     0.029 A 
ATOM     63  C   UNL     1       8.239  12.547  -3.795  1.00  0.00     0.049 A 
ATOM     64  H   UNL     1       6.668  11.453  -2.912  1.00  0.00     0.167 HD
ATOM     65  C   UNL     1       9.405  10.711  -2.588  1.00  0.00     0.074 A 
ATOM     66  C   UNL     1      10.600   9.990  -2.202  1.00  0.00     0.031 C 
ATOM     67  C   UNL     1       9.409  11.826  -3.361  1.00  0.00     0.037 A 
BRANCH  54  68
ATOM     68  C   UNL     1       3.808  14.196  -4.505  1.00  0.00     0.058 A 
ATOM     69  C   UNL     1       3.147  15.174  -3.743  1.00  0.00     0.135 A 
ATOM     70  C   UNL     1       3.692  14.271  -5.903  1.00  0.00     0.135 A 
ATOM     71  F   UNL     1       3.204  15.138  -2.401  1.00  0.00    -0.206 F 
ATOM     72  C   UNL     1       2.379  16.167  -4.338  1.00  0.00     0.059 A 
ATOM     73  C   UNL     1       2.956  15.279  -6.522  1.00  0.00     0.059 A 
ATOM     74  F   UNL     1       4.296  13.361  -6.682  1.00  0.00    -0.206 F 
ATOM     75  C   UNL     1       2.293  16.215  -5.729  1.00  0.00     0.060 A 
BRANCH  75  76
ATOM     76  S   UNL     1       1.313  17.530  -6.481  1.00  0.00     0.124 S 
ATOM     77  O   UNL     1      -0.044  17.107  -6.151  1.00  0.00    -0.237 OA
ATOM     78  O   UNL     1       1.795  18.716  -5.780  1.00  0.00    -0.237 OA
ATOM     79  O   UNL     1       1.668  17.453  -7.895  1.00  0.00    -0.744 OA
ENDBRANCH  75  76
ENDBRANCH  54  68
BRANCH  55  80
ATOM     80  C   UNL     1       8.927   6.885   0.119  1.00  0.00     0.058 A 
ATOM     81  C   UNL     1       9.829   7.178   1.155  1.00  0.00     0.135 A 
ATOM     82  C   UNL     1       8.810   5.544  -0.279  1.00  0.00     0.135 A 
ATOM     83  F   UNL     1       9.978   8.444   1.574  1.00  0.00    -0.206 F 
ATOM     84  C   UNL     1      10.615   6.192   1.743  1.00  0.00     0.059 A 
ATOM     85  C   UNL     1       9.564   4.535   0.315  1.00  0.00     0.059 A 
ATOM     86  F   UNL     1       7.947   5.202  -1.249  1.00  0.00    -0.206 F 
ATOM     87  C   UNL     1      10.479   4.873   1.312  1.00  0.00     0.060 A 
BRANCH  87  88
ATOM     88  S   UNL     1      11.503   3.602   2.085  1.00  0.00     0.124 S 
ATOM     89  O   UNL     1      12.814   3.899   1.521  1.00  0.00    -0.237 OA
ATOM     90  O   UNL     1      11.336   3.896   3.505  1.00  0.00    -0.237 OA
ATOM     91  O   UNL     1      10.889   2.357   1.634  1.00  0.00    -0.744 OA
ENDBRANCH  87  88
ENDBRANCH  55  80
BRANCH  67  92
ATOM     92  C   UNL     1      10.745  12.371  -3.781  1.00  0.00     0.058 A 
ATOM     93  C   UNL     1      11.529  11.739  -4.756  1.00  0.00     0.135 A 
ATOM     94  C   UNL     1      11.209  13.583  -3.244  1.00  0.00     0.135 A 
ATOM     95  F   UNL     1      11.130  10.576  -5.296  1.00  0.00    -0.206 F 
ATOM     96  C   UNL     1      12.741  12.279  -5.171  1.00  0.00     0.059 A 
ATOM     97  C   UNL     1      12.402  14.157  -3.666  1.00  0.00     0.059 A 
ATOM     98  F   UNL     1      10.488  14.233  -2.316  1.00  0.00    -0.206 F 
ATOM     99  C   UNL     1      13.167  13.491  -4.623  1.00  0.00     0.060 A 
BRANCH  99 100
ATOM    100  S   UNL     1      14.719  14.203  -5.205  1.00  0.00     0.124 S 
ATOM    101  O   UNL     1      15.699  13.320  -4.582  1.00  0.00    -0.237 OA
ATOM    102  O   UNL     1      14.591  14.086  -6.654  1.00  0.00    -0.237 OA
ATOM    103  O   UNL     1      14.683  15.567  -4.687  1.00  0.00    -0.744 OA
ENDBRANCH  99 100
ENDBRANCH  67  92
ENDBRANCH  41  42
ENDBRANCH  33  36
ENDBRANCH  31  32
ENDBRANCH  30  31
ENDBRANCH   1  30
TORSDOF 20
