REMARK SMILES Cc1ccc(S(=O)(=O)Nc2cc3c(cc2C(=O)NCCCNC(=O)c2ccc(-c4c5nc(c(-c6c(F)cc(S(=O)(=O)[O-])cc6F)c6ccc([nH]6)c(-c6c(F)cc(S(=O)(=O)[O-])cc6F)c6nc(c(-c7c(F)cc(S(=O)(=O)[O-])cc7F)c7ccc4[nH]7)C=C6)C=C5)cc2)OCCO3)s1
REMARK SMILES IDX 20 1 19 2 18 3 16 4 17 5 15 7 10 8 11 9 12 10 14 11 13 12
REMARK SMILES IDX 94 13 91 14 93 15 92 16 9 17 6 19 7 20 8 21 5 22 1 23 2 24
REMARK SMILES IDX 3 25 95 26 4 27 21 28 22 29 23 30 24 32 25 33 26 34 90 35
REMARK SMILES IDX 27 36 89 37 28 38 29 39 30 40 83 41 31 42 88 43 82 44 84 45
REMARK SMILES IDX 32 46 87 47 81 48 80 49 33 51 67 52 46 53 66 54 47 55 50 56
REMARK SMILES IDX 65 57 85 58 48 59 49 60 64 62 86 63 51 64 34 65 35 66 44 67
REMARK SMILES IDX 36 68 37 69 43 70 45 71 38 72 39 73 40 74 41 75 42 76 68 77
REMARK SMILES IDX 69 78 78 79 70 80 71 81 77 82 79 83 72 84 73 85 74 86 75 87
REMARK SMILES IDX 76 88 52 89 53 90 62 91 54 92 55 93 61 94 63 95 56 96 57 97
REMARK SMILES IDX 58 98 59 99 60 100
REMARK H PARENT 18 6 9 18 22 31 84 50 50 61
REMARK Flexibility Score: inf
ROOT
ATOM      1  C   UNL     1       0.689  -3.072   2.607  1.00  0.00     0.042 C 
ENDROOT
BRANCH   1   2
ATOM      2  C   UNL     1      -0.721  -3.415   3.066  1.00  0.00     0.118 C 
BRANCH   2   3
ATOM      3  N   UNL     1      -1.619  -2.272   3.165  1.00  0.00    -0.352 N 
ATOM      4  C   UNL     1      -2.769  -1.879   2.524  1.00  0.00     0.253 C 
ATOM      5  O   UNL     1      -3.325  -0.874   2.965  1.00  0.00    -0.269 OA
ATOM      6  H   UNL     1      -1.335  -1.630   3.855  1.00  0.00     0.163 HD
BRANCH   4   7
ATOM      7  C   UNL     1      -3.352  -2.591   1.349  1.00  0.00     0.067 A 
ATOM      8  C   UNL     1      -4.019  -1.874   0.326  1.00  0.00     0.066 A 
ATOM      9  C   UNL     1      -4.555  -2.551  -0.780  1.00  0.00     0.078 A 
ATOM     10  C   UNL     1      -4.417  -3.933  -0.885  1.00  0.00     0.163 A 
ATOM     11  C   UNL     1      -3.318  -3.986   1.269  1.00  0.00     0.066 A 
ATOM     12  C   UNL     1      -3.779  -4.643   0.131  1.00  0.00     0.162 A 
ATOM     13  O   UNL     1      -4.931  -4.530  -2.007  1.00  0.00    -0.486 OA
ATOM     14  O   UNL     1      -3.565  -5.996   0.081  1.00  0.00    -0.486 OA
ATOM     15  C   UNL     1      -4.958  -5.961  -1.889  1.00  0.00     0.271 C 
ATOM     16  C   UNL     1      -3.671  -6.476  -1.266  1.00  0.00     0.271 C 
BRANCH   8  17
ATOM     17  N   UNL     1      -4.178  -0.451   0.399  1.00  0.00    -0.278 N 
ATOM     18  H   UNL     1      -4.826  -0.049   1.022  1.00  0.00     0.180 HD
BRANCH  17  19
ATOM     19  S   UNL     1      -3.230   0.520  -0.604  1.00  0.00     0.271 S 
ATOM     20  O   UNL     1      -3.258   1.857  -0.064  1.00  0.00    -0.200 OA
ATOM     21  O   UNL     1      -3.674   0.270  -1.966  1.00  0.00    -0.200 OA
BRANCH  19  22
ATOM     22  C   UNL     1      -1.553  -0.074  -0.573  1.00  0.00     0.140 A 
ATOM     23  C   UNL     1       2.290   0.096   0.202  1.00  0.00     0.056 C 
ATOM     24  C   UNL     1       0.882  -0.205  -0.184  1.00  0.00     0.003 A 
ATOM     25  C   UNL     1       0.419  -1.264  -0.938  1.00  0.00     0.016 A 
ATOM     26  S   UNL     1      -0.393   0.836   0.289  1.00  0.00    -0.127 S 
ATOM     27  C   UNL     1      -0.982  -1.188  -1.160  1.00  0.00     0.034 A 
ENDBRANCH  19  22
ENDBRANCH  17  19
ENDBRANCH   8  17
ENDBRANCH   4   7
ENDBRANCH   2   3
ENDBRANCH   1   2
BRANCH   1  28
ATOM     28  C   UNL     1       1.431  -2.074   3.485  1.00  0.00     0.118 C 
BRANCH  28  29
ATOM     29  N   UNL     1       1.599  -2.546   4.853  1.00  0.00    -0.352 N 
ATOM     30  C   UNL     1       2.665  -3.129   5.493  1.00  0.00     0.251 C 
ATOM     31  H   UNL     1       0.804  -2.425   5.422  1.00  0.00     0.163 HD
ATOM     32  O   UNL     1       2.478  -3.660   6.586  1.00  0.00    -0.269 OA
BRANCH  30  33
ATOM     33  C   UNL     1       4.021  -3.143   4.896  1.00  0.00     0.039 A 
ATOM     34  C   UNL     1       4.836  -4.264   5.101  1.00  0.00     0.014 A 
ATOM     35  C   UNL     1       4.532  -2.041   4.209  1.00  0.00     0.014 A 
ATOM     36  C   UNL     1       6.131  -4.299   4.572  1.00  0.00     0.010 A 
ATOM     37  C   UNL     1       5.789  -2.108   3.611  1.00  0.00     0.010 A 
ATOM     38  C   UNL     1       6.608  -3.232   3.796  1.00  0.00    -0.014 A 
BRANCH  38  39
ATOM     39  C   UNL     1       7.963  -3.254   3.186  1.00  0.00     0.031 A 
ATOM     40  C   UNL     1       8.988  -2.224   3.581  1.00  0.00     0.074 A 
ATOM     41  C   UNL     1       8.242  -4.138   2.208  1.00  0.00     0.049 A 
ATOM     42  N   UNL     1      10.174  -2.000   3.076  1.00  0.00    -0.248 NA
ATOM     43  C   UNL     1       8.611  -1.299   4.661  1.00  0.00     0.031 C 
ATOM     44  C   UNL     1       7.314  -5.145   1.690  1.00  0.00     0.029 A 
ATOM     45  N   UNL     1       9.377  -4.313   1.457  1.00  0.00    -0.354 N 
ATOM     46  C   UNL     1      10.669  -0.889   3.749  1.00  0.00     0.074 A 
ATOM     47  C   UNL     1       9.637  -0.461   4.669  1.00  0.00     0.031 C 
ATOM     48  C   UNL     1       7.917  -5.833   0.708  1.00  0.00     0.029 A 
ATOM     49  C   UNL     1       9.261  -5.297   0.505  1.00  0.00     0.049 A 
ATOM     50  H   UNL     1      10.196  -3.783   1.587  1.00  0.00     0.167 HD
ATOM     51  C   UNL     1      11.879  -0.290   3.627  1.00  0.00     0.037 A 
ATOM     52  C   UNL     1      10.131  -5.716  -0.434  1.00  0.00     0.037 A 
ATOM     53  C   UNL     1      12.919  -0.746   2.742  1.00  0.00     0.049 A 
ATOM     54  C   UNL     1      11.490  -5.082  -0.514  1.00  0.00     0.074 A 
ATOM     55  C   UNL     1      14.208  -0.264   2.605  1.00  0.00     0.029 A 
ATOM     56  N   UNL     1      12.787  -1.795   1.843  1.00  0.00    -0.354 N 
ATOM     57  N   UNL     1      11.969  -4.077   0.180  1.00  0.00    -0.248 NA
ATOM     58  C   UNL     1      12.430  -5.643  -1.492  1.00  0.00     0.031 C 
ATOM     59  C   UNL     1      14.847  -1.003   1.601  1.00  0.00     0.029 A 
ATOM     60  C   UNL     1      13.967  -1.967   1.137  1.00  0.00     0.049 A 
ATOM     61  H   UNL     1      11.974  -2.338   1.724  1.00  0.00     0.167 HD
ATOM     62  C   UNL     1      13.271  -3.892  -0.269  1.00  0.00     0.074 A 
ATOM     63  C   UNL     1      13.509  -4.899  -1.284  1.00  0.00     0.031 C 
ATOM     64  C   UNL     1      14.186  -2.971   0.125  1.00  0.00     0.037 A 
BRANCH  51  65
ATOM     65  C   UNL     1      12.130   0.928   4.473  1.00  0.00     0.058 A 
ATOM     66  C   UNL     1      12.289   0.840   5.865  1.00  0.00     0.135 A 
ATOM     67  C   UNL     1      12.189   2.203   3.887  1.00  0.00     0.135 A 
ATOM     68  F   UNL     1      12.229  -0.353   6.478  1.00  0.00    -0.206 F 
ATOM     69  C   UNL     1      12.442   1.975   6.654  1.00  0.00     0.059 A 
ATOM     70  C   UNL     1      12.369   3.351   4.654  1.00  0.00     0.059 A 
ATOM     71  F   UNL     1      12.049   2.345   2.560  1.00  0.00    -0.206 F 
ATOM     72  C   UNL     1      12.467   3.228   6.040  1.00  0.00     0.060 A 
BRANCH  72  73
ATOM     73  S   UNL     1      12.616   4.700   7.075  1.00  0.00     0.124 S 
ATOM     74  O   UNL     1      11.250   4.844   7.569  1.00  0.00    -0.237 OA
ATOM     75  O   UNL     1      13.607   4.291   8.066  1.00  0.00    -0.237 OA
ATOM     76  O   UNL     1      13.058   5.728   6.139  1.00  0.00    -0.744 OA
ENDBRANCH  72  73
ENDBRANCH  51  65
BRANCH  52  77
ATOM     77  C   UNL     1       9.733  -6.815  -1.350  1.00  0.00     0.058 A 
ATOM     78  C   UNL     1      10.212  -8.119  -1.161  1.00  0.00     0.135 A 
ATOM     79  C   UNL     1       8.802  -6.600  -2.378  1.00  0.00     0.135 A 
ATOM     80  F   UNL     1      11.107  -8.370  -0.193  1.00  0.00    -0.206 F 
ATOM     81  C   UNL     1       9.776  -9.176  -1.952  1.00  0.00     0.059 A 
ATOM     82  C   UNL     1       8.337  -7.644  -3.171  1.00  0.00     0.059 A 
ATOM     83  F   UNL     1       8.300  -5.372  -2.584  1.00  0.00    -0.206 F 
ATOM     84  C   UNL     1       8.828  -8.930  -2.948  1.00  0.00     0.060 A 
BRANCH  84  85
ATOM     85  S   UNL     1       8.181 -10.326  -3.895  1.00  0.00     0.124 S 
ATOM     86  O   UNL     1       9.281 -10.593  -4.815  1.00  0.00    -0.237 OA
ATOM     87  O   UNL     1       7.960 -11.327  -2.856  1.00  0.00    -0.237 OA
ATOM     88  O   UNL     1       6.967  -9.785  -4.498  1.00  0.00    -0.744 OA
ENDBRANCH  84  85
ENDBRANCH  52  77
BRANCH  64  89
ATOM     89  C   UNL     1      15.534  -3.015  -0.534  1.00  0.00     0.058 A 
ATOM     90  C   UNL     1      15.727  -2.538  -1.840  1.00  0.00     0.135 A 
ATOM     91  C   UNL     1      16.655  -3.490   0.165  1.00  0.00     0.135 A 
ATOM     92  F   UNL     1      14.685  -2.081  -2.552  1.00  0.00    -0.206 F 
ATOM     93  C   UNL     1      16.983  -2.547  -2.437  1.00  0.00     0.059 A 
ATOM     94  C   UNL     1      17.924  -3.489  -0.405  1.00  0.00     0.059 A 
ATOM     95  F   UNL     1      16.524  -3.950   1.420  1.00  0.00    -0.206 F 
ATOM     96  C   UNL     1      18.076  -3.024  -1.710  1.00  0.00     0.060 A 
BRANCH  96  97
ATOM     97  S   UNL     1      19.709  -2.998  -2.481  1.00  0.00     0.124 S 
ATOM     98  O   UNL     1      19.631  -4.150  -3.372  1.00  0.00    -0.237 OA
ATOM     99  O   UNL     1      19.730  -1.692  -3.132  1.00  0.00    -0.237 OA
ATOM    100  O   UNL     1      20.619  -3.140  -1.348  1.00  0.00    -0.744 OA
ENDBRANCH  96  97
ENDBRANCH  64  89
ENDBRANCH  38  39
ENDBRANCH  30  33
ENDBRANCH  28  29
ENDBRANCH   1  28
TORSDOF 16
