REMARK SMILES C[C@H](c1ccoc1)[NH+]1CC[NH+]([C@@H](C)C(=O)NCCCNC(=O)c2ccc(-c3c4nc(c(-c5c(F)cc(S(=O)(=O)[O-])cc5F)c5ccc([nH]5)c(-c5c(F)cc(S(=O)(=O)[O-])cc5F)c5nc(c(-c6c(F)cc(S(=O)(=O)[O-])cc6F)c6ccc3[nH]6)C=C5)C=C4)cc2)CC1
REMARK SMILES IDX 18 1 17 2 16 3 14 4 15 5 12 7 13 8 11 9 8 10 9 11 90 12
REMARK SMILES IDX 10 14 89 15 2 17 1 18 3 19 4 20 7 21 5 22 6 23 19 24 20 25
REMARK SMILES IDX 21 26 22 28 23 29 24 30 88 31 25 32 87 33 26 34 27 35 28 36
REMARK SMILES IDX 81 37 29 38 86 39 80 40 82 41 30 42 85 43 79 44 78 45 31 47
REMARK SMILES IDX 65 48 44 49 64 50 45 51 48 52 63 53 83 54 46 55 47 56 62 58
REMARK SMILES IDX 84 59 49 60 32 61 33 62 42 63 34 64 35 65 41 66 43 67 36 68
REMARK SMILES IDX 37 69 38 70 39 71 40 72 66 73 67 74 76 75 68 76 69 77 75 78
REMARK SMILES IDX 77 79 70 80 71 81 72 82 73 83 74 84 50 85 51 86 60 87 52 88
REMARK SMILES IDX 53 89 59 90 61 91 54 92 55 93 56 94 57 95 58 96
REMARK H PARENT 16 6 8 13 11 16 20 27 82 46 48 57
REMARK Flexibility Score: inf
ROOT
ATOM      1  C   UNL     1      -1.786   0.825   5.825  1.00  0.00     0.042 C 
ENDROOT
BRANCH   1   2
ATOM      2  C   UNL     1      -3.085   1.123   5.071  1.00  0.00     0.118 C 
BRANCH   2   3
ATOM      3  N   UNL     1      -3.411   2.541   5.043  1.00  0.00    -0.351 N 
ATOM      4  C   UNL     1      -3.449   3.478   4.051  1.00  0.00     0.278 C 
ATOM      5  O   UNL     1      -3.764   4.620   4.418  1.00  0.00    -0.268 OA
ATOM      6  H   UNL     1      -3.656   2.901   5.926  1.00  0.00     0.163 HD
BRANCH   4   7
ATOM      7  C   UNL     1      -3.156   3.204   2.542  1.00  0.00     0.271 C 
ATOM      8  C   UNL     1      -4.018   2.100   1.935  1.00  0.00     0.086 C 
BRANCH   7   9
ATOM      9  N   UNL     1      -1.717   3.300   2.199  1.00  0.00    -0.316 N 
ATOM     10  N   UNL     1      -0.298   0.937   0.923  1.00  0.00    -0.320 N 
ATOM     11  C   UNL     1      -0.689   0.999   2.337  1.00  0.00     0.325 C 
ATOM     12  C   UNL     1      -1.062   1.913   0.127  1.00  0.00     0.325 C 
ATOM     13  H   UNL     1      -0.578   0.043   0.519  1.00  0.00     0.348 HD
ATOM     14  C   UNL     1      -0.790   2.427   2.900  1.00  0.00     0.325 C 
ATOM     15  C   UNL     1      -1.386   3.295   0.768  1.00  0.00     0.325 C 
ATOM     16  H   UNL     1      -1.566   4.240   2.564  1.00  0.00     0.349 HD
BRANCH  10  17
ATOM     17  C   UNL     1       1.162   0.865   0.737  1.00  0.00     0.215 C 
ATOM     18  C   UNL     1       1.956   2.171   0.771  1.00  0.00     0.081 C 
BRANCH  17  19
ATOM     19  C   UNL     1       1.476   0.057  -0.499  1.00  0.00     0.047 A 
ATOM     20  C   UNL     1       1.331   0.411  -1.874  1.00  0.00     0.052 A 
ATOM     21  C   UNL     1       2.059  -1.198  -0.519  1.00  0.00     0.204 A 
ATOM     22  C   UNL     1       1.821  -0.641  -2.609  1.00  0.00     0.195 A 
ATOM     23  O   UNL     1       2.264  -1.625  -1.790  1.00  0.00    -0.472 OA
ENDBRANCH  17  19
ENDBRANCH  10  17
ENDBRANCH   7   9
ENDBRANCH   4   7
ENDBRANCH   2   3
ENDBRANCH   1   2
BRANCH   1  24
ATOM     24  C   UNL     1      -1.925   0.797   7.337  1.00  0.00     0.118 C 
BRANCH  24  25
ATOM     25  N   UNL     1      -2.393  -0.491   7.814  1.00  0.00    -0.352 N 
ATOM     26  C   UNL     1      -1.732  -1.468   8.523  1.00  0.00     0.251 C 
ATOM     27  H   UNL     1      -3.330  -0.699   7.596  1.00  0.00     0.163 HD
ATOM     28  O   UNL     1      -2.247  -2.580   8.610  1.00  0.00    -0.269 OA
BRANCH  26  29
ATOM     29  C   UNL     1      -0.417  -1.210   9.165  1.00  0.00     0.039 A 
ATOM     30  C   UNL     1       0.514  -2.253   9.235  1.00  0.00     0.014 A 
ATOM     31  C   UNL     1      -0.108   0.019   9.755  1.00  0.00     0.014 A 
ATOM     32  C   UNL     1       1.753  -2.051   9.854  1.00  0.00     0.010 A 
ATOM     33  C   UNL     1       1.163   0.250  10.278  1.00  0.00     0.010 A 
ATOM     34  C   UNL     1       2.099  -0.789  10.361  1.00  0.00    -0.014 A 
BRANCH  34  35
ATOM     35  C   UNL     1       3.407  -0.550  11.030  1.00  0.00     0.031 A 
ATOM     36  C   UNL     1       3.447  -0.129  12.479  1.00  0.00     0.074 A 
ATOM     37  C   UNL     1       4.554  -0.658  10.330  1.00  0.00     0.049 A 
ATOM     38  N   UNL     1       4.476   0.195  13.220  1.00  0.00    -0.248 NA
ATOM     39  C   UNL     1       2.155  -0.027  13.177  1.00  0.00     0.031 C 
ATOM     40  C   UNL     1       4.650  -1.010   8.912  1.00  0.00     0.029 A 
ATOM     41  N   UNL     1       5.859  -0.475  10.714  1.00  0.00    -0.354 N 
ATOM     42  C   UNL     1       3.954   0.560  14.457  1.00  0.00     0.074 A 
ATOM     43  C   UNL     1       2.514   0.475  14.348  1.00  0.00     0.031 C 
ATOM     44  C   UNL     1       5.944  -1.046   8.554  1.00  0.00     0.029 A 
ATOM     45  C   UNL     1       6.768  -0.684   9.703  1.00  0.00     0.049 A 
ATOM     46  H   UNL     1       6.120  -0.218  11.628  1.00  0.00     0.167 HD
ATOM     47  C   UNL     1       4.612   0.908  15.589  1.00  0.00     0.037 A 
ATOM     48  C   UNL     1       8.112  -0.594   9.701  1.00  0.00     0.037 A 
ATOM     49  C   UNL     1       6.045   0.951  15.704  1.00  0.00     0.049 A 
ATOM     50  C   UNL     1       8.825  -0.225  10.974  1.00  0.00     0.074 A 
ATOM     51  C   UNL     1       6.812   1.228  16.822  1.00  0.00     0.029 A 
ATOM     52  N   UNL     1       6.930   0.705  14.664  1.00  0.00    -0.354 N 
ATOM     53  N   UNL     1       8.316   0.062  12.149  1.00  0.00    -0.248 NA
ATOM     54  C   UNL     1      10.292  -0.175  10.925  1.00  0.00     0.031 C 
ATOM     55  C   UNL     1       8.160   1.187  16.449  1.00  0.00     0.029 A 
ATOM     56  C   UNL     1       8.234   0.839  15.109  1.00  0.00     0.049 A 
ATOM     57  H   UNL     1       6.668   0.470  13.744  1.00  0.00     0.167 HD
ATOM     58  C   UNL     1       9.401   0.302  12.985  1.00  0.00     0.074 A 
ATOM     59  C   UNL     1      10.594   0.115  12.183  1.00  0.00     0.031 C 
ATOM     60  C   UNL     1       9.410   0.644  14.297  1.00  0.00     0.037 A 
BRANCH  47  61
ATOM     61  C   UNL     1       3.781   1.261  16.795  1.00  0.00     0.058 A 
ATOM     62  C   UNL     1       3.035   0.292  17.487  1.00  0.00     0.135 A 
ATOM     63  C   UNL     1       3.739   2.581  17.273  1.00  0.00     0.135 A 
ATOM     64  F   UNL     1       3.027  -0.983  17.066  1.00  0.00    -0.206 F 
ATOM     65  C   UNL     1       2.244   0.626  18.581  1.00  0.00     0.059 A 
ATOM     66  C   UNL     1       2.978   2.932  18.385  1.00  0.00     0.059 A 
ATOM     67  F   UNL     1       4.434   3.547  16.653  1.00  0.00    -0.206 F 
ATOM     68  C   UNL     1       2.218   1.951  19.020  1.00  0.00     0.060 A 
BRANCH  68  69
ATOM     69  S   UNL     1       1.175   2.371  20.432  1.00  0.00     0.124 S 
ATOM     70  O   UNL     1      -0.154   2.333  19.832  1.00  0.00    -0.237 OA
ATOM     71  O   UNL     1       1.476   1.298  21.375  1.00  0.00    -0.237 OA
ATOM     72  O   UNL     1       1.650   3.695  20.823  1.00  0.00    -0.744 OA
ENDBRANCH  68  69
ENDBRANCH  47  61
BRANCH  48  73
ATOM     73  C   UNL     1       8.871  -0.895   8.459  1.00  0.00     0.058 A 
ATOM     74  C   UNL     1       9.626  -2.072   8.344  1.00  0.00     0.135 A 
ATOM     75  C   UNL     1       8.834  -0.032   7.352  1.00  0.00     0.135 A 
ATOM     76  F   UNL     1       9.698  -2.925   9.377  1.00  0.00    -0.206 F 
ATOM     77  C   UNL     1      10.324  -2.381   7.181  1.00  0.00     0.059 A 
ATOM     78  C   UNL     1       9.505  -0.330   6.170  1.00  0.00     0.059 A 
ATOM     79  F   UNL     1       8.113   1.099   7.405  1.00  0.00    -0.206 F 
ATOM     80  C   UNL     1      10.253  -1.505   6.096  1.00  0.00     0.060 A 
BRANCH  80  81
ATOM     81  S   UNL     1      11.108  -1.948   4.568  1.00  0.00     0.124 S 
ATOM     82  O   UNL     1      12.500  -1.708   4.931  1.00  0.00    -0.237 OA
ATOM     83  O   UNL     1      10.723  -3.345   4.396  1.00  0.00    -0.237 OA
ATOM     84  O   UNL     1      10.541  -1.025   3.589  1.00  0.00    -0.744 OA
ENDBRANCH  80  81
ENDBRANCH  48  73
BRANCH  60  85
ATOM     85  C   UNL     1      10.749   0.809  14.960  1.00  0.00     0.058 A 
ATOM     86  C   UNL     1      11.563   1.924  14.708  1.00  0.00     0.135 A 
ATOM     87  C   UNL     1      11.198  -0.134  15.898  1.00  0.00     0.135 A 
ATOM     88  F   UNL     1      11.182   2.852  13.816  1.00  0.00    -0.206 F 
ATOM     89  C   UNL     1      12.787   2.088  15.348  1.00  0.00     0.059 A 
ATOM     90  C   UNL     1      12.406   0.022  16.569  1.00  0.00     0.059 A 
ATOM     91  F   UNL     1      10.451  -1.213  16.182  1.00  0.00    -0.206 F 
ATOM     92  C   UNL     1      13.200   1.131  16.279  1.00  0.00     0.060 A 
BRANCH  92  93
ATOM     93  S   UNL     1      14.774   1.372  17.128  1.00  0.00     0.124 S 
ATOM     94  O   UNL     1      15.729   1.028  16.080  1.00  0.00    -0.237 OA
ATOM     95  O   UNL     1      14.719   2.784  17.497  1.00  0.00    -0.237 OA
ATOM     96  O   UNL     1      14.703   0.436  18.246  1.00  0.00    -0.744 OA
ENDBRANCH  92  93
ENDBRANCH  60  85
ENDBRANCH  34  35
ENDBRANCH  26  29
ENDBRANCH  24  25
ENDBRANCH   1  24
TORSDOF 16
