REMARK SMILES O=C(NCCCNC(=O)[C@H](CO)NC(=O)[C@H](CS)NC(=O)[C@H](Cc1ccccc1)NC(=O)c1ccc(F)cc1)c1ccc(-c2c3nc(c(-c4c(F)cc(S(=O)(=O)[O-])cc4F)c4ccc([nH]4)c(-c4c(F)cc(S(=O)(=O)[O-])cc4F)c4nc(c(-c5c(F)cc(S(=O)(=O)[O-])cc5F)c5ccc2[nH]5)C=C4)C=C3)cc1
REMARK SMILES IDX 7 1 8 2 9 3 6 5 5 6 4 7 3 8 1 9 2 10 40 12 41 13 105 14
REMARK SMILES IDX 42 15 104 16 43 17 44 18 45 19 98 20 46 21 103 22 97 23
REMARK SMILES IDX 99 24 47 25 102 26 96 27 95 28 48 30 82 31 61 32 81 33 62 34
REMARK SMILES IDX 65 35 80 36 100 37 63 38 64 39 79 41 101 42 66 43 49 44
REMARK SMILES IDX 50 45 59 46 51 47 52 48 58 49 60 50 53 51 54 52 55 53 56 54
REMARK SMILES IDX 57 55 83 56 84 57 93 58 85 59 86 60 92 61 94 62 87 63 88 64
REMARK SMILES IDX 89 65 90 66 91 67 67 68 68 69 77 70 69 71 70 72 76 73 78 74
REMARK SMILES IDX 71 75 72 76 73 77 74 78 75 79 10 80 13 81 14 82 15 84 16 85
REMARK SMILES IDX 19 86 20 87 21 89 22 90 30 91 31 92 32 94 33 95 34 96 39 97
REMARK SMILES IDX 35 98 38 99 36 100 37 101 23 102 24 103 25 104 29 105 26 106
REMARK SMILES IDX 28 107 27 108 17 109 18 110 11 112 12 113
REMARK H PARENT 7 4 3 11 99 29 65 40 13 83 19 88 30 93 18 111 12 114
REMARK Flexibility Score: inf
ROOT
ATOM      1  N   UNL     1       5.458  10.479  -1.564  1.00  0.00    -0.354 N 
ATOM      2  C   UNL     1       6.016  11.633  -1.980  1.00  0.00     0.244 C 
ATOM      3  O   UNL     1       7.124  11.883  -1.489  1.00  0.00    -0.273 OA
ATOM      4  H   UNL     1       5.875  10.146  -0.736  1.00  0.00     0.163 HD
ENDROOT
BRANCH   1   5
ATOM      5  C   UNL     1       4.389   9.595  -2.032  1.00  0.00     0.117 C 
BRANCH   5   6
ATOM      6  C   UNL     1       4.923   8.319  -3.066  1.00  0.00     0.042 C 
BRANCH   6   7
ATOM      7  C   UNL     1       5.800   6.341  -2.701  1.00  0.00     0.118 C 
BRANCH   7   8
ATOM      8  N   UNL     1       5.625   5.332  -1.391  1.00  0.00    -0.352 N 
ATOM      9  O   UNL     1       4.609   3.596  -0.331  1.00  0.00    -0.269 OA
ATOM     10  C   UNL     1       5.106   4.064  -1.347  1.00  0.00     0.251 C 
ATOM     11  H   UNL     1       5.936   5.694  -0.530  1.00  0.00     0.163 HD
BRANCH  10  12
ATOM     12  C   UNL     1       5.253   3.276  -2.567  1.00  0.00     0.039 A 
ATOM     13  C   UNL     1       6.511   3.326  -3.175  1.00  0.00     0.014 A 
ATOM     14  C   UNL     1       4.193   2.555  -3.113  1.00  0.00     0.014 A 
ATOM     15  C   UNL     1       6.684   2.749  -4.406  1.00  0.00     0.010 A 
ATOM     16  C   UNL     1       4.414   1.850  -4.292  1.00  0.00     0.010 A 
ATOM     17  C   UNL     1       5.667   1.935  -4.922  1.00  0.00    -0.014 A 
BRANCH  17  18
ATOM     18  C   UNL     1       6.061   1.024  -6.005  1.00  0.00     0.031 A 
ATOM     19  C   UNL     1       5.523   1.186  -7.383  1.00  0.00     0.074 A 
ATOM     20  C   UNL     1       7.008   0.117  -5.690  1.00  0.00     0.049 A 
ATOM     21  N   UNL     1       5.818   0.498  -8.450  1.00  0.00    -0.248 NA
ATOM     22  C   UNL     1       4.519   2.240  -7.596  1.00  0.00     0.031 C 
ATOM     23  C   UNL     1       7.572  -0.069  -4.342  1.00  0.00     0.029 A 
ATOM     24  N   UNL     1       7.711  -0.763  -6.459  1.00  0.00    -0.354 N 
ATOM     25  C   UNL     1       5.015   1.008  -9.459  1.00  0.00     0.074 A 
ATOM     26  C   UNL     1       4.216   2.065  -8.876  1.00  0.00     0.031 C 
ATOM     27  C   UNL     1       8.596  -0.926  -4.404  1.00  0.00     0.029 A 
ATOM     28  C   UNL     1       8.684  -1.438  -5.761  1.00  0.00     0.049 A 
ATOM     29  H   UNL     1       7.538  -0.901  -7.418  1.00  0.00     0.167 HD
ATOM     30  C   UNL     1       4.961   0.603 -10.749  1.00  0.00     0.037 A 
ATOM     31  C   UNL     1       9.533  -2.396  -6.168  1.00  0.00     0.037 A 
ATOM     32  C   UNL     1       5.790  -0.454 -11.274  1.00  0.00     0.049 A 
ATOM     33  C   UNL     1       9.441  -2.821  -7.600  1.00  0.00     0.074 A 
ATOM     34  C   UNL     1       5.829  -0.962 -12.559  1.00  0.00     0.029 A 
ATOM     35  N   UNL     1       6.731  -1.164 -10.534  1.00  0.00    -0.354 N 
ATOM     36  N   UNL     1       8.661  -2.347  -8.545  1.00  0.00    -0.248 NA
ATOM     37  C   UNL     1      10.314  -3.918  -8.021  1.00  0.00     0.031 C 
ATOM     38  C   UNL     1       6.761  -2.006 -12.585  1.00  0.00     0.029 A 
ATOM     39  C   UNL     1       7.343  -2.116 -11.330  1.00  0.00     0.049 A 
ATOM     40  H   UNL     1       6.931  -1.011  -9.582  1.00  0.00     0.167 HD
ATOM     41  C   UNL     1       8.944  -3.093  -9.677  1.00  0.00     0.074 A 
ATOM     42  C   UNL     1       9.994  -4.024  -9.303  1.00  0.00     0.031 C 
ATOM     43  C   UNL     1       8.381  -3.027 -10.909  1.00  0.00     0.037 A 
BRANCH  30  44
ATOM     44  C   UNL     1       3.956   1.262 -11.650  1.00  0.00     0.058 A 
ATOM     45  C   UNL     1       4.105   2.586 -12.094  1.00  0.00     0.135 A 
ATOM     46  C   UNL     1       2.834   0.547 -12.100  1.00  0.00     0.135 A 
ATOM     47  F   UNL     1       5.145   3.325 -11.677  1.00  0.00    -0.206 F 
ATOM     48  C   UNL     1       3.172   3.181 -12.938  1.00  0.00     0.059 A 
ATOM     49  C   UNL     1       1.900   1.113 -12.964  1.00  0.00     0.059 A 
ATOM     50  F   UNL     1       2.634  -0.718 -11.699  1.00  0.00    -0.206 F 
ATOM     51  C   UNL     1       2.073   2.436 -13.370  1.00  0.00     0.060 A 
BRANCH  51  52
ATOM     52  S   UNL     1       0.879   3.217 -14.477  1.00  0.00     0.124 S 
ATOM     53  O   UNL     1       0.207   4.146 -13.573  1.00  0.00    -0.237 OA
ATOM     54  O   UNL     1       1.742   3.826 -15.485  1.00  0.00    -0.237 OA
ATOM     55  O   UNL     1       0.066   2.099 -14.945  1.00  0.00    -0.744 OA
ENDBRANCH  51  52
ENDBRANCH  30  44
BRANCH  31  56
ATOM     56  C   UNL     1      10.471  -3.020  -5.200  1.00  0.00     0.058 A 
ATOM     57  C   UNL     1      11.857  -2.848  -5.310  1.00  0.00     0.135 A 
ATOM     58  C   UNL     1       9.991  -3.762  -4.106  1.00  0.00     0.135 A 
ATOM     59  F   UNL     1      12.367  -2.144  -6.332  1.00  0.00    -0.206 F 
ATOM     60  C   UNL     1      12.735  -3.398  -4.380  1.00  0.00     0.059 A 
ATOM     61  C   UNL     1      10.845  -4.291  -3.146  1.00  0.00     0.059 A 
ATOM     62  F   UNL     1       8.670  -3.938  -3.939  1.00  0.00    -0.206 F 
ATOM     63  C   UNL     1      12.218  -4.116  -3.300  1.00  0.00     0.060 A 
BRANCH  63  64
ATOM     64  S   UNL     1      13.359  -4.792  -2.075  1.00  0.00     0.124 S 
ATOM     65  O   UNL     1      13.927  -5.923  -2.800  1.00  0.00    -0.237 OA
ATOM     66  O   UNL     1      14.259  -3.667  -1.838  1.00  0.00    -0.237 OA
ATOM     67  O   UNL     1      12.487  -5.133  -0.955  1.00  0.00    -0.744 OA
ENDBRANCH  63  64
ENDBRANCH  31  56
BRANCH  43  68
ATOM     68  C   UNL     1       8.919  -3.984 -11.930  1.00  0.00     0.058 A 
ATOM     69  C   UNL     1       8.617  -5.353 -11.881  1.00  0.00     0.135 A 
ATOM     70  C   UNL     1       9.728  -3.518 -12.976  1.00  0.00     0.135 A 
ATOM     71  F   UNL     1       7.858  -5.844 -10.888  1.00  0.00    -0.206 F 
ATOM     72  C   UNL     1       9.127  -6.237 -12.822  1.00  0.00     0.059 A 
ATOM     73  C   UNL     1      10.224  -4.380 -13.946  1.00  0.00     0.059 A 
ATOM     74  F   UNL     1      10.037  -2.215 -13.066  1.00  0.00    -0.206 F 
ATOM     75  C   UNL     1       9.930  -5.740 -13.851  1.00  0.00     0.060 A 
BRANCH  75  76
ATOM     76  S   UNL     1      10.569  -6.894 -15.081  1.00  0.00     0.124 S 
ATOM     77  O   UNL     1      11.621  -7.570 -14.329  1.00  0.00    -0.237 OA
ATOM     78  O   UNL     1       9.393  -7.701 -15.392  1.00  0.00    -0.237 OA
ATOM     79  O   UNL     1      11.027  -6.022 -16.158  1.00  0.00    -0.744 OA
ENDBRANCH  75  76
ENDBRANCH  43  68
ENDBRANCH  17  18
ENDBRANCH  10  12
ENDBRANCH   7   8
ENDBRANCH   6   7
ENDBRANCH   5   6
ENDBRANCH   1   5
BRANCH   2  80
ATOM     80  C   UNL     1       5.359  12.617  -2.962  1.00  0.00     0.197 C 
BRANCH  80  81
ATOM     81  N   UNL     1       4.043  12.249  -3.489  1.00  0.00    -0.340 N 
ATOM     82  C   UNL     1       3.709  11.619  -4.653  1.00  0.00     0.244 C 
ATOM     83  H   UNL     1       3.281  12.494  -2.915  1.00  0.00     0.164 HD
ATOM     84  O   UNL     1       2.568  11.161  -4.752  1.00  0.00    -0.273 OA
BRANCH  82  85
ATOM     85  C   UNL     1       4.698  11.552  -5.825  1.00  0.00     0.181 C 
BRANCH  85  86
ATOM     86  N   UNL     1       4.722  10.189  -6.379  1.00  0.00    -0.342 N 
ATOM     87  C   UNL     1       5.709   9.289  -6.642  1.00  0.00     0.243 C 
ATOM     88  H   UNL     1       3.825   9.854  -6.610  1.00  0.00     0.164 HD
ATOM     89  O   UNL     1       5.386   8.347  -7.376  1.00  0.00    -0.273 OA
BRANCH  87  90
ATOM     90  C   UNL     1       7.165   9.350  -6.086  1.00  0.00     0.176 C 
BRANCH  90  91
ATOM     91  N   UNL     1       7.524  10.495  -5.253  1.00  0.00    -0.340 N 
ATOM     92  C   UNL     1       8.176  11.665  -5.550  1.00  0.00     0.251 C 
ATOM     93  H   UNL     1       7.248  10.413  -4.311  1.00  0.00     0.164 HD
ATOM     94  O   UNL     1       8.368  12.469  -4.639  1.00  0.00    -0.269 OA
BRANCH  92  95
ATOM     95  C   UNL     1       8.650  12.017  -6.911  1.00  0.00     0.040 A 
ATOM     96  C   UNL     1       9.868  12.713  -6.992  1.00  0.00     0.017 A 
ATOM     97  C   UNL     1       7.917  11.781  -8.080  1.00  0.00     0.017 A 
ATOM     98  C   UNL     1      10.370  13.121  -8.229  1.00  0.00     0.040 A 
ATOM     99  C   UNL     1       8.427  12.183  -9.319  1.00  0.00     0.040 A 
ATOM    100  C   UNL     1       9.649  12.843  -9.382  1.00  0.00     0.123 A 
ATOM    101  F   UNL     1      10.131  13.232 -10.570  1.00  0.00    -0.207 F 
ENDBRANCH  92  95
ENDBRANCH  90  91
BRANCH  90 102
ATOM    102  C   UNL     1       7.529   8.015  -5.365  1.00  0.00     0.070 C 
BRANCH 102 103
ATOM    103  C   UNL     1       6.602   7.621  -4.229  1.00  0.00    -0.045 A 
ATOM    104  C   UNL     1       5.031   6.869  -4.651  1.00  0.00     0.004 A 
ATOM    105  C   UNL     1       6.946   8.111  -2.522  1.00  0.00     0.004 A 
ATOM    106  C   UNL     1       3.801   6.520  -3.380  1.00  0.00     0.000 A 
ATOM    107  C   UNL     1       5.721   7.768  -1.234  1.00  0.00     0.000 A 
ATOM    108  C   UNL     1       4.106   7.024  -1.684  1.00  0.00     0.000 A 
ENDBRANCH 102 103
ENDBRANCH  90 102
ENDBRANCH  87  90
ENDBRANCH  85  86
BRANCH  85 109
ATOM    109  C   UNL     1       4.199  12.548  -6.888  1.00  0.00     0.101 C 
BRANCH 109 110
ATOM    110  S   UNL     1       4.800  14.244  -6.576  1.00  0.00    -0.177 SA
ATOM    111  H   UNL     1       4.335  14.675  -5.373  1.00  0.00     0.102 HD
ENDBRANCH 109 110
ENDBRANCH  85 109
ENDBRANCH  82  85
ENDBRANCH  80  81
BRANCH  80 112
ATOM    112  C   UNL     1       5.293  13.981  -2.250  1.00  0.00     0.191 C 
BRANCH 112 113
ATOM    113  O   UNL     1       4.165  14.049  -1.371  1.00  0.00    -0.394 OA
ATOM    114  H   UNL     1       3.349  13.938  -1.883  1.00  0.00     0.210 HD
ENDBRANCH 112 113
ENDBRANCH  80 112
ENDBRANCH   2  80
TORSDOF 25
