REMARK SMILES CC[C@](C)(C(=O)NCCCNC(=O)c1ccc(-c2c3nc(c(-c4c(F)cc(S(=O)(=O)[O-])cc4F)c4ccc([nH]4)c(-c4c(F)cc(S(=O)(=O)[O-])cc4F)c4nc(c(-c5c(F)cc(S(=O)(=O)[O-])cc5F)c5ccc2[nH]5)C=C4)C=C3)cc1)[C@@H]1CCC[C@@H]1O
REMARK SMILES IDX 9 1 8 2 7 3 5 4 6 5 3 7 4 8 2 9 1 10 80 11 81 12 84 13 82 14
REMARK SMILES IDX 83 15 85 16 10 18 11 19 12 20 13 22 14 23 15 24 79 25 16 26
REMARK SMILES IDX 78 27 17 28 18 29 19 30 72 31 20 32 77 33 71 34 73 35 21 36
REMARK SMILES IDX 76 37 70 38 69 39 22 41 56 42 35 43 55 44 36 45 39 46 54 47
REMARK SMILES IDX 74 48 37 49 38 50 53 52 75 53 40 54 23 55 24 56 33 57 25 58
REMARK SMILES IDX 26 59 32 60 34 61 27 62 28 63 29 64 30 65 31 66 57 67 58 68
REMARK SMILES IDX 67 69 59 70 60 71 66 72 68 73 61 74 62 75 63 76 64 77 65 78
REMARK SMILES IDX 41 79 42 80 51 81 43 82 44 83 50 84 52 85 45 86 46 87 47 88
REMARK SMILES IDX 48 89 49 90
REMARK H PARENT 7 6 85 17 11 21 73 40 39 51
REMARK Flexibility Score: inf
ROOT
ATOM      1  C   UNL     1       2.437   1.464  -2.859  1.00  0.00     0.042 C 
ENDROOT
BRANCH   1   2
ATOM      2  C   UNL     1       3.508   0.983  -1.897  1.00  0.00     0.117 C 
BRANCH   2   3
ATOM      3  N   UNL     1       3.111   1.180  -0.516  1.00  0.00    -0.356 N 
ATOM      4  C   UNL     1       2.770   0.303   0.466  1.00  0.00     0.226 C 
ATOM      5  O   UNL     1       2.235   0.815   1.456  1.00  0.00    -0.274 OA
ATOM      6  H   UNL     1       3.083   2.124  -0.237  1.00  0.00     0.163 HD
BRANCH   4   7
ATOM      7  C   UNL     1       2.971  -1.239   0.337  1.00  0.00     0.051 C 
ATOM      8  C   UNL     1       1.794  -1.696  -0.562  1.00  0.00     0.022 C 
BRANCH   7   9
ATOM      9  C   UNL     1       4.384  -1.575  -0.239  1.00  0.00     0.013 C 
ATOM     10  C   UNL     1       4.437  -2.490  -1.467  1.00  0.00     0.005 C 
ENDBRANCH   7   9
BRANCH   7  11
ATOM     11  C   UNL     1       2.765  -1.880   1.780  1.00  0.00     0.033 C 
ATOM     12  C   UNL     1       3.538  -1.204   2.939  1.00  0.00     0.007 C 
ATOM     13  C   UNL     1       3.069  -3.376   2.008  1.00  0.00     0.118 C 
ATOM     14  C   UNL     1       4.577  -2.181   3.471  1.00  0.00     0.003 C 
ATOM     15  C   UNL     1       4.449  -3.447   2.651  1.00  0.00     0.032 C 
BRANCH  13  16
ATOM     16  O   UNL     1       3.014  -4.169   0.845  1.00  0.00    -0.393 OA
ATOM     17  H   UNL     1       3.682  -3.861   0.212  1.00  0.00     0.210 HD
ENDBRANCH  13  16
ENDBRANCH   7  11
ENDBRANCH   4   7
ENDBRANCH   2   3
ENDBRANCH   1   2
BRANCH   1  18
ATOM     18  C   UNL     1       2.291   2.976  -2.868  1.00  0.00     0.118 C 
BRANCH  18  19
ATOM     19  N   UNL     1       3.480   3.642  -3.390  1.00  0.00    -0.352 N 
ATOM     20  C   UNL     1       3.639   4.370  -4.543  1.00  0.00     0.251 C 
ATOM     21  H   UNL     1       4.288   3.556  -2.833  1.00  0.00     0.163 HD
ATOM     22  O   UNL     1       4.767   4.660  -4.934  1.00  0.00    -0.269 OA
BRANCH  20  23
ATOM     23  C   UNL     1       2.449   4.785  -5.313  1.00  0.00     0.039 A 
ATOM     24  C   UNL     1       2.462   4.678  -6.706  1.00  0.00     0.014 A 
ATOM     25  C   UNL     1       1.315   5.263  -4.654  1.00  0.00     0.014 A 
ATOM     26  C   UNL     1       1.307   4.981  -7.429  1.00  0.00     0.010 A 
ATOM     27  C   UNL     1       0.138   5.460  -5.363  1.00  0.00     0.010 A 
ATOM     28  C   UNL     1       0.123   5.334  -6.759  1.00  0.00    -0.014 A 
BRANCH  28  29
ATOM     29  C   UNL     1      -1.142   5.591  -7.490  1.00  0.00     0.031 A 
ATOM     30  C   UNL     1      -1.802   6.940  -7.388  1.00  0.00     0.074 A 
ATOM     31  C   UNL     1      -1.741   4.590  -8.164  1.00  0.00     0.049 A 
ATOM     32  N   UNL     1      -2.960   7.331  -7.851  1.00  0.00    -0.248 NA
ATOM     33  C   UNL     1      -1.078   7.976  -6.630  1.00  0.00     0.031 C 
ATOM     34  C   UNL     1      -1.228   3.223  -8.281  1.00  0.00     0.029 A 
ATOM     35  N   UNL     1      -2.924   4.559  -8.858  1.00  0.00    -0.354 N 
ATOM     36  C   UNL     1      -3.112   8.645  -7.424  1.00  0.00     0.074 A 
ATOM     37  C   UNL     1      -1.959   8.964  -6.613  1.00  0.00     0.031 C 
ATOM     38  C   UNL     1      -2.084   2.493  -9.014  1.00  0.00     0.029 A 
ATOM     39  C   UNL     1      -3.226   3.324  -9.382  1.00  0.00     0.049 A 
ATOM     40  H   UNL     1      -3.502   5.348  -8.971  1.00  0.00     0.167 HD
ATOM     41  C   UNL     1      -4.111   9.516  -7.705  1.00  0.00     0.037 A 
ATOM     42  C   UNL     1      -4.309   2.903 -10.064  1.00  0.00     0.037 A 
ATOM     43  C   UNL     1      -5.242   9.194  -8.535  1.00  0.00     0.049 A 
ATOM     44  C   UNL     1      -5.404   3.887 -10.372  1.00  0.00     0.074 A 
ATOM     45  C   UNL     1      -6.275  10.020  -8.939  1.00  0.00     0.029 A 
ATOM     46  N   UNL     1      -5.491   7.943  -9.083  1.00  0.00    -0.354 N 
ATOM     47  N   UNL     1      -5.497   5.150 -10.027  1.00  0.00    -0.248 NA
ATOM     48  C   UNL     1      -6.537   3.396 -11.167  1.00  0.00     0.031 C 
ATOM     49  C   UNL     1      -7.175   9.256  -9.689  1.00  0.00     0.029 A 
ATOM     50  C   UNL     1      -6.674   7.968  -9.801  1.00  0.00     0.049 A 
ATOM     51  H   UNL     1      -4.911   7.154  -8.976  1.00  0.00     0.167 HD
ATOM     52  C   UNL     1      -6.685   5.611 -10.583  1.00  0.00     0.074 A 
ATOM     53  C   UNL     1      -7.271   4.494 -11.296  1.00  0.00     0.031 C 
ATOM     54  C   UNL     1      -7.239   6.846 -10.511  1.00  0.00     0.037 A 
BRANCH  41  55
ATOM     55  C   UNL     1      -4.020  10.895  -7.108  1.00  0.00     0.058 A 
ATOM     56  C   UNL     1      -3.031  11.810  -7.507  1.00  0.00     0.135 A 
ATOM     57  C   UNL     1      -4.937  11.311  -6.130  1.00  0.00     0.135 A 
ATOM     58  F   UNL     1      -2.119  11.463  -8.428  1.00  0.00    -0.206 F 
ATOM     59  C   UNL     1      -2.928  13.070  -6.927  1.00  0.00     0.059 A 
ATOM     60  C   UNL     1      -4.873  12.580  -5.559  1.00  0.00     0.059 A 
ATOM     61  F   UNL     1      -5.904  10.480  -5.711  1.00  0.00    -0.206 F 
ATOM     62  C   UNL     1      -3.852  13.444  -5.950  1.00  0.00     0.060 A 
BRANCH  62  63
ATOM     63  S   UNL     1      -3.694  15.077  -5.196  1.00  0.00     0.124 S 
ATOM     64  O   UNL     1      -2.517  14.893  -4.352  1.00  0.00    -0.237 OA
ATOM     65  O   UNL     1      -3.511  15.941  -6.358  1.00  0.00    -0.237 OA
ATOM     66  O   UNL     1      -4.956  15.246  -4.484  1.00  0.00    -0.744 OA
ENDBRANCH  62  63
ENDBRANCH  41  55
BRANCH  42  67
ATOM     67  C   UNL     1      -4.394   1.486 -10.508  1.00  0.00     0.058 A 
ATOM     68  C   UNL     1      -4.273   1.142 -11.862  1.00  0.00     0.135 A 
ATOM     69  C   UNL     1      -4.561   0.444  -9.582  1.00  0.00     0.135 A 
ATOM     70  F   UNL     1      -4.118   2.102 -12.787  1.00  0.00    -0.206 F 
ATOM     71  C   UNL     1      -4.322  -0.182 -12.286  1.00  0.00     0.059 A 
ATOM     72  C   UNL     1      -4.587  -0.890  -9.978  1.00  0.00     0.059 A 
ATOM     73  F   UNL     1      -4.663   0.718  -8.273  1.00  0.00    -0.206 F 
ATOM     74  C   UNL     1      -4.473  -1.193 -11.334  1.00  0.00     0.060 A 
BRANCH  74  75
ATOM     75  S   UNL     1      -4.470  -2.912 -11.889  1.00  0.00     0.124 S 
ATOM     76  O   UNL     1      -5.767  -3.011 -12.547  1.00  0.00    -0.237 OA
ATOM     77  O   UNL     1      -3.303  -2.948 -12.765  1.00  0.00    -0.237 OA
ATOM     78  O   UNL     1      -4.333  -3.665 -10.646  1.00  0.00    -0.744 OA
ENDBRANCH  74  75
ENDBRANCH  42  67
BRANCH  54  79
ATOM     79  C   UNL     1      -8.530   7.074 -11.248  1.00  0.00     0.058 A 
ATOM     80  C   UNL     1      -9.746   6.545 -10.790  1.00  0.00     0.135 A 
ATOM     81  C   UNL     1      -8.560   7.899 -12.385  1.00  0.00     0.135 A 
ATOM     82  F   UNL     1      -9.773   5.745  -9.712  1.00  0.00    -0.206 F 
ATOM     83  C   UNL     1     -10.946   6.815 -11.441  1.00  0.00     0.059 A 
ATOM     84  C   UNL     1      -9.751   8.205 -13.034  1.00  0.00     0.059 A 
ATOM     85  F   UNL     1      -7.425   8.438 -12.859  1.00  0.00    -0.206 F 
ATOM     86  C   UNL     1     -10.939   7.652 -12.558  1.00  0.00     0.060 A 
BRANCH  86  87
ATOM     87  S   UNL     1     -12.509   8.039 -13.360  1.00  0.00     0.124 S 
ATOM     88  O   UNL     1     -12.821   6.775 -14.020  1.00  0.00    -0.237 OA
ATOM     89  O   UNL     1     -13.360   8.388 -12.226  1.00  0.00    -0.237 OA
ATOM     90  O   UNL     1     -12.175   9.146 -14.250  1.00  0.00    -0.744 OA
ENDBRANCH  86  87
ENDBRANCH  54  79
ENDBRANCH  28  29
ENDBRANCH  20  23
ENDBRANCH  18  19
ENDBRANCH   1  18
TORSDOF 16
