REMARK SMILES CN(C)c1ccc(-c2nnc([C@H]3CC[N@@H+](Cc4ccc(C(=O)NCCCNC(=O)c5ccc(-c6c7nc(c(-c8c(F)cc(S(=O)(=O)[O-])cc8F)c8ccc([nH]8)c(-c8c(F)cc(S(=O)(=O)[O-])cc8F)c8nc(c(-c9c(F)cc(S(=O)(=O)[O-])cc9F)c9ccc6[nH]9)C=C8)C=C7)cc5)cc4)C3)o2)cc1
REMARK SMILES IDX 24 1 23 2 21 3 22 4 20 6 17 7 18 8 97 9 19 10 96 11 16 12
REMARK SMILES IDX 15 13 12 14 13 15 98 16 14 17 11 19 8 20 9 21 99 22 10 23
REMARK SMILES IDX 7 24 4 25 5 26 101 27 6 28 100 29 2 30 1 31 3 32 25 33 26 34
REMARK SMILES IDX 27 35 28 36 29 38 30 39 31 40 95 41 32 42 94 43 33 44 34 45
REMARK SMILES IDX 35 46 88 47 36 48 93 49 87 50 89 51 37 52 92 53 86 54 85 55
REMARK SMILES IDX 38 57 72 58 51 59 71 60 52 61 55 62 70 63 90 64 53 65 54 66
REMARK SMILES IDX 69 68 91 69 56 70 39 71 40 72 49 73 41 74 42 75 48 76 50 77
REMARK SMILES IDX 43 78 44 79 45 80 46 81 47 82 73 83 74 84 83 85 75 86 76 87
REMARK SMILES IDX 82 88 84 89 77 90 78 91 79 92 80 93 81 94 57 95 58 96 67 97
REMARK SMILES IDX 59 98 60 99 66 100 68 101 61 102 62 103 63 104 64 105 65 106
REMARK H PARENT 23 5 15 18 27 37 89 56 55 67
REMARK Flexibility Score: inf
ROOT
ATOM      1  C   UNL     1       2.567  12.403   6.412  1.00  0.00     0.118 C 
ENDROOT
BRANCH   1   2
ATOM      2  N   UNL     1       2.800  13.835   6.247  1.00  0.00    -0.352 N 
ATOM      3  C   UNL     1       3.798  14.471   5.531  1.00  0.00     0.251 C 
ATOM      4  O   UNL     1       3.703  15.654   5.247  1.00  0.00    -0.269 OA
ATOM      5  H   UNL     1       2.162  14.427   6.708  1.00  0.00     0.163 HD
BRANCH   3   6
ATOM      6  C   UNL     1       4.942  13.669   5.032  1.00  0.00     0.039 A 
ATOM      7  C   UNL     1       6.468  11.676   3.857  1.00  0.00     0.006 A 
ATOM      8  C   UNL     1       6.120  12.815   3.115  1.00  0.00     0.010 A 
ATOM      9  C   UNL     1       6.256  11.668   5.242  1.00  0.00     0.010 A 
ATOM     10  C   UNL     1       5.332  13.806   3.698  1.00  0.00     0.014 A 
ATOM     11  C   UNL     1       5.520  12.684   5.834  1.00  0.00     0.014 A 
BRANCH   7  12
ATOM     12  C   UNL     1       6.892  10.390   3.183  1.00  0.00     0.299 C 
BRANCH  12  13
ATOM     13  N   UNL     1       5.798   9.644   2.536  1.00  0.00    -0.330 N 
ATOM     14  C   UNL     1       3.414   9.594   2.291  1.00  0.00     0.138 C 
ATOM     15  C   UNL     1       4.000  10.602   1.319  1.00  0.00     0.081 C 
ATOM     16  C   UNL     1       4.541   9.416   3.310  1.00  0.00     0.276 C 
ATOM     17  C   UNL     1       5.440  10.141   1.206  1.00  0.00     0.263 C 
ATOM     18  H   UNL     1       6.250   8.732   2.472  1.00  0.00     0.348 HD
BRANCH  14  19
ATOM     19  C   UNL     1       2.007   9.934   2.676  1.00  0.00     0.225 A 
ATOM     20  C   UNL     1       0.275  10.856   3.568  1.00  0.00     0.247 A 
ATOM     21  N   UNL     1      -0.150  10.128   2.558  1.00  0.00    -0.108 NA
ATOM     22  O   UNL     1       1.664  10.790   3.712  1.00  0.00    -0.420 OA
ATOM     23  N   UNL     1       0.952   9.557   1.979  1.00  0.00    -0.112 NA
BRANCH  20  24
ATOM     24  C   UNL     1      -0.545  11.588   4.541  1.00  0.00     0.039 A 
ATOM     25  C   UNL     1      -2.123  12.904   6.587  1.00  0.00     0.036 A 
ATOM     26  C   UNL     1      -2.374  11.587   6.177  1.00  0.00     0.027 A 
ATOM     27  C   UNL     1      -1.134  13.575   5.846  1.00  0.00     0.027 A 
ATOM     28  C   UNL     1      -1.598  10.937   5.193  1.00  0.00     0.016 A 
ATOM     29  C   UNL     1      -0.375  12.943   4.831  1.00  0.00     0.016 A 
BRANCH  25  30
ATOM     30  N   UNL     1      -2.784  13.495   7.659  1.00  0.00    -0.378 N 
ATOM     31  C   UNL     1      -2.246  14.690   8.302  1.00  0.00     0.143 C 
ATOM     32  C   UNL     1      -3.874  12.820   8.364  1.00  0.00     0.143 C 
ENDBRANCH  25  30
ENDBRANCH  20  24
ENDBRANCH  14  19
ENDBRANCH  12  13
ENDBRANCH   7  12
ENDBRANCH   3   6
ENDBRANCH   1   2
BRANCH   1  33
ATOM     33  C   UNL     1       2.679  11.921   7.852  1.00  0.00     0.042 C 
BRANCH  33  34
ATOM     34  C   UNL     1       1.343  11.980   8.588  1.00  0.00     0.118 C 
BRANCH  34  35
ATOM     35  N   UNL     1       0.404  10.966   8.132  1.00  0.00    -0.352 N 
ATOM     36  C   UNL     1      -0.712  10.421   8.716  1.00  0.00     0.251 C 
ATOM     37  H   UNL     1       0.607  10.605   7.239  1.00  0.00     0.163 HD
ATOM     38  O   UNL     1      -1.271   9.495   8.125  1.00  0.00    -0.269 OA
BRANCH  36  39
ATOM     39  C   UNL     1      -1.237  10.852  10.039  1.00  0.00     0.039 A 
ATOM     40  C   UNL     1      -2.093   9.959  10.704  1.00  0.00     0.014 A 
ATOM     41  C   UNL     1      -0.915  12.061  10.657  1.00  0.00     0.014 A 
ATOM     42  C   UNL     1      -2.470  10.193  12.025  1.00  0.00     0.010 A 
ATOM     43  C   UNL     1      -1.224  12.268  11.997  1.00  0.00     0.010 A 
ATOM     44  C   UNL     1      -1.934  11.295  12.703  1.00  0.00    -0.014 A 
BRANCH  44  45
ATOM     45  C   UNL     1      -1.848  11.287  14.177  1.00  0.00     0.031 A 
ATOM     46  C   UNL     1      -2.584  12.283  15.011  1.00  0.00     0.074 A 
ATOM     47  C   UNL     1      -0.965  10.421  14.717  1.00  0.00     0.049 A 
ATOM     48  N   UNL     1      -2.577  12.423  16.308  1.00  0.00    -0.248 NA
ATOM     49  C   UNL     1      -3.414  13.266  14.299  1.00  0.00     0.031 C 
ATOM     50  C   UNL     1      -0.131   9.486  13.949  1.00  0.00     0.029 A 
ATOM     51  N   UNL     1      -0.601  10.189  16.015  1.00  0.00    -0.354 N 
ATOM     52  C   UNL     1      -3.409  13.502  16.577  1.00  0.00     0.074 A 
ATOM     53  C   UNL     1      -3.864  14.012  15.300  1.00  0.00     0.031 C 
ATOM     54  C   UNL     1       0.625   8.768  14.790  1.00  0.00     0.029 A 
ATOM     55  C   UNL     1       0.363   9.216  16.148  1.00  0.00     0.049 A 
ATOM     56  H   UNL     1      -0.990  10.671  16.780  1.00  0.00     0.167 HD
ATOM     57  C   UNL     1      -3.760  14.000  17.787  1.00  0.00     0.037 A 
ATOM     58  C   UNL     1       0.974   8.741  17.248  1.00  0.00     0.037 A 
ATOM     59  C   UNL     1      -3.256  13.474  19.033  1.00  0.00     0.049 A 
ATOM     60  C   UNL     1       0.555   9.302  18.573  1.00  0.00     0.074 A 
ATOM     61  C   UNL     1      -3.574  13.857  20.323  1.00  0.00     0.029 A 
ATOM     62  N   UNL     1      -2.311  12.459  19.140  1.00  0.00    -0.354 N 
ATOM     63  N   UNL     1      -0.312  10.256  18.821  1.00  0.00    -0.248 NA
ATOM     64  C   UNL     1       1.178   8.721  19.766  1.00  0.00     0.031 C 
ATOM     65  C   UNL     1      -2.783  13.113  21.206  1.00  0.00     0.029 A 
ATOM     66  C   UNL     1      -2.016  12.221  20.472  1.00  0.00     0.049 A 
ATOM     67  H   UNL     1      -1.910  11.980  18.379  1.00  0.00     0.167 HD
ATOM     68  C   UNL     1      -0.359  10.376  20.202  1.00  0.00     0.074 A 
ATOM     69  C   UNL     1       0.556   9.382  20.733  1.00  0.00     0.031 C 
ATOM     70  C   UNL     1      -1.091  11.227  20.964  1.00  0.00     0.037 A 
BRANCH  57  71
ATOM     71  C   UNL     1      -4.722  15.158  17.820  1.00  0.00     0.058 A 
ATOM     72  C   UNL     1      -6.064  15.012  17.431  1.00  0.00     0.135 A 
ATOM     73  C   UNL     1      -4.314  16.420  18.283  1.00  0.00     0.135 A 
ATOM     74  F   UNL     1      -6.510  13.834  16.967  1.00  0.00    -0.206 F 
ATOM     75  C   UNL     1      -6.958  16.079  17.474  1.00  0.00     0.059 A 
ATOM     76  C   UNL     1      -5.199  17.494  18.361  1.00  0.00     0.059 A 
ATOM     77  F   UNL     1      -3.044  16.622  18.665  1.00  0.00    -0.206 F 
ATOM     78  C   UNL     1      -6.516  17.317  17.942  1.00  0.00     0.060 A 
BRANCH  78  79
ATOM     79  S   UNL     1      -7.692  18.686  17.995  1.00  0.00     0.124 S 
ATOM     80  O   UNL     1      -7.870  18.972  16.575  1.00  0.00    -0.237 OA
ATOM     81  O   UNL     1      -8.838  18.085  18.669  1.00  0.00    -0.237 OA
ATOM     82  O   UNL     1      -6.987  19.712  18.757  1.00  0.00    -0.744 OA
ENDBRANCH  78  79
ENDBRANCH  57  71
BRANCH  58  83
ATOM     83  C   UNL     1       1.993   7.665  17.125  1.00  0.00     0.058 A 
ATOM     84  C   UNL     1       1.724   6.361  17.565  1.00  0.00     0.135 A 
ATOM     85  C   UNL     1       3.234   7.902  16.511  1.00  0.00     0.135 A 
ATOM     86  F   UNL     1       0.549   6.081  18.149  1.00  0.00    -0.206 F 
ATOM     87  C   UNL     1       2.652   5.335  17.419  1.00  0.00     0.059 A 
ATOM     88  C   UNL     1       4.168   6.887  16.329  1.00  0.00     0.059 A 
ATOM     89  F   UNL     1       3.531   9.125  16.043  1.00  0.00    -0.206 F 
ATOM     90  C   UNL     1       3.872   5.608  16.797  1.00  0.00     0.060 A 
BRANCH  90  91
ATOM     91  S   UNL     1       5.051   4.258  16.573  1.00  0.00     0.124 S 
ATOM     92  O   UNL     1       5.507   4.038  17.941  1.00  0.00    -0.237 OA
ATOM     93  O   UNL     1       4.210   3.209  16.004  1.00  0.00    -0.237 OA
ATOM     94  O   UNL     1       6.040   4.823  15.660  1.00  0.00    -0.744 OA
ENDBRANCH  90  91
ENDBRANCH  58  83
BRANCH  70  95
ATOM     95  C   UNL     1      -0.940  11.095  22.452  1.00  0.00     0.058 A 
ATOM     96  C   UNL     1       0.229  11.502  23.113  1.00  0.00     0.135 A 
ATOM     97  C   UNL     1      -1.994  10.586  23.227  1.00  0.00     0.135 A 
ATOM     98  F   UNL     1       1.269  11.983  22.414  1.00  0.00    -0.206 F 
ATOM     99  C   UNL     1       0.359  11.381  24.491  1.00  0.00     0.059 A 
ATOM    100  C   UNL     1      -1.898  10.488  24.610  1.00  0.00     0.059 A 
ATOM    101  F   UNL     1      -3.136  10.191  22.641  1.00  0.00    -0.206 F 
ATOM    102  C   UNL     1      -0.712  10.876  25.231  1.00  0.00     0.060 A 
BRANCH 102 103
ATOM    103  S   UNL     1      -0.541  10.755  27.023  1.00  0.00     0.124 S 
ATOM    104  O   UNL     1       0.376   9.627  27.154  1.00  0.00    -0.237 OA
ATOM    105  O   UNL     1       0.007  12.062  27.371  1.00  0.00    -0.237 OA
ATOM    106  O   UNL     1      -1.906  10.512  27.479  1.00  0.00    -0.744 OA
ENDBRANCH 102 103
ENDBRANCH  70  95
ENDBRANCH  44  45
ENDBRANCH  36  39
ENDBRANCH  34  35
ENDBRANCH  33  34
ENDBRANCH   1  33
TORSDOF 18
