REMARK SMILES O=C(NCCCNC(=O)[C@@]1(C(F)(F)F)CCN(C(=O)Cc2ccn[nH]2)C1)c1ccc(-c2c3nc(c(-c4c(F)cc(S(=O)(=O)[O-])cc4F)c4ccc([nH]4)c(-c4c(F)cc(S(=O)(=O)[O-])cc4F)c4nc(c(-c5c(F)cc(S(=O)(=O)[O-])cc5F)c5ccc2[nH]5)C=C4)C=C3)cc1
REMARK SMILES IDX 5 1 4 2 3 3 1 4 2 5 27 7 28 8 92 9 29 10 91 11 30 12 31 13
REMARK SMILES IDX 32 14 85 15 33 16 90 17 84 18 86 19 34 20 89 21 83 22 82 23
REMARK SMILES IDX 35 25 69 26 48 27 68 28 49 29 52 30 67 31 87 32 50 33 51 34
REMARK SMILES IDX 66 36 88 37 53 38 36 39 37 40 46 41 38 42 39 43 45 44 47 45
REMARK SMILES IDX 40 46 41 47 42 48 43 49 44 50 70 51 71 52 80 53 72 54 73 55
REMARK SMILES IDX 79 56 81 57 74 58 75 59 76 60 77 61 78 62 54 63 55 64 64 65
REMARK SMILES IDX 56 66 57 67 63 68 65 69 58 70 59 71 60 72 61 73 62 74 6 75
REMARK SMILES IDX 7 76 8 77 9 79 10 80 15 81 26 82 16 83 17 84 11 85 12 86
REMARK SMILES IDX 13 87 14 88 18 89 19 90 20 91 21 92 22 93 25 94 23 95 24 96
REMARK H PARENT 3 6 86 24 52 35 7 78 25 97
REMARK Flexibility Score: inf
ROOT
ATOM      1  C   UNL     1       7.624  -1.995   9.324  1.00  0.00     0.042 C 
ENDROOT
BRANCH   1   2
ATOM      2  C   UNL     1       7.654  -3.048  10.420  1.00  0.00     0.118 C 
BRANCH   2   3
ATOM      3  N   UNL     1       8.972  -3.637  10.604  1.00  0.00    -0.352 N 
ATOM      4  O   UNL     1      11.038  -3.898  11.448  1.00  0.00    -0.269 OA
ATOM      5  C   UNL     1       9.913  -3.428  11.584  1.00  0.00     0.251 C 
ATOM      6  H   UNL     1       9.231  -4.292   9.916  1.00  0.00     0.163 HD
BRANCH   5   7
ATOM      7  C   UNL     1       9.586  -2.619  12.779  1.00  0.00     0.039 A 
ATOM      8  C   UNL     1       8.362  -2.762  13.435  1.00  0.00     0.014 A 
ATOM      9  C   UNL     1      10.537  -1.720  13.269  1.00  0.00     0.014 A 
ATOM     10  C   UNL     1       8.020  -1.897  14.469  1.00  0.00     0.010 A 
ATOM     11  C   UNL     1      10.233  -0.925  14.377  1.00  0.00     0.010 A 
ATOM     12  C   UNL     1       8.960  -0.985  14.966  1.00  0.00    -0.014 A 
BRANCH  12  13
ATOM     13  C   UNL     1       8.632  -0.147  16.147  1.00  0.00     0.031 A 
ATOM     14  C   UNL     1       8.629   1.351  16.048  1.00  0.00     0.074 A 
ATOM     15  C   UNL     1       8.374  -0.751  17.323  1.00  0.00     0.049 A 
ATOM     16  N   UNL     1       8.473   2.240  16.996  1.00  0.00    -0.248 NA
ATOM     17  C   UNL     1       8.839   1.928  14.712  1.00  0.00     0.031 C 
ATOM     18  C   UNL     1       8.349  -2.200  17.537  1.00  0.00     0.029 A 
ATOM     19  N   UNL     1       8.103  -0.229  18.561  1.00  0.00    -0.354 N 
ATOM     20  C   UNL     1       8.598   3.479  16.380  1.00  0.00     0.074 A 
ATOM     21  C   UNL     1       8.863   3.226  14.979  1.00  0.00     0.031 C 
ATOM     22  C   UNL     1       8.074  -2.451  18.823  1.00  0.00     0.029 A 
ATOM     23  C   UNL     1       7.979  -1.185  19.541  1.00  0.00     0.049 A 
ATOM     24  H   UNL     1       8.006   0.736  18.732  1.00  0.00     0.167 HD
ATOM     25  C   UNL     1       8.499   4.712  16.936  1.00  0.00     0.037 A 
ATOM     26  C   UNL     1       7.854  -1.065  20.876  1.00  0.00     0.037 A 
ATOM     27  C   UNL     1       8.239   4.941  18.335  1.00  0.00     0.049 A 
ATOM     28  C   UNL     1       7.792   0.305  21.481  1.00  0.00     0.074 A 
ATOM     29  C   UNL     1       8.084   6.147  18.995  1.00  0.00     0.029 A 
ATOM     30  N   UNL     1       8.115   3.943  19.294  1.00  0.00    -0.354 N 
ATOM     31  N   UNL     1       7.875   1.470  20.883  1.00  0.00    -0.248 NA
ATOM     32  C   UNL     1       7.617   0.386  22.936  1.00  0.00     0.031 C 
ATOM     33  C   UNL     1       7.931   5.882  20.360  1.00  0.00     0.029 A 
ATOM     34  C   UNL     1       7.916   4.508  20.544  1.00  0.00     0.049 A 
ATOM     35  H   UNL     1       8.162   2.977  19.113  1.00  0.00     0.167 HD
ATOM     36  C   UNL     1       7.734   2.423  21.883  1.00  0.00     0.074 A 
ATOM     37  C   UNL     1       7.563   1.698  23.127  1.00  0.00     0.031 C 
ATOM     38  C   UNL     1       7.735   3.774  21.775  1.00  0.00     0.037 A 
BRANCH  25  39
ATOM     39  C   UNL     1       8.724   5.901  16.039  1.00  0.00     0.058 A 
ATOM     40  C   UNL     1       7.829   6.241  15.011  1.00  0.00     0.135 A 
ATOM     41  C   UNL     1       9.859   6.712  16.207  1.00  0.00     0.135 A 
ATOM     42  F   UNL     1       6.731   5.500  14.796  1.00  0.00    -0.206 F 
ATOM     43  C   UNL     1       8.081   7.304  14.148  1.00  0.00     0.059 A 
ATOM     44  C   UNL     1      10.114   7.800  15.377  1.00  0.00     0.059 A 
ATOM     45  F   UNL     1      10.745   6.442  17.179  1.00  0.00    -0.206 F 
ATOM     46  C   UNL     1       9.233   8.071  14.333  1.00  0.00     0.060 A 
BRANCH  46  47
ATOM     47  S   UNL     1       9.575   9.406  13.168  1.00  0.00     0.124 S 
ATOM     48  O   UNL     1       9.957   8.656  11.974  1.00  0.00    -0.237 OA
ATOM     49  O   UNL     1       8.291  10.095  13.096  1.00  0.00    -0.237 OA
ATOM     50  O   UNL     1      10.651  10.153  13.810  1.00  0.00    -0.744 OA
ENDBRANCH  46  47
ENDBRANCH  25  39
BRANCH  26  51
ATOM     51  C   UNL     1       7.801  -2.297  21.705  1.00  0.00     0.058 A 
ATOM     52  C   UNL     1       6.603  -2.723  22.293  1.00  0.00     0.135 A 
ATOM     53  C   UNL     1       8.928  -3.125  21.838  1.00  0.00     0.135 A 
ATOM     54  F   UNL     1       5.501  -1.965  22.196  1.00  0.00    -0.206 F 
ATOM     55  C   UNL     1       6.520  -3.933  22.975  1.00  0.00     0.059 A 
ATOM     56  C   UNL     1       8.863  -4.351  22.491  1.00  0.00     0.059 A 
ATOM     57  F   UNL     1      10.093  -2.770  21.273  1.00  0.00    -0.206 F 
ATOM     58  C   UNL     1       7.652  -4.747  23.056  1.00  0.00     0.060 A 
BRANCH  58  59
ATOM     59  S   UNL     1       7.502  -6.360  23.852  1.00  0.00     0.124 S 
ATOM     60  O   UNL     1       7.356  -5.984  25.253  1.00  0.00    -0.237 OA
ATOM     61  O   UNL     1       6.310  -6.906  23.210  1.00  0.00    -0.237 OA
ATOM     62  O   UNL     1       8.753  -7.026  23.503  1.00  0.00    -0.744 OA
ENDBRANCH  58  59
ENDBRANCH  26  51
BRANCH  38  63
ATOM     63  C   UNL     1       7.492   4.579  23.021  1.00  0.00     0.058 A 
ATOM     64  C   UNL     1       8.475   4.737  24.009  1.00  0.00     0.135 A 
ATOM     65  C   UNL     1       6.290   5.292  23.170  1.00  0.00     0.135 A 
ATOM     66  F   UNL     1       9.635   4.066  23.922  1.00  0.00    -0.206 F 
ATOM     67  C   UNL     1       8.278   5.581  25.098  1.00  0.00     0.059 A 
ATOM     68  C   UNL     1       6.083   6.161  24.235  1.00  0.00     0.059 A 
ATOM     69  F   UNL     1       5.318   5.177  22.250  1.00  0.00    -0.206 F 
ATOM     70  C   UNL     1       7.085   6.300  25.194  1.00  0.00     0.060 A 
BRANCH  70  71
ATOM     71  S   UNL     1       6.882   7.463  26.560  1.00  0.00     0.124 S 
ATOM     72  O   UNL     1       6.713   6.560  27.694  1.00  0.00    -0.237 OA
ATOM     73  O   UNL     1       8.137   8.207  26.523  1.00  0.00    -0.237 OA
ATOM     74  O   UNL     1       5.696   8.227  26.184  1.00  0.00    -0.744 OA
ENDBRANCH  70  71
ENDBRANCH  38  63
ENDBRANCH  12  13
ENDBRANCH   5   7
ENDBRANCH   2   3
ENDBRANCH   1   2
BRANCH   1  75
ATOM     75  C   UNL     1       7.910  -2.529   7.932  1.00  0.00     0.117 C 
BRANCH  75  76
ATOM     76  N   UNL     1       6.988  -3.577   7.514  1.00  0.00    -0.355 N 
ATOM     77  C   UNL     1       6.274  -3.786   6.376  1.00  0.00     0.237 C 
ATOM     78  H   UNL     1       6.855  -4.275   8.195  1.00  0.00     0.163 HD
ATOM     79  O   UNL     1       5.643  -4.846   6.344  1.00  0.00    -0.274 OA
BRANCH  77  80
ATOM     80  C   UNL     1       6.145  -2.755   5.270  1.00  0.00     0.163 C 
ATOM     81  C   UNL     1       5.233  -1.601   5.737  1.00  0.00     0.050 C 
ATOM     82  C   UNL     1       7.459  -2.091   4.847  1.00  0.00     0.146 C 
ATOM     83  C   UNL     1       5.812  -0.364   5.080  1.00  0.00     0.121 C 
ATOM     84  N   UNL     1       7.232  -0.656   5.019  1.00  0.00    -0.341 N 
BRANCH  80  85
ATOM     85  C   UNL     1       5.571  -3.455   4.051  1.00  0.00     0.404 C 
ATOM     86  F   UNL     1       5.505  -2.592   3.001  1.00  0.00    -0.170 F 
ATOM     87  F   UNL     1       6.345  -4.486   3.646  1.00  0.00    -0.170 F 
ATOM     88  F   UNL     1       4.314  -3.908   4.237  1.00  0.00    -0.170 F 
ENDBRANCH  80  85
BRANCH  84  89
ATOM     89  C   UNL     1       8.282   0.236   5.134  1.00  0.00     0.228 C 
ATOM     90  O   UNL     1       9.447  -0.160   5.152  1.00  0.00    -0.274 OA
BRANCH  89  91
ATOM     91  C   UNL     1       7.952   1.723   5.189  1.00  0.00     0.155 C 
BRANCH  91  92
ATOM     92  C   UNL     1       7.506   2.251   3.861  1.00  0.00     0.044 A 
ATOM     93  C   UNL     1       7.212   3.536   3.456  1.00  0.00     0.045 A 
ATOM     94  N   UNL     1       7.317   1.471   2.749  1.00  0.00    -0.282 N 
ATOM     95  C   UNL     1       6.810   3.410   2.115  1.00  0.00     0.135 A 
ATOM     96  N   UNL     1       6.848   2.146   1.690  1.00  0.00    -0.184 NA
ATOM     97  H   UNL     1       7.507   0.505   2.731  1.00  0.00     0.190 HD
ENDBRANCH  91  92
ENDBRANCH  89  91
ENDBRANCH  84  89
ENDBRANCH  77  80
ENDBRANCH  75  76
ENDBRANCH   1  75
TORSDOF 17
