REMARK SMILES C[C@H](C(=O)NCCCNC(=O)c1ccc(-c2c3nc(c(-c4c(F)cc(S(=O)(=O)[O-])cc4F)c4ccc([nH]4)c(-c4c(F)cc(S(=O)(=O)[O-])cc4F)c4nc(c(-c5c(F)cc(S(=O)(=O)[O-])cc5F)c5ccc2[nH]5)C=C4)C=C3)cc1)c1ccc(-c2ccccc2)c(F)c1
REMARK SMILES IDX 7 1 6 2 5 3 3 4 4 5 2 7 1 8 78 9 79 10 90 11 80 12 88 13
REMARK SMILES IDX 81 14 89 15 82 16 83 17 87 18 84 19 86 20 85 21 8 22 9 23
REMARK SMILES IDX 10 24 11 26 12 27 13 28 77 29 14 30 76 31 15 32 16 33 17 34
REMARK SMILES IDX 70 35 18 36 75 37 69 38 71 39 19 40 74 41 68 42 67 43 20 45
REMARK SMILES IDX 54 46 33 47 53 48 34 49 37 50 52 51 72 52 35 53 36 54 51 56
REMARK SMILES IDX 73 57 38 58 21 59 22 60 31 61 23 62 24 63 30 64 32 65 25 66
REMARK SMILES IDX 26 67 27 68 28 69 29 70 55 71 56 72 65 73 57 74 58 75 64 76
REMARK SMILES IDX 66 77 59 78 60 79 61 80 62 81 63 82 39 83 40 84 49 85 41 86
REMARK SMILES IDX 42 87 48 88 50 89 43 90 44 91 45 92 46 93 47 94
REMARK H PARENT 5 6 9 25 71 44 37 55
REMARK Flexibility Score: inf
ROOT
ATOM      1  C   UNL     1       1.442   1.042   3.308  1.00  0.00     0.042 C 
ENDROOT
BRANCH   1   2
ATOM      2  C   UNL     1       0.472   1.145   2.143  1.00  0.00     0.117 C 
BRANCH   2   3
ATOM      3  N   UNL     1       1.122   0.972   0.854  1.00  0.00    -0.356 N 
ATOM      4  C   UNL     1       1.113  -0.080  -0.012  1.00  0.00     0.227 C 
ATOM      5  O   UNL     1       1.680   0.081  -1.097  1.00  0.00    -0.274 OA
ATOM      6  H   UNL     1       1.658   1.742   0.558  1.00  0.00     0.163 HD
BRANCH   4   7
ATOM      7  C   UNL     1       0.423  -1.406   0.318  1.00  0.00     0.105 C 
ATOM      8  C   UNL     1       1.001  -2.039   1.589  1.00  0.00     0.023 C 
BRANCH   7   9
ATOM      9  C   UNL     1      -1.102  -1.389   0.300  1.00  0.00    -0.033 A 
ATOM     10  C   UNL     1      -1.852  -0.215   0.152  1.00  0.00     0.005 A 
ATOM     11  C   UNL     1      -1.806  -2.595   0.445  1.00  0.00     0.044 A 
ATOM     12  C   UNL     1      -3.248  -0.232   0.234  1.00  0.00     0.012 A 
ATOM     13  C   UNL     1      -3.202  -2.608   0.498  1.00  0.00     0.131 A 
ATOM     14  C   UNL     1      -3.954  -1.430   0.414  1.00  0.00     0.017 A 
ATOM     15  F   UNL     1      -3.813  -3.796   0.633  1.00  0.00    -0.206 F 
BRANCH  14  16
ATOM     16  C   UNL     1      -5.421  -1.416   0.515  1.00  0.00    -0.015 A 
ATOM     17  C   UNL     1      -6.200  -0.714  -0.422  1.00  0.00     0.009 A 
ATOM     18  C   UNL     1      -6.086  -2.063   1.569  1.00  0.00     0.009 A 
ATOM     19  C   UNL     1      -7.590  -0.651  -0.304  1.00  0.00     0.001 A 
ATOM     20  C   UNL     1      -7.477  -2.001   1.689  1.00  0.00     0.001 A 
ATOM     21  C   UNL     1      -8.228  -1.292   0.754  1.00  0.00     0.000 A 
ENDBRANCH  14  16
ENDBRANCH   7   9
ENDBRANCH   4   7
ENDBRANCH   2   3
ENDBRANCH   1   2
BRANCH   1  22
ATOM     22  C   UNL     1       2.552   2.080   3.279  1.00  0.00     0.118 C 
BRANCH  22  23
ATOM     23  N   UNL     1       2.060   3.438   3.461  1.00  0.00    -0.352 N 
ATOM     24  C   UNL     1       2.351   4.350   4.445  1.00  0.00     0.251 C 
ATOM     25  H   UNL     1       1.423   3.748   2.777  1.00  0.00     0.163 HD
ATOM     26  O   UNL     1       1.688   5.383   4.525  1.00  0.00    -0.269 OA
BRANCH  24  27
ATOM     27  C   UNL     1       3.437   4.086   5.414  1.00  0.00     0.039 A 
ATOM     28  C   UNL     1       3.244   4.418   6.757  1.00  0.00     0.014 A 
ATOM     29  C   UNL     1       4.649   3.524   5.003  1.00  0.00     0.014 A 
ATOM     30  C   UNL     1       4.244   4.135   7.692  1.00  0.00     0.010 A 
ATOM     31  C   UNL     1       5.598   3.151   5.947  1.00  0.00     0.010 A 
ATOM     32  C   UNL     1       5.417   3.471   7.300  1.00  0.00    -0.014 A 
BRANCH  32  33
ATOM     33  C   UNL     1       6.485   3.137   8.279  1.00  0.00     0.031 A 
ATOM     34  C   UNL     1       7.860   3.731   8.121  1.00  0.00     0.074 A 
ATOM     35  C   UNL     1       6.237   2.259   9.271  1.00  0.00     0.049 A 
ATOM     36  N   UNL     1       8.940   3.518   8.828  1.00  0.00    -0.248 NA
ATOM     37  C   UNL     1       8.057   4.664   6.999  1.00  0.00     0.031 C 
ATOM     38  C   UNL     1       4.960   1.581   9.504  1.00  0.00     0.029 A 
ATOM     39  N   UNL     1       7.052   1.779  10.266  1.00  0.00    -0.354 N 
ATOM     40  C   UNL     1       9.943   4.270   8.226  1.00  0.00     0.074 A 
ATOM     41  C   UNL     1       9.359   4.896   7.061  1.00  0.00     0.031 C 
ATOM     42  C   UNL     1       5.068   0.800  10.591  1.00  0.00     0.029 A 
ATOM     43  C   UNL     1       6.430   0.886  11.108  1.00  0.00     0.049 A 
ATOM     44  H   UNL     1       7.993   2.049  10.368  1.00  0.00     0.167 HD
ATOM     45  C   UNL     1      11.227   4.444   8.620  1.00  0.00     0.037 A 
ATOM     46  C   UNL     1       6.905   0.211  12.172  1.00  0.00     0.037 A 
ATOM     47  C   UNL     1      11.793   3.840   9.798  1.00  0.00     0.049 A 
ATOM     48  C   UNL     1       8.336   0.419  12.593  1.00  0.00     0.074 A 
ATOM     49  C   UNL     1      13.063   4.001  10.322  1.00  0.00     0.029 A 
ATOM     50  N   UNL     1      11.126   2.954  10.633  1.00  0.00    -0.354 N 
ATOM     51  N   UNL     1       9.253   1.184  12.049  1.00  0.00    -0.248 NA
ATOM     52  C   UNL     1       8.794  -0.321  13.776  1.00  0.00     0.031 C 
ATOM     53  C   UNL     1      13.183   3.171  11.441  1.00  0.00     0.029 A 
ATOM     54  C   UNL     1      11.966   2.543  11.655  1.00  0.00     0.049 A 
ATOM     55  H   UNL     1      10.193   2.662  10.517  1.00  0.00     0.167 HD
ATOM     56  C   UNL     1      10.384   1.049  12.849  1.00  0.00     0.074 A 
ATOM     57  C   UNL     1      10.033   0.132  13.913  1.00  0.00     0.031 C 
ATOM     58  C   UNL     1      11.599   1.638  12.717  1.00  0.00     0.037 A 
BRANCH  45  59
ATOM     59  C   UNL     1      12.108   5.316   7.765  1.00  0.00     0.058 A 
ATOM     60  C   UNL     1      11.901   6.702   7.656  1.00  0.00     0.135 A 
ATOM     61  C   UNL     1      13.187   4.762   7.058  1.00  0.00     0.135 A 
ATOM     62  F   UNL     1      10.876   7.286   8.297  1.00  0.00    -0.206 F 
ATOM     63  C   UNL     1      12.704   7.497   6.845  1.00  0.00     0.059 A 
ATOM     64  C   UNL     1      14.026   5.544   6.269  1.00  0.00     0.059 A 
ATOM     65  F   UNL     1      13.435   3.444   7.126  1.00  0.00    -0.206 F 
ATOM     66  C   UNL     1      13.764   6.908   6.154  1.00  0.00     0.060 A 
BRANCH  66  67
ATOM     67  S   UNL     1      14.791   7.952   5.099  1.00  0.00     0.124 S 
ATOM     68  O   UNL     1      13.886   8.221   3.986  1.00  0.00    -0.237 OA
ATOM     69  O   UNL     1      15.078   9.088   5.970  1.00  0.00    -0.237 OA
ATOM     70  O   UNL     1      15.934   7.101   4.786  1.00  0.00    -0.744 OA
ENDBRANCH  66  67
ENDBRANCH  45  59
BRANCH  46  71
ATOM     71  C   UNL     1       6.008  -0.695  12.939  1.00  0.00     0.058 A 
ATOM     72  C   UNL     1       5.590  -0.364  14.237  1.00  0.00     0.135 A 
ATOM     73  C   UNL     1       5.536  -1.897  12.389  1.00  0.00     0.135 A 
ATOM     74  F   UNL     1       6.018   0.771  14.810  1.00  0.00    -0.206 F 
ATOM     75  C   UNL     1       4.750  -1.198  14.969  1.00  0.00     0.059 A 
ATOM     76  C   UNL     1       4.673  -2.734  13.090  1.00  0.00     0.059 A 
ATOM     77  F   UNL     1       5.892  -2.253  11.145  1.00  0.00    -0.206 F 
ATOM     78  C   UNL     1       4.293  -2.379  14.384  1.00  0.00     0.060 A 
BRANCH  78  79
ATOM     79  S   UNL     1       3.160  -3.426  15.323  1.00  0.00     0.124 S 
ATOM     80  O   UNL     1       4.043  -3.973  16.346  1.00  0.00    -0.237 OA
ATOM     81  O   UNL     1       2.166  -2.462  15.785  1.00  0.00    -0.237 OA
ATOM     82  O   UNL     1       2.681  -4.380  14.327  1.00  0.00    -0.744 OA
ENDBRANCH  78  79
ENDBRANCH  46  71
BRANCH  58  83
ATOM     83  C   UNL     1      12.627   1.357  13.780  1.00  0.00     0.058 A 
ATOM     84  C   UNL     1      13.254   0.107  13.900  1.00  0.00     0.135 A 
ATOM     85  C   UNL     1      13.023   2.376  14.662  1.00  0.00     0.135 A 
ATOM     86  F   UNL     1      12.911  -0.903  13.086  1.00  0.00    -0.206 F 
ATOM     87  C   UNL     1      14.216  -0.131  14.877  1.00  0.00     0.059 A 
ATOM     88  C   UNL     1      14.006   2.170  15.625  1.00  0.00     0.059 A 
ATOM     89  F   UNL     1      12.465   3.595  14.584  1.00  0.00    -0.206 F 
ATOM     90  C   UNL     1      14.587   0.908  15.734  1.00  0.00     0.060 A 
BRANCH  90  91
ATOM     91  S   UNL     1      15.854   0.593  16.980  1.00  0.00     0.124 S 
ATOM     92  O   UNL     1      15.128  -0.239  17.934  1.00  0.00    -0.237 OA
ATOM     93  O   UNL     1      16.890  -0.086  16.206  1.00  0.00    -0.237 OA
ATOM     94  O   UNL     1      16.207   1.928  17.452  1.00  0.00    -0.744 OA
ENDBRANCH  90  91
ENDBRANCH  58  83
ENDBRANCH  32  33
ENDBRANCH  24  27
ENDBRANCH  22  23
ENDBRANCH   1  22
TORSDOF 15
