REMARK SMILES C[C@@H](C(=O)NCCCNC(=O)c1ccc(-c2c3nc(c(-c4c(F)cc(S(=O)(=O)[O-])cc4F)c4ccc([nH]4)c(-c4c(F)cc(S(=O)(=O)[O-])cc4F)c4nc(c(-c5c(F)cc(S(=O)(=O)[O-])cc5F)c5ccc2[nH]5)C=C4)C=C3)cc1)c1ccc(N[C@H]2CCC[C@@H]2O)cc1F
REMARK SMILES IDX 6 1 5 2 3 3 4 4 2 6 1 7 78 8 79 9 90 10 80 11 89 12 91 13
REMARK SMILES IDX 81 14 82 15 83 17 84 18 87 19 85 20 86 21 88 22 7 24 8 25
REMARK SMILES IDX 9 26 10 27 11 29 12 30 13 31 77 32 14 33 76 34 15 35 16 36
REMARK SMILES IDX 17 37 70 38 18 39 75 40 69 41 71 42 19 43 74 44 68 45 67 46
REMARK SMILES IDX 20 48 54 49 33 50 53 51 34 52 37 53 52 54 72 55 35 56 36 57
REMARK SMILES IDX 51 59 73 60 38 61 21 62 22 63 31 64 23 65 24 66 30 67 32 68
REMARK SMILES IDX 25 69 26 70 27 71 28 72 29 73 55 74 56 75 65 76 57 77 58 78
REMARK SMILES IDX 64 79 66 80 59 81 60 82 61 83 62 84 63 85 39 86 40 87 49 88
REMARK SMILES IDX 41 89 42 90 48 91 50 92 43 93 44 94 45 95 46 96 47 97
REMARK H PARENT 5 5 82 16 88 23 9 28 71 47 37 58
REMARK Flexibility Score: inf
ROOT
ATOM      1  C   UNL     1       3.483  -1.468   1.481  1.00  0.00     0.117 C 
ENDROOT
BRANCH   1   2
ATOM      2  N   UNL     1       2.409  -1.260   2.430  1.00  0.00    -0.356 N 
ATOM      3  C   UNL     1       1.093  -0.980   2.224  1.00  0.00     0.227 C 
ATOM      4  O   UNL     1       0.424  -0.724   3.229  1.00  0.00    -0.274 OA
ATOM      5  H   UNL     1       2.674  -1.331   3.376  1.00  0.00     0.163 HD
BRANCH   3   6
ATOM      6  C   UNL     1       0.497  -1.026   0.807  1.00  0.00     0.108 C 
ATOM      7  C   UNL     1       1.019   0.102  -0.092  1.00  0.00     0.023 C 
BRANCH   6   8
ATOM      8  C   UNL     1      -1.022  -0.993   0.871  1.00  0.00     0.000 A 
ATOM      9  C   UNL     1      -1.716   0.204   1.068  1.00  0.00     0.009 A 
ATOM     10  C   UNL     1      -1.768  -2.169   0.811  1.00  0.00     0.129 A 
ATOM     11  C   UNL     1      -3.109   0.214   1.157  1.00  0.00     0.026 A 
ATOM     12  C   UNL     1      -3.162  -2.153   0.895  1.00  0.00     0.065 A 
ATOM     13  F   UNL     1      -1.146  -3.349   0.665  1.00  0.00    -0.207 F 
ATOM     14  C   UNL     1      -3.867  -0.952   1.046  1.00  0.00     0.037 A 
BRANCH  14  15
ATOM     15  N   UNL     1      -5.244  -0.985   1.114  1.00  0.00    -0.380 N 
ATOM     16  H   UNL     1      -5.648  -1.883   1.125  1.00  0.00     0.160 HD
BRANCH  15  17
ATOM     17  C   UNL     1      -6.186   0.132   1.172  1.00  0.00     0.107 C 
ATOM     18  C   UNL     1      -6.065   0.983   2.443  1.00  0.00     0.027 C 
ATOM     19  C   UNL     1      -6.092   1.106  -0.019  1.00  0.00     0.136 C 
ATOM     20  C   UNL     1      -6.027   2.438   1.976  1.00  0.00     0.005 C 
ATOM     21  C   UNL     1      -6.589   2.422   0.563  1.00  0.00     0.034 C 
BRANCH  19  22
ATOM     22  O   UNL     1      -6.920   0.699  -1.103  1.00  0.00    -0.391 OA
ATOM     23  H   UNL     1      -7.839   0.630  -0.800  1.00  0.00     0.211 HD
ENDBRANCH  19  22
ENDBRANCH  15  17
ENDBRANCH  14  15
ENDBRANCH   6   8
ENDBRANCH   3   6
ENDBRANCH   1   2
BRANCH   1  24
ATOM     24  C   UNL     1       4.331  -0.208   1.318  1.00  0.00     0.042 C 
BRANCH  24  25
ATOM     25  C   UNL     1       5.046   0.228   2.595  1.00  0.00     0.118 C 
BRANCH  25  26
ATOM     26  N   UNL     1       6.007  -0.762   3.059  1.00  0.00    -0.352 N 
ATOM     27  C   UNL     1       7.361  -0.655   3.244  1.00  0.00     0.251 C 
ATOM     28  H   UNL     1       5.625  -1.644   3.273  1.00  0.00     0.163 HD
ATOM     29  O   UNL     1       8.023  -1.675   3.437  1.00  0.00    -0.269 OA
BRANCH  27  30
ATOM     30  C   UNL     1       8.030   0.663   3.199  1.00  0.00     0.039 A 
ATOM     31  C   UNL     1       9.262   0.771   2.548  1.00  0.00     0.014 A 
ATOM     32  C   UNL     1       7.471   1.781   3.825  1.00  0.00     0.014 A 
ATOM     33  C   UNL     1       9.905   2.009   2.478  1.00  0.00     0.010 A 
ATOM     34  C   UNL     1       8.078   3.028   3.693  1.00  0.00     0.010 A 
ATOM     35  C   UNL     1       9.303   3.155   3.022  1.00  0.00    -0.014 A 
BRANCH  35  36
ATOM     36  C   UNL     1       9.941   4.491   2.897  1.00  0.00     0.031 A 
ATOM     37  C   UNL     1      10.399   5.232   4.125  1.00  0.00     0.074 A 
ATOM     38  C   UNL     1      10.051   5.063   1.682  1.00  0.00     0.049 A 
ATOM     39  N   UNL     1      10.910   6.432   4.221  1.00  0.00    -0.248 NA
ATOM     40  C   UNL     1      10.237   4.544   5.415  1.00  0.00     0.031 C 
ATOM     41  C   UNL     1       9.603   4.465   0.422  1.00  0.00     0.029 A 
ATOM     42  N   UNL     1      10.562   6.280   1.306  1.00  0.00    -0.354 N 
ATOM     43  C   UNL     1      11.118   6.649   5.579  1.00  0.00     0.074 A 
ATOM     44  C   UNL     1      10.632   5.475   6.271  1.00  0.00     0.031 C 
ATOM     45  C   UNL     1       9.876   5.307  -0.587  1.00  0.00     0.029 A 
ATOM     46  C   UNL     1      10.482   6.519  -0.046  1.00  0.00     0.049 A 
ATOM     47  H   UNL     1      10.950   6.921   1.944  1.00  0.00     0.167 HD
ATOM     48  C   UNL     1      11.682   7.719   6.190  1.00  0.00     0.037 A 
ATOM     49  C   UNL     1      10.845   7.597  -0.767  1.00  0.00     0.037 A 
ATOM     50  C   UNL     1      12.187   8.873   5.492  1.00  0.00     0.049 A 
ATOM     51  C   UNL     1      11.469   8.773  -0.067  1.00  0.00     0.074 A 
ATOM     52  C   UNL     1      12.829   9.982   6.015  1.00  0.00     0.029 A 
ATOM     53  N   UNL     1      12.105   9.069   4.121  1.00  0.00    -0.354 N 
ATOM     54  N   UNL     1      11.714   8.935   1.212  1.00  0.00    -0.248 NA
ATOM     55  C   UNL     1      11.872   9.910  -0.905  1.00  0.00     0.031 C 
ATOM     56  C   UNL     1      13.098  10.868   4.966  1.00  0.00     0.029 A 
ATOM     57  C   UNL     1      12.666  10.290   3.783  1.00  0.00     0.049 A 
ATOM     58  H   UNL     1      11.707   8.435   3.482  1.00  0.00     0.167 HD
ATOM     59  C   UNL     1      12.321  10.180   1.328  1.00  0.00     0.074 A 
ATOM     60  C   UNL     1      12.418  10.723  -0.011  1.00  0.00     0.031 C 
ATOM     61  C   UNL     1      12.759  10.816   2.443  1.00  0.00     0.037 A 
BRANCH  48  62
ATOM     62  C   UNL     1      11.787   7.689   7.691  1.00  0.00     0.058 A 
ATOM     63  C   UNL     1      12.677   6.827   8.351  1.00  0.00     0.135 A 
ATOM     64  C   UNL     1      11.014   8.558   8.479  1.00  0.00     0.135 A 
ATOM     65  F   UNL     1      13.429   5.965   7.648  1.00  0.00    -0.206 F 
ATOM     66  C   UNL     1      12.774   6.803   9.738  1.00  0.00     0.059 A 
ATOM     67  C   UNL     1      11.116   8.572   9.867  1.00  0.00     0.059 A 
ATOM     68  F   UNL     1      10.148   9.405   7.901  1.00  0.00    -0.206 F 
ATOM     69  C   UNL     1      11.988   7.680  10.488  1.00  0.00     0.060 A 
BRANCH  69  70
ATOM     70  S   UNL     1      12.129   7.638  12.288  1.00  0.00     0.124 S 
ATOM     71  O   UNL     1      11.435   6.394  12.604  1.00  0.00    -0.237 OA
ATOM     72  O   UNL     1      13.574   7.626  12.489  1.00  0.00    -0.237 OA
ATOM     73  O   UNL     1      11.450   8.860  12.710  1.00  0.00    -0.744 OA
ENDBRANCH  69  70
ENDBRANCH  48  62
BRANCH  49  74
ATOM     74  C   UNL     1      10.645   7.604  -2.241  1.00  0.00     0.058 A 
ATOM     75  C   UNL     1      11.737   7.521  -3.117  1.00  0.00     0.135 A 
ATOM     76  C   UNL     1       9.361   7.676  -2.802  1.00  0.00     0.135 A 
ATOM     77  F   UNL     1      12.985   7.457  -2.628  1.00  0.00    -0.206 F 
ATOM     78  C   UNL     1      11.566   7.523  -4.497  1.00  0.00     0.059 A 
ATOM     79  C   UNL     1       9.162   7.654  -4.179  1.00  0.00     0.059 A 
ATOM     80  F   UNL     1       8.282   7.739  -2.006  1.00  0.00    -0.206 F 
ATOM     81  C   UNL     1      10.273   7.587  -5.019  1.00  0.00     0.060 A 
BRANCH  81  82
ATOM     82  S   UNL     1      10.057   7.536  -6.811  1.00  0.00     0.124 S 
ATOM     83  O   UNL     1      10.497   8.871  -7.198  1.00  0.00    -0.237 OA
ATOM     84  O   UNL     1      10.938   6.437  -7.195  1.00  0.00    -0.237 OA
ATOM     85  O   UNL     1       8.631   7.269  -6.969  1.00  0.00    -0.744 OA
ENDBRANCH  81  82
ENDBRANCH  49  74
BRANCH  61  86
ATOM     86  C   UNL     1      13.411  12.159   2.262  1.00  0.00     0.058 A 
ATOM     87  C   UNL     1      12.665  13.304   1.944  1.00  0.00     0.135 A 
ATOM     88  C   UNL     1      14.794  12.309   2.460  1.00  0.00     0.135 A 
ATOM     89  F   UNL     1      11.342  13.213   1.738  1.00  0.00    -0.206 F 
ATOM     90  C   UNL     1      13.271  14.549   1.805  1.00  0.00     0.059 A 
ATOM     91  C   UNL     1      15.415  13.549   2.352  1.00  0.00     0.059 A 
ATOM     92  F   UNL     1      15.552  11.247   2.776  1.00  0.00    -0.206 F 
ATOM     93  C   UNL     1      14.647  14.662   2.013  1.00  0.00     0.060 A 
BRANCH  93  94
ATOM     94  S   UNL     1      15.414  16.289   1.863  1.00  0.00     0.124 S 
ATOM     95  O   UNL     1      15.424  16.477   0.416  1.00  0.00    -0.237 OA
ATOM     96  O   UNL     1      14.492  17.140   2.607  1.00  0.00    -0.237 OA
ATOM     97  O   UNL     1      16.724  16.105   2.481  1.00  0.00    -0.744 OA
ENDBRANCH  93  94
ENDBRANCH  61  86
ENDBRANCH  35  36
ENDBRANCH  27  30
ENDBRANCH  25  26
ENDBRANCH  24  25
ENDBRANCH   1  24
TORSDOF 17
