REMARK SMILES CCCc1noc(C)c1C(=O)NCCCNC(=O)c1ccc(-c2c3nc(c(-c4c(F)cc(S(=O)(=O)[O-])cc4F)c4ccc([nH]4)c(-c4c(F)cc(S(=O)(=O)[O-])cc4F)c4nc(c(-c5c(F)cc(S(=O)(=O)[O-])cc5F)c5ccc2[nH]5)C=C4)C=C3)cc1
REMARK SMILES IDX 14 1 13 2 12 3 10 4 11 5 9 7 4 8 5 9 6 10 7 11 8 12 3 13
REMARK SMILES IDX 2 14 1 15 15 16 16 17 17 18 18 20 19 21 20 22 84 23 21 24
REMARK SMILES IDX 83 25 22 26 23 27 24 28 77 29 25 30 82 31 76 32 78 33 26 34
REMARK SMILES IDX 81 35 75 36 74 37 27 39 61 40 40 41 60 42 41 43 44 44 59 45
REMARK SMILES IDX 79 46 42 47 43 48 58 50 80 51 45 52 28 53 29 54 38 55 30 56
REMARK SMILES IDX 31 57 37 58 39 59 32 60 33 61 34 62 35 63 36 64 62 65 63 66
REMARK SMILES IDX 72 67 64 68 65 69 71 70 73 71 66 72 67 73 68 74 69 75 70 76
REMARK SMILES IDX 46 77 47 78 56 79 48 80 49 81 55 82 57 83 50 84 51 85 52 86
REMARK SMILES IDX 53 87 54 88
REMARK H PARENT 12 6 16 19 78 38 44 49
REMARK Flexibility Score: inf
ROOT
ATOM      1  C   UNL     1      -1.169  -2.361   4.036  1.00  0.00     0.042 C 
ENDROOT
BRANCH   1   2
ATOM      2  C   UNL     1      -2.043  -2.366   2.789  1.00  0.00     0.118 C 
BRANCH   2   3
ATOM      3  N   UNL     1      -1.549  -1.492   1.753  1.00  0.00    -0.352 N 
ATOM      4  C   UNL     1      -1.355  -1.836   0.440  1.00  0.00     0.256 C 
ATOM      5  O   UNL     1      -1.923  -1.125  -0.397  1.00  0.00    -0.269 OA
ATOM      6  H   UNL     1      -1.332  -0.568   2.012  1.00  0.00     0.163 HD
BRANCH   4   7
ATOM      7  C   UNL     1      -0.376  -2.832   0.036  1.00  0.00     0.105 A 
ATOM      8  C   UNL     1       0.562  -2.647  -1.051  1.00  0.00     0.097 A 
ATOM      9  N   UNL     1       1.274  -3.759  -1.266  1.00  0.00    -0.084 NA
ATOM     10  O   UNL     1       0.865  -4.661  -0.335  1.00  0.00    -0.361 OA
ATOM     11  C   UNL     1      -0.100  -4.128   0.463  1.00  0.00     0.146 A 
ATOM     12  C   UNL     1      -0.562  -5.134   1.444  1.00  0.00     0.092 C 
BRANCH   8  13
ATOM     13  C   UNL     1       0.855  -1.505  -1.982  1.00  0.00     0.060 C 
BRANCH  13  14
ATOM     14  C   UNL     1       0.713  -0.063  -1.504  1.00  0.00     0.003 C 
ATOM     15  C   UNL     1       1.459   0.274  -0.224  1.00  0.00     0.004 C 
ENDBRANCH  13  14
ENDBRANCH   8  13
ENDBRANCH   4   7
ENDBRANCH   2   3
ENDBRANCH   1   2
BRANCH   1  16
ATOM     16  C   UNL     1      -1.497  -1.212   4.991  1.00  0.00     0.118 C 
BRANCH  16  17
ATOM     17  N   UNL     1      -2.879  -1.269   5.463  1.00  0.00    -0.352 N 
ATOM     18  C   UNL     1      -3.391  -1.483   6.716  1.00  0.00     0.251 C 
ATOM     19  H   UNL     1      -3.557  -1.131   4.762  1.00  0.00     0.163 HD
ATOM     20  O   UNL     1      -4.581  -1.769   6.837  1.00  0.00    -0.269 OA
BRANCH  18  21
ATOM     21  C   UNL     1      -2.531  -1.363   7.909  1.00  0.00     0.039 A 
ATOM     22  C   UNL     1      -2.723  -2.239   8.980  1.00  0.00     0.014 A 
ATOM     23  C   UNL     1      -1.566  -0.356   7.989  1.00  0.00     0.014 A 
ATOM     24  C   UNL     1      -1.904  -2.141  10.106  1.00  0.00     0.010 A 
ATOM     25  C   UNL     1      -0.693  -0.320   9.068  1.00  0.00     0.010 A 
ATOM     26  C   UNL     1      -0.859  -1.204  10.143  1.00  0.00    -0.014 A 
BRANCH  26  27
ATOM     27  C   UNL     1       0.068  -1.121  11.298  1.00  0.00     0.031 A 
ATOM     28  C   UNL     1       0.146   0.143  12.111  1.00  0.00     0.074 A 
ATOM     29  C   UNL     1       0.887  -2.157  11.563  1.00  0.00     0.049 A 
ATOM     30  N   UNL     1       0.947   0.439  13.101  1.00  0.00    -0.248 NA
ATOM     31  C   UNL     1      -0.776   1.230  11.741  1.00  0.00     0.031 C 
ATOM     32  C   UNL     1       0.936  -3.413  10.810  1.00  0.00     0.029 A 
ATOM     33  N   UNL     1       1.844  -2.317  12.533  1.00  0.00    -0.354 N 
ATOM     34  C   UNL     1       0.636   1.746  13.460  1.00  0.00     0.074 A 
ATOM     35  C   UNL     1      -0.379   2.208  12.541  1.00  0.00     0.031 C 
ATOM     36  C   UNL     1       1.850  -4.224  11.364  1.00  0.00     0.029 A 
ATOM     37  C   UNL     1       2.484  -3.533  12.482  1.00  0.00     0.049 A 
ATOM     38  H   UNL     1       2.052  -1.627  13.203  1.00  0.00     0.167 HD
ATOM     39  C   UNL     1       1.133   2.483  14.482  1.00  0.00     0.037 A 
ATOM     40  C   UNL     1       3.475  -4.030  13.246  1.00  0.00     0.037 A 
ATOM     41  C   UNL     1       2.128   2.002  15.405  1.00  0.00     0.049 A 
ATOM     42  C   UNL     1       4.017  -3.189  14.370  1.00  0.00     0.074 A 
ATOM     43  C   UNL     1       2.662   2.645  16.507  1.00  0.00     0.029 A 
ATOM     44  N   UNL     1       2.740   0.759  15.331  1.00  0.00    -0.354 N 
ATOM     45  N   UNL     1       3.667  -1.979  14.736  1.00  0.00    -0.248 NA
ATOM     46  C   UNL     1       5.082  -3.783  15.188  1.00  0.00     0.031 C 
ATOM     47  C   UNL     1       3.632   1.810  17.071  1.00  0.00     0.029 A 
ATOM     48  C   UNL     1       3.663   0.624  16.355  1.00  0.00     0.049 A 
ATOM     49  H   UNL     1       2.547   0.074  14.651  1.00  0.00     0.167 HD
ATOM     50  C   UNL     1       4.448  -1.678  15.847  1.00  0.00     0.074 A 
ATOM     51  C   UNL     1       5.278  -2.838  16.098  1.00  0.00     0.031 C 
ATOM     52  C   UNL     1       4.474  -0.545  16.593  1.00  0.00     0.037 A 
BRANCH  39  53
ATOM     53  C   UNL     1       0.602   3.881  14.656  1.00  0.00     0.058 A 
ATOM     54  C   UNL     1      -0.723   4.124  15.056  1.00  0.00     0.135 A 
ATOM     55  C   UNL     1       1.431   4.994  14.441  1.00  0.00     0.135 A 
ATOM     56  F   UNL     1      -1.566   3.099  15.261  1.00  0.00    -0.206 F 
ATOM     57  C   UNL     1      -1.216   5.416  15.200  1.00  0.00     0.059 A 
ATOM     58  C   UNL     1       0.969   6.296  14.611  1.00  0.00     0.059 A 
ATOM     59  F   UNL     1       2.706   4.823  14.057  1.00  0.00    -0.206 F 
ATOM     60  C   UNL     1      -0.362   6.497  14.974  1.00  0.00     0.060 A 
BRANCH  60  61
ATOM     61  S   UNL     1      -1.020   8.167  15.162  1.00  0.00     0.124 S 
ATOM     62  O   UNL     1      -1.880   8.274  13.987  1.00  0.00    -0.237 OA
ATOM     63  O   UNL     1      -1.710   8.087  16.446  1.00  0.00    -0.237 OA
ATOM     64  O   UNL     1       0.173   9.007  15.145  1.00  0.00    -0.744 OA
ENDBRANCH  60  61
ENDBRANCH  39  53
BRANCH  40  65
ATOM     65  C   UNL     1       3.994  -5.401  12.992  1.00  0.00     0.058 A 
ATOM     66  C   UNL     1       3.751  -6.442  13.901  1.00  0.00     0.135 A 
ATOM     67  C   UNL     1       4.729  -5.704  11.835  1.00  0.00     0.135 A 
ATOM     68  F   UNL     1       3.056  -6.203  15.024  1.00  0.00    -0.206 F 
ATOM     69  C   UNL     1       4.232  -7.729  13.683  1.00  0.00     0.059 A 
ATOM     70  C   UNL     1       5.197  -6.989  11.581  1.00  0.00     0.059 A 
ATOM     71  F   UNL     1       4.973  -4.749  10.924  1.00  0.00    -0.206 F 
ATOM     72  C   UNL     1       4.953  -7.993  12.517  1.00  0.00     0.060 A 
BRANCH  72  73
ATOM     73  S   UNL     1       5.534  -9.677  12.223  1.00  0.00     0.124 S 
ATOM     74  O   UNL     1       6.606  -9.793  13.205  1.00  0.00    -0.237 OA
ATOM     75  O   UNL     1       4.335 -10.465  12.489  1.00  0.00    -0.237 OA
ATOM     76  O   UNL     1       5.958  -9.647  10.826  1.00  0.00    -0.744 OA
ENDBRANCH  72  73
ENDBRANCH  40  65
BRANCH  52  77
ATOM     77  C   UNL     1       5.402  -0.519  17.776  1.00  0.00     0.058 A 
ATOM     78  C   UNL     1       6.795  -0.436  17.624  1.00  0.00     0.135 A 
ATOM     79  C   UNL     1       4.884  -0.525  19.082  1.00  0.00     0.135 A 
ATOM     80  F   UNL     1       7.342  -0.434  16.398  1.00  0.00    -0.206 F 
ATOM     81  C   UNL     1       7.643  -0.386  18.725  1.00  0.00     0.059 A 
ATOM     82  C   UNL     1       5.712  -0.444  20.196  1.00  0.00     0.059 A 
ATOM     83  F   UNL     1       3.558  -0.592  19.284  1.00  0.00    -0.206 F 
ATOM     84  C   UNL     1       7.092  -0.387  20.008  1.00  0.00     0.060 A 
BRANCH  84  85
ATOM     85  S   UNL     1       8.203  -0.286  21.426  1.00  0.00     0.124 S 
ATOM     86  O   UNL     1       8.793  -1.620  21.432  1.00  0.00    -0.237 OA
ATOM     87  O   UNL     1       9.098   0.802  21.044  1.00  0.00    -0.237 OA
ATOM     88  O   UNL     1       7.307   0.009  22.540  1.00  0.00    -0.744 OA
ENDBRANCH  84  85
ENDBRANCH  52  77
ENDBRANCH  26  27
ENDBRANCH  18  21
ENDBRANCH  16  17
ENDBRANCH   1  16
TORSDOF 15
