REMARK SMILES CC(C)c1nc(C(=O)NCCCNC(=O)c2ccc(-c3c4nc(c(-c5c(F)cc(S(=O)(=O)[O-])cc5F)c5ccc([nH]5)c(-c5c(F)cc(S(=O)(=O)[O-])cc5F)c5nc(c(-c6c(F)cc(S(=O)(=O)[O-])cc6F)c6ccc3[nH]6)C=C5)C=C4)cc2)nn1-c1ccccc1F
REMARK SMILES IDX 12 1 11 2 10 3 9 4 7 5 8 6 6 8 4 9 5 10 83 11 82 12 2 13
REMARK SMILES IDX 1 14 3 15 84 16 85 17 89 18 86 19 88 20 90 21 87 22 13 23
REMARK SMILES IDX 14 24 15 26 16 27 17 28 81 29 18 30 80 31 19 32 20 33 21 34
REMARK SMILES IDX 74 35 22 36 79 37 73 38 75 39 23 40 78 41 72 42 71 43 24 45
REMARK SMILES IDX 58 46 37 47 57 48 38 49 41 50 56 51 76 52 39 53 40 54 55 56
REMARK SMILES IDX 77 57 42 58 25 59 26 60 35 61 27 62 28 63 34 64 36 65 29 66
REMARK SMILES IDX 30 67 31 68 32 69 33 70 59 71 60 72 69 73 61 74 62 75 68 76
REMARK SMILES IDX 70 77 63 78 64 79 65 80 66 81 67 82 43 83 44 84 53 85 45 86
REMARK SMILES IDX 46 87 52 88 54 89 47 90 48 91 49 92 50 93 51 94
REMARK H PARENT 9 7 13 25 75 44 41 55
REMARK Flexibility Score: inf
ROOT
ATOM      1  C   UNL     1      -7.644   0.623  -0.844  1.00  0.00     0.118 C 
ENDROOT
BRANCH   1   2
ATOM      2  C   UNL     1      -6.162   0.726  -0.506  1.00  0.00     0.042 C 
BRANCH   2   3
ATOM      3  C   UNL     1      -5.836  -0.006   0.799  1.00  0.00     0.118 C 
BRANCH   3   4
ATOM      4  N   UNL     1      -5.615  -1.435   0.610  1.00  0.00    -0.349 N 
ATOM      5  C   UNL     1      -4.446  -2.170   0.486  1.00  0.00     0.290 C 
ATOM      6  O   UNL     1      -4.566  -3.386   0.321  1.00  0.00    -0.266 OA
ATOM      7  H   UNL     1      -6.439  -1.972   0.561  1.00  0.00     0.163 HD
BRANCH   5   8
ATOM      8  C   UNL     1      -3.122  -1.508   0.534  1.00  0.00     0.239 A 
ATOM      9  C   UNL     1      -1.017  -1.178   0.290  1.00  0.00     0.136 A 
ATOM     10  N   UNL     1      -1.942  -2.114   0.142  1.00  0.00    -0.207 NA
ATOM     11  N   UNL     1      -1.665   0.001   0.615  1.00  0.00    -0.214 N 
ATOM     12  N   UNL     1      -2.918  -0.275   1.019  1.00  0.00    -0.140 NA
BRANCH   9  13
ATOM     13  C   UNL     1       0.456  -1.485   0.424  1.00  0.00     0.051 C 
ATOM     14  C   UNL     1       1.443  -0.404   0.008  1.00  0.00     0.016 C 
ATOM     15  C   UNL     1       0.755  -1.906   1.870  1.00  0.00     0.016 C 
ENDBRANCH   9  13
BRANCH  11  16
ATOM     16  C   UNL     1      -1.293   1.351   0.530  1.00  0.00     0.102 A 
ATOM     17  C   UNL     1      -1.679   2.234   1.547  1.00  0.00     0.031 A 
ATOM     18  C   UNL     1      -0.687   1.841  -0.622  1.00  0.00     0.148 A 
ATOM     19  C   UNL     1      -1.358   3.587   1.443  1.00  0.00     0.002 A 
ATOM     20  C   UNL     1      -0.374   3.191  -0.730  1.00  0.00     0.041 A 
ATOM     21  F   UNL     1      -0.474   1.048  -1.681  1.00  0.00    -0.205 F 
ATOM     22  C   UNL     1      -0.694   4.063   0.311  1.00  0.00     0.003 A 
ENDBRANCH  11  16
ENDBRANCH   5   8
ENDBRANCH   3   4
ENDBRANCH   2   3
ENDBRANCH   1   2
BRANCH   1  23
ATOM     23  N   UNL     1      -8.481   1.398   0.075  1.00  0.00    -0.352 N 
ATOM     24  C   UNL     1      -9.853   1.571   0.060  1.00  0.00     0.251 C 
ATOM     25  H   UNL     1      -8.002   1.858   0.802  1.00  0.00     0.163 HD
ATOM     26  O   UNL     1     -10.367   2.469   0.706  1.00  0.00    -0.269 OA
BRANCH  24  27
ATOM     27  C   UNL     1     -10.675   0.672  -0.775  1.00  0.00     0.039 A 
ATOM     28  C   UNL     1     -11.730   1.181  -1.536  1.00  0.00     0.014 A 
ATOM     29  C   UNL     1     -10.354  -0.681  -0.829  1.00  0.00     0.014 A 
ATOM     30  C   UNL     1     -12.384   0.335  -2.429  1.00  0.00     0.010 A 
ATOM     31  C   UNL     1     -10.904  -1.479  -1.808  1.00  0.00     0.010 A 
ATOM     32  C   UNL     1     -11.941  -0.990  -2.594  1.00  0.00    -0.014 A 
BRANCH  32  33
ATOM     33  C   UNL     1     -12.486  -1.814  -3.675  1.00  0.00     0.031 A 
ATOM     34  C   UNL     1     -12.498  -1.161  -5.017  1.00  0.00     0.074 A 
ATOM     35  C   UNL     1     -12.788  -3.126  -3.565  1.00  0.00     0.049 A 
ATOM     36  N   UNL     1     -13.525  -0.771  -5.697  1.00  0.00    -0.248 NA
ATOM     37  C   UNL     1     -11.210  -0.780  -5.620  1.00  0.00     0.031 C 
ATOM     38  C   UNL     1     -12.554  -4.031  -2.434  1.00  0.00     0.029 A 
ATOM     39  N   UNL     1     -13.296  -3.962  -4.513  1.00  0.00    -0.354 N 
ATOM     40  C   UNL     1     -13.032  -0.290  -6.908  1.00  0.00     0.074 A 
ATOM     41  C   UNL     1     -11.608  -0.163  -6.735  1.00  0.00     0.031 C 
ATOM     42  C   UNL     1     -12.699  -5.312  -2.840  1.00  0.00     0.029 A 
ATOM     43  C   UNL     1     -13.215  -5.313  -4.195  1.00  0.00     0.049 A 
ATOM     44  H   UNL     1     -13.689  -3.636  -5.355  1.00  0.00     0.167 HD
ATOM     45  C   UNL     1     -13.814  -0.237  -8.024  1.00  0.00     0.037 A 
ATOM     46  C   UNL     1     -13.541  -6.361  -4.992  1.00  0.00     0.037 A 
ATOM     47  C   UNL     1     -15.208  -0.387  -7.689  1.00  0.00     0.049 A 
ATOM     48  C   UNL     1     -14.470  -5.844  -6.028  1.00  0.00     0.074 A 
ATOM     49  C   UNL     1     -16.099   0.307  -6.893  1.00  0.00     0.029 A 
ATOM     50  N   UNL     1     -15.789  -1.612  -7.915  1.00  0.00    -0.354 N 
ATOM     51  N   UNL     1     -15.673  -5.407  -5.776  1.00  0.00    -0.248 NA
ATOM     52  C   UNL     1     -13.903  -5.413  -7.295  1.00  0.00     0.031 C 
ATOM     53  C   UNL     1     -16.909  -0.697  -6.285  1.00  0.00     0.029 A 
ATOM     54  C   UNL     1     -16.511  -1.934  -6.795  1.00  0.00     0.049 A 
ATOM     55  H   UNL     1     -15.702  -2.157  -8.730  1.00  0.00     0.167 HD
ATOM     56  C   UNL     1     -15.838  -4.320  -6.621  1.00  0.00     0.074 A 
ATOM     57  C   UNL     1     -14.762  -4.438  -7.602  1.00  0.00     0.031 C 
ATOM     58  C   UNL     1     -16.660  -3.281  -6.287  1.00  0.00     0.037 A 
BRANCH  45  59
ATOM     59  C   UNL     1     -13.317  -0.404  -9.443  1.00  0.00     0.058 A 
ATOM     60  C   UNL     1     -14.204  -0.179 -10.519  1.00  0.00     0.135 A 
ATOM     61  C   UNL     1     -12.106  -1.046  -9.782  1.00  0.00     0.135 A 
ATOM     62  F   UNL     1     -15.388   0.421 -10.316  1.00  0.00    -0.206 F 
ATOM     63  C   UNL     1     -13.943  -0.630 -11.814  1.00  0.00     0.059 A 
ATOM     64  C   UNL     1     -11.802  -1.454 -11.077  1.00  0.00     0.059 A 
ATOM     65  F   UNL     1     -11.201  -1.396  -8.861  1.00  0.00    -0.206 F 
ATOM     66  C   UNL     1     -12.744  -1.283 -12.078  1.00  0.00     0.060 A 
BRANCH  66  67
ATOM     67  S   UNL     1     -12.449  -1.960 -13.721  1.00  0.00     0.124 S 
ATOM     68  O   UNL     1     -13.402  -3.062 -13.756  1.00  0.00    -0.237 OA
ATOM     69  O   UNL     1     -12.756  -0.819 -14.578  1.00  0.00    -0.237 OA
ATOM     70  O   UNL     1     -11.040  -2.341 -13.678  1.00  0.00    -0.744 OA
ENDBRANCH  66  67
ENDBRANCH  45  59
BRANCH  46  71
ATOM     71  C   UNL     1     -12.884  -7.690  -5.099  1.00  0.00     0.058 A 
ATOM     72  C   UNL     1     -13.488  -8.739  -5.816  1.00  0.00     0.135 A 
ATOM     73  C   UNL     1     -11.527  -7.867  -4.763  1.00  0.00     0.135 A 
ATOM     74  F   UNL     1     -14.774  -8.650  -6.187  1.00  0.00    -0.206 F 
ATOM     75  C   UNL     1     -12.771  -9.863  -6.237  1.00  0.00     0.059 A 
ATOM     76  C   UNL     1     -10.794  -8.984  -5.164  1.00  0.00     0.059 A 
ATOM     77  F   UNL     1     -10.844  -6.909  -4.118  1.00  0.00    -0.206 F 
ATOM     78  C   UNL     1     -11.416  -9.964  -5.929  1.00  0.00     0.060 A 
BRANCH  78  79
ATOM     79  S   UNL     1     -10.443 -11.311  -6.645  1.00  0.00     0.124 S 
ATOM     80  O   UNL     1     -10.950 -12.469  -5.917  1.00  0.00    -0.237 OA
ATOM     81  O   UNL     1     -10.807 -11.237  -8.056  1.00  0.00    -0.237 OA
ATOM     82  O   UNL     1      -9.066 -10.934  -6.340  1.00  0.00    -0.744 OA
ENDBRANCH  78  79
ENDBRANCH  46  71
BRANCH  58  83
ATOM     83  C   UNL     1     -17.644  -3.473  -5.161  1.00  0.00     0.058 A 
ATOM     84  C   UNL     1     -17.297  -3.716  -3.820  1.00  0.00     0.135 A 
ATOM     85  C   UNL     1     -19.002  -3.245  -5.437  1.00  0.00     0.135 A 
ATOM     86  F   UNL     1     -16.015  -3.847  -3.450  1.00  0.00    -0.206 F 
ATOM     87  C   UNL     1     -18.260  -3.765  -2.808  1.00  0.00     0.059 A 
ATOM     88  C   UNL     1     -19.974  -3.257  -4.441  1.00  0.00     0.059 A 
ATOM     89  F   UNL     1     -19.394  -2.951  -6.688  1.00  0.00    -0.206 F 
ATOM     90  C   UNL     1     -19.597  -3.530  -3.128  1.00  0.00     0.060 A 
BRANCH  90  91
ATOM     91  S   UNL     1     -20.831  -3.510  -1.810  1.00  0.00     0.124 S 
ATOM     92  O   UNL     1     -20.926  -4.922  -1.456  1.00  0.00    -0.237 OA
ATOM     93  O   UNL     1     -20.214  -2.646  -0.808  1.00  0.00    -0.237 OA
ATOM     94  O   UNL     1     -22.015  -2.949  -2.458  1.00  0.00    -0.744 OA
ENDBRANCH  90  91
ENDBRANCH  58  83
ENDBRANCH  32  33
ENDBRANCH  24  27
ENDBRANCH   1  23
TORSDOF 15
