REMARK SMILES CCCN(CCC)c1ccc(C(=O)NCCCNC(=O)c2ccc(-c3c4nc(c(-c5c(F)cc(S(=O)(=O)[O-])cc5F)c5ccc([nH]5)c(-c5c(F)cc(S(=O)(=O)[O-])cc5F)c5nc(c(-c6c(F)cc(S(=O)(=O)[O-])cc6F)c6ccc3[nH]6)C=C5)C=C4)cc2)cc1[N+](=O)[O-]
REMARK SMILES IDX 16 1 15 2 14 3 12 4 13 5 11 7 8 8 9 9 88 10 10 11 87 12 4 13
REMARK SMILES IDX 3 14 2 15 1 16 5 17 6 18 7 19 89 20 90 21 91 22 17 23 18 24
REMARK SMILES IDX 19 25 20 27 21 28 22 29 86 30 23 31 85 32 24 33 25 34 26 35
REMARK SMILES IDX 79 36 27 37 84 38 78 39 80 40 28 41 83 42 77 43 76 44 29 46
REMARK SMILES IDX 63 47 42 48 62 49 43 50 46 51 61 52 81 53 44 54 45 55 60 57
REMARK SMILES IDX 82 58 47 59 30 60 31 61 40 62 32 63 33 64 39 65 41 66 34 67
REMARK SMILES IDX 35 68 36 69 37 70 38 71 64 72 65 73 74 74 66 75 67 76 73 77
REMARK SMILES IDX 75 78 68 79 69 80 70 81 71 82 72 83 48 84 49 85 58 86 50 87
REMARK SMILES IDX 51 88 57 89 59 90 52 91 53 92 54 93 55 94 56 95
REMARK H PARENT 14 6 18 26 80 45 46 56
REMARK Flexibility Score: inf
ROOT
ATOM      1  C   UNL     1       0.542   3.214  -3.855  1.00  0.00     0.042 C 
ENDROOT
BRANCH   1   2
ATOM      2  C   UNL     1       1.796   3.229  -2.987  1.00  0.00     0.118 C 
BRANCH   2   3
ATOM      3  N   UNL     1       1.983   4.518  -2.336  1.00  0.00    -0.352 N 
ATOM      4  C   UNL     1       1.848   4.863  -1.015  1.00  0.00     0.251 C 
ATOM      5  O   UNL     1       2.166   5.979  -0.627  1.00  0.00    -0.269 OA
ATOM      6  H   UNL     1       2.247   5.253  -2.935  1.00  0.00     0.163 HD
BRANCH   4   7
ATOM      7  C   UNL     1       1.391   3.856  -0.038  1.00  0.00     0.046 A 
ATOM      8  C   UNL     1       0.726   1.792   1.775  1.00  0.00     0.116 A 
ATOM      9  C   UNL     1       1.867   2.593   1.964  1.00  0.00     0.034 A 
ATOM     10  C   UNL     1      -0.087   2.092   0.668  1.00  0.00     0.293 A 
ATOM     11  C   UNL     1       2.191   3.624   1.080  1.00  0.00     0.016 A 
ATOM     12  C   UNL     1       0.223   3.123  -0.229  1.00  0.00     0.101 A 
BRANCH   8  13
ATOM     13  N   UNL     1       0.481   0.753   2.655  1.00  0.00    -0.366 N 
BRANCH  13  14
ATOM     14  C   UNL     1       1.314  -0.454   2.604  1.00  0.00     0.116 C 
BRANCH  14  15
ATOM     15  C   UNL     1       1.025  -1.311   1.362  1.00  0.00     0.018 C 
ATOM     16  C   UNL     1       1.869  -0.944   0.146  1.00  0.00     0.006 C 
ENDBRANCH  14  15
ENDBRANCH  13  14
BRANCH  13  17
ATOM     17  C   UNL     1      -0.402   0.994   3.807  1.00  0.00     0.116 C 
BRANCH  17  18
ATOM     18  C   UNL     1       0.239   1.889   4.878  1.00  0.00     0.018 C 
ATOM     19  C   UNL     1      -0.103   3.367   4.711  1.00  0.00     0.006 C 
ENDBRANCH  17  18
ENDBRANCH  13  17
ENDBRANCH   8  13
BRANCH  10  20
ATOM     20  N   UNL     1      -1.201   1.231   0.304  1.00  0.00     0.065 N 
ATOM     21  O   UNL     1      -1.150   0.715  -0.824  1.00  0.00    -0.258 OA
ATOM     22  O   UNL     1      -2.138   1.113   1.104  1.00  0.00    -0.258 OA
ENDBRANCH  10  20
ENDBRANCH   4   7
ENDBRANCH   2   3
ENDBRANCH   1   2
BRANCH   1  23
ATOM     23  C   UNL     1       0.650   4.105  -5.087  1.00  0.00     0.118 C 
BRANCH  23  24
ATOM     24  N   UNL     1       1.632   3.607  -6.039  1.00  0.00    -0.352 N 
ATOM     25  C   UNL     1       1.473   3.240  -7.352  1.00  0.00     0.251 C 
ATOM     26  H   UNL     1       2.548   3.521  -5.689  1.00  0.00     0.163 HD
ATOM     27  O   UNL     1       2.376   2.635  -7.922  1.00  0.00    -0.269 OA
BRANCH  25  28
ATOM     28  C   UNL     1       0.220   3.558  -8.072  1.00  0.00     0.039 A 
ATOM     29  C   UNL     1      -0.327   2.600  -8.929  1.00  0.00     0.014 A 
ATOM     30  C   UNL     1      -0.401   4.802  -7.928  1.00  0.00     0.014 A 
ATOM     31  C   UNL     1      -1.524   2.869  -9.597  1.00  0.00     0.010 A 
ATOM     32  C   UNL     1      -1.634   5.038  -8.531  1.00  0.00     0.010 A 
ATOM     33  C   UNL     1      -2.206   4.077  -9.377  1.00  0.00    -0.014 A 
BRANCH  33  34
ATOM     34  C   UNL     1      -3.520   4.347 -10.017  1.00  0.00     0.031 A 
ATOM     35  C   UNL     1      -3.674   5.498 -10.976  1.00  0.00     0.074 A 
ATOM     36  C   UNL     1      -4.589   3.597  -9.680  1.00  0.00     0.049 A 
ATOM     37  N   UNL     1      -4.752   5.933 -11.575  1.00  0.00    -0.248 NA
ATOM     38  C   UNL     1      -2.465   6.281 -11.284  1.00  0.00     0.031 C 
ATOM     39  C   UNL     1      -4.576   2.491  -8.718  1.00  0.00     0.029 A 
ATOM     40  N   UNL     1      -5.897   3.660 -10.090  1.00  0.00    -0.354 N 
ATOM     41  C   UNL     1      -4.360   7.048 -12.306  1.00  0.00     0.074 A 
ATOM     42  C   UNL     1      -2.951   7.248 -12.050  1.00  0.00     0.031 C 
ATOM     43  C   UNL     1      -5.812   1.976  -8.621  1.00  0.00     0.029 A 
ATOM     44  C   UNL     1      -6.715   2.737  -9.477  1.00  0.00     0.049 A 
ATOM     45  H   UNL     1      -6.221   4.304 -10.760  1.00  0.00     0.167 HD
ATOM     46  C   UNL     1      -5.105   7.825 -13.128  1.00  0.00     0.037 A 
ATOM     47  C   UNL     1      -8.044   2.540  -9.577  1.00  0.00     0.037 A 
ATOM     48  C   UNL     1      -6.498   7.592 -13.409  1.00  0.00     0.049 A 
ATOM     49  C   UNL     1      -8.843   3.408 -10.513  1.00  0.00     0.074 A 
ATOM     50  C   UNL     1      -7.316   8.265 -14.301  1.00  0.00     0.029 A 
ATOM     51  N   UNL     1      -7.282   6.623 -12.800  1.00  0.00    -0.354 N 
ATOM     52  N   UNL     1      -8.432   4.397 -11.272  1.00  0.00    -0.248 NA
ATOM     53  C   UNL     1     -10.282   3.131 -10.616  1.00  0.00     0.031 C 
ATOM     54  C   UNL     1      -8.608   7.744 -14.186  1.00  0.00     0.029 A 
ATOM     55  C   UNL     1      -8.582   6.704 -13.272  1.00  0.00     0.049 A 
ATOM     56  H   UNL     1      -6.962   5.975 -12.132  1.00  0.00     0.167 HD
ATOM     57  C   UNL     1      -9.557   4.839 -11.961  1.00  0.00     0.074 A 
ATOM     58  C   UNL     1     -10.659   3.999 -11.544  1.00  0.00     0.031 C 
ATOM     59  C   UNL     1      -9.667   5.851 -12.857  1.00  0.00     0.037 A 
BRANCH  46  60
ATOM     60  C   UNL     1      -4.446   9.003 -13.791  1.00  0.00     0.058 A 
ATOM     61  C   UNL     1      -3.514   8.846 -14.828  1.00  0.00     0.135 A 
ATOM     62  C   UNL     1      -4.828  10.311 -13.448  1.00  0.00     0.135 A 
ATOM     63  F   UNL     1      -3.100   7.620 -15.187  1.00  0.00    -0.206 F 
ATOM     64  C   UNL     1      -2.979   9.943 -15.498  1.00  0.00     0.059 A 
ATOM     65  C   UNL     1      -4.328  11.421 -14.122  1.00  0.00     0.059 A 
ATOM     66  F   UNL     1      -5.713  10.519 -12.460  1.00  0.00    -0.206 F 
ATOM     67  C   UNL     1      -3.401  11.226 -15.144  1.00  0.00     0.060 A 
BRANCH  67  68
ATOM     68  S   UNL     1      -2.739  12.633 -16.061  1.00  0.00     0.124 S 
ATOM     69  O   UNL     1      -1.357  12.663 -15.593  1.00  0.00    -0.237 OA
ATOM     70  O   UNL     1      -2.928  12.217 -17.447  1.00  0.00    -0.237 OA
ATOM     71  O   UNL     1      -3.572  13.749 -15.625  1.00  0.00    -0.744 OA
ENDBRANCH  67  68
ENDBRANCH  46  60
BRANCH  47  72
ATOM     72  C   UNL     1      -8.711   1.487  -8.762  1.00  0.00     0.058 A 
ATOM     73  C   UNL     1      -9.288   0.357  -9.361  1.00  0.00     0.135 A 
ATOM     74  C   UNL     1      -8.807   1.603  -7.366  1.00  0.00     0.135 A 
ATOM     75  F   UNL     1      -9.227   0.200 -10.693  1.00  0.00    -0.206 F 
ATOM     76  C   UNL     1      -9.970  -0.598  -8.614  1.00  0.00     0.059 A 
ATOM     77  C   UNL     1      -9.454   0.644  -6.593  1.00  0.00     0.059 A 
ATOM     78  F   UNL     1      -8.255   2.653  -6.738  1.00  0.00    -0.206 F 
ATOM     79  C   UNL     1     -10.050  -0.443  -7.229  1.00  0.00     0.060 A 
BRANCH  79  80
ATOM     80  S   UNL     1     -10.933  -1.691  -6.267  1.00  0.00     0.124 S 
ATOM     81  O   UNL     1     -12.319  -1.401  -6.614  1.00  0.00    -0.237 OA
ATOM     82  O   UNL     1     -10.386  -2.934  -6.801  1.00  0.00    -0.237 OA
ATOM     83  O   UNL     1     -10.550  -1.386  -4.891  1.00  0.00    -0.744 OA
ENDBRANCH  79  80
ENDBRANCH  47  72
BRANCH  59  84
ATOM     84  C   UNL     1     -11.015   6.082 -13.484  1.00  0.00     0.058 A 
ATOM     85  C   UNL     1     -12.087   6.624 -12.758  1.00  0.00     0.135 A 
ATOM     86  C   UNL     1     -11.217   5.811 -14.848  1.00  0.00     0.135 A 
ATOM     87  F   UNL     1     -11.949   6.896 -11.451  1.00  0.00    -0.206 F 
ATOM     88  C   UNL     1     -13.319   6.866 -13.356  1.00  0.00     0.059 A 
ATOM     89  C   UNL     1     -12.431   6.076 -15.473  1.00  0.00     0.059 A 
ATOM     90  F   UNL     1     -10.222   5.303 -15.592  1.00  0.00    -0.206 F 
ATOM     91  C   UNL     1     -13.480   6.592 -14.715  1.00  0.00     0.060 A 
BRANCH  91  92
ATOM     92  S   UNL     1     -15.074   6.945 -15.486  1.00  0.00     0.124 S 
ATOM     93  O   UNL     1     -15.910   5.884 -14.933  1.00  0.00    -0.237 OA
ATOM     94  O   UNL     1     -15.361   8.293 -15.005  1.00  0.00    -0.237 OA
ATOM     95  O   UNL     1     -14.792   6.842 -16.915  1.00  0.00    -0.744 OA
ENDBRANCH  91  92
ENDBRANCH  59  84
ENDBRANCH  33  34
ENDBRANCH  25  28
ENDBRANCH  23  24
ENDBRANCH   1  23
TORSDOF 19
