REMARK SMILES O=C(NCCCNC(=O)[C@H](NC(=O)c1ccc(Br)nc1)c1ccccc1)c1ccc(-c2c3nc(c(-c4c(F)cc(S(=O)(=O)[O-])cc4F)c4ccc([nH]4)c(-c4c(F)cc(S(=O)(=O)[O-])cc4F)c4nc(c(-c5c(F)cc(S(=O)(=O)[O-])cc5F)c5ccc2[nH]5)C=C4)C=C3)cc1
REMARK SMILES IDX 4 1 3 2 1 3 2 4 27 6 28 7 92 8 29 9 91 10 30 11 31 12 32 13
REMARK SMILES IDX 85 14 33 15 90 16 84 17 86 18 34 19 89 20 83 21 82 22 35 24
REMARK SMILES IDX 69 25 48 26 68 27 49 28 52 29 67 30 87 31 50 32 51 33 66 35
REMARK SMILES IDX 88 36 53 37 36 38 37 39 46 40 38 41 39 42 45 43 47 44 40 45
REMARK SMILES IDX 41 46 42 47 43 48 44 49 70 50 71 51 80 52 72 53 73 54 79 55
REMARK SMILES IDX 81 56 74 57 75 58 76 59 77 60 78 61 54 62 55 63 64 64 56 65
REMARK SMILES IDX 57 66 63 67 65 68 58 69 59 70 60 71 61 72 62 73 5 74 6 75
REMARK SMILES IDX 7 76 8 77 9 79 10 80 21 81 22 82 26 83 23 84 25 85 24 86
REMARK SMILES IDX 11 87 12 88 13 90 14 91 15 92 20 93 16 94 19 95 17 96 18 97
REMARK H PARENT 3 5 86 23 52 34 7 78 11 89
REMARK Flexibility Score: inf
ROOT
ATOM      1  C   UNL     1       4.901  -3.358   2.166  1.00  0.00     0.118 C 
ENDROOT
BRANCH   1   2
ATOM      2  N   UNL     1       4.726  -1.955   2.508  1.00  0.00    -0.352 N 
ATOM      3  O   UNL     1       3.736  -0.095   3.269  1.00  0.00    -0.269 OA
ATOM      4  C   UNL     1       3.793  -1.321   3.296  1.00  0.00     0.251 C 
ATOM      5  H   UNL     1       5.393  -1.353   2.105  1.00  0.00     0.163 HD
BRANCH   4   6
ATOM      6  C   UNL     1       2.847  -2.085   4.147  1.00  0.00     0.039 A 
ATOM      7  C   UNL     1       3.232  -3.253   4.803  1.00  0.00     0.014 A 
ATOM      8  C   UNL     1       1.550  -1.593   4.336  1.00  0.00     0.014 A 
ATOM      9  C   UNL     1       2.288  -4.023   5.474  1.00  0.00     0.010 A 
ATOM     10  C   UNL     1       0.633  -2.305   5.120  1.00  0.00     0.010 A 
ATOM     11  C   UNL     1       0.980  -3.552   5.661  1.00  0.00    -0.014 A 
BRANCH  11  12
ATOM     12  C   UNL     1       0.023  -4.362   6.464  1.00  0.00     0.031 A 
ATOM     13  C   UNL     1      -1.257  -4.882   5.862  1.00  0.00     0.074 A 
ATOM     14  C   UNL     1       0.336  -4.663   7.742  1.00  0.00     0.049 A 
ATOM     15  N   UNL     1      -2.179  -5.634   6.410  1.00  0.00    -0.248 NA
ATOM     16  C   UNL     1      -1.549  -4.502   4.472  1.00  0.00     0.031 C 
ATOM     17  C   UNL     1       1.539  -4.206   8.444  1.00  0.00     0.029 A 
ATOM     18  N   UNL     1      -0.308  -5.440   8.671  1.00  0.00    -0.354 N 
ATOM     19  C   UNL     1      -3.168  -5.796   5.446  1.00  0.00     0.074 A 
ATOM     20  C   UNL     1      -2.748  -5.038   4.286  1.00  0.00     0.031 C 
ATOM     21  C   UNL     1       1.577  -4.759   9.664  1.00  0.00     0.029 A 
ATOM     22  C   UNL     1       0.369  -5.549   9.863  1.00  0.00     0.049 A 
ATOM     23  H   UNL     1      -1.174  -5.878   8.500  1.00  0.00     0.167 HD
ATOM     24  C   UNL     1      -4.315  -6.515   5.518  1.00  0.00     0.037 A 
ATOM     25  C   UNL     1       0.052  -6.200  10.998  1.00  0.00     0.037 A 
ATOM     26  C   UNL     1      -4.716  -7.280   6.672  1.00  0.00     0.049 A 
ATOM     27  C   UNL     1      -1.232  -6.977  11.055  1.00  0.00     0.074 A 
ATOM     28  C   UNL     1      -5.839  -8.075   6.830  1.00  0.00     0.029 A 
ATOM     29  N   UNL     1      -4.015  -7.343   7.869  1.00  0.00    -0.354 N 
ATOM     30  N   UNL     1      -2.135  -7.147  10.119  1.00  0.00    -0.248 NA
ATOM     31  C   UNL     1      -1.541  -7.652  12.322  1.00  0.00     0.031 C 
ATOM     32  C   UNL     1      -5.847  -8.571   8.138  1.00  0.00     0.029 A 
ATOM     33  C   UNL     1      -4.694  -8.143   8.776  1.00  0.00     0.049 A 
ATOM     34  H   UNL     1      -3.162  -6.887   8.047  1.00  0.00     0.167 HD
ATOM     35  C   UNL     1      -3.103  -7.977  10.672  1.00  0.00     0.074 A 
ATOM     36  C   UNL     1      -2.668  -8.282  12.020  1.00  0.00     0.031 C 
ATOM     37  C   UNL     1      -4.246  -8.447  10.113  1.00  0.00     0.037 A 
BRANCH  24  38
ATOM     38  C   UNL     1      -5.238  -6.490   4.326  1.00  0.00     0.058 A 
ATOM     39  C   UNL     1      -4.908  -7.117   3.114  1.00  0.00     0.135 A 
ATOM     40  C   UNL     1      -6.492  -5.862   4.413  1.00  0.00     0.135 A 
ATOM     41  F   UNL     1      -3.718  -7.722   2.966  1.00  0.00    -0.206 F 
ATOM     42  C   UNL     1      -5.772  -7.095   2.023  1.00  0.00     0.059 A 
ATOM     43  C   UNL     1      -7.385  -5.854   3.345  1.00  0.00     0.059 A 
ATOM     44  F   UNL     1      -6.863  -5.249   5.548  1.00  0.00    -0.206 F 
ATOM     45  C   UNL     1      -7.009  -6.460   2.148  1.00  0.00     0.060 A 
BRANCH  45  46
ATOM     46  S   UNL     1      -8.115  -6.437   0.721  1.00  0.00     0.124 S 
ATOM     47  O   UNL     1      -7.426  -5.502  -0.163  1.00  0.00    -0.237 OA
ATOM     48  O   UNL     1      -8.104  -7.833   0.297  1.00  0.00    -0.237 OA
ATOM     49  O   UNL     1      -9.378  -5.962   1.276  1.00  0.00    -0.744 OA
ENDBRANCH  45  46
ENDBRANCH  24  38
BRANCH  25  50
ATOM     50  C   UNL     1       0.972  -6.149  12.166  1.00  0.00     0.058 A 
ATOM     51  C   UNL     1       1.663  -7.292  12.595  1.00  0.00     0.135 A 
ATOM     52  C   UNL     1       1.192  -4.952  12.867  1.00  0.00     0.135 A 
ATOM     53  F   UNL     1       1.484  -8.460  11.961  1.00  0.00    -0.206 F 
ATOM     54  C   UNL     1       2.523  -7.256  13.687  1.00  0.00     0.059 A 
ATOM     55  C   UNL     1       2.072  -4.883  13.941  1.00  0.00     0.059 A 
ATOM     56  F   UNL     1       0.570  -3.825  12.486  1.00  0.00    -0.206 F 
ATOM     57  C   UNL     1       2.724  -6.045  14.352  1.00  0.00     0.060 A 
BRANCH  57  58
ATOM     58  S   UNL     1       3.876  -6.001  15.741  1.00  0.00     0.124 S 
ATOM     59  O   UNL     1       3.127  -6.718  16.766  1.00  0.00    -0.237 OA
ATOM     60  O   UNL     1       5.039  -6.694  15.195  1.00  0.00    -0.237 OA
ATOM     61  O   UNL     1       4.062  -4.572  15.977  1.00  0.00    -0.744 OA
ENDBRANCH  57  58
ENDBRANCH  25  50
BRANCH  37  62
ATOM     62  C   UNL     1      -5.078  -9.391  10.938  1.00  0.00     0.058 A 
ATOM     63  C   UNL     1      -5.796  -8.963  12.066  1.00  0.00     0.135 A 
ATOM     64  C   UNL     1      -5.174 -10.745  10.576  1.00  0.00     0.135 A 
ATOM     65  F   UNL     1      -5.734  -7.681  12.460  1.00  0.00    -0.206 F 
ATOM     66  C   UNL     1      -6.549  -9.851  12.828  1.00  0.00     0.059 A 
ATOM     67  C   UNL     1      -5.948 -11.643  11.303  1.00  0.00     0.059 A 
ATOM     68  F   UNL     1      -4.517 -11.206   9.499  1.00  0.00    -0.206 F 
ATOM     69  C   UNL     1      -6.617 -11.191  12.438  1.00  0.00     0.060 A 
BRANCH  69  70
ATOM     70  S   UNL     1      -7.605 -12.332  13.428  1.00  0.00     0.124 S 
ATOM     71  O   UNL     1      -6.767 -12.495  14.611  1.00  0.00    -0.237 OA
ATOM     72  O   UNL     1      -8.842 -11.583  13.625  1.00  0.00    -0.237 OA
ATOM     73  O   UNL     1      -7.721 -13.510  12.573  1.00  0.00    -0.744 OA
ENDBRANCH  69  70
ENDBRANCH  37  62
ENDBRANCH  11  12
ENDBRANCH   4   6
ENDBRANCH   1   2
BRANCH   1  74
ATOM     74  C   UNL     1       4.423  -3.684   0.763  1.00  0.00     0.042 C 
BRANCH  74  75
ATOM     75  C   UNL     1       5.307  -3.141  -0.354  1.00  0.00     0.117 C 
BRANCH  75  76
ATOM     76  N   UNL     1       6.519  -3.925  -0.537  1.00  0.00    -0.354 N 
ATOM     77  C   UNL     1       6.788  -5.003  -1.336  1.00  0.00     0.247 C 
ATOM     78  H   UNL     1       7.280  -3.627   0.011  1.00  0.00     0.163 HD
ATOM     79  O   UNL     1       7.869  -5.575  -1.143  1.00  0.00    -0.272 OA
BRANCH  77  80
ATOM     80  C   UNL     1       5.775  -5.563  -2.381  1.00  0.00     0.202 C 
BRANCH  80  81
ATOM     81  C   UNL     1       4.716  -6.423  -1.713  1.00  0.00    -0.016 A 
ATOM     82  C   UNL     1       3.458  -5.921  -1.345  1.00  0.00     0.006 A 
ATOM     83  C   UNL     1       4.987  -7.780  -1.464  1.00  0.00     0.006 A 
ATOM     84  C   UNL     1       2.494  -6.745  -0.763  1.00  0.00     0.000 A 
ATOM     85  C   UNL     1       4.016  -8.609  -0.899  1.00  0.00     0.000 A 
ATOM     86  C   UNL     1       2.771  -8.092  -0.550  1.00  0.00     0.000 A 
ENDBRANCH  80  81
BRANCH  80  87
ATOM     87  N   UNL     1       5.256  -4.521  -3.276  1.00  0.00    -0.336 N 
ATOM     88  C   UNL     1       4.704  -4.631  -4.529  1.00  0.00     0.253 C 
ATOM     89  H   UNL     1       5.312  -3.604  -2.924  1.00  0.00     0.165 HD
ATOM     90  O   UNL     1       4.604  -3.630  -5.234  1.00  0.00    -0.269 OA
BRANCH  88  91
ATOM     91  C   UNL     1       4.282  -5.931  -5.077  1.00  0.00     0.058 A 
ATOM     92  C   UNL     1       3.278  -6.704  -4.506  1.00  0.00     0.018 A 
ATOM     93  C   UNL     1       4.837  -6.378  -6.265  1.00  0.00     0.126 A 
ATOM     94  C   UNL     1       2.973  -7.953  -5.042  1.00  0.00     0.037 A 
ATOM     95  N   UNL     1       4.542  -7.576  -6.832  1.00  0.00    -0.249 NA
ATOM     96  C   UNL     1       3.632  -8.348  -6.193  1.00  0.00     0.106 A 
ATOM     97  Br  UNL     1       3.241 -10.052  -6.926  1.00  0.00    -0.029 Br
ENDBRANCH  88  91
ENDBRANCH  80  87
ENDBRANCH  77  80
ENDBRANCH  75  76
ENDBRANCH  74  75
ENDBRANCH   1  74
TORSDOF 16
