REMARK SMILES COc1cccc(-c2c(C(=O)NCCCNC(=O)c3ccc(-c4c5nc(c(-c6c(F)cc(S(=O)(=O)[O-])cc6F)c6ccc([nH]6)c(-c6c(F)cc(S(=O)(=O)[O-])cc6F)c6nc(c(-c7c(F)cc(S(=O)(=O)[O-])cc7F)c7ccc4[nH]7)C=C6)C=C5)cc3)nnn2-c2ccc(OC(F)(F)F)cc2)c1
REMARK SMILES IDX 14 1 13 2 12 3 10 4 11 5 9 7 8 8 87 9 85 10 86 11 7 12 3 13
REMARK SMILES IDX 4 14 99 15 5 16 6 17 2 18 1 19 88 20 89 21 98 22 90 23 97 24
REMARK SMILES IDX 91 25 92 26 93 27 94 28 95 29 96 30 15 31 16 32 17 33 18 35
REMARK SMILES IDX 19 36 20 37 84 38 21 39 83 40 22 41 23 42 24 43 77 44 25 45
REMARK SMILES IDX 82 46 76 47 78 48 26 49 81 50 75 51 74 52 27 54 61 55 40 56
REMARK SMILES IDX 60 57 41 58 44 59 59 60 79 61 42 62 43 63 58 65 80 66 45 67
REMARK SMILES IDX 28 68 29 69 38 70 30 71 31 72 37 73 39 74 32 75 33 76 34 77
REMARK SMILES IDX 35 78 36 79 62 80 63 81 72 82 64 83 65 84 71 85 73 86 66 87
REMARK SMILES IDX 67 88 68 89 69 90 70 91 46 92 47 93 56 94 48 95 49 96 55 97
REMARK SMILES IDX 57 98 50 99 51 100 52 101 53 102 54 103
REMARK H PARENT 12 6 16 34 78 53 44 64
REMARK Flexibility Score: inf
ROOT
ATOM      1  C   UNL     1       1.135  -4.927   0.968  1.00  0.00     0.042 C 
ENDROOT
BRANCH   1   2
ATOM      2  C   UNL     1       1.707  -5.746   2.123  1.00  0.00     0.118 C 
BRANCH   2   3
ATOM      3  N   UNL     1       3.013  -6.285   1.855  1.00  0.00    -0.351 N 
ATOM      4  C   UNL     1       4.293  -5.849   2.064  1.00  0.00     0.274 C 
ATOM      5  O   UNL     1       5.145  -6.719   1.849  1.00  0.00    -0.267 OA
ATOM      6  H   UNL     1       2.978  -7.169   1.423  1.00  0.00     0.163 HD
BRANCH   4   7
ATOM      7  C   UNL     1       4.715  -4.504   2.480  1.00  0.00     0.178 A 
ATOM      8  C   UNL     1       4.121  -3.317   2.923  1.00  0.00     0.108 A 
ATOM      9  N   UNL     1       5.211  -2.456   3.110  1.00  0.00    -0.212 N 
ATOM     10  N   UNL     1       6.081  -4.267   2.366  1.00  0.00    -0.124 NA
ATOM     11  N   UNL     1       6.340  -3.008   2.646  1.00  0.00    -0.061 NA
BRANCH   8  12
ATOM     12  C   UNL     1       2.753  -2.809   3.037  1.00  0.00     0.006 A 
ATOM     13  C   UNL     1       0.991  -1.360   2.174  1.00  0.00     0.119 A 
ATOM     14  C   UNL     1       0.174  -1.746   3.239  1.00  0.00     0.046 A 
ATOM     15  C   UNL     1       2.276  -1.899   2.071  1.00  0.00     0.056 A 
ATOM     16  C   UNL     1       0.644  -2.625   4.216  1.00  0.00     0.005 A 
ATOM     17  C   UNL     1       1.942  -3.128   4.134  1.00  0.00     0.011 A 
BRANCH  13  18
ATOM     18  O   UNL     1       0.420  -0.462   1.317  1.00  0.00    -0.497 OA
ATOM     19  C   UNL     1       1.122  -0.160   0.117  1.00  0.00     0.278 C 
ENDBRANCH  13  18
ENDBRANCH   8  12
BRANCH   9  20
ATOM     20  C   UNL     1       5.225  -1.139   3.630  1.00  0.00     0.067 A 
ATOM     21  C   UNL     1       6.032  -0.169   3.030  1.00  0.00     0.032 A 
ATOM     22  C   UNL     1       4.419  -0.799   4.720  1.00  0.00     0.032 A 
ATOM     23  C   UNL     1       5.949   1.156   3.467  1.00  0.00     0.049 A 
ATOM     24  C   UNL     1       4.363   0.521   5.168  1.00  0.00     0.049 A 
ATOM     25  C   UNL     1       5.107   1.512   4.527  1.00  0.00     0.129 A 
BRANCH  25  26
ATOM     26  O   UNL     1       5.103   2.842   4.833  1.00  0.00    -0.406 OA
BRANCH  26  27
ATOM     27  C   UNL     1       4.248   3.266   5.882  1.00  0.00     0.573 C 
ATOM     28  F   UNL     1       2.957   2.970   5.618  1.00  0.00    -0.132 F 
ATOM     29  F   UNL     1       4.607   2.706   7.057  1.00  0.00    -0.132 F 
ATOM     30  F   UNL     1       4.350   4.608   6.010  1.00  0.00    -0.132 F 
ENDBRANCH  26  27
ENDBRANCH  25  26
ENDBRANCH   9  20
ENDBRANCH   4   7
ENDBRANCH   2   3
ENDBRANCH   1   2
BRANCH   1  31
ATOM     31  C   UNL     1      -0.012  -5.652   0.286  1.00  0.00     0.118 C 
BRANCH  31  32
ATOM     32  N   UNL     1      -1.158  -5.795   1.189  1.00  0.00    -0.352 N 
ATOM     33  C   UNL     1      -2.279  -6.592   1.053  1.00  0.00     0.251 C 
ATOM     34  H   UNL     1      -1.123  -5.248   2.007  1.00  0.00     0.163 HD
ATOM     35  O   UNL     1      -3.266  -6.400   1.735  1.00  0.00    -0.269 OA
BRANCH  33  36
ATOM     36  C   UNL     1      -2.250  -7.652   0.030  1.00  0.00     0.039 A 
ATOM     37  C   UNL     1      -3.292  -7.759  -0.891  1.00  0.00     0.014 A 
ATOM     38  C   UNL     1      -1.115  -8.452  -0.068  1.00  0.00     0.014 A 
ATOM     39  C   UNL     1      -3.123  -8.594  -1.990  1.00  0.00     0.010 A 
ATOM     40  C   UNL     1      -0.895  -9.169  -1.223  1.00  0.00     0.010 A 
ATOM     41  C   UNL     1      -1.899  -9.260  -2.183  1.00  0.00    -0.014 A 
BRANCH  41  42
ATOM     42  C   UNL     1      -1.634  -9.924  -3.460  1.00  0.00     0.031 A 
ATOM     43  C   UNL     1      -1.923  -9.098  -4.669  1.00  0.00     0.074 A 
ATOM     44  C   UNL     1      -1.006 -11.111  -3.594  1.00  0.00     0.049 A 
ATOM     45  N   UNL     1      -2.896  -9.240  -5.507  1.00  0.00    -0.248 NA
ATOM     46  C   UNL     1      -1.124  -7.883  -4.894  1.00  0.00     0.031 C 
ATOM     47  C   UNL     1      -0.355 -11.923  -2.562  1.00  0.00     0.029 A 
ATOM     48  N   UNL     1      -0.738 -11.805  -4.735  1.00  0.00    -0.354 N 
ATOM     49  C   UNL     1      -2.703  -8.278  -6.497  1.00  0.00     0.074 A 
ATOM     50  C   UNL     1      -1.726  -7.363  -5.967  1.00  0.00     0.031 C 
ATOM     51  C   UNL     1       0.416 -12.866  -3.147  1.00  0.00     0.029 A 
ATOM     52  C   UNL     1       0.168 -12.846  -4.576  1.00  0.00     0.049 A 
ATOM     53  H   UNL     1      -1.152 -11.586  -5.601  1.00  0.00     0.167 HD
ATOM     54  C   UNL     1      -3.199  -8.452  -7.757  1.00  0.00     0.037 A 
ATOM     55  C   UNL     1       0.684 -13.636  -5.549  1.00  0.00     0.037 A 
ATOM     56  C   UNL     1      -4.182  -9.510  -7.774  1.00  0.00     0.049 A 
ATOM     57  C   UNL     1      -0.245 -13.564  -6.704  1.00  0.00     0.074 A 
ATOM     58  C   UNL     1      -5.381  -9.740  -7.126  1.00  0.00     0.029 A 
ATOM     59  N   UNL     1      -3.792 -10.728  -8.279  1.00  0.00    -0.354 N 
ATOM     60  N   UNL     1      -1.460 -14.042  -6.694  1.00  0.00    -0.248 NA
ATOM     61  C   UNL     1       0.028 -12.583  -7.742  1.00  0.00     0.031 C 
ATOM     62  C   UNL     1      -5.393 -11.141  -6.859  1.00  0.00     0.029 A 
ATOM     63  C   UNL     1      -4.241 -11.696  -7.420  1.00  0.00     0.049 A 
ATOM     64  H   UNL     1      -3.282 -10.877  -9.108  1.00  0.00     0.167 HD
ATOM     65  C   UNL     1      -2.207 -13.124  -7.416  1.00  0.00     0.074 A 
ATOM     66  C   UNL     1      -1.222 -12.316  -8.129  1.00  0.00     0.031 C 
ATOM     67  C   UNL     1      -3.532 -12.930  -7.153  1.00  0.00     0.037 A 
BRANCH  54  68
ATOM     68  C   UNL     1      -2.546  -7.958  -9.037  1.00  0.00     0.058 A 
ATOM     69  C   UNL     1      -3.193  -8.201 -10.272  1.00  0.00     0.135 A 
ATOM     70  C   UNL     1      -1.205  -7.530  -9.140  1.00  0.00     0.135 A 
ATOM     71  F   UNL     1      -4.478  -8.590 -10.309  1.00  0.00    -0.206 F 
ATOM     72  C   UNL     1      -2.527  -8.140 -11.497  1.00  0.00     0.059 A 
ATOM     73  C   UNL     1      -0.537  -7.412 -10.356  1.00  0.00     0.059 A 
ATOM     74  F   UNL     1      -0.439  -7.292  -8.071  1.00  0.00    -0.206 F 
ATOM     75  C   UNL     1      -1.189  -7.768 -11.524  1.00  0.00     0.060 A 
BRANCH  75  76
ATOM     76  S   UNL     1      -0.290  -7.806 -13.084  1.00  0.00     0.124 S 
ATOM     77  O   UNL     1      -0.199  -9.240 -13.329  1.00  0.00    -0.237 OA
ATOM     78  O   UNL     1      -1.181  -7.059 -13.965  1.00  0.00    -0.237 OA
ATOM     79  O   UNL     1       0.967  -7.138 -12.760  1.00  0.00    -0.744 OA
ENDBRANCH  75  76
ENDBRANCH  54  68
BRANCH  55  80
ATOM     80  C   UNL     1       2.040 -14.233  -5.645  1.00  0.00     0.058 A 
ATOM     81  C   UNL     1       2.329 -15.221  -6.603  1.00  0.00     0.135 A 
ATOM     82  C   UNL     1       3.149 -13.641  -5.006  1.00  0.00     0.135 A 
ATOM     83  F   UNL     1       1.335 -15.829  -7.266  1.00  0.00    -0.206 F 
ATOM     84  C   UNL     1       3.640 -15.553  -6.958  1.00  0.00     0.059 A 
ATOM     85  C   UNL     1       4.465 -13.965  -5.336  1.00  0.00     0.059 A 
ATOM     86  F   UNL     1       2.987 -12.658  -4.108  1.00  0.00    -0.206 F 
ATOM     87  C   UNL     1       4.703 -14.899  -6.337  1.00  0.00     0.060 A 
BRANCH  87  88
ATOM     88  S   UNL     1       6.385 -15.176  -6.939  1.00  0.00     0.124 S 
ATOM     89  O   UNL     1       6.646 -16.540  -6.489  1.00  0.00    -0.237 OA
ATOM     90  O   UNL     1       6.231 -14.998  -8.378  1.00  0.00    -0.237 OA
ATOM     91  O   UNL     1       7.161 -14.137  -6.265  1.00  0.00    -0.744 OA
ENDBRANCH  87  88
ENDBRANCH  55  80
BRANCH  67  92
ATOM     92  C   UNL     1      -4.267 -13.965  -6.341  1.00  0.00     0.058 A 
ATOM     93  C   UNL     1      -3.981 -14.295  -5.004  1.00  0.00     0.135 A 
ATOM     94  C   UNL     1      -5.415 -14.539  -6.910  1.00  0.00     0.135 A 
ATOM     95  F   UNL     1      -2.964 -13.717  -4.350  1.00  0.00    -0.206 F 
ATOM     96  C   UNL     1      -4.781 -15.184  -4.281  1.00  0.00     0.059 A 
ATOM     97  C   UNL     1      -6.245 -15.399  -6.198  1.00  0.00     0.059 A 
ATOM     98  F   UNL     1      -5.775 -14.221  -8.165  1.00  0.00    -0.206 F 
ATOM     99  C   UNL     1      -5.914 -15.729  -4.886  1.00  0.00     0.060 A 
BRANCH  99 100
ATOM    100  S   UNL     1      -6.995 -16.812  -3.927  1.00  0.00     0.124 S 
ATOM    101  O   UNL     1      -6.197 -18.029  -3.826  1.00  0.00    -0.237 OA
ATOM    102  O   UNL     1      -7.173 -16.065  -2.685  1.00  0.00    -0.237 OA
ATOM    103  O   UNL     1      -8.194 -16.919  -4.755  1.00  0.00    -0.744 OA
ENDBRANCH  99 100
ENDBRANCH  67  92
ENDBRANCH  41  42
ENDBRANCH  33  36
ENDBRANCH  31  32
ENDBRANCH   1  31
TORSDOF 18
