REMARK SMILES C[C@@H](C(=O)NCCCNC(=O)c1ccc(-c2c3nc(c(-c4c(F)cc(S(=O)(=O)[O-])cc4F)c4ccc([nH]4)c(-c4c(F)cc(S(=O)(=O)[O-])cc4F)c4nc(c(-c5c(F)cc(S(=O)(=O)[O-])cc5F)c5ccc2[nH]5)C=C4)C=C3)cc1)c1ccc(C[C@@H]2CCC[C@@H]2O)cc1
REMARK SMILES IDX 6 1 5 2 3 3 4 4 2 6 1 7 78 8 79 9 90 10 80 11 89 12 81 13
REMARK SMILES IDX 82 14 83 15 84 16 87 17 85 18 86 19 88 20 7 22 8 23 9 24
REMARK SMILES IDX 10 25 11 27 12 28 13 29 77 30 14 31 76 32 15 33 16 34 17 35
REMARK SMILES IDX 70 36 18 37 75 38 69 39 71 40 19 41 74 42 68 43 67 44 20 46
REMARK SMILES IDX 54 47 33 48 53 49 34 50 37 51 52 52 72 53 35 54 36 55 51 57
REMARK SMILES IDX 73 58 38 59 21 60 22 61 31 62 23 63 24 64 30 65 32 66 25 67
REMARK SMILES IDX 26 68 27 69 28 70 29 71 55 72 56 73 65 74 57 75 58 76 64 77
REMARK SMILES IDX 66 78 59 79 60 80 61 81 62 82 63 83 39 84 40 85 49 86 41 87
REMARK SMILES IDX 42 88 48 89 50 90 43 91 44 92 45 93 46 94 47 95
REMARK H PARENT 5 5 88 21 9 26 71 45 37 56
REMARK Flexibility Score: inf
ROOT
ATOM      1  C   UNL     1     -11.347   3.434   7.124  1.00  0.00     0.117 C 
ENDROOT
BRANCH   1   2
ATOM      2  N   UNL     1     -11.386   3.764   5.714  1.00  0.00    -0.356 N 
ATOM      3  C   UNL     1     -10.599   3.352   4.678  1.00  0.00     0.227 C 
ATOM      4  O   UNL     1     -10.696   4.028   3.655  1.00  0.00    -0.274 OA
ATOM      5  H   UNL     1     -12.102   4.390   5.460  1.00  0.00     0.163 HD
BRANCH   3   6
ATOM      6  C   UNL     1      -9.677   2.131   4.851  1.00  0.00     0.105 C 
ATOM      7  C   UNL     1      -8.415   2.541   5.624  1.00  0.00     0.023 C 
BRANCH   6   8
ATOM      8  C   UNL     1      -9.245   1.373   3.588  1.00  0.00    -0.036 A 
ATOM      9  C   UNL     1      -8.607   0.127   3.744  1.00  0.00     0.005 A 
ATOM     10  C   UNL     1      -9.349   1.879   2.289  1.00  0.00     0.005 A 
ATOM     11  C   UNL     1      -8.010  -0.527   2.662  1.00  0.00     0.004 A 
ATOM     12  C   UNL     1      -8.753   1.226   1.207  1.00  0.00     0.004 A 
ATOM     13  C   UNL     1      -8.028   0.047   1.390  1.00  0.00    -0.048 A 
BRANCH  13  14
ATOM     14  C   UNL     1      -7.246  -0.536   0.242  1.00  0.00     0.041 C 
BRANCH  14  15
ATOM     15  C   UNL     1      -5.724  -0.257   0.189  1.00  0.00     0.022 C 
ATOM     16  C   UNL     1      -4.917  -0.877   1.335  1.00  0.00     0.007 C 
ATOM     17  C   UNL     1      -5.260   1.205   0.213  1.00  0.00     0.117 C 
ATOM     18  C   UNL     1      -4.635   0.246   2.338  1.00  0.00     0.003 C 
ATOM     19  C   UNL     1      -5.105   1.543   1.688  1.00  0.00     0.032 C 
BRANCH  17  20
ATOM     20  O   UNL     1      -6.124   2.099  -0.454  1.00  0.00    -0.393 OA
ATOM     21  H   UNL     1      -6.998   2.077  -0.035  1.00  0.00     0.210 HD
ENDBRANCH  17  20
ENDBRANCH  14  15
ENDBRANCH  13  14
ENDBRANCH   6   8
ENDBRANCH   3   6
ENDBRANCH   1   2
BRANCH   1  22
ATOM     22  C   UNL     1     -10.655   4.531   7.934  1.00  0.00     0.042 C 
BRANCH  22  23
ATOM     23  C   UNL     1     -11.287   5.914   7.798  1.00  0.00     0.118 C 
BRANCH  23  24
ATOM     24  N   UNL     1     -12.656   5.956   8.287  1.00  0.00    -0.352 N 
ATOM     25  C   UNL     1     -13.209   6.729   9.275  1.00  0.00     0.251 C 
ATOM     26  H   UNL     1     -13.278   5.337   7.842  1.00  0.00     0.163 HD
ATOM     27  O   UNL     1     -14.346   6.474   9.674  1.00  0.00    -0.269 OA
BRANCH  25  28
ATOM     28  C   UNL     1     -12.447   7.845   9.876  1.00  0.00     0.039 A 
ATOM     29  C   UNL     1     -12.495   8.024  11.261  1.00  0.00     0.014 A 
ATOM     30  C   UNL     1     -11.705   8.726   9.084  1.00  0.00     0.014 A 
ATOM     31  C   UNL     1     -11.752   9.046  11.855  1.00  0.00     0.010 A 
ATOM     32  C   UNL     1     -10.905   9.696   9.684  1.00  0.00     0.010 A 
ATOM     33  C   UNL     1     -10.922   9.870  11.076  1.00  0.00    -0.014 A 
BRANCH  33  34
ATOM     34  C   UNL     1     -10.059  10.906  11.704  1.00  0.00     0.031 A 
ATOM     35  C   UNL     1     -10.267  12.363  11.389  1.00  0.00     0.074 A 
ATOM     36  C   UNL     1      -9.049  10.527  12.512  1.00  0.00     0.049 A 
ATOM     37  N   UNL     1      -9.577  13.400  11.791  1.00  0.00    -0.248 NA
ATOM     38  C   UNL     1     -11.378  12.698  10.483  1.00  0.00     0.031 C 
ATOM     39  C   UNL     1      -8.714   9.143  12.854  1.00  0.00     0.029 A 
ATOM     40  N   UNL     1      -8.108  11.269  13.183  1.00  0.00    -0.354 N 
ATOM     41  C   UNL     1     -10.158  14.504  11.178  1.00  0.00     0.074 A 
ATOM     42  C   UNL     1     -11.227  14.007  10.339  1.00  0.00     0.031 C 
ATOM     43  C   UNL     1      -7.659   9.137  13.684  1.00  0.00     0.029 A 
ATOM     44  C   UNL     1      -7.214  10.510  13.901  1.00  0.00     0.049 A 
ATOM     45  H   UNL     1      -8.077  12.253  13.153  1.00  0.00     0.167 HD
ATOM     46  C   UNL     1      -9.840  15.814  11.316  1.00  0.00     0.037 A 
ATOM     47  C   UNL     1      -6.148  10.874  14.640  1.00  0.00     0.037 A 
ATOM     48  C   UNL     1      -8.790  16.303  12.173  1.00  0.00     0.049 A 
ATOM     49  C   UNL     1      -5.819  12.335  14.784  1.00  0.00     0.074 A 
ATOM     50  C   UNL     1      -8.437  17.615  12.434  1.00  0.00     0.029 A 
ATOM     51  N   UNL     1      -7.921  15.504  12.901  1.00  0.00    -0.354 N 
ATOM     52  N   UNL     1      -6.423  13.370  14.252  1.00  0.00    -0.248 NA
ATOM     53  C   UNL     1      -4.672  12.679  15.634  1.00  0.00     0.031 C 
ATOM     54  C   UNL     1      -7.320  17.609  13.276  1.00  0.00     0.029 A 
ATOM     55  C   UNL     1      -7.015  16.294  13.590  1.00  0.00     0.049 A 
ATOM     56  H   UNL     1      -7.944  14.520  12.925  1.00  0.00     0.167 HD
ATOM     57  C   UNL     1      -5.744  14.490  14.722  1.00  0.00     0.074 A 
ATOM     58  C   UNL     1      -4.693  14.004  15.592  1.00  0.00     0.031 C 
ATOM     59  C   UNL     1      -5.973  15.800  14.457  1.00  0.00     0.037 A 
BRANCH  46  60
ATOM     60  C   UNL     1     -10.634  16.819  10.525  1.00  0.00     0.058 A 
ATOM     61  C   UNL     1     -11.978  17.100  10.822  1.00  0.00     0.135 A 
ATOM     62  C   UNL     1     -10.027  17.551   9.492  1.00  0.00     0.135 A 
ATOM     63  F   UNL     1     -12.614  16.421  11.789  1.00  0.00    -0.206 F 
ATOM     64  C   UNL     1     -12.696  18.055  10.110  1.00  0.00     0.059 A 
ATOM     65  C   UNL     1     -10.718  18.532   8.786  1.00  0.00     0.059 A 
ATOM     66  F   UNL     1      -8.745  17.323   9.164  1.00  0.00    -0.206 F 
ATOM     67  C   UNL     1     -12.056  18.769   9.095  1.00  0.00     0.060 A 
BRANCH  67  68
ATOM     68  S   UNL     1     -12.998  20.021   8.197  1.00  0.00     0.124 S 
ATOM     69  O   UNL     1     -13.900  19.193   7.403  1.00  0.00    -0.237 OA
ATOM     70  O   UNL     1     -13.620  20.777   9.279  1.00  0.00    -0.237 OA
ATOM     71  O   UNL     1     -11.976  20.739   7.441  1.00  0.00    -0.744 OA
ENDBRANCH  67  68
ENDBRANCH  46  60
BRANCH  47  72
ATOM     72  C   UNL     1      -5.325   9.832  15.312  1.00  0.00     0.058 A 
ATOM     73  C   UNL     1      -5.347   9.678  16.706  1.00  0.00     0.135 A 
ATOM     74  C   UNL     1      -4.525   8.948  14.571  1.00  0.00     0.135 A 
ATOM     75  F   UNL     1      -6.090  10.503  17.460  1.00  0.00    -0.206 F 
ATOM     76  C   UNL     1      -4.599   8.693  17.343  1.00  0.00     0.059 A 
ATOM     77  C   UNL     1      -3.789   7.938  15.182  1.00  0.00     0.059 A 
ATOM     78  F   UNL     1      -4.481   9.042  13.232  1.00  0.00    -0.206 F 
ATOM     79  C   UNL     1      -3.828   7.823  16.571  1.00  0.00     0.060 A 
BRANCH  79  80
ATOM     80  S   UNL     1      -2.914   6.505  17.403  1.00  0.00     0.124 S 
ATOM     81  O   UNL     1      -1.848   7.254  18.057  1.00  0.00    -0.237 OA
ATOM     82  O   UNL     1      -3.931   5.938  18.283  1.00  0.00    -0.237 OA
ATOM     83  O   UNL     1      -2.496   5.641  16.303  1.00  0.00    -0.744 OA
ENDBRANCH  79  80
ENDBRANCH  47  72
BRANCH  59  84
ATOM     84  C   UNL     1      -5.094  16.812  15.140  1.00  0.00     0.058 A 
ATOM     85  C   UNL     1      -3.750  16.990  14.777  1.00  0.00     0.135 A 
ATOM     86  C   UNL     1      -5.621  17.655  16.132  1.00  0.00     0.135 A 
ATOM     87  F   UNL     1      -3.193  16.208  13.839  1.00  0.00    -0.206 F 
ATOM     88  C   UNL     1      -2.953  17.951  15.391  1.00  0.00     0.059 A 
ATOM     89  C   UNL     1      -4.851  18.643  16.737  1.00  0.00     0.059 A 
ATOM     90  F   UNL     1      -6.904  17.535  16.510  1.00  0.00    -0.206 F 
ATOM     91  C   UNL     1      -3.514  18.776  16.368  1.00  0.00     0.060 A 
BRANCH  91  92
ATOM     92  S   UNL     1      -2.478  20.041  17.132  1.00  0.00     0.124 S 
ATOM     93  O   UNL     1      -1.608  19.235  17.982  1.00  0.00    -0.237 OA
ATOM     94  O   UNL     1      -1.838  20.660  15.976  1.00  0.00    -0.237 OA
ATOM     95  O   UNL     1      -3.436  20.886  17.838  1.00  0.00    -0.744 OA
ENDBRANCH  91  92
ENDBRANCH  59  84
ENDBRANCH  33  34
ENDBRANCH  25  28
ENDBRANCH  23  24
ENDBRANCH  22  23
ENDBRANCH   1  22
TORSDOF 17
