REMARK SMILES COc1ccc(-c2cc(C[C@H]3CCCC3=O)ccc2[C@@H](C)C(=O)NCCCNC(=O)c2ccc(-c3c4nc(c(-c5c(F)cc(S(=O)(=O)[O-])cc5F)c5ccc([nH]5)c(-c5c(F)cc(S(=O)(=O)[O-])cc5F)c5nc(c(-c6c(F)cc(S(=O)(=O)[O-])cc6F)c6ccc3[nH]6)C=C5)C=C4)cc2)cc1
REMARK SMILES IDX 26 1 25 2 24 3 22 4 23 5 20 7 21 8 19 9 7 10 8 11 9 12 18 13
REMARK SMILES IDX 17 14 6 15 3 16 4 17 98 18 5 19 97 20 2 21 1 22 10 23 11 24
REMARK SMILES IDX 12 25 15 26 13 27 14 28 16 29 27 30 28 31 29 32 30 34 31 35
REMARK SMILES IDX 32 36 96 37 33 38 95 39 34 40 35 41 36 42 89 43 37 44 94 45
REMARK SMILES IDX 88 46 90 47 38 48 93 49 87 50 86 51 39 53 73 54 52 55 72 56
REMARK SMILES IDX 53 57 56 58 71 59 91 60 54 61 55 62 70 64 92 65 57 66 40 67
REMARK SMILES IDX 41 68 50 69 42 70 43 71 49 72 51 73 44 74 45 75 46 76 47 77
REMARK SMILES IDX 48 78 74 79 75 80 84 81 76 82 77 83 83 84 85 85 78 86 79 87
REMARK SMILES IDX 80 88 81 89 82 90 58 91 59 92 68 93 60 94 61 95 67 96 69 97
REMARK SMILES IDX 62 98 63 99 64 100 65 101 66 102
REMARK H PARENT 24 6 28 33 90 52 56 63
REMARK Flexibility Score: inf
ROOT
ATOM      1  C   UNL     1       6.398   6.989  -5.845  1.00  0.00     0.042 C 
ENDROOT
BRANCH   1   2
ATOM      2  C   UNL     1       6.357   5.546  -6.345  1.00  0.00     0.117 C 
BRANCH   2   3
ATOM      3  N   UNL     1       6.333   4.586  -5.259  1.00  0.00    -0.356 N 
ATOM      4  C   UNL     1       5.325   3.890  -4.668  1.00  0.00     0.227 C 
ATOM      5  O   UNL     1       5.657   3.181  -3.708  1.00  0.00    -0.274 OA
ATOM      6  H   UNL     1       7.220   4.402  -4.873  1.00  0.00     0.163 HD
BRANCH   4   7
ATOM      7  C   UNL     1       3.853   3.937  -5.116  1.00  0.00     0.106 C 
ATOM      8  C   UNL     1       3.604   3.574  -6.580  1.00  0.00     0.023 C 
BRANCH   7   9
ATOM      9  C   UNL     1       3.114   5.178  -4.617  1.00  0.00    -0.028 A 
ATOM     10  C   UNL     1       2.322   5.162  -3.441  1.00  0.00    -0.014 A 
ATOM     11  C   UNL     1       1.743   6.366  -2.985  1.00  0.00     0.012 A 
ATOM     12  C   UNL     1       1.875   7.563  -3.699  1.00  0.00    -0.047 A 
ATOM     13  C   UNL     1       3.211   6.385  -5.329  1.00  0.00     0.005 A 
ATOM     14  C   UNL     1       2.631   7.563  -4.868  1.00  0.00     0.004 A 
BRANCH  10  15
ATOM     15  C   UNL     1       1.915   3.912  -2.779  1.00  0.00    -0.018 A 
ATOM     16  C   UNL     1       1.073   1.471  -1.647  1.00  0.00     0.118 A 
ATOM     17  C   UNL     1       0.235   2.167  -2.513  1.00  0.00     0.047 A 
ATOM     18  C   UNL     1       2.337   1.987  -1.350  1.00  0.00     0.047 A 
ATOM     19  C   UNL     1       0.648   3.378  -3.067  1.00  0.00     0.012 A 
ATOM     20  C   UNL     1       2.752   3.206  -1.907  1.00  0.00     0.012 A 
BRANCH  16  21
ATOM     21  O   UNL     1       0.571   0.283  -1.192  1.00  0.00    -0.497 OA
ATOM     22  C   UNL     1       1.061  -0.140   0.074  1.00  0.00     0.278 C 
ENDBRANCH  16  21
ENDBRANCH  10  15
BRANCH  12  23
ATOM     23  C   UNL     1       1.098   8.796  -3.309  1.00  0.00     0.047 C 
BRANCH  23  24
ATOM     24  C   UNL     1      -0.342   8.840  -3.845  1.00  0.00     0.060 C 
ATOM     25  C   UNL     1      -0.541   8.544  -5.340  1.00  0.00     0.012 C 
ATOM     26  C   UNL     1      -1.211   7.780  -3.205  1.00  0.00     0.136 C 
ATOM     27  C   UNL     1      -0.904   7.065  -5.438  1.00  0.00     0.009 C 
ATOM     28  C   UNL     1      -1.745   6.785  -4.202  1.00  0.00     0.076 C 
ATOM     29  O   UNL     1      -1.474   7.737  -2.009  1.00  0.00    -0.299 OA
ENDBRANCH  23  24
ENDBRANCH  12  23
ENDBRANCH   7   9
ENDBRANCH   4   7
ENDBRANCH   2   3
ENDBRANCH   1   2
BRANCH   1  30
ATOM     30  C   UNL     1       7.787   7.475  -5.457  1.00  0.00     0.118 C 
BRANCH  30  31
ATOM     31  N   UNL     1       8.661   7.606  -6.614  1.00  0.00    -0.352 N 
ATOM     32  C   UNL     1       9.212   8.716  -7.202  1.00  0.00     0.251 C 
ATOM     33  H   UNL     1       8.896   6.754  -7.047  1.00  0.00     0.163 HD
ATOM     34  O   UNL     1       9.712   8.601  -8.319  1.00  0.00    -0.269 OA
BRANCH  32  35
ATOM     35  C   UNL     1       9.212  10.037  -6.527  1.00  0.00     0.039 A 
ATOM     36  C   UNL     1       9.104  11.189  -7.314  1.00  0.00     0.014 A 
ATOM     37  C   UNL     1       9.396  10.161  -5.148  1.00  0.00     0.014 A 
ATOM     38  C   UNL     1       9.139  12.453  -6.716  1.00  0.00     0.010 A 
ATOM     39  C   UNL     1       9.345  11.417  -4.543  1.00  0.00     0.010 A 
ATOM     40  C   UNL     1       9.236  12.577  -5.321  1.00  0.00    -0.014 A 
BRANCH  40  41
ATOM     41  C   UNL     1       9.253  13.912  -4.667  1.00  0.00     0.031 A 
ATOM     42  C   UNL     1      10.469  14.367  -3.902  1.00  0.00     0.074 A 
ATOM     43  C   UNL     1       8.157  14.694  -4.720  1.00  0.00     0.049 A 
ATOM     44  N   UNL     1      10.654  15.470  -3.224  1.00  0.00    -0.248 NA
ATOM     45  C   UNL     1      11.619  13.448  -3.873  1.00  0.00     0.031 C 
ATOM     46  C   UNL     1       6.900  14.345  -5.386  1.00  0.00     0.029 A 
ATOM     47  N   UNL     1       7.920  15.941  -4.200  1.00  0.00    -0.354 N 
ATOM     48  C   UNL     1      11.927  15.371  -2.675  1.00  0.00     0.074 A 
ATOM     49  C   UNL     1      12.451  14.077  -3.056  1.00  0.00     0.031 C 
ATOM     50  C   UNL     1       6.034  15.362  -5.255  1.00  0.00     0.029 A 
ATOM     51  C   UNL     1       6.659  16.421  -4.468  1.00  0.00     0.049 A 
ATOM     52  H   UNL     1       8.589  16.445  -3.683  1.00  0.00     0.167 HD
ATOM     53  C   UNL     1      12.609  16.283  -1.941  1.00  0.00     0.037 A 
ATOM     54  C   UNL     1       6.072  17.582  -4.118  1.00  0.00     0.037 A 
ATOM     55  C   UNL     1      12.097  17.583  -1.593  1.00  0.00     0.049 A 
ATOM     56  C   UNL     1       6.855  18.587  -3.319  1.00  0.00     0.074 A 
ATOM     57  C   UNL     1      12.732  18.605  -0.909  1.00  0.00     0.029 A 
ATOM     58  N   UNL     1      10.824  18.041  -1.904  1.00  0.00    -0.354 N 
ATOM     59  N   UNL     1       8.082  18.501  -2.862  1.00  0.00    -0.248 NA
ATOM     60  C   UNL     1       6.178  19.850  -2.994  1.00  0.00     0.031 C 
ATOM     61  C   UNL     1      11.831  19.667  -0.775  1.00  0.00     0.029 A 
ATOM     62  C   UNL     1      10.649  19.323  -1.411  1.00  0.00     0.049 A 
ATOM     63  H   UNL     1      10.146  17.529  -2.401  1.00  0.00     0.167 HD
ATOM     64  C   UNL     1       8.330  19.704  -2.212  1.00  0.00     0.074 A 
ATOM     65  C   UNL     1       7.133  20.508  -2.350  1.00  0.00     0.031 C 
ATOM     66  C   UNL     1       9.448  20.108  -1.558  1.00  0.00     0.037 A 
BRANCH  53  67
ATOM     67  C   UNL     1      13.990  15.909  -1.472  1.00  0.00     0.058 A 
ATOM     68  C   UNL     1      15.068  15.804  -2.367  1.00  0.00     0.135 A 
ATOM     69  C   UNL     1      14.246  15.677  -0.111  1.00  0.00     0.135 A 
ATOM     70  F   UNL     1      14.877  16.001  -3.681  1.00  0.00    -0.206 F 
ATOM     71  C   UNL     1      16.342  15.451  -1.934  1.00  0.00     0.059 A 
ATOM     72  C   UNL     1      15.519  15.349   0.348  1.00  0.00     0.059 A 
ATOM     73  F   UNL     1      13.254  15.764   0.788  1.00  0.00    -0.206 F 
ATOM     74  C   UNL     1      16.557  15.223  -0.574  1.00  0.00     0.060 A 
BRANCH  74  75
ATOM     75  S   UNL     1      18.216  14.762  -0.029  1.00  0.00     0.124 S 
ATOM     76  O   UNL     1      18.295  13.377  -0.481  1.00  0.00    -0.237 OA
ATOM     77  O   UNL     1      19.057  15.712  -0.750  1.00  0.00    -0.237 OA
ATOM     78  O   UNL     1      18.162  14.949   1.417  1.00  0.00    -0.744 OA
ENDBRANCH  74  75
ENDBRANCH  53  67
BRANCH  54  79
ATOM     79  C   UNL     1       4.678  17.866  -4.548  1.00  0.00     0.058 A 
ATOM     80  C   UNL     1       4.410  18.820  -5.541  1.00  0.00     0.135 A 
ATOM     81  C   UNL     1       3.589  17.175  -3.994  1.00  0.00     0.135 A 
ATOM     82  F   UNL     1       5.418  19.510  -6.097  1.00  0.00    -0.206 F 
ATOM     83  C   UNL     1       3.112  19.089  -5.963  1.00  0.00     0.059 A 
ATOM     84  C   UNL     1       2.284  17.410  -4.416  1.00  0.00     0.059 A 
ATOM     85  F   UNL     1       3.794  16.239  -3.055  1.00  0.00    -0.206 F 
ATOM     86  C   UNL     1       2.055  18.376  -5.395  1.00  0.00     0.060 A 
BRANCH  86  87
ATOM     87  S   UNL     1       0.379  18.687  -5.992  1.00  0.00     0.124 S 
ATOM     88  O   UNL     1       0.078  19.969  -5.367  1.00  0.00    -0.237 OA
ATOM     89  O   UNL     1       0.568  18.710  -7.440  1.00  0.00    -0.237 OA
ATOM     90  O   UNL     1      -0.373  17.543  -5.486  1.00  0.00    -0.744 OA
ENDBRANCH  86  87
ENDBRANCH  54  79
BRANCH  66  91
ATOM     91  C   UNL     1       9.433  21.486  -0.960  1.00  0.00     0.058 A 
ATOM     92  C   UNL     1       8.692  21.778   0.196  1.00  0.00     0.135 A 
ATOM     93  C   UNL     1      10.199  22.517  -1.527  1.00  0.00     0.135 A 
ATOM     94  F   UNL     1       7.939  20.829   0.773  1.00  0.00    -0.206 F 
ATOM     95  C   UNL     1       8.689  23.052   0.753  1.00  0.00     0.059 A 
ATOM     96  C   UNL     1      10.231  23.792  -0.972  1.00  0.00     0.059 A 
ATOM     97  F   UNL     1      10.934  22.287  -2.627  1.00  0.00    -0.206 F 
ATOM     98  C   UNL     1       9.461  24.054   0.161  1.00  0.00     0.060 A 
BRANCH  98  99
ATOM     99  S   UNL     1       9.467  25.698   0.905  1.00  0.00     0.124 S 
ATOM    100  O   UNL     1       8.171  26.217   0.480  1.00  0.00    -0.237 OA
ATOM    101  O   UNL     1       9.595  25.399   2.328  1.00  0.00    -0.237 OA
ATOM    102  O   UNL     1      10.630  26.340   0.300  1.00  0.00    -0.744 OA
ENDBRANCH  98  99
ENDBRANCH  66  91
ENDBRANCH  40  41
ENDBRANCH  32  35
ENDBRANCH  30  31
ENDBRANCH   1  30
TORSDOF 18
