REMARK SMILES CC(C)n1ncnc1C[C@@H](C(=O)NCCCNC(=O)c1ccc(-c2c3nc(c(-c4c(F)cc(S(=O)(=O)[O-])cc4F)c4ccc([nH]4)c(-c4c(F)cc(S(=O)(=O)[O-])cc4F)c4nc(c(-c5c(F)cc(S(=O)(=O)[O-])cc5F)c5ccc2[nH]5)C=C4)C=C3)cc1)c1cccc(Br)c1
REMARK SMILES IDX 15 1 14 2 13 3 11 4 12 5 10 7 9 8 8 9 4 10 5 11 6 12 7 13
REMARK SMILES IDX 2 14 1 15 3 16 86 17 87 18 92 19 88 20 90 21 89 22 91 23
REMARK SMILES IDX 16 24 17 25 18 26 19 28 20 29 21 30 85 31 22 32 84 33 23 34
REMARK SMILES IDX 24 35 25 36 78 37 26 38 83 39 77 40 79 41 27 42 82 43 76 44
REMARK SMILES IDX 75 45 28 47 62 48 41 49 61 50 42 51 45 52 60 53 80 54 43 55
REMARK SMILES IDX 44 56 59 58 81 59 46 60 29 61 30 62 39 63 31 64 32 65 38 66
REMARK SMILES IDX 40 67 33 68 34 69 35 70 36 71 37 72 63 73 64 74 73 75 65 76
REMARK SMILES IDX 66 77 72 78 74 79 67 80 68 81 69 82 70 83 71 84 47 85 48 86
REMARK SMILES IDX 57 87 49 88 50 89 56 90 58 91 51 92 52 93 53 94 54 95 55 96
REMARK H PARENT 13 6 17 27 79 46 45 57
REMARK Flexibility Score: inf
ROOT
ATOM      1  C   UNL     1      -3.201   1.172  -1.393  1.00  0.00     0.042 C 
ENDROOT
BRANCH   1   2
ATOM      2  C   UNL     1      -3.062   2.428  -2.255  1.00  0.00     0.117 C 
BRANCH   2   3
ATOM      3  N   UNL     1      -3.568   3.611  -1.563  1.00  0.00    -0.355 N 
ATOM      4  C   UNL     1      -2.975   4.432  -0.644  1.00  0.00     0.228 C 
ATOM      5  O   UNL     1      -3.725   5.111   0.059  1.00  0.00    -0.274 OA
ATOM      6  H   UNL     1      -4.491   3.859  -1.798  1.00  0.00     0.163 HD
BRANCH   4   7
ATOM      7  C   UNL     1      -1.443   4.575  -0.574  1.00  0.00     0.116 C 
BRANCH   7   8
ATOM      8  C   UNL     1      -0.937   4.080   0.807  1.00  0.00     0.095 C 
BRANCH   8   9
ATOM      9  C   UNL     1      -1.123   2.626   1.094  1.00  0.00     0.128 A 
ATOM     10  N   UNL     1      -0.293   1.575   0.743  1.00  0.00    -0.248 N 
ATOM     11  N   UNL     1      -0.804   0.412   1.214  1.00  0.00    -0.159 NA
ATOM     12  C   UNL     1      -1.861   0.820   1.911  1.00  0.00     0.246 A 
ATOM     13  N   UNL     1      -2.100   2.154   1.845  1.00  0.00    -0.220 NA
BRANCH  10  14
ATOM     14  C   UNL     1       1.061   1.565   0.189  1.00  0.00     0.103 C 
ATOM     15  C   UNL     1       1.597   0.140  -0.058  1.00  0.00     0.033 C 
ATOM     16  C   UNL     1       1.234   2.345  -1.114  1.00  0.00     0.033 C 
ENDBRANCH  10  14
ENDBRANCH   8   9
ENDBRANCH   7   8
BRANCH   7  17
ATOM     17  C   UNL     1      -0.973   6.037  -0.814  1.00  0.00    -0.034 A 
ATOM     18  C   UNL     1       0.367   6.404  -0.571  1.00  0.00     0.004 A 
ATOM     19  C   UNL     1      -1.841   7.054  -1.258  1.00  0.00     0.020 A 
ATOM     20  C   UNL     1       0.792   7.734  -0.655  1.00  0.00     0.001 A 
ATOM     21  C   UNL     1      -1.409   8.382  -1.352  1.00  0.00     0.018 A 
ATOM     22  C   UNL     1      -0.102   8.730  -1.030  1.00  0.00     0.016 A 
ATOM     23  Br  UNL     1      -2.616   9.731  -1.902  1.00  0.00    -0.051 Br
ENDBRANCH   7  17
ENDBRANCH   4   7
ENDBRANCH   2   3
ENDBRANCH   1   2
BRANCH   1  24
ATOM     24  C   UNL     1      -4.638   0.776  -1.144  1.00  0.00     0.118 C 
BRANCH  24  25
ATOM     25  N   UNL     1      -5.133  -0.393  -1.856  1.00  0.00    -0.352 N 
ATOM     26  C   UNL     1      -6.281  -1.139  -1.623  1.00  0.00     0.251 C 
ATOM     27  H   UNL     1      -4.575  -0.698  -2.607  1.00  0.00     0.163 HD
ATOM     28  O   UNL     1      -6.465  -2.159  -2.291  1.00  0.00    -0.269 OA
BRANCH  26  29
ATOM     29  C   UNL     1      -7.274  -0.749  -0.580  1.00  0.00     0.039 A 
ATOM     30  C   UNL     1      -8.294  -1.612  -0.149  1.00  0.00     0.014 A 
ATOM     31  C   UNL     1      -7.222   0.516  -0.018  1.00  0.00     0.014 A 
ATOM     32  C   UNL     1      -9.259  -1.139   0.755  1.00  0.00     0.010 A 
ATOM     33  C   UNL     1      -7.947   0.857   1.077  1.00  0.00     0.010 A 
ATOM     34  C   UNL     1      -9.088   0.128   1.318  1.00  0.00    -0.014 A 
BRANCH  34  35
ATOM     35  C   UNL     1     -10.069   0.867   2.096  1.00  0.00     0.031 A 
ATOM     36  C   UNL     1     -10.039   0.602   3.551  1.00  0.00     0.074 A 
ATOM     37  C   UNL     1     -10.569   2.038   1.630  1.00  0.00     0.049 A 
ATOM     38  N   UNL     1     -10.930   0.003   4.268  1.00  0.00    -0.248 NA
ATOM     39  C   UNL     1      -8.793   0.909   4.276  1.00  0.00     0.031 C 
ATOM     40  C   UNL     1     -10.251   2.727   0.366  1.00  0.00     0.029 A 
ATOM     41  N   UNL     1     -11.351   2.948   2.269  1.00  0.00    -0.354 N 
ATOM     42  C   UNL     1     -10.447   0.070   5.570  1.00  0.00     0.074 A 
ATOM     43  C   UNL     1      -9.044   0.362   5.465  1.00  0.00     0.031 C 
ATOM     44  C   UNL     1     -10.671   4.010   0.432  1.00  0.00     0.029 A 
ATOM     45  C   UNL     1     -11.400   4.204   1.672  1.00  0.00     0.049 A 
ATOM     46  H   UNL     1     -11.846   2.735   3.093  1.00  0.00     0.167 HD
ATOM     47  C   UNL     1     -11.278   0.182   6.644  1.00  0.00     0.037 A 
ATOM     48  C   UNL     1     -11.954   5.328   2.197  1.00  0.00     0.037 A 
ATOM     49  C   UNL     1     -12.653  -0.040   6.266  1.00  0.00     0.049 A 
ATOM     50  C   UNL     1     -12.844   4.894   3.310  1.00  0.00     0.074 A 
ATOM     51  C   UNL     1     -13.333  -1.062   5.631  1.00  0.00     0.029 A 
ATOM     52  N   UNL     1     -13.474   1.062   6.180  1.00  0.00    -0.354 N 
ATOM     53  N   UNL     1     -13.928   4.182   3.157  1.00  0.00    -0.248 NA
ATOM     54  C   UNL     1     -12.290   4.891   4.656  1.00  0.00     0.031 C 
ATOM     55  C   UNL     1     -14.283  -0.411   4.790  1.00  0.00     0.029 A 
ATOM     56  C   UNL     1     -14.171   0.965   5.001  1.00  0.00     0.049 A 
ATOM     57  H   UNL     1     -13.548   1.786   6.843  1.00  0.00     0.167 HD
ATOM     58  C   UNL     1     -13.958   3.328   4.252  1.00  0.00     0.074 A 
ATOM     59  C   UNL     1     -12.988   3.886   5.190  1.00  0.00     0.031 C 
ATOM     60  C   UNL     1     -14.546   2.097   4.176  1.00  0.00     0.037 A 
BRANCH  47  61
ATOM     61  C   UNL     1     -10.898   0.836   7.952  1.00  0.00     0.058 A 
ATOM     62  C   UNL     1     -11.727   0.648   9.075  1.00  0.00     0.135 A 
ATOM     63  C   UNL     1      -9.893   1.820   8.098  1.00  0.00     0.135 A 
ATOM     64  F   UNL     1     -12.727  -0.247   9.042  1.00  0.00    -0.206 F 
ATOM     65  C   UNL     1     -11.606   1.419  10.231  1.00  0.00     0.059 A 
ATOM     66  C   UNL     1      -9.708   2.549   9.267  1.00  0.00     0.059 A 
ATOM     67  F   UNL     1      -9.106   2.203   7.086  1.00  0.00    -0.206 F 
ATOM     68  C   UNL     1     -10.599   2.376  10.311  1.00  0.00     0.060 A 
BRANCH  68  69
ATOM     69  S   UNL     1     -10.508   3.454  11.749  1.00  0.00     0.124 S 
ATOM     70  O   UNL     1     -11.655   4.327  11.525  1.00  0.00    -0.237 OA
ATOM     71  O   UNL     1     -10.631   2.505  12.851  1.00  0.00    -0.237 OA
ATOM     72  O   UNL     1      -9.197   4.082  11.615  1.00  0.00    -0.744 OA
ENDBRANCH  68  69
ENDBRANCH  47  61
BRANCH  48  73
ATOM     73  C   UNL     1     -11.556   6.750   2.002  1.00  0.00     0.058 A 
ATOM     74  C   UNL     1     -12.401   7.806   2.393  1.00  0.00     0.135 A 
ATOM     75  C   UNL     1     -10.234   7.111   1.672  1.00  0.00     0.135 A 
ATOM     76  F   UNL     1     -13.671   7.558   2.746  1.00  0.00    -0.206 F 
ATOM     77  C   UNL     1     -11.951   9.129   2.494  1.00  0.00     0.059 A 
ATOM     78  C   UNL     1      -9.766   8.424   1.751  1.00  0.00     0.059 A 
ATOM     79  F   UNL     1      -9.325   6.181   1.346  1.00  0.00    -0.206 F 
ATOM     80  C   UNL     1     -10.624   9.426   2.188  1.00  0.00     0.060 A 
BRANCH  80  81
ATOM     81  S   UNL     1      -9.995  11.097   2.482  1.00  0.00     0.124 S 
ATOM     82  O   UNL     1     -10.675  11.863   1.443  1.00  0.00    -0.237 OA
ATOM     83  O   UNL     1     -10.432  11.355   3.850  1.00  0.00    -0.237 OA
ATOM     84  O   UNL     1      -8.553  10.954   2.309  1.00  0.00    -0.744 OA
ENDBRANCH  80  81
ENDBRANCH  48  73
BRANCH  60  85
ATOM     85  C   UNL     1     -15.450   1.803   3.004  1.00  0.00     0.058 A 
ATOM     86  C   UNL     1     -15.022   1.754   1.665  1.00  0.00     0.135 A 
ATOM     87  C   UNL     1     -16.765   1.387   3.265  1.00  0.00     0.135 A 
ATOM     88  F   UNL     1     -13.755   2.031   1.335  1.00  0.00    -0.206 F 
ATOM     89  C   UNL     1     -15.868   1.345   0.633  1.00  0.00     0.059 A 
ATOM     90  C   UNL     1     -17.617   0.944   2.256  1.00  0.00     0.059 A 
ATOM     91  F   UNL     1     -17.219   1.351   4.529  1.00  0.00    -0.206 F 
ATOM     92  C   UNL     1     -17.164   0.935   0.938  1.00  0.00     0.060 A 
BRANCH  92  93
ATOM     93  S   UNL     1     -18.220   0.306  -0.385  1.00  0.00     0.124 S 
ATOM     94  O   UNL     1     -18.573   1.527  -1.102  1.00  0.00    -0.237 OA
ATOM     95  O   UNL     1     -17.331  -0.610  -1.095  1.00  0.00    -0.237 OA
ATOM     96  O   UNL     1     -19.318  -0.337   0.331  1.00  0.00    -0.744 OA
ENDBRANCH  92  93
ENDBRANCH  60  85
ENDBRANCH  34  35
ENDBRANCH  26  29
ENDBRANCH  24  25
ENDBRANCH   1  24
TORSDOF 17
