REMARK SMILES COc1cc(C(=O)NC2(C(=O)NCCCNC(=O)c3ccc(-c4c5nc(c(-c6c(F)cc(S(=O)(=O)[O-])cc6F)c6ccc([nH]6)c(-c6c(F)cc(S(=O)(=O)[O-])cc6F)c6nc(c(-c7c(F)cc(S(=O)(=O)[O-])cc7F)c7ccc4[nH]7)C=C6)C=C5)cc3)CCCCC2)cc2c1OCCO2
REMARK SMILES IDX 14 1 13 2 12 3 10 4 11 5 9 7 85 8 89 9 86 10 88 11 87 12
REMARK SMILES IDX 8 13 6 14 7 15 5 17 3 18 4 19 92 20 91 21 93 22 90 23 96 24
REMARK SMILES IDX 94 25 95 26 2 27 1 28 15 29 16 30 17 31 18 33 19 34 20 35
REMARK SMILES IDX 84 36 21 37 83 38 22 39 23 40 24 41 77 42 25 43 82 44 76 45
REMARK SMILES IDX 78 46 26 47 81 48 75 49 74 50 27 52 61 53 40 54 60 55 41 56
REMARK SMILES IDX 44 57 59 58 79 59 42 60 43 61 58 63 80 64 45 65 28 66 29 67
REMARK SMILES IDX 38 68 30 69 31 70 37 71 39 72 32 73 33 74 34 75 35 76 36 77
REMARK SMILES IDX 62 78 63 79 72 80 64 81 65 82 71 83 73 84 66 85 67 86 68 87
REMARK SMILES IDX 69 88 70 89 46 90 47 91 56 92 48 93 49 94 55 95 57 96 50 97
REMARK SMILES IDX 51 98 52 99 53 100 54 101
REMARK H PARENT 12 6 8 16 16 32 78 51 44 62
REMARK Flexibility Score: inf
ROOT
ATOM      1  C   UNL     1      -4.730   1.530  -2.590  1.00  0.00     0.042 C 
ENDROOT
BRANCH   1   2
ATOM      2  C   UNL     1      -3.289   1.899  -2.289  1.00  0.00     0.117 C 
BRANCH   2   3
ATOM      3  N   UNL     1      -3.051   3.311  -2.434  1.00  0.00    -0.354 N 
ATOM      4  C   UNL     1      -2.716   4.269  -1.542  1.00  0.00     0.245 C 
ATOM      5  O   UNL     1      -2.693   5.413  -2.026  1.00  0.00    -0.272 OA
ATOM      6  H   UNL     1      -3.151   3.640  -3.357  1.00  0.00     0.163 HD
BRANCH   4   7
ATOM      7  C   UNL     1      -2.471   4.050   0.006  1.00  0.00     0.119 C 
ATOM      8  C   UNL     1      -1.785   2.767   0.518  1.00  0.00     0.038 C 
ATOM      9  C   UNL     1      -3.812   4.263   0.743  1.00  0.00     0.038 C 
ATOM     10  C   UNL     1      -2.582   1.603   1.114  1.00  0.00     0.003 C 
ATOM     11  C   UNL     1      -4.690   3.022   0.820  1.00  0.00     0.003 C 
ATOM     12  C   UNL     1      -4.015   1.863   1.527  1.00  0.00     0.000 C 
BRANCH   7  13
ATOM     13  N   UNL     1      -1.622   5.274   0.300  1.00  0.00    -0.338 N 
ATOM     14  C   UNL     1      -0.297   5.626   0.190  1.00  0.00     0.252 C 
ATOM     15  O   UNL     1       0.009   6.809   0.340  1.00  0.00    -0.269 OA
ATOM     16  H   UNL     1      -2.163   6.010   0.667  1.00  0.00     0.164 HD
BRANCH  14  17
ATOM     17  C   UNL     1       0.798   4.644   0.022  1.00  0.00     0.047 A 
ATOM     18  C   UNL     1       1.616   2.500  -0.706  1.00  0.00     0.165 A 
ATOM     19  C   UNL     1       0.732   3.571  -0.860  1.00  0.00     0.064 A 
ATOM     20  C   UNL     1       2.734   2.625   0.120  1.00  0.00     0.203 A 
ATOM     21  C   UNL     1       2.926   3.821   0.821  1.00  0.00     0.166 A 
ATOM     22  O   UNL     1       3.620   1.577   0.186  1.00  0.00    -0.483 OA
ATOM     23  C   UNL     1       1.935   4.799   0.826  1.00  0.00     0.064 A 
ATOM     24  O   UNL     1       4.064   4.085   1.544  1.00  0.00    -0.486 OA
ATOM     25  C   UNL     1       4.651   1.787   1.156  1.00  0.00     0.271 C 
ATOM     26  C   UNL     1       5.127   3.227   1.111  1.00  0.00     0.271 C 
BRANCH  18  27
ATOM     27  O   UNL     1       1.289   1.346  -1.375  1.00  0.00    -0.493 OA
ATOM     28  C   UNL     1       1.117   0.243  -0.475  1.00  0.00     0.278 C 
ENDBRANCH  18  27
ENDBRANCH  14  17
ENDBRANCH   7  13
ENDBRANCH   4   7
ENDBRANCH   2   3
ENDBRANCH   1   2
BRANCH   1  29
ATOM     29  C   UNL     1      -4.972   1.270  -4.063  1.00  0.00     0.118 C 
BRANCH  29  30
ATOM     30  N   UNL     1      -4.282   0.073  -4.527  1.00  0.00    -0.352 N 
ATOM     31  C   UNL     1      -4.773  -1.162  -4.881  1.00  0.00     0.251 C 
ATOM     32  H   UNL     1      -3.304   0.163  -4.599  1.00  0.00     0.163 HD
ATOM     33  O   UNL     1      -3.998  -2.102  -5.010  1.00  0.00    -0.269 OA
BRANCH  31  34
ATOM     34  C   UNL     1      -6.226  -1.357  -5.082  1.00  0.00     0.039 A 
ATOM     35  C   UNL     1      -6.816  -2.559  -4.681  1.00  0.00     0.014 A 
ATOM     36  C   UNL     1      -7.007  -0.363  -5.671  1.00  0.00     0.014 A 
ATOM     37  C   UNL     1      -8.198  -2.725  -4.807  1.00  0.00     0.010 A 
ATOM     38  C   UNL     1      -8.390  -0.476  -5.671  1.00  0.00     0.010 A 
ATOM     39  C   UNL     1      -9.002  -1.667  -5.261  1.00  0.00    -0.014 A 
BRANCH  39  40
ATOM     40  C   UNL     1     -10.480  -1.789  -5.353  1.00  0.00     0.031 A 
ATOM     41  C   UNL     1     -11.165  -1.596  -6.682  1.00  0.00     0.074 A 
ATOM     42  C   UNL     1     -11.206  -1.999  -4.236  1.00  0.00     0.049 A 
ATOM     43  N   UNL     1     -12.443  -1.567  -6.956  1.00  0.00    -0.248 NA
ATOM     44  C   UNL     1     -10.301  -1.365  -7.853  1.00  0.00     0.031 C 
ATOM     45  C   UNL     1     -10.660  -2.142  -2.883  1.00  0.00     0.029 A 
ATOM     46  N   UNL     1     -12.561  -2.119  -4.057  1.00  0.00    -0.354 N 
ATOM     47  C   UNL     1     -12.533  -1.292  -8.316  1.00  0.00     0.074 A 
ATOM     48  C   UNL     1     -11.187  -1.097  -8.800  1.00  0.00     0.031 C 
ATOM     49  C   UNL     1     -11.666  -2.365  -2.022  1.00  0.00     0.029 A 
ATOM     50  C   UNL     1     -12.930  -2.333  -2.749  1.00  0.00     0.049 A 
ATOM     51  H   UNL     1     -13.209  -2.058  -4.796  1.00  0.00     0.167 HD
ATOM     52  C   UNL     1     -13.636  -1.241  -9.098  1.00  0.00     0.037 A 
ATOM     53  C   UNL     1     -14.151  -2.480  -2.199  1.00  0.00     0.037 A 
ATOM     54  C   UNL     1     -14.969  -1.484  -8.616  1.00  0.00     0.049 A 
ATOM     55  C   UNL     1     -15.362  -2.428  -3.093  1.00  0.00     0.074 A 
ATOM     56  C   UNL     1     -16.149  -1.528  -9.336  1.00  0.00     0.029 A 
ATOM     57  N   UNL     1     -15.299  -1.728  -7.290  1.00  0.00    -0.354 N 
ATOM     58  N   UNL     1     -15.421  -2.239  -4.390  1.00  0.00    -0.248 NA
ATOM     59  C   UNL     1     -16.670  -2.616  -2.452  1.00  0.00     0.031 C 
ATOM     60  C   UNL     1     -17.199  -1.747  -8.439  1.00  0.00     0.029 A 
ATOM     61  C   UNL     1     -16.667  -1.900  -7.168  1.00  0.00     0.049 A 
ATOM     62  H   UNL     1     -14.655  -1.771  -6.547  1.00  0.00     0.167 HD
ATOM     63  C   UNL     1     -16.769  -2.318  -4.724  1.00  0.00     0.074 A 
ATOM     64  C   UNL     1     -17.488  -2.585  -3.495  1.00  0.00     0.031 C 
ATOM     65  C   UNL     1     -17.360  -2.181  -5.937  1.00  0.00     0.037 A 
BRANCH  52  66
ATOM     66  C   UNL     1     -13.452  -0.925 -10.558  1.00  0.00     0.058 A 
ATOM     67  C   UNL     1     -12.836  -1.829 -11.439  1.00  0.00     0.135 A 
ATOM     68  C   UNL     1     -13.943   0.276 -11.095  1.00  0.00     0.135 A 
ATOM     69  F   UNL     1     -12.330  -2.985 -10.978  1.00  0.00    -0.206 F 
ATOM     70  C   UNL     1     -12.694  -1.546 -12.793  1.00  0.00     0.059 A 
ATOM     71  C   UNL     1     -13.841   0.567 -12.453  1.00  0.00     0.059 A 
ATOM     72  F   UNL     1     -14.537   1.180 -10.300  1.00  0.00    -0.206 F 
ATOM     73  C   UNL     1     -13.205  -0.347 -13.292  1.00  0.00     0.060 A 
BRANCH  73  74
ATOM     74  S   UNL     1     -13.039  -0.011 -15.057  1.00  0.00     0.124 S 
ATOM     75  O   UNL     1     -11.606   0.243 -15.172  1.00  0.00    -0.237 OA
ATOM     76  O   UNL     1     -13.511  -1.256 -15.656  1.00  0.00    -0.237 OA
ATOM     77  O   UNL     1     -13.900   1.149 -15.266  1.00  0.00    -0.744 OA
ENDBRANCH  73  74
ENDBRANCH  52  66
BRANCH  53  78
ATOM     78  C   UNL     1     -14.293  -2.710  -0.735  1.00  0.00     0.058 A 
ATOM     79  C   UNL     1     -14.749  -3.941  -0.238  1.00  0.00     0.135 A 
ATOM     80  C   UNL     1     -13.984  -1.707   0.197  1.00  0.00     0.135 A 
ATOM     81  F   UNL     1     -15.061  -4.932  -1.087  1.00  0.00    -0.206 F 
ATOM     82  C   UNL     1     -14.922  -4.160   1.125  1.00  0.00     0.059 A 
ATOM     83  C   UNL     1     -14.120  -1.912   1.567  1.00  0.00     0.059 A 
ATOM     84  F   UNL     1     -13.524  -0.518  -0.222  1.00  0.00    -0.206 F 
ATOM     85  C   UNL     1     -14.605  -3.137   2.021  1.00  0.00     0.060 A 
BRANCH  85  86
ATOM     86  S   UNL     1     -14.808  -3.441   3.789  1.00  0.00     0.124 S 
ATOM     87  O   UNL     1     -16.260  -3.435   3.923  1.00  0.00    -0.237 OA
ATOM     88  O   UNL     1     -14.156  -4.736   3.954  1.00  0.00    -0.237 OA
ATOM     89  O   UNL     1     -14.112  -2.315   4.404  1.00  0.00    -0.744 OA
ENDBRANCH  85  86
ENDBRANCH  53  78
BRANCH  65  90
ATOM     90  C   UNL     1     -18.851  -2.363  -6.006  1.00  0.00     0.058 A 
ATOM     91  C   UNL     1     -19.739  -1.411  -5.483  1.00  0.00     0.135 A 
ATOM     92  C   UNL     1     -19.397  -3.481  -6.659  1.00  0.00     0.135 A 
ATOM     93  F   UNL     1     -19.269  -0.328  -4.845  1.00  0.00    -0.206 F 
ATOM     94  C   UNL     1     -21.116  -1.573  -5.582  1.00  0.00     0.059 A 
ATOM     95  C   UNL     1     -20.770  -3.647  -6.798  1.00  0.00     0.059 A 
ATOM     96  F   UNL     1     -18.591  -4.416  -7.189  1.00  0.00    -0.206 F 
ATOM     97  C   UNL     1     -21.623  -2.692  -6.245  1.00  0.00     0.060 A 
BRANCH  97  98
ATOM     98  S   UNL     1     -23.412  -2.871  -6.397  1.00  0.00     0.124 S 
ATOM     99  O   UNL     1     -23.789  -3.220  -5.032  1.00  0.00    -0.237 OA
ATOM    100  O   UNL     1     -23.820  -1.544  -6.848  1.00  0.00    -0.237 OA
ATOM    101  O   UNL     1     -23.566  -3.937  -7.383  1.00  0.00    -0.744 OA
ENDBRANCH  97  98
ENDBRANCH  65  90
ENDBRANCH  39  40
ENDBRANCH  31  34
ENDBRANCH  29  30
ENDBRANCH   1  29
TORSDOF 16
