REMARK SMILES C[NH2+][C@](C)(C(=O)NCCCNC(=O)c1ccc(-c2c3nc(c(-c4c(F)cc(S(=O)(=O)[O-])cc4F)c4ccc([nH]4)c(-c4c(F)cc(S(=O)(=O)[O-])cc4F)c4nc(c(-c5c(F)cc(S(=O)(=O)[O-])cc5F)c5ccc2[nH]5)C=C4)C=C3)cc1)c1cccc(Cl)c1
REMARK SMILES IDX 10 1 9 2 8 3 7 4 5 5 6 6 3 8 4 9 2 10 1 11 80 14 81 15 86 16
REMARK SMILES IDX 82 17 84 18 83 19 85 20 11 21 12 22 13 24 14 25 15 26 79 27
REMARK SMILES IDX 16 28 78 29 17 30 18 31 19 32 72 33 20 34 77 35 71 36 73 37
REMARK SMILES IDX 21 38 76 39 70 40 69 41 22 43 56 44 35 45 55 46 36 47 39 48
REMARK SMILES IDX 54 49 74 50 37 51 38 52 53 54 75 55 40 56 23 57 24 58 33 59
REMARK SMILES IDX 25 60 26 61 32 62 34 63 27 64 28 65 29 66 30 67 31 68 57 69
REMARK SMILES IDX 58 70 67 71 59 72 60 73 66 74 68 75 61 76 62 77 63 78 64 79
REMARK SMILES IDX 65 80 41 81 42 82 51 83 43 84 44 85 50 86 52 87 45 88 46 89
REMARK SMILES IDX 47 90 48 91 49 92
REMARK H PARENT 7 7 2 12 2 13 11 23 73 42 39 53
REMARK Flexibility Score: inf
ROOT
ATOM      1  C   UNL     1       0.690  -1.948   5.637  1.00  0.00     0.118 C 
ENDROOT
BRANCH   1   2
ATOM      2  C   UNL     1       0.893  -1.998   4.127  1.00  0.00     0.042 C 
BRANCH   2   3
ATOM      3  C   UNL     1      -0.404  -2.026   3.326  1.00  0.00     0.118 C 
BRANCH   3   4
ATOM      4  N   UNL     1      -1.165  -0.796   3.470  1.00  0.00    -0.350 N 
ATOM      5  C   UNL     1      -1.421   0.214   2.581  1.00  0.00     0.285 C 
ATOM      6  O   UNL     1      -2.156   1.117   2.998  1.00  0.00    -0.267 OA
ATOM      7  H   UNL     1      -1.567  -0.667   4.359  1.00  0.00     0.163 HD
BRANCH   5   8
ATOM      8  C   UNL     1      -0.810   0.218   1.115  1.00  0.00     0.198 C 
ATOM      9  C   UNL     1       0.731   0.310   1.236  1.00  0.00     0.096 C 
BRANCH   8  10
ATOM     10  N   UNL     1      -1.210  -1.073   0.486  1.00  0.00    -0.332 N 
ATOM     11  C   UNL     1      -0.560  -1.411  -0.766  1.00  0.00     0.332 C 
ATOM     12  H   UNL     1      -1.006  -1.818   1.152  1.00  0.00     0.347 HD
ATOM     13  H   UNL     1      -2.198  -0.967   0.257  1.00  0.00     0.347 HD
ENDBRANCH   8  10
BRANCH   8  14
ATOM     14  C   UNL     1      -1.353   1.457   0.345  1.00  0.00     0.023 A 
ATOM     15  C   UNL     1      -0.819   2.741   0.591  1.00  0.00     0.011 A 
ATOM     16  C   UNL     1      -2.418   1.375  -0.574  1.00  0.00     0.031 A 
ATOM     17  C   UNL     1      -1.287   3.873  -0.084  1.00  0.00     0.002 A 
ATOM     18  C   UNL     1      -2.878   2.508  -1.251  1.00  0.00     0.041 A 
ATOM     19  C   UNL     1      -2.313   3.755  -1.015  1.00  0.00     0.020 A 
ATOM     20  Cl  UNL     1      -4.158   2.355  -2.395  1.00  0.00    -0.084 Cl
ENDBRANCH   8  14
ENDBRANCH   5   8
ENDBRANCH   3   4
ENDBRANCH   2   3
ENDBRANCH   1   2
BRANCH   1  21
ATOM     21  N   UNL     1       0.018  -3.134   6.152  1.00  0.00    -0.352 N 
ATOM     22  C   UNL     1       0.449  -4.074   7.051  1.00  0.00     0.251 C 
ATOM     23  H   UNL     1      -0.889  -3.284   5.798  1.00  0.00     0.163 HD
ATOM     24  O   UNL     1      -0.206  -5.110   7.197  1.00  0.00    -0.269 OA
BRANCH  22  25
ATOM     25  C   UNL     1       1.689  -3.870   7.829  1.00  0.00     0.039 A 
ATOM     26  C   UNL     1       2.545  -4.956   8.034  1.00  0.00     0.014 A 
ATOM     27  C   UNL     1       1.999  -2.625   8.382  1.00  0.00     0.014 A 
ATOM     28  C   UNL     1       3.739  -4.777   8.736  1.00  0.00     0.010 A 
ATOM     29  C   UNL     1       3.226  -2.429   9.009  1.00  0.00     0.010 A 
ATOM     30  C   UNL     1       4.107  -3.504   9.200  1.00  0.00    -0.014 A 
BRANCH  30  31
ATOM     31  C   UNL     1       5.405  -3.276   9.886  1.00  0.00     0.031 A 
ATOM     32  C   UNL     1       5.435  -2.809  11.316  1.00  0.00     0.074 A 
ATOM     33  C   UNL     1       6.556  -3.426   9.200  1.00  0.00     0.049 A 
ATOM     34  N   UNL     1       6.462  -2.490  12.060  1.00  0.00    -0.248 NA
ATOM     35  C   UNL     1       4.136  -2.654  11.990  1.00  0.00     0.031 C 
ATOM     36  C   UNL     1       6.657  -3.829   7.796  1.00  0.00     0.029 A 
ATOM     37  N   UNL     1       7.860  -3.249   9.588  1.00  0.00    -0.354 N 
ATOM     38  C   UNL     1       5.936  -2.083  13.281  1.00  0.00     0.074 A 
ATOM     39  C   UNL     1       4.495  -2.142  13.158  1.00  0.00     0.031 C 
ATOM     40  C   UNL     1       7.952  -3.891   7.448  1.00  0.00     0.029 A 
ATOM     41  C   UNL     1       8.772  -3.496   8.589  1.00  0.00     0.049 A 
ATOM     42  H   UNL     1       8.119  -2.970  10.496  1.00  0.00     0.167 HD
ATOM     43  C   UNL     1       6.592  -1.714  14.408  1.00  0.00     0.037 A 
ATOM     44  C   UNL     1      10.116  -3.409   8.589  1.00  0.00     0.037 A 
ATOM     45  C   UNL     1       8.026  -1.679  14.529  1.00  0.00     0.049 A 
ATOM     46  C   UNL     1      10.824  -2.998   9.851  1.00  0.00     0.074 A 
ATOM     47  C   UNL     1       8.789  -1.375  15.643  1.00  0.00     0.029 A 
ATOM     48  N   UNL     1       8.916  -1.953  13.499  1.00  0.00    -0.354 N 
ATOM     49  N   UNL     1      10.312  -2.673  11.014  1.00  0.00    -0.248 NA
ATOM     50  C   UNL     1      12.291  -2.946   9.802  1.00  0.00     0.031 C 
ATOM     51  C   UNL     1      10.138  -1.423  15.276  1.00  0.00     0.029 A 
ATOM     52  C   UNL     1      10.219  -1.806  13.947  1.00  0.00     0.049 A 
ATOM     53  H   UNL     1       8.659  -2.214  12.586  1.00  0.00     0.167 HD
ATOM     54  C   UNL     1      11.395  -2.405  11.844  1.00  0.00     0.074 A 
ATOM     55  C   UNL     1      12.589  -2.615  11.052  1.00  0.00     0.031 C 
ATOM     56  C   UNL     1      11.399  -2.022  13.146  1.00  0.00     0.037 A 
BRANCH  43  57
ATOM     57  C   UNL     1       5.759  -1.321  15.598  1.00  0.00     0.058 A 
ATOM     58  C   UNL     1       4.996  -2.263  16.309  1.00  0.00     0.135 A 
ATOM     59  C   UNL     1       5.735   0.009  16.046  1.00  0.00     0.135 A 
ATOM     60  F   UNL     1       4.971  -3.547  15.917  1.00  0.00    -0.206 F 
ATOM     61  C   UNL     1       4.207  -1.893  17.393  1.00  0.00     0.059 A 
ATOM     62  C   UNL     1       4.977   0.397  17.148  1.00  0.00     0.059 A 
ATOM     63  F   UNL     1       6.447   0.951  15.408  1.00  0.00    -0.206 F 
ATOM     64  C   UNL     1       4.201  -0.559  17.803  1.00  0.00     0.060 A 
BRANCH  64  65
ATOM     65  S   UNL     1       3.161  -0.092  19.203  1.00  0.00     0.124 S 
ATOM     66  O   UNL     1       1.830  -0.141  18.604  1.00  0.00    -0.237 OA
ATOM     67  O   UNL     1       3.457  -1.139  20.175  1.00  0.00    -0.237 OA
ATOM     68  O   UNL     1       3.642   1.241  19.554  1.00  0.00    -0.744 OA
ENDBRANCH  64  65
ENDBRANCH  43  57
BRANCH  44  69
ATOM     69  C   UNL     1      10.878  -3.752   7.359  1.00  0.00     0.058 A 
ATOM     70  C   UNL     1      11.637  -4.929   7.288  1.00  0.00     0.135 A 
ATOM     71  C   UNL     1      10.838  -2.929   6.222  1.00  0.00     0.135 A 
ATOM     72  F   UNL     1      11.712  -5.744   8.351  1.00  0.00    -0.206 F 
ATOM     73  C   UNL     1      12.338  -5.276   6.137  1.00  0.00     0.059 A 
ATOM     74  C   UNL     1      11.510  -3.268   5.051  1.00  0.00     0.059 A 
ATOM     75  F   UNL     1      10.112  -1.800   6.233  1.00  0.00    -0.206 F 
ATOM     76  C   UNL     1      12.263  -4.441   5.021  1.00  0.00     0.060 A 
BRANCH  76  77
ATOM     77  S   UNL     1      13.123  -4.935   3.512  1.00  0.00     0.124 S 
ATOM     78  O   UNL     1      14.514  -4.692   3.873  1.00  0.00    -0.237 OA
ATOM     79  O   UNL     1      12.730  -6.335   3.381  1.00  0.00    -0.237 OA
ATOM     80  O   UNL     1      12.566  -4.040   2.501  1.00  0.00    -0.744 OA
ENDBRANCH  76  77
ENDBRANCH  44  69
BRANCH  56  81
ATOM     81  C   UNL     1      12.736  -1.836  13.808  1.00  0.00     0.058 A 
ATOM     82  C   UNL     1      13.560  -0.738  13.514  1.00  0.00     0.135 A 
ATOM     83  C   UNL     1      13.176  -2.743  14.786  1.00  0.00     0.135 A 
ATOM     84  F   UNL     1      13.190   0.154  12.582  1.00  0.00    -0.206 F 
ATOM     85  C   UNL     1      14.784  -0.558  14.150  1.00  0.00     0.059 A 
ATOM     86  C   UNL     1      14.383  -2.568  15.454  1.00  0.00     0.059 A 
ATOM     87  F   UNL     1      12.422  -3.805  15.111  1.00  0.00    -0.206 F 
ATOM     88  C   UNL     1      15.187  -1.478  15.121  1.00  0.00     0.060 A 
BRANCH  88  89
ATOM     89  S   UNL     1      16.762  -1.216  15.963  1.00  0.00     0.124 S 
ATOM     90  O   UNL     1      17.716  -1.593  14.926  1.00  0.00    -0.237 OA
ATOM     91  O   UNL     1      16.709   0.206  16.289  1.00  0.00    -0.237 OA
ATOM     92  O   UNL     1      16.689  -2.118  17.109  1.00  0.00    -0.744 OA
ENDBRANCH  88  89
ENDBRANCH  56  81
ENDBRANCH  30  31
ENDBRANCH  22  25
ENDBRANCH   1  21
TORSDOF 15
