REMARK SMILES O=C(NCCCNC(=O)c1cc(-c2ccccn2)nc2ccc(F)cc12)c1ccc(-c2c3nc(c(-c4c(F)cc(S(=O)(=O)[O-])cc4F)c4ccc([nH]4)c(-c4c(F)cc(S(=O)(=O)[O-])cc4F)c4nc(c(-c5c(F)cc(S(=O)(=O)[O-])cc5F)c5ccc2[nH]5)C=C4)C=C3)cc1
REMARK SMILES IDX 4 1 3 2 1 3 2 4 27 6 28 7 92 8 29 9 91 10 30 11 31 12 32 13
REMARK SMILES IDX 85 14 33 15 90 16 84 17 86 18 34 19 89 20 83 21 82 22 35 24
REMARK SMILES IDX 69 25 48 26 68 27 49 28 52 29 67 30 87 31 50 32 51 33 66 35
REMARK SMILES IDX 88 36 53 37 36 38 37 39 46 40 38 41 39 42 45 43 47 44 40 45
REMARK SMILES IDX 41 46 42 47 43 48 44 49 70 50 71 51 80 52 72 53 73 54 79 55
REMARK SMILES IDX 81 56 74 57 75 58 76 59 77 60 78 61 54 62 55 63 64 64 56 65
REMARK SMILES IDX 57 66 63 67 65 68 58 69 59 70 60 71 61 72 62 73 5 74 6 75
REMARK SMILES IDX 7 76 8 77 9 79 10 80 11 81 26 82 12 83 20 84 25 85 19 86
REMARK SMILES IDX 21 87 23 88 22 89 24 90 13 91 14 92 18 93 15 94 17 95 16 96
REMARK H PARENT 3 5 86 23 52 34 7 78
REMARK Flexibility Score: inf
ROOT
ATOM      1  C   UNL     1       4.590  -1.197  -0.378  1.00  0.00     0.118 C 
ENDROOT
BRANCH   1   2
ATOM      2  N   UNL     1       3.147  -1.011  -0.443  1.00  0.00    -0.352 N 
ATOM      3  O   UNL     1       1.154  -0.062  -0.057  1.00  0.00    -0.269 OA
ATOM      4  C   UNL     1       2.372   0.079  -0.136  1.00  0.00     0.251 C 
ATOM      5  H   UNL     1       2.646  -1.797  -0.758  1.00  0.00     0.163 HD
BRANCH   4   6
ATOM      6  C   UNL     1       2.982   1.407   0.101  1.00  0.00     0.039 A 
ATOM      7  C   UNL     1       2.399   2.260   1.042  1.00  0.00     0.014 A 
ATOM      8  C   UNL     1       4.079   1.847  -0.644  1.00  0.00     0.014 A 
ATOM      9  C   UNL     1       2.929   3.536   1.249  1.00  0.00     0.010 A 
ATOM     10  C   UNL     1       4.673   3.071  -0.359  1.00  0.00     0.010 A 
ATOM     11  C   UNL     1       4.079   3.948   0.558  1.00  0.00    -0.014 A 
BRANCH  11  12
ATOM     12  C   UNL     1       4.617   5.325   0.697  1.00  0.00     0.031 A 
ATOM     13  C   UNL     1       4.639   6.237  -0.504  1.00  0.00     0.074 A 
ATOM     14  C   UNL     1       5.107   5.748   1.878  1.00  0.00     0.049 A 
ATOM     15  N   UNL     1       5.125   7.446  -0.617  1.00  0.00    -0.248 NA
ATOM     16  C   UNL     1       4.061   5.708  -1.752  1.00  0.00     0.031 C 
ATOM     17  C   UNL     1       5.159   4.954   3.106  1.00  0.00     0.029 A 
ATOM     18  N   UNL     1       5.652   6.955   2.239  1.00  0.00    -0.354 N 
ATOM     19  C   UNL     1       4.925   7.811  -1.944  1.00  0.00     0.074 A 
ATOM     20  C   UNL     1       4.340   6.673  -2.614  1.00  0.00     0.031 C 
ATOM     21  C   UNL     1       5.671   5.706   4.094  1.00  0.00     0.029 A 
ATOM     22  C   UNL     1       6.025   7.019   3.561  1.00  0.00     0.049 A 
ATOM     23  H   UNL     1       5.765   7.704   1.611  1.00  0.00     0.167 HD
ATOM     24  C   UNL     1       5.170   9.000  -2.543  1.00  0.00     0.037 A 
ATOM     25  C   UNL     1       6.592   8.021   4.261  1.00  0.00     0.037 A 
ATOM     26  C   UNL     1       5.719  10.141  -1.861  1.00  0.00     0.049 A 
ATOM     27  C   UNL     1       6.889   9.323   3.568  1.00  0.00     0.074 A 
ATOM     28  C   UNL     1       5.968  11.405  -2.365  1.00  0.00     0.029 A 
ATOM     29  N   UNL     1       6.101  10.159  -0.527  1.00  0.00    -0.354 N 
ATOM     30  N   UNL     1       6.659   9.665   2.322  1.00  0.00    -0.248 NA
ATOM     31  C   UNL     1       7.521  10.377   4.373  1.00  0.00     0.031 C 
ATOM     32  C   UNL     1       6.548  12.172  -1.350  1.00  0.00     0.029 A 
ATOM     33  C   UNL     1       6.608  11.404  -0.197  1.00  0.00     0.049 A 
ATOM     34  H   UNL     1       6.023   9.398   0.093  1.00  0.00     0.167 HD
ATOM     35  C   UNL     1       7.100  10.978   2.199  1.00  0.00     0.074 A 
ATOM     36  C   UNL     1       7.595  11.375   3.502  1.00  0.00     0.031 C 
ATOM     37  C   UNL     1       7.097  11.782   1.106  1.00  0.00     0.037 A 
BRANCH  24  38
ATOM     38  C   UNL     1       4.834   9.129  -4.004  1.00  0.00     0.058 A 
ATOM     39  C   UNL     1       3.504   9.132  -4.457  1.00  0.00     0.135 A 
ATOM     40  C   UNL     1       5.849   9.285  -4.961  1.00  0.00     0.135 A 
ATOM     41  F   UNL     1       2.493   8.968  -3.589  1.00  0.00    -0.206 F 
ATOM     42  C   UNL     1       3.194   9.254  -5.807  1.00  0.00     0.059 A 
ATOM     43  C   UNL     1       5.561   9.441  -6.314  1.00  0.00     0.059 A 
ATOM     44  F   UNL     1       7.138   9.287  -4.586  1.00  0.00    -0.206 F 
ATOM     45  C   UNL     1       4.231   9.411  -6.729  1.00  0.00     0.060 A 
BRANCH  45  46
ATOM     46  S   UNL     1       3.807   9.573  -8.475  1.00  0.00     0.124 S 
ATOM     47  O   UNL     1       3.317   8.233  -8.783  1.00  0.00    -0.237 OA
ATOM     48  O   UNL     1       2.797  10.626  -8.452  1.00  0.00    -0.237 OA
ATOM     49  O   UNL     1       5.074   9.936  -9.102  1.00  0.00    -0.744 OA
ENDBRANCH  45  46
ENDBRANCH  24  38
BRANCH  25  50
ATOM     50  C   UNL     1       6.881   7.835   5.709  1.00  0.00     0.058 A 
ATOM     51  C   UNL     1       6.134   8.513   6.683  1.00  0.00     0.135 A 
ATOM     52  C   UNL     1       7.875   6.946   6.149  1.00  0.00     0.135 A 
ATOM     53  F   UNL     1       5.180   9.380   6.313  1.00  0.00    -0.206 F 
ATOM     54  C   UNL     1       6.358   8.316   8.042  1.00  0.00     0.059 A 
ATOM     55  C   UNL     1       8.101   6.713   7.503  1.00  0.00     0.059 A 
ATOM     56  F   UNL     1       8.610   6.264   5.258  1.00  0.00    -0.206 F 
ATOM     57  C   UNL     1       7.338   7.405   8.442  1.00  0.00     0.060 A 
BRANCH  57  58
ATOM     58  S   UNL     1       7.564   7.105  10.208  1.00  0.00     0.124 S 
ATOM     59  O   UNL     1       8.119   8.377  10.656  1.00  0.00    -0.237 OA
ATOM     60  O   UNL     1       6.202   6.813  10.643  1.00  0.00    -0.237 OA
ATOM     61  O   UNL     1       8.482   5.970  10.242  1.00  0.00    -0.744 OA
ENDBRANCH  57  58
ENDBRANCH  25  50
BRANCH  37  62
ATOM     62  C   UNL     1       7.632  13.179   1.264  1.00  0.00     0.058 A 
ATOM     63  C   UNL     1       9.005  13.427   1.408  1.00  0.00     0.135 A 
ATOM     64  C   UNL     1       6.771  14.286   1.183  1.00  0.00     0.135 A 
ATOM     65  F   UNL     1       9.871  12.405   1.495  1.00  0.00    -0.206 F 
ATOM     66  C   UNL     1       9.505  14.723   1.481  1.00  0.00     0.059 A 
ATOM     67  C   UNL     1       7.252  15.591   1.223  1.00  0.00     0.059 A 
ATOM     68  F   UNL     1       5.449  14.105   1.032  1.00  0.00    -0.206 F 
ATOM     69  C   UNL     1       8.621  15.799   1.380  1.00  0.00     0.060 A 
BRANCH  69  70
ATOM     70  S   UNL     1       9.293  17.473   1.429  1.00  0.00     0.124 S 
ATOM     71  O   UNL     1       9.728  17.576   2.818  1.00  0.00    -0.237 OA
ATOM     72  O   UNL     1      10.360  17.407   0.434  1.00  0.00    -0.237 OA
ATOM     73  O   UNL     1       8.154  18.310   1.065  1.00  0.00    -0.744 OA
ENDBRANCH  69  70
ENDBRANCH  37  62
ENDBRANCH  11  12
ENDBRANCH   4   6
ENDBRANCH   1   2
BRANCH   1  74
ATOM     74  C   UNL     1       5.002  -2.195   0.691  1.00  0.00     0.042 C 
BRANCH  74  75
ATOM     75  C   UNL     1       4.447  -3.592   0.475  1.00  0.00     0.118 C 
BRANCH  75  76
ATOM     76  N   UNL     1       4.924  -4.210  -0.759  1.00  0.00    -0.352 N 
ATOM     77  C   UNL     1       5.723  -5.313  -0.942  1.00  0.00     0.252 C 
ATOM     78  H   UNL     1       4.628  -3.769  -1.587  1.00  0.00     0.163 HD
ATOM     79  O   UNL     1       6.077  -5.642  -2.071  1.00  0.00    -0.269 OA
BRANCH  77  80
ATOM     80  C   UNL     1       6.122  -6.122   0.227  1.00  0.00     0.051 A 
ATOM     81  C   UNL     1       5.099  -6.562   1.059  1.00  0.00     0.045 A 
ATOM     82  C   UNL     1       7.466  -6.434   0.512  1.00  0.00     0.016 A 
ATOM     83  C   UNL     1       5.427  -7.164   2.258  1.00  0.00     0.090 A 
ATOM     84  C   UNL     1       7.698  -7.107   1.731  1.00  0.00     0.072 A 
ATOM     85  C   UNL     1       8.564  -6.120  -0.327  1.00  0.00     0.050 A 
ATOM     86  N   UNL     1       6.712  -7.439   2.586  1.00  0.00    -0.246 NA
ATOM     87  C   UNL     1       9.005  -7.439   2.069  1.00  0.00     0.032 A 
ATOM     88  C   UNL     1       9.851  -6.491   0.034  1.00  0.00     0.123 A 
ATOM     89  C   UNL     1      10.084  -7.147   1.230  1.00  0.00     0.041 A 
ATOM     90  F   UNL     1      10.876  -6.222  -0.785  1.00  0.00    -0.207 F 
BRANCH  83  91
ATOM     91  C   UNL     1       4.366  -7.433   3.244  1.00  0.00     0.089 A 
ATOM     92  C   UNL     1       3.220  -8.152   2.896  1.00  0.00     0.030 A 
ATOM     93  N   UNL     1       4.476  -6.797   4.439  1.00  0.00    -0.255 NA
ATOM     94  C   UNL     1       2.154  -8.209   3.789  1.00  0.00     0.004 A 
ATOM     95  C   UNL     1       3.430  -6.876   5.290  1.00  0.00     0.112 A 
ATOM     96  C   UNL     1       2.257  -7.555   5.009  1.00  0.00     0.020 A 
ENDBRANCH  83  91
ENDBRANCH  77  80
ENDBRANCH  75  76
ENDBRANCH  74  75
ENDBRANCH   1  74
TORSDOF 14
