REMARK SMILES O=C(CN1C(=O)N[C@](c2cccs2)(C2CC2)C1=O)NCCCNC(=O)c1ccc(-c2c3nc(c(-c4c(F)cc(S(=O)(=O)[O-])cc4F)c4ccc([nH]4)c(-c4c(F)cc(S(=O)(=O)[O-])cc4F)c4nc(c(-c5c(F)cc(S(=O)(=O)[O-])cc5F)c5ccc2[nH]5)C=C4)C=C3)cc1
REMARK SMILES IDX 21 1 20 2 19 3 1 4 2 5 3 7 4 8 5 9 17 10 6 11 7 12 8 13
REMARK SMILES IDX 18 14 14 16 15 17 16 18 9 19 10 20 13 21 11 22 12 23 22 24
REMARK SMILES IDX 23 25 24 26 25 28 26 29 27 30 91 31 28 32 90 33 29 34 30 35
REMARK SMILES IDX 31 36 84 37 32 38 89 39 83 40 85 41 33 42 88 43 82 44 81 45
REMARK SMILES IDX 34 47 68 48 47 49 67 50 48 51 51 52 66 53 86 54 49 55 50 56
REMARK SMILES IDX 65 58 87 59 52 60 35 61 36 62 45 63 37 64 38 65 44 66 46 67
REMARK SMILES IDX 39 68 40 69 41 70 42 71 43 72 69 73 70 74 79 75 71 76 72 77
REMARK SMILES IDX 78 78 80 79 73 80 74 81 75 82 76 83 77 84 53 85 54 86 63 87
REMARK SMILES IDX 55 88 56 89 62 90 64 91 57 92 58 93 59 94 60 95 61 96
REMARK H PARENT 19 6 7 15 23 27 85 46 51 57
REMARK Flexibility Score: inf
ROOT
ATOM      1  C   UNL     1       2.385   1.407   3.066  1.00  0.00     0.042 C 
ENDROOT
BRANCH   1   2
ATOM      2  C   UNL     1       2.082   1.699   1.604  1.00  0.00     0.117 C 
BRANCH   2   3
ATOM      3  N   UNL     1       2.785   0.836   0.675  1.00  0.00    -0.354 N 
ATOM      4  O   UNL     1       1.028  -0.584   0.321  1.00  0.00    -0.273 OA
ATOM      5  C   UNL     1       2.124  -0.145  -0.029  1.00  0.00     0.240 C 
ATOM      6  H   UNL     1       3.754   0.954   0.544  1.00  0.00     0.163 HD
BRANCH   5   7
ATOM      7  C   UNL     1       2.880  -0.783  -1.196  1.00  0.00     0.230 C 
BRANCH   7   8
ATOM      8  N   UNL     1       3.848   0.030  -1.911  1.00  0.00    -0.252 N 
ATOM      9  C   UNL     1       3.667   1.324  -2.285  1.00  0.00     0.325 C 
ATOM     10  C   UNL     1       4.845  -0.528  -2.677  1.00  0.00     0.262 C 
ATOM     11  O   UNL     1       2.760   2.073  -1.965  1.00  0.00    -0.248 OA
ATOM     12  N   UNL     1       4.685   1.700  -3.119  1.00  0.00    -0.318 N 
ATOM     13  C   UNL     1       5.475   0.582  -3.583  1.00  0.00     0.158 C 
ATOM     14  O   UNL     1       5.128  -1.720  -2.709  1.00  0.00    -0.271 OA
ATOM     15  H   UNL     1       4.861   2.634  -3.375  1.00  0.00     0.166 HD
BRANCH  13  16
ATOM     16  C   UNL     1       5.027   0.345  -5.023  1.00  0.00     0.030 C 
ATOM     17  C   UNL     1       5.428   1.247  -6.170  1.00  0.00     0.007 C 
ATOM     18  C   UNL     1       5.851  -0.201  -6.164  1.00  0.00     0.007 C 
ENDBRANCH  13  16
BRANCH  13  19
ATOM     19  C   UNL     1       6.907   0.816  -3.116  1.00  0.00     0.040 A 
ATOM     20  C   UNL     1       7.364   0.840  -1.800  1.00  0.00     0.018 A 
ATOM     21  S   UNL     1       8.216   1.155  -4.176  1.00  0.00    -0.146 S 
ATOM     22  C   UNL     1       8.765   1.071  -1.685  1.00  0.00     0.012 A 
ATOM     23  C   UNL     1       9.354   1.240  -2.913  1.00  0.00     0.065 A 
ENDBRANCH  13  19
ENDBRANCH   7   8
ENDBRANCH   5   7
ENDBRANCH   2   3
ENDBRANCH   1   2
BRANCH   1  24
ATOM     24  C   UNL     1       3.850   1.561   3.461  1.00  0.00     0.118 C 
BRANCH  24  25
ATOM     25  N   UNL     1       4.372   2.904   3.251  1.00  0.00    -0.352 N 
ATOM     26  C   UNL     1       5.089   3.725   4.088  1.00  0.00     0.251 C 
ATOM     27  H   UNL     1       4.180   3.286   2.365  1.00  0.00     0.163 HD
ATOM     28  O   UNL     1       5.334   4.873   3.723  1.00  0.00    -0.269 OA
BRANCH  26  29
ATOM     29  C   UNL     1       5.543   3.264   5.422  1.00  0.00     0.039 A 
ATOM     30  C   UNL     1       5.492   4.168   6.488  1.00  0.00     0.014 A 
ATOM     31  C   UNL     1       6.048   1.978   5.633  1.00  0.00     0.014 A 
ATOM     32  C   UNL     1       5.887   3.765   7.767  1.00  0.00     0.010 A 
ATOM     33  C   UNL     1       6.368   1.554   6.924  1.00  0.00     0.010 A 
ATOM     34  C   UNL     1       6.297   2.443   8.006  1.00  0.00    -0.014 A 
BRANCH  34  35
ATOM     35  C   UNL     1       6.640   1.989   9.381  1.00  0.00     0.031 A 
ATOM     36  C   UNL     1       8.035   1.526   9.713  1.00  0.00     0.074 A 
ATOM     37  C   UNL     1       5.681   1.960  10.329  1.00  0.00     0.049 A 
ATOM     38  N   UNL     1       8.513   1.099  10.855  1.00  0.00    -0.248 NA
ATOM     39  C   UNL     1       9.016   1.520   8.617  1.00  0.00     0.031 C 
ATOM     40  C   UNL     1       4.277   2.323  10.121  1.00  0.00     0.029 A 
ATOM     41  N   UNL     1       5.738   1.609  11.655  1.00  0.00    -0.354 N 
ATOM     42  C   UNL     1       9.841   0.767  10.614  1.00  0.00     0.074 A 
ATOM     43  C   UNL     1      10.078   0.988   9.204  1.00  0.00     0.031 C 
ATOM     44  C   UNL     1       3.616   2.209  11.284  1.00  0.00     0.029 A 
ATOM     45  C   UNL     1       4.536   1.732  12.312  1.00  0.00     0.049 A 
ATOM     46  H   UNL     1       6.562   1.297  12.094  1.00  0.00     0.167 HD
ATOM     47  C   UNL     1      10.785   0.343  11.489  1.00  0.00     0.037 A 
ATOM     48  C   UNL     1       4.209   1.492  13.597  1.00  0.00     0.037 A 
ATOM     49  C   UNL     1      10.550   0.143  12.897  1.00  0.00     0.049 A 
ATOM     50  C   UNL     1       5.277   1.034  14.553  1.00  0.00     0.074 A 
ATOM     51  C   UNL     1      11.456  -0.230  13.876  1.00  0.00     0.029 A 
ATOM     52  N   UNL     1       9.324   0.296  13.528  1.00  0.00    -0.354 N 
ATOM     53  N   UNL     1       6.546   0.795  14.320  1.00  0.00    -0.248 NA
ATOM     54  C   UNL     1       4.872   0.825  15.949  1.00  0.00     0.031 C 
ATOM     55  C   UNL     1      10.768  -0.346  15.089  1.00  0.00     0.029 A 
ATOM     56  C   UNL     1       9.445   0.007  14.878  1.00  0.00     0.049 A 
ATOM     57  H   UNL     1       8.490   0.571  13.082  1.00  0.00     0.167 HD
ATOM     58  C   UNL     1       7.096   0.434  15.546  1.00  0.00     0.074 A 
ATOM     59  C   UNL     1       6.025   0.503  16.519  1.00  0.00     0.031 C 
ATOM     60  C   UNL     1       8.372   0.080  15.838  1.00  0.00     0.037 A 
BRANCH  47  61
ATOM     61  C   UNL     1      12.165   0.071  10.952  1.00  0.00     0.058 A 
ATOM     62  C   UNL     1      13.002   1.110  10.513  1.00  0.00     0.135 A 
ATOM     63  C   UNL     1      12.674  -1.237  10.911  1.00  0.00     0.135 A 
ATOM     64  F   UNL     1      12.564   2.380  10.516  1.00  0.00    -0.206 F 
ATOM     65  C   UNL     1      14.281   0.860  10.024  1.00  0.00     0.059 A 
ATOM     66  C   UNL     1      13.961  -1.508  10.454  1.00  0.00     0.059 A 
ATOM     67  F   UNL     1      11.920  -2.269  11.320  1.00  0.00    -0.206 F 
ATOM     68  C   UNL     1      14.751  -0.454   9.998  1.00  0.00     0.060 A 
BRANCH  68  69
ATOM     69  S   UNL     1      16.413  -0.761   9.363  1.00  0.00     0.124 S 
ATOM     70  O   UNL     1      16.221  -0.548   7.931  1.00  0.00    -0.237 OA
ATOM     71  O   UNL     1      17.203   0.253  10.053  1.00  0.00    -0.237 OA
ATOM     72  O   UNL     1      16.681  -2.139   9.761  1.00  0.00    -0.744 OA
ENDBRANCH  68  69
ENDBRANCH  47  61
BRANCH  48  73
ATOM     73  C   UNL     1       2.813   1.713  14.062  1.00  0.00     0.058 A 
ATOM     74  C   UNL     1       2.499   2.773  14.926  1.00  0.00     0.135 A 
ATOM     75  C   UNL     1       1.766   0.877  13.646  1.00  0.00     0.135 A 
ATOM     76  F   UNL     1       3.467   3.596  15.357  1.00  0.00    -0.206 F 
ATOM     77  C   UNL     1       1.201   2.986  15.378  1.00  0.00     0.059 A 
ATOM     78  C   UNL     1       0.454   1.086  14.062  1.00  0.00     0.059 A 
ATOM     79  F   UNL     1       2.010  -0.140  12.806  1.00  0.00    -0.206 F 
ATOM     80  C   UNL     1       0.184   2.137  14.938  1.00  0.00     0.060 A 
BRANCH  80  81
ATOM     81  S   UNL     1      -1.506   2.449  15.494  1.00  0.00     0.124 S 
ATOM     82  O   UNL     1      -1.445   2.007  16.882  1.00  0.00    -0.237 OA
ATOM     83  O   UNL     1      -1.636   3.888  15.286  1.00  0.00    -0.237 OA
ATOM     84  O   UNL     1      -2.311   1.620  14.601  1.00  0.00    -0.744 OA
ENDBRANCH  80  81
ENDBRANCH  48  73
BRANCH  60  85
ATOM     85  C   UNL     1       8.688  -0.229  17.277  1.00  0.00     0.058 A 
ATOM     86  C   UNL     1       8.217  -1.392  17.907  1.00  0.00     0.135 A 
ATOM     87  C   UNL     1       9.494   0.641  18.030  1.00  0.00     0.135 A 
ATOM     88  F   UNL     1       7.440  -2.256  17.235  1.00  0.00    -0.206 F 
ATOM     89  C   UNL     1       8.502  -1.663  19.242  1.00  0.00     0.059 A 
ATOM     90  C   UNL     1       9.816   0.376  19.357  1.00  0.00     0.059 A 
ATOM     91  F   UNL     1       9.982   1.762  17.474  1.00  0.00    -0.206 F 
ATOM     92  C   UNL     1       9.300  -0.770  19.960  1.00  0.00     0.060 A 
BRANCH  92  93
ATOM     93  S   UNL     1       9.668  -1.135  21.689  1.00  0.00     0.124 S 
ATOM     94  O   UNL     1       8.397  -0.817  22.333  1.00  0.00    -0.237 OA
ATOM     95  O   UNL     1      10.018  -2.551  21.643  1.00  0.00    -0.237 OA
ATOM     96  O   UNL     1      10.772  -0.232  21.999  1.00  0.00    -0.744 OA
ENDBRANCH  92  93
ENDBRANCH  60  85
ENDBRANCH  34  35
ENDBRANCH  26  29
ENDBRANCH  24  25
ENDBRANCH   1  24
TORSDOF 16
