REMARK SMILES CC(C)(C)c1ccc(CSc2ccnc(C(=O)NCCCNC(=O)c3ccc(-c4c5nc(c(-c6c(F)cc(S(=O)(=O)[O-])cc6F)c6ccc([nH]6)c(-c6c(F)cc(S(=O)(=O)[O-])cc6F)c6nc(c(-c7c(F)cc(S(=O)(=O)[O-])cc7F)c7ccc4[nH]7)C=C6)C=C5)cc3)c2)cc1
REMARK SMILES IDX 19 1 18 2 16 3 17 4 15 6 11 7 12 8 91 9 13 10 14 11 10 12
REMARK SMILES IDX 9 13 8 14 5 15 6 16 93 17 7 18 92 19 2 20 1 21 3 22 4 23
REMARK SMILES IDX 20 24 21 25 22 26 23 27 24 29 25 30 26 31 90 32 27 33 89 34
REMARK SMILES IDX 28 35 29 36 30 37 83 38 31 39 88 40 82 41 84 42 32 43 87 44
REMARK SMILES IDX 81 45 80 46 33 48 67 49 46 50 66 51 47 52 50 53 65 54 85 55
REMARK SMILES IDX 48 56 49 57 64 59 86 60 51 61 34 62 35 63 44 64 36 65 37 66
REMARK SMILES IDX 43 67 45 68 38 69 39 70 40 71 41 72 42 73 68 74 69 75 78 76
REMARK SMILES IDX 70 77 71 78 77 79 79 80 72 81 73 82 74 83 75 84 76 85 52 86
REMARK SMILES IDX 53 87 62 88 54 89 55 90 61 91 63 92 56 93 57 94 58 95 59 96
REMARK SMILES IDX 60 97
REMARK H PARENT 18 5 22 28 84 47 50 58
REMARK Flexibility Score: inf
ROOT
ATOM      1  C   UNL     1      -2.366   1.623   3.639  1.00  0.00     0.118 C 
ENDROOT
BRANCH   1   2
ATOM      2  N   UNL     1      -3.647   2.302   3.571  1.00  0.00    -0.351 N 
ATOM      3  C   UNL     1      -4.009   3.629   3.650  1.00  0.00     0.269 C 
ATOM      4  O   UNL     1      -5.204   3.877   3.473  1.00  0.00    -0.268 OA
ATOM      5  H   UNL     1      -4.410   1.693   3.444  1.00  0.00     0.163 HD
BRANCH   3   6
ATOM      6  C   UNL     1      -3.040   4.756   3.903  1.00  0.00     0.129 A 
ATOM      7  C   UNL     1      -0.980   5.703   4.668  1.00  0.00     0.011 A 
ATOM      8  C   UNL     1      -1.409   6.951   4.234  1.00  0.00     0.035 A 
ATOM      9  C   UNL     1      -1.828   4.603   4.554  1.00  0.00     0.049 A 
ATOM     10  C   UNL     1      -2.660   7.035   3.656  1.00  0.00     0.113 A 
ATOM     11  N   UNL     1      -3.465   5.972   3.460  1.00  0.00    -0.251 NA
BRANCH   7  12
ATOM     12  S   UNL     1       0.639   5.472   5.376  1.00  0.00    -0.121 SA
BRANCH  12  13
ATOM     13  C   UNL     1       1.669   5.546   3.869  1.00  0.00     0.110 C 
BRANCH  13  14
ATOM     14  C   UNL     1       1.357   4.492   2.832  1.00  0.00    -0.038 A 
ATOM     15  C   UNL     1       0.828   2.524   0.830  1.00  0.00    -0.043 A 
ATOM     16  C   UNL     1       1.282   2.165   2.110  1.00  0.00     0.004 A 
ATOM     17  C   UNL     1       0.637   3.896   0.585  1.00  0.00     0.004 A 
ATOM     18  C   UNL     1       1.546   3.131   3.093  1.00  0.00     0.005 A 
ATOM     19  C   UNL     1       0.901   4.862   1.563  1.00  0.00     0.005 A 
BRANCH  15  20
ATOM     20  C   UNL     1       0.501   1.484  -0.258  1.00  0.00    -0.013 C 
ATOM     21  C   UNL     1       1.036   0.068   0.056  1.00  0.00     0.016 C 
ATOM     22  C   UNL     1       1.105   1.889  -1.623  1.00  0.00     0.016 C 
ATOM     23  C   UNL     1      -1.031   1.389  -0.400  1.00  0.00     0.016 C 
ENDBRANCH  15  20
ENDBRANCH  13  14
ENDBRANCH  12  13
ENDBRANCH   7  12
ENDBRANCH   3   6
ENDBRANCH   1   2
BRANCH   1  24
ATOM     24  C   UNL     1      -2.129   1.010   5.021  1.00  0.00     0.042 C 
BRANCH  24  25
ATOM     25  C   UNL     1      -2.924  -0.274   5.264  1.00  0.00     0.118 C 
BRANCH  25  26
ATOM     26  N   UNL     1      -2.454  -1.364   4.423  1.00  0.00    -0.352 N 
ATOM     27  C   UNL     1      -1.958  -2.598   4.754  1.00  0.00     0.251 C 
ATOM     28  H   UNL     1      -2.500  -1.186   3.456  1.00  0.00     0.163 HD
ATOM     29  O   UNL     1      -1.380  -3.249   3.886  1.00  0.00    -0.269 OA
BRANCH  27  30
ATOM     30  C   UNL     1      -2.106  -3.158   6.119  1.00  0.00     0.039 A 
ATOM     31  C   UNL     1      -1.080  -3.967   6.619  1.00  0.00     0.014 A 
ATOM     32  C   UNL     1      -3.272  -2.980   6.869  1.00  0.00     0.014 A 
ATOM     33  C   UNL     1      -1.211  -4.574   7.870  1.00  0.00     0.010 A 
ATOM     34  C   UNL     1      -3.376  -3.534   8.147  1.00  0.00     0.010 A 
ATOM     35  C   UNL     1      -2.355  -4.352   8.653  1.00  0.00    -0.014 A 
BRANCH  35  36
ATOM     36  C   UNL     1      -2.497  -4.993   9.988  1.00  0.00     0.031 A 
ATOM     37  C   UNL     1      -3.570  -6.023  10.230  1.00  0.00     0.074 A 
ATOM     38  C   UNL     1      -1.679  -4.622  10.992  1.00  0.00     0.049 A 
ATOM     39  N   UNL     1      -3.856  -6.674  11.329  1.00  0.00    -0.248 NA
ATOM     40  C   UNL     1      -4.453  -6.345   9.098  1.00  0.00     0.031 C 
ATOM     41  C   UNL     1      -0.639  -3.595  10.899  1.00  0.00     0.029 A 
ATOM     42  N   UNL     1      -1.597  -5.060  12.290  1.00  0.00    -0.354 N 
ATOM     43  C   UNL     1      -4.958  -7.466  11.027  1.00  0.00     0.074 A 
ATOM     44  C   UNL     1      -5.317  -7.181   9.655  1.00  0.00     0.031 C 
ATOM     45  C   UNL     1      -0.011  -3.496  12.082  1.00  0.00     0.029 A 
ATOM     46  C   UNL     1      -0.617  -4.433  13.023  1.00  0.00     0.049 A 
ATOM     47  H   UNL     1      -2.184  -5.757  12.661  1.00  0.00     0.167 HD
ATOM     48  C   UNL     1      -5.599  -8.365  11.813  1.00  0.00     0.037 A 
ATOM     49  C   UNL     1      -0.247  -4.594  14.309  1.00  0.00     0.037 A 
ATOM     50  C   UNL     1      -5.214  -8.673  13.166  1.00  0.00     0.049 A 
ATOM     51  C   UNL     1      -0.947  -5.628  15.148  1.00  0.00     0.074 A 
ATOM     52  C   UNL     1      -5.753  -9.619  14.021  1.00  0.00     0.029 A 
ATOM     53  N   UNL     1      -4.193  -8.043  13.862  1.00  0.00    -0.354 N 
ATOM     54  N   UNL     1      -1.941  -6.419  14.822  1.00  0.00    -0.248 NA
ATOM     55  C   UNL     1      -0.466  -5.800  16.526  1.00  0.00     0.031 C 
ATOM     56  C   UNL     1      -5.079  -9.538  15.246  1.00  0.00     0.029 A 
ATOM     57  C   UNL     1      -4.094  -8.569  15.140  1.00  0.00     0.049 A 
ATOM     58  H   UNL     1      -3.621  -7.328  13.500  1.00  0.00     0.167 HD
ATOM     59  C   UNL     1      -2.192  -7.196  15.947  1.00  0.00     0.074 A 
ATOM     60  C   UNL     1      -1.232  -6.793  16.955  1.00  0.00     0.031 C 
ATOM     61  C   UNL     1      -3.134  -8.155  16.131  1.00  0.00     0.037 A 
BRANCH  48  62
ATOM     62  C   UNL     1      -6.781  -9.089  11.227  1.00  0.00     0.058 A 
ATOM     63  C   UNL     1      -6.626 -10.073  10.237  1.00  0.00     0.135 A 
ATOM     64  C   UNL     1      -8.082  -8.826  11.688  1.00  0.00     0.135 A 
ATOM     65  F   UNL     1      -5.407 -10.355   9.750  1.00  0.00    -0.206 F 
ATOM     66  C   UNL     1      -7.719 -10.748   9.704  1.00  0.00     0.059 A 
ATOM     67  C   UNL     1      -9.187  -9.508  11.187  1.00  0.00     0.059 A 
ATOM     68  F   UNL     1      -8.288  -7.896  12.634  1.00  0.00    -0.206 F 
ATOM     69  C   UNL     1      -8.997 -10.458  10.184  1.00  0.00     0.060 A 
BRANCH  69  70
ATOM     70  S   UNL     1     -10.404 -11.349   9.488  1.00  0.00     0.124 S 
ATOM     71  O   UNL     1     -10.538 -10.707   8.184  1.00  0.00    -0.237 OA
ATOM     72  O   UNL     1      -9.925 -12.727   9.470  1.00  0.00    -0.237 OA
ATOM     73  O   UNL     1     -11.482 -11.076  10.435  1.00  0.00    -0.744 OA
ENDBRANCH  69  70
ENDBRANCH  48  62
BRANCH  49  74
ATOM     74  C   UNL     1       0.859  -3.775  14.870  1.00  0.00     0.058 A 
ATOM     75  C   UNL     1       2.108  -4.347  15.154  1.00  0.00     0.135 A 
ATOM     76  C   UNL     1       0.694  -2.405  15.120  1.00  0.00     0.135 A 
ATOM     77  F   UNL     1       2.312  -5.655  14.935  1.00  0.00    -0.206 F 
ATOM     78  C   UNL     1       3.151  -3.593  15.683  1.00  0.00     0.059 A 
ATOM     79  C   UNL     1       1.729  -1.625  15.627  1.00  0.00     0.059 A 
ATOM     80  F   UNL     1      -0.476  -1.807  14.848  1.00  0.00    -0.206 F 
ATOM     81  C   UNL     1       2.951  -2.231  15.915  1.00  0.00     0.060 A 
BRANCH  81  82
ATOM     82  S   UNL     1       4.326  -1.250  16.555  1.00  0.00     0.124 S 
ATOM     83  O   UNL     1       4.346  -1.651  17.956  1.00  0.00    -0.237 OA
ATOM     84  O   UNL     1       5.444  -1.716  15.740  1.00  0.00    -0.237 OA
ATOM     85  O   UNL     1       3.904   0.124  16.295  1.00  0.00    -0.744 OA
ENDBRANCH  81  82
ENDBRANCH  49  74
BRANCH  61  86
ATOM     86  C   UNL     1      -3.155  -8.846  17.466  1.00  0.00     0.058 A 
ATOM     87  C   UNL     1      -3.624  -8.201  18.620  1.00  0.00     0.135 A 
ATOM     88  C   UNL     1      -2.724 -10.177  17.586  1.00  0.00     0.135 A 
ATOM     89  F   UNL     1      -4.043  -6.927  18.560  1.00  0.00    -0.206 F 
ATOM     90  C   UNL     1      -3.634  -8.840  19.856  1.00  0.00     0.059 A 
ATOM     91  C   UNL     1      -2.749 -10.844  18.806  1.00  0.00     0.059 A 
ATOM     92  F   UNL     1      -2.277 -10.843  16.509  1.00  0.00    -0.206 F 
ATOM     93  C   UNL     1      -3.190 -10.161  19.939  1.00  0.00     0.060 A 
BRANCH  93  94
ATOM     94  S   UNL     1      -3.215 -10.986  21.545  1.00  0.00     0.124 S 
ATOM     95  O   UNL     1      -2.044 -10.402  22.192  1.00  0.00    -0.237 OA
ATOM     96  O   UNL     1      -4.507 -10.580  22.088  1.00  0.00    -0.237 OA
ATOM     97  O   UNL     1      -3.104 -12.400  21.201  1.00  0.00    -0.744 OA
ENDBRANCH  93  94
ENDBRANCH  61  86
ENDBRANCH  35  36
ENDBRANCH  27  30
ENDBRANCH  25  26
ENDBRANCH  24  25
ENDBRANCH   1  24
TORSDOF 17
