REMARK SMILES COc1cc(OC)c(-c2cc(C(=O)NCCCNC(=O)c3ccc(-c4c5nc(c(-c6c(F)cc(S(=O)(=O)[O-])cc6F)c6ccc([nH]6)c(-c6c(F)cc(S(=O)(=O)[O-])cc6F)c6nc(c(-c7c(F)cc(S(=O)(=O)[O-])cc7F)c7ccc4[nH]7)C=C6)C=C5)cc3)c3c(-c4ccc(Cl)cc4)[nH]nc3n2)cc1OC
REMARK SMILES IDX 16 1 15 2 14 3 12 4 13 5 11 7 9 8 10 9 99 10 98 11 87 12
REMARK SMILES IDX 97 13 88 14 96 15 8 17 3 18 4 19 101 20 5 21 100 22 2 23
REMARK SMILES IDX 1 24 102 25 103 26 6 27 7 28 89 29 90 30 95 31 91 32 94 33
REMARK SMILES IDX 92 34 93 35 17 36 18 37 19 38 20 40 21 41 22 42 86 43 23 44
REMARK SMILES IDX 85 45 24 46 25 47 26 48 79 49 27 50 84 51 78 52 80 53 28 54
REMARK SMILES IDX 83 55 77 56 76 57 29 59 63 60 42 61 62 62 43 63 46 64 61 65
REMARK SMILES IDX 81 66 44 67 45 68 60 70 82 71 47 72 30 73 31 74 40 75 32 76
REMARK SMILES IDX 33 77 39 78 41 79 34 80 35 81 36 82 37 83 38 84 64 85 65 86
REMARK SMILES IDX 74 87 66 88 67 89 73 90 75 91 68 92 69 93 70 94 71 95 72 96
REMARK SMILES IDX 48 97 49 98 58 99 50 100 51 101 57 102 59 103 52 104 53 105
REMARK SMILES IDX 54 106 55 107 56 108
REMARK H PARENT 14 6 96 16 18 39 80 58 46 69
REMARK Flexibility Score: inf
ROOT
ATOM      1  C   UNL     1       4.123  -2.852  -6.713  1.00  0.00     0.042 C 
ENDROOT
BRANCH   1   2
ATOM      2  C   UNL     1       5.161  -1.722  -6.745  1.00  0.00     0.118 C 
BRANCH   2   3
ATOM      3  N   UNL     1       5.312  -1.125  -8.063  1.00  0.00    -0.352 N 
ATOM      4  C   UNL     1       4.795  -0.014  -8.687  1.00  0.00     0.252 C 
ATOM      5  O   UNL     1       5.412   0.336  -9.686  1.00  0.00    -0.269 OA
ATOM      6  H   UNL     1       5.925  -1.634  -8.642  1.00  0.00     0.163 HD
BRANCH   4   7
ATOM      7  C   UNL     1       3.636   0.766  -8.191  1.00  0.00     0.055 A 
ATOM      8  C   UNL     1       1.982   1.246  -6.390  1.00  0.00     0.077 A 
ATOM      9  C   UNL     1       2.921   0.414  -7.044  1.00  0.00     0.043 A 
ATOM     10  N   UNL     1       1.551   2.447  -6.839  1.00  0.00    -0.226 NA
ATOM     11  C   UNL     1       2.095   2.775  -8.042  1.00  0.00     0.182 A 
ATOM     12  C   UNL     1       3.101   1.967  -8.703  1.00  0.00     0.059 A 
ATOM     13  N   UNL     1       1.785   3.862  -8.745  1.00  0.00    -0.154 NA
ATOM     14  C   UNL     1       3.346   2.636  -9.894  1.00  0.00     0.075 A 
ATOM     15  N   UNL     1       2.530   3.743  -9.852  1.00  0.00    -0.275 N 
ATOM     16  H   UNL     1       2.496   4.401 -10.584  1.00  0.00     0.190 HD
BRANCH   8  17
ATOM     17  C   UNL     1       1.529   0.797  -5.063  1.00  0.00     0.046 A 
ATOM     18  C   UNL     1       1.025  -0.268  -2.484  1.00  0.00     0.164 A 
ATOM     19  C   UNL     1       0.018  -0.220  -3.462  1.00  0.00     0.097 A 
ATOM     20  C   UNL     1       2.301   0.201  -2.781  1.00  0.00     0.161 A 
ATOM     21  C   UNL     1       0.265   0.277  -4.757  1.00  0.00     0.132 A 
ATOM     22  C   UNL     1       2.517   0.756  -4.047  1.00  0.00     0.064 A 
BRANCH  18  23
ATOM     23  O   UNL     1       0.730  -0.906  -1.310  1.00  0.00    -0.493 OA
ATOM     24  C   UNL     1       0.164  -0.014  -0.351  1.00  0.00     0.278 C 
ENDBRANCH  18  23
BRANCH  20  25
ATOM     25  O   UNL     1       3.443   0.165  -2.034  1.00  0.00    -0.493 OA
ATOM     26  C   UNL     1       3.388  -0.259  -0.683  1.00  0.00     0.278 C 
ENDBRANCH  20  25
BRANCH  21  27
ATOM     27  O   UNL     1      -0.820   0.181  -5.590  1.00  0.00    -0.496 OA
ATOM     28  C   UNL     1      -0.569  -0.188  -6.943  1.00  0.00     0.278 C 
ENDBRANCH  21  27
ENDBRANCH   8  17
BRANCH  14  29
ATOM     29  C   UNL     1       4.173   2.394 -11.071  1.00  0.00     0.000 A 
ATOM     30  C   UNL     1       5.250   3.246 -11.352  1.00  0.00     0.012 A 
ATOM     31  C   UNL     1       3.928   1.299 -11.912  1.00  0.00     0.012 A 
ATOM     32  C   UNL     1       6.111   2.966 -12.416  1.00  0.00     0.021 A 
ATOM     33  C   UNL     1       4.798   1.012 -12.969  1.00  0.00     0.021 A 
ATOM     34  C   UNL     1       5.895   1.838 -13.205  1.00  0.00     0.041 A 
ATOM     35  Cl  UNL     1       7.011   1.453 -14.455  1.00  0.00    -0.084 Cl
ENDBRANCH  14  29
ENDBRANCH   4   7
ENDBRANCH   2   3
ENDBRANCH   1   2
BRANCH   1  36
ATOM     36  C   UNL     1       4.721  -4.185  -7.129  1.00  0.00     0.118 C 
BRANCH  36  37
ATOM     37  N   UNL     1       5.730  -4.650  -6.171  1.00  0.00    -0.352 N 
ATOM     38  C   UNL     1       6.643  -5.684  -6.289  1.00  0.00     0.251 C 
ATOM     39  H   UNL     1       5.763  -4.155  -5.321  1.00  0.00     0.163 HD
ATOM     40  O   UNL     1       7.199  -6.137  -5.307  1.00  0.00    -0.269 OA
BRANCH  38  41
ATOM     41  C   UNL     1       6.910  -6.225  -7.631  1.00  0.00     0.039 A 
ATOM     42  C   UNL     1       6.998  -7.602  -7.856  1.00  0.00     0.014 A 
ATOM     43  C   UNL     1       6.995  -5.320  -8.681  1.00  0.00     0.014 A 
ATOM     44  C   UNL     1       7.078  -8.059  -9.169  1.00  0.00     0.010 A 
ATOM     45  C   UNL     1       6.865  -5.774  -9.963  1.00  0.00     0.010 A 
ATOM     46  C   UNL     1       6.985  -7.135 -10.220  1.00  0.00    -0.014 A 
BRANCH  46  47
ATOM     47  C   UNL     1       6.934  -7.570 -11.609  1.00  0.00     0.031 A 
ATOM     48  C   UNL     1       5.864  -8.554 -11.929  1.00  0.00     0.074 A 
ATOM     49  C   UNL     1       7.637  -6.941 -12.576  1.00  0.00     0.049 A 
ATOM     50  N   UNL     1       6.005  -9.793 -12.263  1.00  0.00    -0.248 NA
ATOM     51  C   UNL     1       4.462  -8.158 -11.713  1.00  0.00     0.031 C 
ATOM     52  C   UNL     1       8.480  -5.743 -12.473  1.00  0.00     0.029 A 
ATOM     53  N   UNL     1       7.631  -7.177 -13.912  1.00  0.00    -0.354 N 
ATOM     54  C   UNL     1       4.724 -10.270 -12.531  1.00  0.00     0.074 A 
ATOM     55  C   UNL     1       3.817  -9.297 -11.981  1.00  0.00     0.031 C 
ATOM     56  C   UNL     1       8.672  -5.218 -13.702  1.00  0.00     0.029 A 
ATOM     57  C   UNL     1       8.129  -6.135 -14.684  1.00  0.00     0.049 A 
ATOM     58  H   UNL     1       7.302  -8.019 -14.302  1.00  0.00     0.167 HD
ATOM     59  C   UNL     1       4.516 -11.308 -13.392  1.00  0.00     0.037 A 
ATOM     60  C   UNL     1       8.043  -6.024 -16.032  1.00  0.00     0.037 A 
ATOM     61  C   UNL     1       5.751 -11.995 -13.684  1.00  0.00     0.049 A 
ATOM     62  C   UNL     1       7.808  -7.403 -16.553  1.00  0.00     0.074 A 
ATOM     63  C   UNL     1       6.713 -12.618 -12.910  1.00  0.00     0.029 A 
ATOM     64  N   UNL     1       6.356 -11.747 -14.895  1.00  0.00    -0.354 N 
ATOM     65  N   UNL     1       8.683  -8.372 -16.449  1.00  0.00    -0.248 NA
ATOM     66  C   UNL     1       6.428  -7.835 -16.724  1.00  0.00     0.031 C 
ATOM     67  C   UNL     1       7.955 -12.225 -13.490  1.00  0.00     0.029 A 
ATOM     68  C   UNL     1       7.675 -11.469 -14.630  1.00  0.00     0.049 A 
ATOM     69  H   UNL     1       5.927 -11.765 -15.781  1.00  0.00     0.167 HD
ATOM     70  C   UNL     1       7.939  -9.498 -16.119  1.00  0.00     0.074 A 
ATOM     71  C   UNL     1       6.549  -9.120 -16.377  1.00  0.00     0.031 C 
ATOM     72  C   UNL     1       8.471 -10.526 -15.389  1.00  0.00     0.037 A 
BRANCH  59  73
ATOM     73  C   UNL     1       3.283 -11.491 -14.248  1.00  0.00     0.058 A 
ATOM     74  C   UNL     1       3.113 -12.695 -14.964  1.00  0.00     0.135 A 
ATOM     75  C   UNL     1       2.411 -10.442 -14.611  1.00  0.00     0.135 A 
ATOM     76  F   UNL     1       3.887 -13.761 -14.706  1.00  0.00    -0.206 F 
ATOM     77  C   UNL     1       2.204 -12.819 -16.016  1.00  0.00     0.059 A 
ATOM     78  C   UNL     1       1.459 -10.562 -15.617  1.00  0.00     0.059 A 
ATOM     79  F   UNL     1       2.504  -9.217 -14.081  1.00  0.00    -0.206 F 
ATOM     80  C   UNL     1       1.394 -11.737 -16.346  1.00  0.00     0.060 A 
BRANCH  80  81
ATOM     81  S   UNL     1       0.304 -11.850 -17.775  1.00  0.00     0.124 S 
ATOM     82  O   UNL     1       1.265 -11.858 -18.872  1.00  0.00    -0.237 OA
ATOM     83  O   UNL     1      -0.393 -13.107 -17.526  1.00  0.00    -0.237 OA
ATOM     84  O   UNL     1      -0.520 -10.650 -17.664  1.00  0.00    -0.744 OA
ENDBRANCH  80  81
ENDBRANCH  59  73
BRANCH  60  85
ATOM     85  C   UNL     1       7.790  -4.781 -16.813  1.00  0.00     0.058 A 
ATOM     86  C   UNL     1       7.906  -4.761 -18.213  1.00  0.00     0.135 A 
ATOM     87  C   UNL     1       7.181  -3.646 -16.231  1.00  0.00     0.135 A 
ATOM     88  F   UNL     1       8.453  -5.803 -18.858  1.00  0.00    -0.206 F 
ATOM     89  C   UNL     1       7.404  -3.709 -18.992  1.00  0.00     0.059 A 
ATOM     90  C   UNL     1       6.690  -2.580 -16.983  1.00  0.00     0.059 A 
ATOM     91  F   UNL     1       6.954  -3.578 -14.911  1.00  0.00    -0.206 F 
ATOM     92  C   UNL     1       6.778  -2.631 -18.367  1.00  0.00     0.060 A 
BRANCH  92  93
ATOM     93  S   UNL     1       5.956  -1.368 -19.369  1.00  0.00     0.124 S 
ATOM     94  O   UNL     1       7.088  -0.665 -19.962  1.00  0.00    -0.237 OA
ATOM     95  O   UNL     1       5.156  -2.174 -20.285  1.00  0.00    -0.237 OA
ATOM     96  O   UNL     1       5.187  -0.604 -18.389  1.00  0.00    -0.744 OA
ENDBRANCH  92  93
ENDBRANCH  60  85
BRANCH  72  97
ATOM     97  C   UNL     1       9.960 -10.562 -15.139  1.00  0.00     0.058 A 
ATOM     98  C   UNL     1      10.674  -9.582 -14.426  1.00  0.00     0.135 A 
ATOM     99  C   UNL     1      10.657 -11.737 -15.466  1.00  0.00     0.135 A 
ATOM    100  F   UNL     1      10.066  -8.478 -13.974  1.00  0.00    -0.206 F 
ATOM    101  C   UNL     1      12.020  -9.743 -14.088  1.00  0.00     0.059 A 
ATOM    102  C   UNL     1      11.989 -11.935 -15.111  1.00  0.00     0.059 A 
ATOM    103  F   UNL     1      10.021 -12.743 -16.089  1.00  0.00    -0.206 F 
ATOM    104  C   UNL     1      12.669 -10.928 -14.431  1.00  0.00     0.060 A 
BRANCH 104 105
ATOM    105  S   UNL     1      14.385 -11.171 -13.923  1.00  0.00     0.124 S 
ATOM    106  O   UNL     1      15.097 -10.238 -14.790  1.00  0.00    -0.237 OA
ATOM    107  O   UNL     1      14.350 -10.818 -12.506  1.00  0.00    -0.237 OA
ATOM    108  O   UNL     1      14.626 -12.585 -14.197  1.00  0.00    -0.744 OA
ENDBRANCH 104 105
ENDBRANCH  72  97
ENDBRANCH  46  47
ENDBRANCH  38  41
ENDBRANCH  36  37
ENDBRANCH   1  36
TORSDOF 18
