REMARK SMILES CCCn1ncc(C(=O)N2CCC(C(=O)NCCCNC(=O)c3ccc(-c4c5nc(c(-c6c(F)cc(S(=O)(=O)[O-])cc6F)c6ccc([nH]6)c(-c6c(F)cc(S(=O)(=O)[O-])cc6F)c6nc(c(-c7c(F)cc(S(=O)(=O)[O-])cc7F)c7ccc4[nH]7)C=C6)C=C5)cc3)CC2)c1C
REMARK SMILES IDX 18 1 17 2 16 3 14 4 15 5 13 7 8 8 9 9 10 10 11 11 90 12
REMARK SMILES IDX 12 13 89 14 7 15 4 16 5 17 91 18 6 19 92 20 3 21 2 22 1 23
REMARK SMILES IDX 19 24 20 25 21 26 22 28 23 29 24 30 88 31 25 32 87 33 26 34
REMARK SMILES IDX 27 35 28 36 81 37 29 38 86 39 80 40 82 41 30 42 85 43 79 44
REMARK SMILES IDX 78 45 31 47 65 48 44 49 64 50 45 51 48 52 63 53 83 54 46 55
REMARK SMILES IDX 47 56 62 58 84 59 49 60 32 61 33 62 42 63 34 64 35 65 41 66
REMARK SMILES IDX 43 67 36 68 37 69 38 70 39 71 40 72 66 73 67 74 76 75 68 76
REMARK SMILES IDX 69 77 75 78 77 79 70 80 71 81 72 82 73 83 74 84 50 85 51 86
REMARK SMILES IDX 60 87 52 88 53 89 59 90 61 91 54 92 55 93 56 94 57 95 58 96
REMARK H PARENT 16 6 20 27 82 46 48 57
REMARK Flexibility Score: inf
ROOT
ATOM      1  C   UNL     1      -3.374   5.274  -8.338  1.00  0.00     0.042 C 
ENDROOT
BRANCH   1   2
ATOM      2  C   UNL     1      -3.983   3.910  -8.012  1.00  0.00     0.117 C 
BRANCH   2   3
ATOM      3  N   UNL     1      -4.207   3.057  -9.175  1.00  0.00    -0.356 N 
ATOM      4  C   UNL     1      -3.635   1.873  -9.539  1.00  0.00     0.223 C 
ATOM      5  O   UNL     1      -4.093   1.277 -10.515  1.00  0.00    -0.275 OA
ATOM      6  H   UNL     1      -4.887   3.393  -9.803  1.00  0.00     0.163 HD
BRANCH   4   7
ATOM      7  C   UNL     1      -2.463   1.284  -8.765  1.00  0.00     0.082 C 
ATOM      8  C   UNL     1      -0.600   2.734  -5.495  1.00  0.00     0.257 C 
ATOM      9  O   UNL     1      -0.566   3.936  -5.754  1.00  0.00    -0.269 OA
ATOM     10  N   UNL     1      -0.820   1.781  -6.480  1.00  0.00    -0.338 N 
ATOM     11  C   UNL     1      -0.216   1.960  -7.784  1.00  0.00     0.120 C 
ATOM     12  C   UNL     1      -1.765   0.682  -6.362  1.00  0.00     0.120 C 
ATOM     13  C   UNL     1      -1.261   2.235  -8.838  1.00  0.00     0.035 C 
ATOM     14  C   UNL     1      -2.906   0.820  -7.365  1.00  0.00     0.035 C 
BRANCH   8  15
ATOM     15  C   UNL     1      -0.251   2.217  -4.175  1.00  0.00     0.080 A 
ATOM     16  N   UNL     1       0.392   2.028  -2.066  1.00  0.00    -0.269 N 
ATOM     17  N   UNL     1       0.495   0.783  -2.562  1.00  0.00    -0.180 NA
ATOM     18  C   UNL     1      -0.045   2.942  -3.002  1.00  0.00     0.048 A 
ATOM     19  C   UNL     1       0.114   0.901  -3.828  1.00  0.00     0.149 A 
ATOM     20  C   UNL     1      -0.183   4.407  -2.773  1.00  0.00     0.067 C 
BRANCH  16  21
ATOM     21  C   UNL     1       0.882   2.259  -0.718  1.00  0.00     0.144 C 
BRANCH  21  22
ATOM     22  C   UNL     1       0.360   1.290   0.352  1.00  0.00     0.020 C 
ATOM     23  C   UNL     1       0.960  -0.110   0.287  1.00  0.00     0.006 C 
ENDBRANCH  21  22
ENDBRANCH  16  21
ENDBRANCH   8  15
ENDBRANCH   4   7
ENDBRANCH   2   3
ENDBRANCH   1   2
BRANCH   1  24
ATOM     24  C   UNL     1      -4.356   6.219  -8.996  1.00  0.00     0.118 C 
BRANCH  24  25
ATOM     25  N   UNL     1      -5.434   6.644  -8.101  1.00  0.00    -0.352 N 
ATOM     26  C   UNL     1      -6.499   7.481  -8.405  1.00  0.00     0.251 C 
ATOM     27  H   UNL     1      -5.400   6.298  -7.181  1.00  0.00     0.163 HD
ATOM     28  O   UNL     1      -7.154   8.017  -7.536  1.00  0.00    -0.269 OA
BRANCH  26  29
ATOM     29  C   UNL     1      -6.792   7.702  -9.834  1.00  0.00     0.039 A 
ATOM     30  C   UNL     1      -6.946   8.987 -10.357  1.00  0.00     0.014 A 
ATOM     31  C   UNL     1      -6.775   6.585 -10.661  1.00  0.00     0.014 A 
ATOM     32  C   UNL     1      -6.983   9.145 -11.741  1.00  0.00     0.010 A 
ATOM     33  C   UNL     1      -6.621   6.762 -12.010  1.00  0.00     0.010 A 
ATOM     34  C   UNL     1      -6.791   8.028 -12.566  1.00  0.00    -0.014 A 
BRANCH  34  35
ATOM     35  C   UNL     1      -6.692   8.166 -14.017  1.00  0.00     0.031 A 
ATOM     36  C   UNL     1      -5.671   9.132 -14.521  1.00  0.00     0.074 A 
ATOM     37  C   UNL     1      -7.295   7.297 -14.858  1.00  0.00     0.049 A 
ATOM     38  N   UNL     1      -5.865  10.219 -15.193  1.00  0.00    -0.248 NA
ATOM     39  C   UNL     1      -4.263   8.918 -14.146  1.00  0.00     0.031 C 
ATOM     40  C   UNL     1      -8.055   6.082 -14.532  1.00  0.00     0.029 A 
ATOM     41  N   UNL     1      -7.226   7.241 -16.212  1.00  0.00    -0.354 N 
ATOM     42  C   UNL     1      -4.601  10.713 -15.516  1.00  0.00     0.074 A 
ATOM     43  C   UNL     1      -3.670   9.979 -14.699  1.00  0.00     0.031 C 
ATOM     44  C   UNL     1      -8.121   5.287 -15.620  1.00  0.00     0.029 A 
ATOM     45  C   UNL     1      -7.587   6.015 -16.753  1.00  0.00     0.049 A 
ATOM     46  H   UNL     1      -6.944   8.005 -16.764  1.00  0.00     0.167 HD
ATOM     47  C   UNL     1      -4.401  11.534 -16.588  1.00  0.00     0.037 A 
ATOM     48  C   UNL     1      -7.410   5.611 -18.035  1.00  0.00     0.037 A 
ATOM     49  C   UNL     1      -5.649  12.066 -17.078  1.00  0.00     0.049 A 
ATOM     50  C   UNL     1      -7.254   6.845 -18.853  1.00  0.00     0.074 A 
ATOM     51  C   UNL     1      -6.679  12.794 -16.511  1.00  0.00     0.029 A 
ATOM     52  N   UNL     1      -6.172  11.534 -18.234  1.00  0.00    -0.354 N 
ATOM     53  N   UNL     1      -8.199   7.735 -19.012  1.00  0.00    -0.248 NA
ATOM     54  C   UNL     1      -5.902   7.328 -19.095  1.00  0.00     0.031 C 
ATOM     55  C   UNL     1      -7.868  12.221 -17.052  1.00  0.00     0.029 A 
ATOM     56  C   UNL     1      -7.487  11.240 -17.970  1.00  0.00     0.049 A 
ATOM     57  H   UNL     1      -5.696  11.392 -19.084  1.00  0.00     0.167 HD
ATOM     58  C   UNL     1      -7.551   8.962 -18.953  1.00  0.00     0.074 A 
ATOM     59  C   UNL     1      -6.130   8.644 -19.090  1.00  0.00     0.031 C 
ATOM     60  C   UNL     1      -8.184  10.092 -18.511  1.00  0.00     0.037 A 
BRANCH  47  61
ATOM     61  C   UNL     1      -3.134  11.596 -17.414  1.00  0.00     0.058 A 
ATOM     62  C   UNL     1      -2.990  12.606 -18.391  1.00  0.00     0.135 A 
ATOM     63  C   UNL     1      -2.189  10.549 -17.485  1.00  0.00     0.135 A 
ATOM     64  F   UNL     1      -3.832  13.651 -18.424  1.00  0.00    -0.206 F 
ATOM     65  C   UNL     1      -2.038  12.535 -19.410  1.00  0.00     0.059 A 
ATOM     66  C   UNL     1      -1.196  10.488 -18.458  1.00  0.00     0.059 A 
ATOM     67  F   UNL     1      -2.244   9.482 -16.680  1.00  0.00    -0.206 F 
ATOM     68  C   UNL     1      -1.158  11.458 -19.445  1.00  0.00     0.060 A 
BRANCH  68  69
ATOM     69  S   UNL     1      -0.013  11.293 -20.826  1.00  0.00     0.124 S 
ATOM     70  O   UNL     1      -0.922  10.958 -21.916  1.00  0.00    -0.237 OA
ATOM     71  O   UNL     1       0.590  12.621 -20.882  1.00  0.00    -0.237 OA
ATOM     72  O   UNL     1       0.881  10.223 -20.394  1.00  0.00    -0.744 OA
ENDBRANCH  68  69
ENDBRANCH  47  61
BRANCH  48  73
ATOM     73  C   UNL     1      -7.011   4.251 -18.488  1.00  0.00     0.058 A 
ATOM     74  C   UNL     1      -7.081   3.882 -19.841  1.00  0.00     0.135 A 
ATOM     75  C   UNL     1      -6.314   3.361 -17.641  1.00  0.00     0.135 A 
ATOM     76  F   UNL     1      -7.702   4.679 -20.724  1.00  0.00    -0.206 F 
ATOM     77  C   UNL     1      -6.465   2.724 -20.333  1.00  0.00     0.059 A 
ATOM     78  C   UNL     1      -5.706   2.195 -18.103  1.00  0.00     0.059 A 
ATOM     79  F   UNL     1      -6.124   3.642 -16.343  1.00  0.00    -0.206 F 
ATOM     80  C   UNL     1      -5.764   1.895 -19.457  1.00  0.00     0.060 A 
BRANCH  80  81
ATOM     81  S   UNL     1      -4.828   0.492 -20.111  1.00  0.00     0.124 S 
ATOM     82  O   UNL     1      -5.892  -0.409 -20.540  1.00  0.00    -0.237 OA
ATOM     83  O   UNL     1      -4.049   1.112 -21.177  1.00  0.00    -0.237 OA
ATOM     84  O   UNL     1      -4.050   0.035 -18.961  1.00  0.00    -0.744 OA
ENDBRANCH  80  81
ENDBRANCH  48  73
BRANCH  60  85
ATOM     85  C   UNL     1      -9.683  10.076 -18.326  1.00  0.00     0.058 A 
ATOM     86  C   UNL     1     -10.365   9.250 -17.416  1.00  0.00     0.135 A 
ATOM     87  C   UNL     1     -10.437  11.079 -18.957  1.00  0.00     0.135 A 
ATOM     88  F   UNL     1      -9.710   8.339 -16.685  1.00  0.00    -0.206 F 
ATOM     89  C   UNL     1     -11.733   9.389 -17.170  1.00  0.00     0.059 A 
ATOM     90  C   UNL     1     -11.796  11.257 -18.705  1.00  0.00     0.059 A 
ATOM     91  F   UNL     1      -9.838  11.947 -19.790  1.00  0.00    -0.206 F 
ATOM     92  C   UNL     1     -12.441  10.400 -17.817  1.00  0.00     0.060 A 
BRANCH  92  93
ATOM     93  S   UNL     1     -14.190  10.633 -17.432  1.00  0.00     0.124 S 
ATOM     94  O   UNL     1     -14.801   9.469 -18.064  1.00  0.00    -0.237 OA
ATOM     95  O   UNL     1     -14.197  10.639 -15.972  1.00  0.00    -0.237 OA
ATOM     96  O   UNL     1     -14.508  11.917 -18.052  1.00  0.00    -0.744 OA
ENDBRANCH  92  93
ENDBRANCH  60  85
ENDBRANCH  34  35
ENDBRANCH  26  29
ENDBRANCH  24  25
ENDBRANCH   1  24
TORSDOF 16
