REMARK SMILES Cc1ccc([C@H]2NC(=O)N(C)C3=C2C(=O)N(c2cccc(C(=O)NCCCNC(=O)c4ccc(-c5c6nc(c(-c7c(F)cc(S(=O)(=O)[O-])cc7F)c7ccc([nH]7)c(-c7c(F)cc(S(=O)(=O)[O-])cc7F)c7nc(c(-c8c(F)cc(S(=O)(=O)[O-])cc8F)c8ccc5[nH]8)C=C7)C=C6)cc4)c2)C3)cc1
REMARK SMILES IDX 26 1 25 2 24 3 22 4 23 5 21 7 17 8 18 9 97 10 19 11 20 12
REMARK SMILES IDX 16 13 6 14 7 15 13 16 8 17 12 19 14 20 9 21 10 22 98 23
REMARK SMILES IDX 15 24 11 25 5 26 1 27 2 28 3 29 100 30 4 31 99 32 27 33
REMARK SMILES IDX 28 34 29 35 30 37 31 38 32 39 96 40 33 41 95 42 34 43 35 44
REMARK SMILES IDX 36 45 89 46 37 47 94 48 88 49 90 50 38 51 93 52 87 53 86 54
REMARK SMILES IDX 39 56 73 57 52 58 72 59 53 60 56 61 71 62 91 63 54 64 55 65
REMARK SMILES IDX 70 67 92 68 57 69 40 70 41 71 50 72 42 73 43 74 49 75 51 76
REMARK SMILES IDX 44 77 45 78 46 79 47 80 48 81 74 82 75 83 84 84 76 85 77 86
REMARK SMILES IDX 83 87 85 88 78 89 79 90 80 91 81 92 82 93 58 94 59 95 68 96
REMARK SMILES IDX 60 97 61 98 67 99 69 100 62 101 63 102 64 103 65 104 66 105
REMARK H PARENT 24 6 7 18 28 36 90 55 56 66
REMARK Flexibility Score: inf
ROOT
ATOM      1  C   UNL     1      -5.325   1.395  10.499  1.00  0.00     0.042 C 
ENDROOT
BRANCH   1   2
ATOM      2  C   UNL     1      -5.804   0.064   9.923  1.00  0.00     0.118 C 
BRANCH   2   3
ATOM      3  N   UNL     1      -6.730   0.281   8.818  1.00  0.00    -0.352 N 
ATOM      4  C   UNL     1      -6.556   0.628   7.502  1.00  0.00     0.251 C 
ATOM      5  O   UNL     1      -7.576   0.754   6.818  1.00  0.00    -0.269 OA
ATOM      6  H   UNL     1      -7.673   0.152   9.067  1.00  0.00     0.163 HD
BRANCH   4   7
ATOM      7  C   UNL     1      -5.228   0.828   6.834  1.00  0.00     0.041 A 
ATOM      8  C   UNL     1      -4.052   1.004   4.696  1.00  0.00     0.045 A 
ATOM      9  C   UNL     1      -2.828   0.943   5.359  1.00  0.00     0.026 A 
ATOM     10  C   UNL     1      -5.243   0.961   5.431  1.00  0.00     0.040 A 
ATOM     11  C   UNL     1      -2.795   0.913   6.745  1.00  0.00     0.003 A 
ATOM     12  C   UNL     1      -3.986   0.861   7.472  1.00  0.00     0.014 A 
BRANCH   8  13
ATOM     13  N   UNL     1      -4.077   1.080   3.296  1.00  0.00    -0.303 N 
ATOM     14  C   UNL     1      -3.355  -0.077  -0.130  1.00  0.00     0.152 C 
ATOM     15  N   UNL     1      -3.716   0.768  -1.261  1.00  0.00    -0.327 N 
ATOM     16  C   UNL     1      -3.678   0.661   1.097  1.00  0.00     0.066 C 
ATOM     17  C   UNL     1      -4.561   1.846  -1.240  1.00  0.00     0.322 C 
ATOM     18  H   UNL     1      -3.312   0.541  -2.130  1.00  0.00     0.166 HD
ATOM     19  C   UNL     1      -4.523   1.687   1.167  1.00  0.00     0.053 C 
ATOM     20  C   UNL     1      -3.269   0.316   2.457  1.00  0.00     0.258 C 
ATOM     21  O   UNL     1      -4.859   2.388  -2.302  1.00  0.00    -0.248 OA
ATOM     22  N   UNL     1      -4.995   2.275   0.015  1.00  0.00    -0.299 N 
ATOM     23  C   UNL     1      -4.909   2.013   2.571  1.00  0.00     0.180 C 
ATOM     24  O   UNL     1      -2.426  -0.510   2.718  1.00  0.00    -0.269 OA
ATOM     25  C   UNL     1      -5.883   3.425   0.099  1.00  0.00     0.155 C 
BRANCH  14  26
ATOM     26  C   UNL     1      -4.052  -1.436  -0.246  1.00  0.00    -0.021 A 
ATOM     27  C   UNL     1      -5.899  -5.345  -0.593  1.00  0.00     0.044 C 
ATOM     28  C   UNL     1      -5.268  -3.990  -0.478  1.00  0.00    -0.051 A 
ATOM     29  C   UNL     1      -4.296  -3.576  -1.395  1.00  0.00     0.004 A 
ATOM     30  C   UNL     1      -5.643  -3.120   0.543  1.00  0.00     0.004 A 
ATOM     31  C   UNL     1      -3.692  -2.318  -1.278  1.00  0.00     0.006 A 
ATOM     32  C   UNL     1      -5.052  -1.859   0.651  1.00  0.00     0.006 A 
ENDBRANCH  14  26
ENDBRANCH   8  13
ENDBRANCH   4   7
ENDBRANCH   2   3
ENDBRANCH   1   2
BRANCH   1  33
ATOM     33  C   UNL     1      -6.167   1.845  11.674  1.00  0.00     0.118 C 
BRANCH  33  34
ATOM     34  N   UNL     1      -5.584   1.483  12.960  1.00  0.00    -0.352 N 
ATOM     35  C   UNL     1      -5.860   2.088  14.178  1.00  0.00     0.251 C 
ATOM     36  H   UNL     1      -4.937   0.742  12.965  1.00  0.00     0.163 HD
ATOM     37  O   UNL     1      -5.033   2.235  15.068  1.00  0.00    -0.269 OA
BRANCH  35  38
ATOM     38  C   UNL     1      -7.284   2.381  14.426  1.00  0.00     0.039 A 
ATOM     39  C   UNL     1      -7.962   1.549  15.329  1.00  0.00     0.014 A 
ATOM     40  C   UNL     1      -7.963   3.157  13.496  1.00  0.00     0.014 A 
ATOM     41  C   UNL     1      -9.317   1.322  15.148  1.00  0.00     0.010 A 
ATOM     42  C   UNL     1      -9.250   2.804  13.207  1.00  0.00     0.010 A 
ATOM     43  C   UNL     1      -9.908   1.871  14.019  1.00  0.00    -0.014 A 
BRANCH  43  44
ATOM     44  C   UNL     1     -11.275   1.652  13.615  1.00  0.00     0.031 A 
ATOM     45  C   UNL     1     -12.232   2.701  14.005  1.00  0.00     0.074 A 
ATOM     46  C   UNL     1     -11.503   0.682  12.706  1.00  0.00     0.049 A 
ATOM     47  N   UNL     1     -13.506   2.570  13.999  1.00  0.00    -0.248 NA
ATOM     48  C   UNL     1     -11.802   4.012  14.499  1.00  0.00     0.031 C 
ATOM     49  C   UNL     1     -12.641   0.518  11.814  1.00  0.00     0.029 A 
ATOM     50  N   UNL     1     -10.760  -0.491  12.532  1.00  0.00    -0.354 N 
ATOM     51  C   UNL     1     -14.049   3.834  14.137  1.00  0.00     0.074 A 
ATOM     52  C   UNL     1     -12.962   4.667  14.575  1.00  0.00     0.031 C 
ATOM     53  C   UNL     1     -12.690  -0.763  11.404  1.00  0.00     0.029 A 
ATOM     54  C   UNL     1     -11.671  -1.492  12.148  1.00  0.00     0.049 A 
ATOM     55  H   UNL     1      -9.789  -0.595  12.655  1.00  0.00     0.167 HD
ATOM     56  C   UNL     1     -15.317   4.034  13.678  1.00  0.00     0.037 A 
ATOM     57  C   UNL     1     -11.936  -2.521  13.011  1.00  0.00     0.037 A 
ATOM     58  C   UNL     1     -15.852   2.758  13.204  1.00  0.00     0.049 A 
ATOM     59  C   UNL     1     -13.354  -2.465  13.534  1.00  0.00     0.074 A 
ATOM     60  C   UNL     1     -15.878   2.189  11.942  1.00  0.00     0.029 A 
ATOM     61  N   UNL     1     -16.068   1.729  14.112  1.00  0.00    -0.354 N 
ATOM     62  N   UNL     1     -14.049  -1.364  13.640  1.00  0.00    -0.248 NA
ATOM     63  C   UNL     1     -14.123  -3.651  13.896  1.00  0.00     0.031 C 
ATOM     64  C   UNL     1     -16.025   0.789  12.103  1.00  0.00     0.029 A 
ATOM     65  C   UNL     1     -16.101   0.513  13.459  1.00  0.00     0.049 A 
ATOM     66  H   UNL     1     -16.182   1.850  15.083  1.00  0.00     0.167 HD
ATOM     67  C   UNL     1     -15.323  -1.667  14.044  1.00  0.00     0.074 A 
ATOM     68  C   UNL     1     -15.318  -3.111  14.192  1.00  0.00     0.031 C 
ATOM     69  C   UNL     1     -16.299  -0.722  14.200  1.00  0.00     0.037 A 
BRANCH  56  70
ATOM     70  C   UNL     1     -15.969   5.365  13.357  1.00  0.00     0.058 A 
ATOM     71  C   UNL     1     -17.078   5.398  12.479  1.00  0.00     0.135 A 
ATOM     72  C   UNL     1     -15.559   6.633  13.818  1.00  0.00     0.135 A 
ATOM     73  F   UNL     1     -17.630   4.275  11.999  1.00  0.00    -0.206 F 
ATOM     74  C   UNL     1     -17.681   6.577  12.045  1.00  0.00     0.059 A 
ATOM     75  C   UNL     1     -16.133   7.833  13.378  1.00  0.00     0.059 A 
ATOM     76  F   UNL     1     -14.612   6.779  14.749  1.00  0.00    -0.206 F 
ATOM     77  C   UNL     1     -17.193   7.795  12.488  1.00  0.00     0.060 A 
BRANCH  77  78
ATOM     78  S   UNL     1     -17.995   9.301  11.915  1.00  0.00     0.124 S 
ATOM     79  O   UNL     1     -17.794   9.223  10.471  1.00  0.00    -0.237 OA
ATOM     80  O   UNL     1     -19.366   9.110  12.377  1.00  0.00    -0.237 OA
ATOM     81  O   UNL     1     -17.252  10.362  12.589  1.00  0.00    -0.744 OA
ENDBRANCH  77  78
ENDBRANCH  56  70
BRANCH  57  82
ATOM     82  C   UNL     1     -10.718  -2.943  13.772  1.00  0.00     0.058 A 
ATOM     83  C   UNL     1      -9.674  -3.526  13.023  1.00  0.00     0.135 A 
ATOM     84  C   UNL     1     -10.372  -2.350  14.996  1.00  0.00     0.135 A 
ATOM     85  F   UNL     1      -9.948  -4.135  11.857  1.00  0.00    -0.206 F 
ATOM     86  C   UNL     1      -8.335  -3.351  13.363  1.00  0.00     0.059 A 
ATOM     87  C   UNL     1      -9.032  -2.178  15.365  1.00  0.00     0.059 A 
ATOM     88  F   UNL     1     -11.316  -1.795  15.770  1.00  0.00    -0.206 F 
ATOM     89  C   UNL     1      -8.024  -2.609  14.499  1.00  0.00     0.060 A 
BRANCH  89  90
ATOM     90  S   UNL     1      -6.305  -2.082  14.721  1.00  0.00     0.124 S 
ATOM     91  O   UNL     1      -5.612  -3.358  14.849  1.00  0.00    -0.237 OA
ATOM     92  O   UNL     1      -6.042  -1.342  13.483  1.00  0.00    -0.237 OA
ATOM     93  O   UNL     1      -6.357  -1.269  15.929  1.00  0.00    -0.744 OA
ENDBRANCH  89  90
ENDBRANCH  57  82
BRANCH  69  94
ATOM     94  C   UNL     1     -17.589  -0.916  14.960  1.00  0.00     0.058 A 
ATOM     95  C   UNL     1     -17.755  -1.873  15.975  1.00  0.00     0.135 A 
ATOM     96  C   UNL     1     -18.678  -0.024  14.784  1.00  0.00     0.135 A 
ATOM     97  F   UNL     1     -16.752  -2.679  16.351  1.00  0.00    -0.206 F 
ATOM     98  C   UNL     1     -18.949  -2.015  16.677  1.00  0.00     0.059 A 
ATOM     99  C   UNL     1     -19.849  -0.099  15.528  1.00  0.00     0.059 A 
ATOM    100  F   UNL     1     -18.641   0.971  13.885  1.00  0.00    -0.206 F 
ATOM    101  C   UNL     1     -19.994  -1.130  16.440  1.00  0.00     0.060 A 
BRANCH 101 102
ATOM    102  S   UNL     1     -21.535  -1.327  17.343  1.00  0.00     0.124 S 
ATOM    103  O   UNL     1     -22.189  -2.375  16.566  1.00  0.00    -0.237 OA
ATOM    104  O   UNL     1     -21.076  -1.719  18.673  1.00  0.00    -0.237 OA
ATOM    105  O   UNL     1     -22.147  -0.005  17.264  1.00  0.00    -0.744 OA
ENDBRANCH 101 102
ENDBRANCH  69  94
ENDBRANCH  43  44
ENDBRANCH  35  38
ENDBRANCH  33  34
ENDBRANCH   1  33
TORSDOF 15
