REMARK SMILES O=C(Cn1cc(/C=C2\SC(=S)N(C[C@H]3CCCO3)C2=O)c2ccccc21)NCCCNC(=O)c1ccc(-c2c3nc(c(-c4c(F)cc(S(=O)(=O)[O-])cc4F)c4ccc([nH]4)c(-c4c(F)cc(S(=O)(=O)[O-])cc4F)c4nc(c(-c5c(F)cc(S(=O)(=O)[O-])cc5F)c5ccc2[nH]5)C=C4)C=C3)cc1
REMARK SMILES IDX 28 1 27 2 1 3 2 4 3 6 4 7 5 8 26 9 6 10 21 11 25 12 22 13
REMARK SMILES IDX 24 14 23 15 7 16 8 17 9 18 19 19 10 20 12 21 20 22 11 23
REMARK SMILES IDX 13 24 14 25 15 26 18 27 16 28 17 29 29 30 30 31 31 32 32 33
REMARK SMILES IDX 33 35 34 36 35 37 99 38 36 39 98 40 37 41 38 42 39 43 92 44
REMARK SMILES IDX 40 45 97 46 91 47 93 48 41 49 96 50 90 51 89 52 42 54 76 55
REMARK SMILES IDX 55 56 75 57 56 58 59 59 74 60 94 61 57 62 58 63 73 65 95 66
REMARK SMILES IDX 60 67 43 68 44 69 53 70 45 71 46 72 52 73 54 74 47 75 48 76
REMARK SMILES IDX 49 77 50 78 51 79 77 80 78 81 87 82 79 83 80 84 86 85 88 86
REMARK SMILES IDX 81 87 82 88 83 89 84 90 85 91 61 92 62 93 71 94 63 95 64 96
REMARK SMILES IDX 70 97 72 98 65 99 66 100 67 101 68 102 69 103
REMARK H PARENT 27 5 31 34 93 53 59 64
REMARK Flexibility Score: inf
ROOT
ATOM      1  C   UNL     1      15.878  13.164   3.698  1.00  0.00     0.117 C 
ENDROOT
BRANCH   1   2
ATOM      2  N   UNL     1      15.528  12.399   4.885  1.00  0.00    -0.354 N 
ATOM      3  O   UNL     1      13.759  13.752   5.479  1.00  0.00    -0.273 OA
ATOM      4  C   UNL     1      14.415  12.727   5.644  1.00  0.00     0.239 C 
ATOM      5  H   UNL     1      16.091  11.638   5.154  1.00  0.00     0.163 HD
BRANCH   4   6
ATOM      6  C   UNL     1      14.057  11.721   6.708  1.00  0.00     0.222 C 
BRANCH   6   7
ATOM      7  N   UNL     1      13.163  10.628   6.320  1.00  0.00    -0.337 N 
ATOM      8  C   UNL     1      12.571   9.842   7.288  1.00  0.00     0.095 A 
ATOM      9  C   UNL     1      12.891  10.099   5.070  1.00  0.00     0.049 A 
ATOM     10  C   UNL     1      11.981   8.769   6.668  1.00  0.00     0.001 A 
ATOM     11  C   UNL     1      12.229   8.877   5.274  1.00  0.00     0.007 A 
ATOM     12  C   UNL     1      13.149  10.556   3.766  1.00  0.00     0.027 A 
ATOM     13  C   UNL     1      11.917   8.069   4.156  1.00  0.00     0.011 A 
ATOM     14  C   UNL     1      12.843   9.736   2.677  1.00  0.00     0.002 A 
ATOM     15  C   UNL     1      12.251   8.498   2.868  1.00  0.00     0.001 A 
BRANCH  10  16
ATOM     16  C   UNL     1      11.280   7.743   7.361  1.00  0.00     0.031 C 
ATOM     17  C   UNL     1      10.117   7.888   8.012  1.00  0.00     0.081 C 
ATOM     18  S   UNL     1       9.117   9.280   8.114  1.00  0.00    -0.054 SA
ATOM     19  C   UNL     1       9.479   6.761   8.723  1.00  0.00     0.266 C 
ATOM     20  C   UNL     1       7.802   8.392   8.873  1.00  0.00     0.148 C 
ATOM     21  N   UNL     1       8.187   7.083   9.087  1.00  0.00    -0.290 N 
ATOM     22  O   UNL     1      10.052   5.696   8.957  1.00  0.00    -0.268 OA
ATOM     23  S   UNL     1       6.344   9.112   9.244  1.00  0.00    -0.052 S 
BRANCH  21  24
ATOM     24  C   UNL     1       7.354   6.055   9.710  1.00  0.00     0.159 C 
BRANCH  24  25
ATOM     25  C   UNL     1       6.617   5.146   8.700  1.00  0.00     0.138 C 
ATOM     26  C   UNL     1       7.494   4.203   7.886  1.00  0.00     0.036 C 
ATOM     27  O   UNL     1       5.749   4.270   9.458  1.00  0.00    -0.376 OA
ATOM     28  C   UNL     1       7.688   3.048   8.836  1.00  0.00     0.031 C 
ATOM     29  C   UNL     1       6.312   2.946   9.458  1.00  0.00     0.160 C 
ENDBRANCH  24  25
ENDBRANCH  21  24
ENDBRANCH  10  16
ENDBRANCH   6   7
ENDBRANCH   4   6
ENDBRANCH   1   2
BRANCH   1  30
ATOM     30  C   UNL     1      17.368  13.170   3.368  1.00  0.00     0.042 C 
BRANCH  30  31
ATOM     31  C   UNL     1      17.998  11.799   3.111  1.00  0.00     0.118 C 
BRANCH  31  32
ATOM     32  N   UNL     1      17.360  11.017   2.070  1.00  0.00    -0.352 N 
ATOM     33  C   UNL     1      17.668  10.725   0.766  1.00  0.00     0.251 C 
ATOM     34  H   UNL     1      16.516  10.604   2.365  1.00  0.00     0.163 HD
ATOM     35  O   UNL     1      17.075   9.753   0.287  1.00  0.00    -0.269 OA
BRANCH  33  36
ATOM     36  C   UNL     1      18.590  11.503  -0.112  1.00  0.00     0.039 A 
ATOM     37  C   UNL     1      19.227  12.689   0.240  1.00  0.00     0.014 A 
ATOM     38  C   UNL     1      18.732  11.041  -1.439  1.00  0.00     0.014 A 
ATOM     39  C   UNL     1      19.921  13.424  -0.724  1.00  0.00     0.010 A 
ATOM     40  C   UNL     1      19.432  11.770  -2.404  1.00  0.00     0.010 A 
ATOM     41  C   UNL     1      20.000  12.989  -2.058  1.00  0.00    -0.014 A 
BRANCH  41  42
ATOM     42  C   UNL     1      20.767  13.817  -2.998  1.00  0.00     0.031 A 
ATOM     43  C   UNL     1      22.158  14.104  -2.558  1.00  0.00     0.074 A 
ATOM     44  C   UNL     1      20.347  14.297  -4.190  1.00  0.00     0.049 A 
ATOM     45  N   UNL     1      22.608  15.207  -2.058  1.00  0.00    -0.248 NA
ATOM     46  C   UNL     1      23.127  13.000  -2.537  1.00  0.00     0.031 C 
ATOM     47  C   UNL     1      19.154  13.918  -4.950  1.00  0.00     0.029 A 
ATOM     48  N   UNL     1      20.955  15.214  -5.012  1.00  0.00    -0.354 N 
ATOM     49  C   UNL     1      23.975  15.015  -1.872  1.00  0.00     0.074 A 
ATOM     50  C   UNL     1      24.204  13.602  -2.025  1.00  0.00     0.031 C 
ATOM     51  C   UNL     1      19.230  14.437  -6.199  1.00  0.00     0.029 A 
ATOM     52  C   UNL     1      20.382  15.322  -6.274  1.00  0.00     0.049 A 
ATOM     53  H   UNL     1      21.731  15.750  -4.731  1.00  0.00     0.167 HD
ATOM     54  C   UNL     1      24.831  16.075  -1.853  1.00  0.00     0.037 A 
ATOM     55  C   UNL     1      20.808  16.089  -7.310  1.00  0.00     0.037 A 
ATOM     56  C   UNL     1      24.113  17.317  -1.735  1.00  0.00     0.049 A 
ATOM     57  C   UNL     1      21.549  17.242  -6.746  1.00  0.00     0.074 A 
ATOM     58  C   UNL     1      23.484  18.034  -0.742  1.00  0.00     0.029 A 
ATOM     59  N   UNL     1      23.703  17.832  -2.934  1.00  0.00    -0.354 N 
ATOM     60  N   UNL     1      20.997  18.168  -6.009  1.00  0.00    -0.248 NA
ATOM     61  C   UNL     1      23.007  17.242  -6.760  1.00  0.00     0.031 C 
ATOM     62  C   UNL     1      22.536  18.876  -1.398  1.00  0.00     0.029 A 
ATOM     63  C   UNL     1      22.631  18.668  -2.772  1.00  0.00     0.049 A 
ATOM     64  H   UNL     1      24.124  17.628  -3.801  1.00  0.00     0.167 HD
ATOM     65  C   UNL     1      22.006  18.576  -5.161  1.00  0.00     0.074 A 
ATOM     66  C   UNL     1      23.241  18.116  -5.779  1.00  0.00     0.031 C 
ATOM     67  C   UNL     1      21.740  18.949  -3.878  1.00  0.00     0.037 A 
BRANCH  54  68
ATOM     68  C   UNL     1      26.243  16.066  -2.409  1.00  0.00     0.058 A 
ATOM     69  C   UNL     1      27.055  17.211  -2.240  1.00  0.00     0.135 A 
ATOM     70  C   UNL     1      26.704  15.135  -3.364  1.00  0.00     0.135 A 
ATOM     71  F   UNL     1      26.716  18.167  -1.359  1.00  0.00    -0.206 F 
ATOM     72  C   UNL     1      28.192  17.447  -3.016  1.00  0.00     0.059 A 
ATOM     73  C   UNL     1      27.861  15.327  -4.113  1.00  0.00     0.059 A 
ATOM     74  F   UNL     1      26.004  14.042  -3.689  1.00  0.00    -0.206 F 
ATOM     75  C   UNL     1      28.577  16.504  -3.963  1.00  0.00     0.060 A 
BRANCH  75  76
ATOM     76  S   UNL     1      29.982  16.850  -5.037  1.00  0.00     0.124 S 
ATOM     77  O   UNL     1      29.473  17.955  -5.840  1.00  0.00    -0.237 OA
ATOM     78  O   UNL     1      31.023  17.186  -4.071  1.00  0.00    -0.237 OA
ATOM     79  O   UNL     1      30.179  15.590  -5.747  1.00  0.00    -0.744 OA
ENDBRANCH  75  76
ENDBRANCH  54  68
BRANCH  55  80
ATOM     80  C   UNL     1      20.857  15.757  -8.761  1.00  0.00     0.058 A 
ATOM     81  C   UNL     1      21.146  16.743  -9.725  1.00  0.00     0.135 A 
ATOM     82  C   UNL     1      20.944  14.421  -9.195  1.00  0.00     0.135 A 
ATOM     83  F   UNL     1      21.093  18.044  -9.400  1.00  0.00    -0.206 F 
ATOM     84  C   UNL     1      21.574  16.422 -11.018  1.00  0.00     0.059 A 
ATOM     85  C   UNL     1      21.361  14.077 -10.482  1.00  0.00     0.059 A 
ATOM     86  F   UNL     1      20.719  13.405  -8.348  1.00  0.00    -0.206 F 
ATOM     87  C   UNL     1      21.708  15.082 -11.377  1.00  0.00     0.060 A 
BRANCH  87  88
ATOM     88  S   UNL     1      22.451  14.663 -12.973  1.00  0.00     0.124 S 
ATOM     89  O   UNL     1      21.436  15.129 -13.912  1.00  0.00    -0.237 OA
ATOM     90  O   UNL     1      23.692  15.430 -12.945  1.00  0.00    -0.237 OA
ATOM     91  O   UNL     1      22.616  13.214 -12.901  1.00  0.00    -0.744 OA
ENDBRANCH  87  88
ENDBRANCH  55  80
BRANCH  67  92
ATOM     92  C   UNL     1      20.392  19.528  -3.574  1.00  0.00     0.058 A 
ATOM     93  C   UNL     1      19.180  18.823  -3.609  1.00  0.00     0.135 A 
ATOM     94  C   UNL     1      20.355  20.858  -3.126  1.00  0.00     0.135 A 
ATOM     95  F   UNL     1      19.143  17.528  -3.959  1.00  0.00    -0.206 F 
ATOM     96  C   UNL     1      17.978  19.425  -3.229  1.00  0.00     0.059 A 
ATOM     97  C   UNL     1      19.176  21.467  -2.714  1.00  0.00     0.059 A 
ATOM     98  F   UNL     1      21.491  21.570  -3.037  1.00  0.00    -0.206 F 
ATOM     99  C   UNL     1      17.988  20.745  -2.774  1.00  0.00     0.060 A 
BRANCH  99 100
ATOM    100  S   UNL     1      16.451  21.490  -2.188  1.00  0.00     0.124 S 
ATOM    101  O   UNL     1      15.682  21.619  -3.421  1.00  0.00    -0.237 OA
ATOM    102  O   UNL     1      15.965  20.495  -1.236  1.00  0.00    -0.237 OA
ATOM    103  O   UNL     1      16.887  22.750  -1.591  1.00  0.00    -0.744 OA
ENDBRANCH  99 100
ENDBRANCH  67  92
ENDBRANCH  41  42
ENDBRANCH  33  36
ENDBRANCH  31  32
ENDBRANCH  30  31
ENDBRANCH   1  30
TORSDOF 17
