REMARK SMILES CC(C)(C)OC(=O)N[C@@H](CC(=O)NCCCNC(=O)c1ccc(-c2c3nc(c(-c4c(F)cc(S(=O)(=O)[O-])cc4F)c4ccc([nH]4)c(-c4c(F)cc(S(=O)(=O)[O-])cc4F)c4nc(c(-c5c(F)cc(S(=O)(=O)[O-])cc5F)c5ccc2[nH]5)C=C4)C=C3)cc1)c1cccnc1
REMARK SMILES IDX 14 1 13 2 11 3 12 4 10 6 9 7 8 8 6 9 7 10 5 12 2 13 1 14
REMARK SMILES IDX 3 15 4 16 86 17 87 18 91 19 88 20 90 21 89 22 15 23 16 24
REMARK SMILES IDX 17 25 18 26 19 28 20 29 21 30 85 31 22 32 84 33 23 34 24 35
REMARK SMILES IDX 25 36 78 37 26 38 83 39 77 40 79 41 27 42 82 43 76 44 75 45
REMARK SMILES IDX 28 47 62 48 41 49 61 50 42 51 45 52 60 53 80 54 43 55 44 56
REMARK SMILES IDX 59 58 81 59 46 60 29 61 30 62 39 63 31 64 32 65 38 66 40 67
REMARK SMILES IDX 33 68 34 69 35 70 36 71 37 72 63 73 64 74 73 75 65 76 66 77
REMARK SMILES IDX 72 78 74 79 67 80 68 81 69 82 70 83 71 84 47 85 48 86 57 87
REMARK SMILES IDX 49 88 50 89 56 90 58 91 51 92 52 93 53 94 54 95 55 96
REMARK H PARENT 13 5 8 11 17 27 79 46 45 57
REMARK Flexibility Score: inf
ROOT
ATOM      1  C   UNL     1       1.885   6.351   1.850  1.00  0.00     0.117 C 
ENDROOT
BRANCH   1   2
ATOM      2  N   UNL     1       2.542   6.335   3.148  1.00  0.00    -0.356 N 
ATOM      3  C   UNL     1       3.084   5.309   3.859  1.00  0.00     0.222 C 
ATOM      4  O   UNL     1       3.662   5.592   4.911  1.00  0.00    -0.275 OA
ATOM      5  H   UNL     1       2.604   7.214   3.587  1.00  0.00     0.163 HD
BRANCH   3   6
ATOM      6  C   UNL     1       3.002   3.871   3.390  1.00  0.00     0.130 C 
BRANCH   6   7
ATOM      7  C   UNL     1       1.708   3.087   3.691  1.00  0.00     0.126 C 
BRANCH   7   8
ATOM      8  N   UNL     1       0.608   3.473   2.829  1.00  0.00    -0.314 N 
ATOM      9  C   UNL     1       0.281   3.045   1.585  1.00  0.00     0.408 C 
ATOM     10  O   UNL     1      -0.546   3.668   0.933  1.00  0.00    -0.225 OA
ATOM     11  H   UNL     1       0.003   4.151   3.207  1.00  0.00     0.167 HD
BRANCH   9  12
ATOM     12  O   UNL     1       0.907   1.909   1.203  1.00  0.00    -0.444 OA
BRANCH  12  13
ATOM     13  C   UNL     1       0.475   1.256  -0.026  1.00  0.00     0.106 C 
ATOM     14  C   UNL     1       1.135  -0.131  -0.002  1.00  0.00     0.056 C 
ATOM     15  C   UNL     1       0.987   2.031  -1.245  1.00  0.00     0.056 C 
ATOM     16  C   UNL     1      -1.048   1.047  -0.085  1.00  0.00     0.056 C 
ENDBRANCH  12  13
ENDBRANCH   9  12
ENDBRANCH   7   8
BRANCH   7  17
ATOM     17  C   UNL     1       1.209   3.089   5.123  1.00  0.00    -0.007 A 
ATOM     18  C   UNL     1       0.941   1.881   5.780  1.00  0.00     0.009 A 
ATOM     19  C   UNL     1       0.838   4.254   5.796  1.00  0.00     0.116 A 
ATOM     20  C   UNL     1       0.329   1.884   7.032  1.00  0.00     0.020 A 
ATOM     21  N   UNL     1       0.248   4.287   7.014  1.00  0.00    -0.264 NA
ATOM     22  C   UNL     1      -0.001   3.101   7.600  1.00  0.00     0.111 A 
ENDBRANCH   7  17
ENDBRANCH   6   7
ENDBRANCH   3   6
ENDBRANCH   1   2
BRANCH   1  23
ATOM     23  C   UNL     1       0.390   6.637   1.959  1.00  0.00     0.042 C 
BRANCH  23  24
ATOM     24  C   UNL     1       0.033   8.046   2.409  1.00  0.00     0.118 C 
BRANCH  24  25
ATOM     25  N   UNL     1       0.176   9.022   1.346  1.00  0.00    -0.352 N 
ATOM     26  C   UNL     1      -0.770   9.625   0.552  1.00  0.00     0.251 C 
ATOM     27  H   UNL     1       1.104   9.298   1.163  1.00  0.00     0.163 HD
ATOM     28  O   UNL     1      -0.391  10.250  -0.438  1.00  0.00    -0.269 OA
BRANCH  26  29
ATOM     29  C   UNL     1      -2.223   9.530   0.848  1.00  0.00     0.039 A 
ATOM     30  C   UNL     1      -3.119   9.457  -0.225  1.00  0.00     0.014 A 
ATOM     31  C   UNL     1      -2.724   9.589   2.150  1.00  0.00     0.014 A 
ATOM     32  C   UNL     1      -4.498   9.396   0.011  1.00  0.00     0.010 A 
ATOM     33  C   UNL     1      -4.091   9.435   2.388  1.00  0.00     0.010 A 
ATOM     34  C   UNL     1      -4.998   9.356   1.322  1.00  0.00    -0.014 A 
BRANCH  34  35
ATOM     35  C   UNL     1      -6.460   9.267   1.594  1.00  0.00     0.031 A 
ATOM     36  C   UNL     1      -7.163  10.374   2.339  1.00  0.00     0.074 A 
ATOM     37  C   UNL     1      -7.149   8.170   1.220  1.00  0.00     0.049 A 
ATOM     38  N   UNL     1      -8.408  10.443   2.739  1.00  0.00    -0.248 NA
ATOM     39  C   UNL     1      -6.353  11.546   2.708  1.00  0.00     0.031 C 
ATOM     40  C   UNL     1      -6.581   7.007   0.536  1.00  0.00     0.029 A 
ATOM     41  N   UNL     1      -8.475   7.847   1.375  1.00  0.00    -0.354 N 
ATOM     42  C   UNL     1      -8.524  11.651   3.419  1.00  0.00     0.074 A 
ATOM     43  C   UNL     1      -7.210  12.257   3.425  1.00  0.00     0.031 C 
ATOM     44  C   UNL     1      -7.553   6.107   0.316  1.00  0.00     0.029 A 
ATOM     45  C   UNL     1      -8.805   6.609   0.875  1.00  0.00     0.049 A 
ATOM     46  H   UNL     1      -9.128   8.446   1.804  1.00  0.00     0.167 HD
ATOM     47  C   UNL     1      -9.627  12.218   3.966  1.00  0.00     0.037 A 
ATOM     48  C   UNL     1      -9.978   5.946   0.875  1.00  0.00     0.037 A 
ATOM     49  C   UNL     1     -10.939  11.627   3.934  1.00  0.00     0.049 A 
ATOM     50  C   UNL     1     -11.193   6.598   1.477  1.00  0.00     0.074 A 
ATOM     51  C   UNL     1     -12.129  12.144   4.416  1.00  0.00     0.029 A 
ATOM     52  N   UNL     1     -11.237  10.387   3.387  1.00  0.00    -0.354 N 
ATOM     53  N   UNL     1     -11.293   7.765   2.069  1.00  0.00    -0.248 NA
ATOM     54  C   UNL     1     -12.456   5.851   1.403  1.00  0.00     0.031 C 
ATOM     55  C   UNL     1     -13.139  11.202   4.193  1.00  0.00     0.029 A 
ATOM     56  C   UNL     1     -12.588  10.117   3.531  1.00  0.00     0.049 A 
ATOM     57  H   UNL     1     -10.584   9.787   2.959  1.00  0.00     0.167 HD
ATOM     58  C   UNL     1     -12.632   7.899   2.420  1.00  0.00     0.074 A 
ATOM     59  C   UNL     1     -13.306   6.702   1.961  1.00  0.00     0.031 C 
ATOM     60  C   UNL     1     -13.247   8.922   3.064  1.00  0.00     0.037 A 
BRANCH  47  61
ATOM     61  C   UNL     1      -9.459  13.554   4.640  1.00  0.00     0.058 A 
ATOM     62  C   UNL     1      -9.195  14.721   3.904  1.00  0.00     0.135 A 
ATOM     63  C   UNL     1      -9.586  13.676   6.033  1.00  0.00     0.135 A 
ATOM     64  F   UNL     1      -9.051  14.661   2.570  1.00  0.00    -0.206 F 
ATOM     65  C   UNL     1      -9.024  15.953   4.527  1.00  0.00     0.059 A 
ATOM     66  C   UNL     1      -9.448  14.905   6.675  1.00  0.00     0.059 A 
ATOM     67  F   UNL     1      -9.842  12.596   6.787  1.00  0.00    -0.206 F 
ATOM     68  C   UNL     1      -9.149  16.034   5.914  1.00  0.00     0.060 A 
BRANCH  68  69
ATOM     69  S   UNL     1      -8.916  17.638   6.709  1.00  0.00     0.124 S 
ATOM     70  O   UNL     1      -7.467  17.797   6.623  1.00  0.00    -0.237 OA
ATOM     71  O   UNL     1      -9.701  18.527   5.858  1.00  0.00    -0.237 OA
ATOM     72  O   UNL     1      -9.446  17.433   8.053  1.00  0.00    -0.744 OA
ENDBRANCH  68  69
ENDBRANCH  47  61
BRANCH  48  73
ATOM     73  C   UNL     1     -10.060   4.592   0.265  1.00  0.00     0.058 A 
ATOM     74  C   UNL     1     -10.726   4.384  -0.951  1.00  0.00     0.135 A 
ATOM     75  C   UNL     1      -9.450   3.483   0.874  1.00  0.00     0.135 A 
ATOM     76  F   UNL     1     -11.332   5.411  -1.567  1.00  0.00    -0.206 F 
ATOM     77  C   UNL     1     -10.794   3.126  -1.540  1.00  0.00     0.059 A 
ATOM     78  C   UNL     1      -9.483   2.220   0.292  1.00  0.00     0.059 A 
ATOM     79  F   UNL     1      -8.787   3.632   2.031  1.00  0.00    -0.206 F 
ATOM     80  C   UNL     1     -10.165   2.049  -0.912  1.00  0.00     0.060 A 
BRANCH  80  81
ATOM     81  S   UNL     1     -10.207   0.431  -1.714  1.00  0.00     0.124 S 
ATOM     82  O   UNL     1     -11.583   0.017  -1.468  1.00  0.00    -0.237 OA
ATOM     83  O   UNL     1      -9.878   0.764  -3.096  1.00  0.00    -0.237 OA
ATOM     84  O   UNL     1      -9.182  -0.324  -0.999  1.00  0.00    -0.744 OA
ENDBRANCH  80  81
ENDBRANCH  48  73
BRANCH  60  85
ATOM     85  C   UNL     1     -14.730   8.809   3.288  1.00  0.00     0.058 A 
ATOM     86  C   UNL     1     -15.266   7.938   4.249  1.00  0.00     0.135 A 
ATOM     87  C   UNL     1     -15.621   9.621   2.567  1.00  0.00     0.135 A 
ATOM     88  F   UNL     1     -14.458   7.136   4.960  1.00  0.00    -0.206 F 
ATOM     89  C   UNL     1     -16.637   7.861   4.473  1.00  0.00     0.059 A 
ATOM     90  C   UNL     1     -16.993   9.579   2.794  1.00  0.00     0.059 A 
ATOM     91  F   UNL     1     -15.159  10.478   1.643  1.00  0.00    -0.206 F 
ATOM     92  C   UNL     1     -17.493   8.687   3.741  1.00  0.00     0.060 A 
BRANCH  92  93
ATOM     93  S   UNL     1     -19.267   8.602   4.067  1.00  0.00     0.124 S 
ATOM     94  O   UNL     1     -19.625   7.345   3.418  1.00  0.00    -0.237 OA
ATOM     95  O   UNL     1     -19.319   8.600   5.526  1.00  0.00    -0.237 OA
ATOM     96  O   UNL     1     -19.787   9.809   3.430  1.00  0.00    -0.744 OA
ENDBRANCH  92  93
ENDBRANCH  60  85
ENDBRANCH  34  35
ENDBRANCH  26  29
ENDBRANCH  24  25
ENDBRANCH  23  24
ENDBRANCH   1  23
TORSDOF 18
