REMARK SMILES C[C@@H](C(=O)NCCCNC(=O)c1ccc(-c2c3nc(c(-c4c(F)cc(S(=O)(=O)[O-])cc4F)c4ccc([nH]4)c(-c4c(F)cc(S(=O)(=O)[O-])cc4F)c4nc(c(-c5c(F)cc(S(=O)(=O)[O-])cc5F)c5ccc2[nH]5)C=C4)C=C3)cc1)c1ccc(C[C@H]2CCC[C@H]2O)cc1
REMARK SMILES IDX 6 1 5 2 3 3 4 4 2 6 1 7 78 8 79 9 90 10 80 11 89 12 81 13
REMARK SMILES IDX 82 14 83 15 84 16 87 17 85 18 86 19 88 20 7 22 8 23 9 24
REMARK SMILES IDX 10 25 11 27 12 28 13 29 77 30 14 31 76 32 15 33 16 34 17 35
REMARK SMILES IDX 70 36 18 37 75 38 69 39 71 40 19 41 74 42 68 43 67 44 20 46
REMARK SMILES IDX 54 47 33 48 53 49 34 50 37 51 52 52 72 53 35 54 36 55 51 57
REMARK SMILES IDX 73 58 38 59 21 60 22 61 31 62 23 63 24 64 30 65 32 66 25 67
REMARK SMILES IDX 26 68 27 69 28 70 29 71 55 72 56 73 65 74 57 75 58 76 64 77
REMARK SMILES IDX 66 78 59 79 60 80 61 81 62 82 63 83 39 84 40 85 49 86 41 87
REMARK SMILES IDX 42 88 48 89 50 90 43 91 44 92 45 93 46 94 47 95
REMARK H PARENT 5 5 88 21 9 26 71 45 37 56
REMARK Flexibility Score: inf
ROOT
ATOM      1  C   UNL     1       3.570   0.754  -1.923  1.00  0.00     0.117 C 
ENDROOT
BRANCH   1   2
ATOM      2  N   UNL     1       2.545   0.117  -2.728  1.00  0.00    -0.356 N 
ATOM      3  C   UNL     1       1.221  -0.091  -2.469  1.00  0.00     0.227 C 
ATOM      4  O   UNL     1       0.597  -0.777  -3.281  1.00  0.00    -0.274 OA
ATOM      5  H   UNL     1       2.854  -0.218  -3.600  1.00  0.00     0.163 HD
BRANCH   3   6
ATOM      6  C   UNL     1       0.579   0.544  -1.232  1.00  0.00     0.105 C 
ATOM      7  C   UNL     1       1.006  -0.155   0.065  1.00  0.00     0.023 C 
BRANCH   6   8
ATOM      8  C   UNL     1      -0.940   0.603  -1.338  1.00  0.00    -0.036 A 
ATOM      9  C   UNL     1      -1.565   1.798  -1.718  1.00  0.00     0.005 A 
ATOM     10  C   UNL     1      -1.742  -0.509  -1.046  1.00  0.00     0.005 A 
ATOM     11  C   UNL     1      -2.956   1.904  -1.704  1.00  0.00     0.004 A 
ATOM     12  C   UNL     1      -3.131  -0.394  -1.009  1.00  0.00     0.004 A 
ATOM     13  C   UNL     1      -3.748   0.833  -1.277  1.00  0.00    -0.048 A 
BRANCH  13  14
ATOM     14  C   UNL     1      -5.228   1.008  -1.054  1.00  0.00     0.041 C 
BRANCH  14  15
ATOM     15  C   UNL     1      -5.665   1.502   0.340  1.00  0.00     0.022 C 
ATOM     16  C   UNL     1      -5.097   0.739   1.550  1.00  0.00     0.007 C 
ATOM     17  C   UNL     1      -5.440   2.984   0.681  1.00  0.00     0.117 C 
ATOM     18  C   UNL     1      -5.027   1.750   2.699  1.00  0.00     0.003 C 
ATOM     19  C   UNL     1      -5.694   3.021   2.184  1.00  0.00     0.032 C 
BRANCH  17  20
ATOM     20  O   UNL     1      -4.130   3.464   0.433  1.00  0.00    -0.393 OA
ATOM     21  H   UNL     1      -3.494   2.948   0.953  1.00  0.00     0.210 HD
ENDBRANCH  17  20
ENDBRANCH  14  15
ENDBRANCH  13  14
ENDBRANCH   6   8
ENDBRANCH   3   6
ENDBRANCH   1   2
BRANCH   1  22
ATOM     22  C   UNL     1       4.467  -0.274  -1.236  1.00  0.00     0.042 C 
BRANCH  22  23
ATOM     23  C   UNL     1       5.221  -1.194  -2.193  1.00  0.00     0.118 C 
BRANCH  23  24
ATOM     24  N   UNL     1       6.124  -0.469  -3.072  1.00  0.00    -0.352 N 
ATOM     25  C   UNL     1       7.468  -0.632  -3.295  1.00  0.00     0.251 C 
ATOM     26  H   UNL     1       5.704   0.256  -3.589  1.00  0.00     0.163 HD
ATOM     27  O   UNL     1       8.068   0.217  -3.948  1.00  0.00    -0.269 OA
BRANCH  25  28
ATOM     28  C   UNL     1       8.199  -1.797  -2.746  1.00  0.00     0.039 A 
ATOM     29  C   UNL     1       9.488  -1.593  -2.245  1.00  0.00     0.014 A 
ATOM     30  C   UNL     1       7.657  -3.086  -2.763  1.00  0.00     0.014 A 
ATOM     31  C   UNL     1      10.208  -2.666  -1.714  1.00  0.00     0.010 A 
ATOM     32  C   UNL     1       8.350  -4.144  -2.171  1.00  0.00     0.010 A 
ATOM     33  C   UNL     1       9.633  -3.945  -1.643  1.00  0.00    -0.014 A 
BRANCH  33  34
ATOM     34  C   UNL     1      10.365  -5.066  -0.997  1.00  0.00     0.031 A 
ATOM     35  C   UNL     1      10.814  -6.258  -1.799  1.00  0.00     0.074 A 
ATOM     36  C   UNL     1      10.597  -5.021   0.330  1.00  0.00     0.049 A 
ATOM     37  N   UNL     1      11.457  -7.325  -1.399  1.00  0.00    -0.248 NA
ATOM     38  C   UNL     1      10.480  -6.261  -3.232  1.00  0.00     0.031 C 
ATOM     39  C   UNL     1      10.158  -3.949   1.228  1.00  0.00     0.029 A 
ATOM     40  N   UNL     1      11.253  -5.897   1.157  1.00  0.00    -0.354 N 
ATOM     41  C   UNL     1      11.606  -8.126  -2.526  1.00  0.00     0.074 A 
ATOM     42  C   UNL     1      10.938  -7.445  -3.615  1.00  0.00     0.031 C 
ATOM     43  C   UNL     1      10.576  -4.220   2.474  1.00  0.00     0.029 A 
ATOM     44  C   UNL     1      11.287  -5.495   2.471  1.00  0.00     0.049 A 
ATOM     45  H   UNL     1      11.662  -6.734   0.840  1.00  0.00     0.167 HD
ATOM     46  C   UNL     1      12.260  -9.306  -2.647  1.00  0.00     0.037 A 
ATOM     47  C   UNL     1      11.828  -6.085   3.555  1.00  0.00     0.037 A 
ATOM     48  C   UNL     1      12.936  -9.974  -1.564  1.00  0.00     0.049 A 
ATOM     49  C   UNL     1      12.563  -7.386   3.390  1.00  0.00     0.074 A 
ATOM     50  C   UNL     1      13.663 -11.151  -1.597  1.00  0.00     0.029 A 
ATOM     51  N   UNL     1      12.969  -9.523  -0.252  1.00  0.00    -0.354 N 
ATOM     52  N   UNL     1      12.744  -8.098   2.304  1.00  0.00    -0.248 NA
ATOM     53  C   UNL     1      13.178  -7.957   4.596  1.00  0.00     0.031 C 
ATOM     54  C   UNL     1      14.107 -11.430  -0.299  1.00  0.00     0.029 A 
ATOM     55  C   UNL     1      13.692 -10.405   0.535  1.00  0.00     0.049 A 
ATOM     56  H   UNL     1      12.541  -8.698   0.072  1.00  0.00     0.167 HD
ATOM     57  C   UNL     1      13.504  -9.195   2.692  1.00  0.00     0.074 A 
ATOM     58  C   UNL     1      13.771  -9.038   4.107  1.00  0.00     0.031 C 
ATOM     59  C   UNL     1      13.940 -10.241   1.945  1.00  0.00     0.037 A 
BRANCH  46  60
ATOM     60  C   UNL     1      12.292  -9.948  -4.008  1.00  0.00     0.058 A 
ATOM     61  C   UNL     1      13.065  -9.412  -5.051  1.00  0.00     0.135 A 
ATOM     62  C   UNL     1      11.581 -11.132  -4.262  1.00  0.00     0.135 A 
ATOM     63  F   UNL     1      13.752  -8.274  -4.868  1.00  0.00    -0.206 F 
ATOM     64  C   UNL     1      13.114 -10.014  -6.304  1.00  0.00     0.059 A 
ATOM     65  C   UNL     1      11.636 -11.765  -5.501  1.00  0.00     0.059 A 
ATOM     66  F   UNL     1      10.826 -11.687  -3.301  1.00  0.00    -0.206 F 
ATOM     67  C   UNL     1      12.395 -11.191  -6.520  1.00  0.00     0.060 A 
BRANCH  67  68
ATOM     68  S   UNL     1      12.481 -11.967  -8.148  1.00  0.00     0.124 S 
ATOM     69  O   UNL     1      11.652 -11.066  -8.943  1.00  0.00    -0.237 OA
ATOM     70  O   UNL     1      13.911 -11.932  -8.437  1.00  0.00    -0.237 OA
ATOM     71  O   UNL     1      11.923 -13.296  -7.921  1.00  0.00    -0.744 OA
ENDBRANCH  67  68
ENDBRANCH  46  60
BRANCH  47  72
ATOM     72  C   UNL     1      11.707  -5.439   4.888  1.00  0.00     0.058 A 
ATOM     73  C   UNL     1      12.818  -4.853   5.512  1.00  0.00     0.135 A 
ATOM     74  C   UNL     1      10.474  -5.382   5.556  1.00  0.00     0.135 A 
ATOM     75  F   UNL     1      14.018  -4.887   4.914  1.00  0.00    -0.206 F 
ATOM     76  C   UNL     1      12.717  -4.249   6.761  1.00  0.00     0.059 A 
ATOM     77  C   UNL     1      10.343  -4.761   6.794  1.00  0.00     0.059 A 
ATOM     78  F   UNL     1       9.378  -5.910   4.991  1.00  0.00    -0.206 F 
ATOM     79  C   UNL     1      11.473  -4.208   7.394  1.00  0.00     0.060 A 
BRANCH  79  80
ATOM     80  S   UNL     1      11.338  -3.377   8.992  1.00  0.00     0.124 S 
ATOM     81  O   UNL     1      11.932  -4.364   9.886  1.00  0.00    -0.237 OA
ATOM     82  O   UNL     1      12.116  -2.162   8.775  1.00  0.00    -0.237 OA
ATOM     83  O   UNL     1       9.900  -3.172   9.140  1.00  0.00    -0.744 OA
ENDBRANCH  79  80
ENDBRANCH  47  72
BRANCH  59  84
ATOM     84  C   UNL     1      14.757 -11.288   2.649  1.00  0.00     0.058 A 
ATOM     85  C   UNL     1      14.173 -12.192   3.550  1.00  0.00     0.135 A 
ATOM     86  C   UNL     1      16.136 -11.398   2.410  1.00  0.00     0.135 A 
ATOM     87  F   UNL     1      12.859 -12.126   3.817  1.00  0.00    -0.206 F 
ATOM     88  C   UNL     1      14.933 -13.146   4.218  1.00  0.00     0.059 A 
ATOM     89  C   UNL     1      16.912 -12.361   3.048  1.00  0.00     0.059 A 
ATOM     90  F   UNL     1      16.742 -10.565   1.549  1.00  0.00    -0.206 F 
ATOM     91  C   UNL     1      16.304 -13.219   3.964  1.00  0.00     0.060 A 
BRANCH  91  92
ATOM     92  S   UNL     1      17.283 -14.461   4.835  1.00  0.00     0.124 S 
ATOM     93  O   UNL     1      17.406 -13.861   6.159  1.00  0.00    -0.237 OA
ATOM     94  O   UNL     1      16.433 -15.646   4.753  1.00  0.00    -0.237 OA
ATOM     95  O   UNL     1      18.516 -14.527   4.057  1.00  0.00    -0.744 OA
ENDBRANCH  91  92
ENDBRANCH  59  84
ENDBRANCH  33  34
ENDBRANCH  25  28
ENDBRANCH  23  24
ENDBRANCH  22  23
ENDBRANCH   1  22
TORSDOF 17
