REMARK SMILES O=C(NCCCNC(=O)[C@@H](NC(=O)c1ccncc1Cl)C1CC1)c1ccc(-c2c3nc(c(-c4c(F)cc(S(=O)(=O)[O-])cc4F)c4ccc([nH]4)c(-c4c(F)cc(S(=O)(=O)[O-])cc4F)c4nc(c(-c5c(F)cc(S(=O)(=O)[O-])cc5F)c5ccc2[nH]5)C=C4)C=C3)cc1
REMARK SMILES IDX 4 1 3 2 1 3 2 4 24 6 25 7 89 8 26 9 88 10 27 11 28 12 29 13
REMARK SMILES IDX 82 14 30 15 87 16 81 17 83 18 31 19 86 20 80 21 79 22 32 24
REMARK SMILES IDX 66 25 45 26 65 27 46 28 49 29 64 30 84 31 47 32 48 33 63 35
REMARK SMILES IDX 85 36 50 37 33 38 34 39 43 40 35 41 36 42 42 43 44 44 37 45
REMARK SMILES IDX 38 46 39 47 40 48 41 49 67 50 68 51 77 52 69 53 70 54 76 55
REMARK SMILES IDX 78 56 71 57 72 58 73 59 74 60 75 61 51 62 52 63 61 64 53 65
REMARK SMILES IDX 54 66 60 67 62 68 55 69 56 70 57 71 58 72 59 73 5 74 6 75
REMARK SMILES IDX 7 76 8 77 9 79 10 80 11 81 12 82 13 84 14 85 15 86 19 87
REMARK SMILES IDX 16 88 18 89 20 90 17 91 21 92 22 93 23 94
REMARK H PARENT 3 5 83 23 49 34 7 78 11 83
REMARK Flexibility Score: inf
ROOT
ATOM      1  C   UNL     1       4.448   0.616  -1.105  1.00  0.00     0.118 C 
ENDROOT
BRANCH   1   2
ATOM      2  N   UNL     1       3.017   0.693  -0.820  1.00  0.00    -0.352 N 
ATOM      3  O   UNL     1       1.078   0.122   0.185  1.00  0.00    -0.269 OA
ATOM      4  C   UNL     1       2.306   0.105   0.201  1.00  0.00     0.251 C 
ATOM      5  H   UNL     1       2.489   1.242  -1.443  1.00  0.00     0.163 HD
BRANCH   4   6
ATOM      6  C   UNL     1       3.040  -0.563   1.294  1.00  0.00     0.039 A 
ATOM      7  C   UNL     1       4.193   0.028   1.808  1.00  0.00     0.014 A 
ATOM      8  C   UNL     1       2.604  -1.799   1.777  1.00  0.00     0.014 A 
ATOM      9  C   UNL     1       5.015  -0.699   2.651  1.00  0.00     0.010 A 
ATOM     10  C   UNL     1       3.369  -2.472   2.736  1.00  0.00     0.010 A 
ATOM     11  C   UNL     1       4.598  -1.942   3.155  1.00  0.00    -0.014 A 
BRANCH  11  12
ATOM     12  C   UNL     1       5.447  -2.596   4.182  1.00  0.00     0.031 A 
ATOM     13  C   UNL     1       6.089  -3.933   3.943  1.00  0.00     0.074 A 
ATOM     14  C   UNL     1       5.693  -1.910   5.317  1.00  0.00     0.049 A 
ATOM     15  N   UNL     1       6.906  -4.597   4.720  1.00  0.00    -0.248 NA
ATOM     16  C   UNL     1       5.771  -4.621   2.682  1.00  0.00     0.031 C 
ATOM     17  C   UNL     1       5.100  -0.611   5.658  1.00  0.00     0.029 A 
ATOM     18  N   UNL     1       6.525  -2.177   6.371  1.00  0.00    -0.354 N 
ATOM     19  C   UNL     1       7.193  -5.782   4.052  1.00  0.00     0.074 A 
ATOM     20  C   UNL     1       6.436  -5.761   2.819  1.00  0.00     0.031 C 
ATOM     21  C   UNL     1       5.639  -0.164   6.799  1.00  0.00     0.029 A 
ATOM     22  C   UNL     1       6.552  -1.176   7.313  1.00  0.00     0.049 A 
ATOM     23  H   UNL     1       7.052  -3.004   6.446  1.00  0.00     0.167 HD
ATOM     24  C   UNL     1       8.021  -6.785   4.433  1.00  0.00     0.037 A 
ATOM     25  C   UNL     1       7.220  -1.087   8.477  1.00  0.00     0.037 A 
ATOM     26  C   UNL     1       8.775  -6.785   5.663  1.00  0.00     0.049 A 
ATOM     27  C   UNL     1       8.127  -2.213   8.871  1.00  0.00     0.074 A 
ATOM     28  C   UNL     1       9.640  -7.753   6.144  1.00  0.00     0.029 A 
ATOM     29  N   UNL     1       8.759  -5.765   6.605  1.00  0.00    -0.354 N 
ATOM     30  N   UNL     1       8.386  -3.324   8.223  1.00  0.00    -0.248 NA
ATOM     31  C   UNL     1       8.829  -2.079  10.152  1.00  0.00     0.031 C 
ATOM     32  C   UNL     1      10.119  -7.335   7.391  1.00  0.00     0.029 A 
ATOM     33  C   UNL     1       9.590  -6.085   7.667  1.00  0.00     0.049 A 
ATOM     34  H   UNL     1       8.234  -4.936   6.530  1.00  0.00     0.167 HD
ATOM     35  C   UNL     1       9.286  -4.022   9.017  1.00  0.00     0.074 A 
ATOM     36  C   UNL     1       9.552  -3.191  10.174  1.00  0.00     0.031 C 
ATOM     37  C   UNL     1       9.834  -5.246   8.814  1.00  0.00     0.037 A 
BRANCH  24  38
ATOM     38  C   UNL     1       8.156  -7.972   3.517  1.00  0.00     0.058 A 
ATOM     39  C   UNL     1       8.855  -7.888   2.302  1.00  0.00     0.135 A 
ATOM     40  C   UNL     1       7.635  -9.224   3.884  1.00  0.00     0.135 A 
ATOM     41  F   UNL     1       9.361  -6.714   1.893  1.00  0.00    -0.206 F 
ATOM     42  C   UNL     1       9.018  -8.998   1.476  1.00  0.00     0.059 A 
ATOM     43  C   UNL     1       7.806 -10.352   3.086  1.00  0.00     0.059 A 
ATOM     44  F   UNL     1       6.957  -9.362   5.034  1.00  0.00    -0.206 F 
ATOM     45  C   UNL     1       8.492 -10.226   1.879  1.00  0.00     0.060 A 
BRANCH  45  46
ATOM     46  S   UNL     1       8.729 -11.660   0.806  1.00  0.00     0.124 S 
ATOM     47  O   UNL     1       7.819 -11.355  -0.294  1.00  0.00    -0.237 OA
ATOM     48  O   UNL     1      10.152 -11.582   0.491  1.00  0.00    -0.237 OA
ATOM     49  O   UNL     1       8.338 -12.785   1.649  1.00  0.00    -0.744 OA
ENDBRANCH  45  46
ENDBRANCH  24  38
BRANCH  25  50
ATOM     50  C   UNL     1       7.022   0.098   9.352  1.00  0.00     0.058 A 
ATOM     51  C   UNL     1       8.050   1.025   9.571  1.00  0.00     0.135 A 
ATOM     52  C   UNL     1       5.783   0.335   9.970  1.00  0.00     0.135 A 
ATOM     53  F   UNL     1       9.251   0.844   9.001  1.00  0.00    -0.206 F 
ATOM     54  C   UNL     1       7.865   2.135  10.390  1.00  0.00     0.059 A 
ATOM     55  C   UNL     1       5.564   1.453  10.765  1.00  0.00     0.059 A 
ATOM     56  F   UNL     1       4.759  -0.510   9.771  1.00  0.00    -0.206 F 
ATOM     57  C   UNL     1       6.617   2.339  10.983  1.00  0.00     0.060 A 
BRANCH  57  58
ATOM     58  S   UNL     1       6.371   3.798  12.017  1.00  0.00     0.124 S 
ATOM     59  O   UNL     1       7.062   3.407  13.240  1.00  0.00    -0.237 OA
ATOM     60  O   UNL     1       7.009   4.847  11.228  1.00  0.00    -0.237 OA
ATOM     61  O   UNL     1       4.918   3.896  12.115  1.00  0.00    -0.744 OA
ENDBRANCH  57  58
ENDBRANCH  25  50
BRANCH  37  62
ATOM     62  C   UNL     1      10.785  -5.740   9.866  1.00  0.00     0.058 A 
ATOM     63  C   UNL     1      10.333  -6.149  11.131  1.00  0.00     0.135 A 
ATOM     64  C   UNL     1      12.162  -5.808   9.605  1.00  0.00     0.135 A 
ATOM     65  F   UNL     1       9.026  -6.094  11.432  1.00  0.00    -0.206 F 
ATOM     66  C   UNL     1      11.219  -6.570  12.116  1.00  0.00     0.059 A 
ATOM     67  C   UNL     1      13.064  -6.254  10.566  1.00  0.00     0.059 A 
ATOM     68  F   UNL     1      12.644  -5.438   8.408  1.00  0.00    -0.206 F 
ATOM     69  C   UNL     1      12.584  -6.614  11.825  1.00  0.00     0.060 A 
BRANCH  69  70
ATOM     70  S   UNL     1      13.725  -7.162  13.112  1.00  0.00     0.124 S 
ATOM     71  O   UNL     1      13.769  -5.991  13.982  1.00  0.00    -0.237 OA
ATOM     72  O   UNL     1      13.045  -8.332  13.657  1.00  0.00    -0.237 OA
ATOM     73  O   UNL     1      14.954  -7.444  12.376  1.00  0.00    -0.744 OA
ENDBRANCH  69  70
ENDBRANCH  37  62
ENDBRANCH  11  12
ENDBRANCH   4   6
ENDBRANCH   1   2
BRANCH   1  74
ATOM     74  C   UNL     1       4.726   0.112  -2.504  1.00  0.00     0.042 C 
BRANCH  74  75
ATOM     75  C   UNL     1       4.326   1.117  -3.563  1.00  0.00     0.117 C 
BRANCH  75  76
ATOM     76  N   UNL     1       5.287   2.200  -3.706  1.00  0.00    -0.354 N 
ATOM     77  C   UNL     1       6.073   2.507  -4.790  1.00  0.00     0.242 C 
ATOM     78  H   UNL     1       5.387   2.789  -2.923  1.00  0.00     0.163 HD
ATOM     79  O   UNL     1       6.778   3.517  -4.740  1.00  0.00    -0.273 OA
BRANCH  77  80
ATOM     80  C   UNL     1       6.035   1.590  -6.052  1.00  0.00     0.174 C 
BRANCH  80  81
ATOM     81  N   UNL     1       6.547   0.294  -5.572  1.00  0.00    -0.340 N 
ATOM     82  C   UNL     1       6.369  -1.034  -5.788  1.00  0.00     0.253 C 
ATOM     83  H   UNL     1       7.232   0.436  -4.878  1.00  0.00     0.164 HD
ATOM     84  O   UNL     1       7.129  -1.836  -5.253  1.00  0.00    -0.269 OA
BRANCH  82  85
ATOM     85  C   UNL     1       5.240  -1.570  -6.535  1.00  0.00     0.061 A 
ATOM     86  C   UNL     1       4.098  -1.920  -5.810  1.00  0.00     0.035 A 
ATOM     87  C   UNL     1       5.347  -1.903  -7.878  1.00  0.00     0.072 A 
ATOM     88  C   UNL     1       3.043  -2.490  -6.494  1.00  0.00     0.112 A 
ATOM     89  C   UNL     1       4.226  -2.460  -8.473  1.00  0.00     0.132 A 
ATOM     90  Cl  UNL     1       6.769  -1.638  -8.810  1.00  0.00    -0.082 Cl
ATOM     91  N   UNL     1       3.069  -2.737  -7.819  1.00  0.00    -0.263 NA
ENDBRANCH  82  85
ENDBRANCH  80  81
BRANCH  80  92
ATOM     92  C   UNL     1       4.686   1.701  -6.722  1.00  0.00     0.021 C 
ATOM     93  C   UNL     1       4.580   2.622  -7.923  1.00  0.00     0.006 C 
ATOM     94  C   UNL     1       4.297   1.164  -8.074  1.00  0.00     0.006 C 
ENDBRANCH  80  92
ENDBRANCH  77  80
ENDBRANCH  75  76
ENDBRANCH  74  75
ENDBRANCH   1  74
TORSDOF 16
