REMARK SMILES COc1ccccc1[C@@H]1CN(C(=O)c2cnn3ccccc23)C[C@H]1C(=O)NCCCNC(=O)c1ccc(-c2c3nc(c(-c4c(F)cc(S(=O)(=O)[O-])cc4F)c4ccc([nH]4)c(-c4c(F)cc(S(=O)(=O)[O-])cc4F)c4nc(c(-c5c(F)cc(S(=O)(=O)[O-])cc5F)c5ccc2[nH]5)C=C4)C=C3)cc1
REMARK SMILES IDX 29 1 28 2 27 3 25 4 26 5 24 7 9 8 10 9 11 10 23 11 8 12 3 13
REMARK SMILES IDX 4 14 5 15 7 16 6 17 2 18 1 19 12 20 13 21 14 22 15 23 22 24
REMARK SMILES IDX 16 25 17 26 21 27 18 28 20 29 19 30 30 31 31 32 32 33 33 35
REMARK SMILES IDX 34 36 35 37 99 38 36 39 98 40 37 41 38 42 39 43 92 44 40 45
REMARK SMILES IDX 97 46 91 47 93 48 41 49 96 50 90 51 89 52 42 54 76 55 55 56
REMARK SMILES IDX 75 57 56 58 59 59 74 60 94 61 57 62 58 63 73 65 95 66 60 67
REMARK SMILES IDX 43 68 44 69 53 70 45 71 46 72 52 73 54 74 47 75 48 76 49 77
REMARK SMILES IDX 50 78 51 79 77 80 78 81 87 82 79 83 80 84 86 85 88 86 81 87
REMARK SMILES IDX 82 88 83 89 84 90 85 91 61 92 62 93 71 94 63 95 64 96 70 97
REMARK SMILES IDX 72 98 65 99 66 100 67 101 68 102 69 103
REMARK H PARENT 27 6 31 34 93 53 59 64
REMARK Flexibility Score: inf
ROOT
ATOM      1  C   UNL     1       6.416  -2.607   0.693  1.00  0.00     0.042 C 
ENDROOT
BRANCH   1   2
ATOM      2  C   UNL     1       5.603  -2.288  -0.559  1.00  0.00     0.117 C 
BRANCH   2   3
ATOM      3  N   UNL     1       4.407  -3.100  -0.703  1.00  0.00    -0.356 N 
ATOM      4  C   UNL     1       3.086  -2.779  -0.671  1.00  0.00     0.225 C 
ATOM      5  O   UNL     1       2.286  -3.667  -0.974  1.00  0.00    -0.275 OA
ATOM      6  H   UNL     1       4.585  -4.057  -0.852  1.00  0.00     0.163 HD
BRANCH   4   7
ATOM      7  C   UNL     1       2.570  -1.405  -0.281  1.00  0.00     0.107 C 
ATOM      8  C   UNL     1       2.884  -1.012   1.177  1.00  0.00     0.057 C 
ATOM      9  C   UNL     1       3.231   0.473   1.116  1.00  0.00     0.129 C 
ATOM     10  N   UNL     1       3.771   0.647  -0.221  1.00  0.00    -0.337 N 
ATOM     11  C   UNL     1       3.134  -0.279  -1.148  1.00  0.00     0.134 C 
BRANCH   8  12
ATOM     12  C   UNL     1       1.856  -1.397   2.219  1.00  0.00    -0.000 A 
ATOM     13  C   UNL     1       0.609  -0.775   2.403  1.00  0.00     0.122 A 
ATOM     14  C   UNL     1      -0.257  -1.199   3.419  1.00  0.00     0.047 A 
ATOM     15  C   UNL     1       0.109  -2.234   4.278  1.00  0.00     0.004 A 
ATOM     16  C   UNL     1       2.202  -2.442   3.103  1.00  0.00     0.008 A 
ATOM     17  C   UNL     1       1.347  -2.845   4.130  1.00  0.00     0.001 A 
BRANCH  13  18
ATOM     18  O   UNL     1       0.256   0.385   1.766  1.00  0.00    -0.496 OA
ATOM     19  C   UNL     1      -0.315   0.189   0.478  1.00  0.00     0.278 C 
ENDBRANCH  13  18
ENDBRANCH   8  12
BRANCH  10  20
ATOM     20  C   UNL     1       4.628   1.638  -0.664  1.00  0.00     0.257 C 
ATOM     21  O   UNL     1       4.897   1.778  -1.854  1.00  0.00    -0.269 OA
BRANCH  20  22
ATOM     22  C   UNL     1       5.163   2.546   0.328  1.00  0.00     0.085 A 
ATOM     23  C   UNL     1       5.011   3.944   0.349  1.00  0.00     0.150 A 
ATOM     24  C   UNL     1       5.965   2.284   1.423  1.00  0.00     0.079 A 
ATOM     25  N   UNL     1       5.571   4.522   1.413  1.00  0.00    -0.176 NA
ATOM     26  N   UNL     1       6.139   3.497   2.098  1.00  0.00    -0.240 N 
ATOM     27  C   UNL     1       6.579   1.125   1.985  1.00  0.00     0.029 A 
ATOM     28  C   UNL     1       6.807   3.572   3.322  1.00  0.00     0.113 A 
ATOM     29  C   UNL     1       7.227   1.209   3.161  1.00  0.00     0.004 A 
ATOM     30  C   UNL     1       7.336   2.468   3.876  1.00  0.00     0.020 A 
ENDBRANCH  20  22
ENDBRANCH  10  20
ENDBRANCH   4   7
ENDBRANCH   2   3
ENDBRANCH   1   2
BRANCH   1  31
ATOM     31  C   UNL     1       7.166  -3.918   0.590  1.00  0.00     0.118 C 
BRANCH  31  32
ATOM     32  N   UNL     1       8.184  -3.892  -0.460  1.00  0.00    -0.352 N 
ATOM     33  C   UNL     1       8.978  -4.933  -0.911  1.00  0.00     0.251 C 
ATOM     34  H   UNL     1       8.323  -3.023  -0.903  1.00  0.00     0.163 HD
ATOM     35  O   UNL     1       9.978  -4.722  -1.564  1.00  0.00    -0.269 OA
BRANCH  33  36
ATOM     36  C   UNL     1       8.577  -6.303  -0.542  1.00  0.00     0.039 A 
ATOM     37  C   UNL     1       9.500  -7.200  -0.002  1.00  0.00     0.014 A 
ATOM     38  C   UNL     1       7.229  -6.628  -0.639  1.00  0.00     0.014 A 
ATOM     39  C   UNL     1       9.033  -8.395   0.540  1.00  0.00     0.010 A 
ATOM     40  C   UNL     1       6.758  -7.712   0.055  1.00  0.00     0.010 A 
ATOM     41  C   UNL     1       7.652  -8.635   0.596  1.00  0.00    -0.014 A 
BRANCH  41  42
ATOM     42  C   UNL     1       7.117  -9.795   1.311  1.00  0.00     0.031 A 
ATOM     43  C   UNL     1       7.581  -9.961   2.722  1.00  0.00     0.074 A 
ATOM     44  C   UNL     1       6.077 -10.513   0.832  1.00  0.00     0.049 A 
ATOM     45  N   UNL     1       8.227 -10.952   3.246  1.00  0.00    -0.248 NA
ATOM     46  C   UNL     1       7.386  -8.831   3.647  1.00  0.00     0.031 C 
ATOM     47  C   UNL     1       5.303 -10.277  -0.396  1.00  0.00     0.029 A 
ATOM     48  N   UNL     1       5.395 -11.534   1.418  1.00  0.00    -0.354 N 
ATOM     49  C   UNL     1       8.325 -10.673   4.609  1.00  0.00     0.074 A 
ATOM     50  C   UNL     1       7.960  -9.289   4.761  1.00  0.00     0.031 C 
ATOM     51  C   UNL     1       4.131 -10.941  -0.327  1.00  0.00     0.029 A 
ATOM     52  C   UNL     1       4.158 -11.796   0.842  1.00  0.00     0.049 A 
ATOM     53  H   UNL     1       5.747 -12.042   2.184  1.00  0.00     0.167 HD
ATOM     54  C   UNL     1       8.465 -11.662   5.538  1.00  0.00     0.037 A 
ATOM     55  C   UNL     1       3.204 -12.640   1.299  1.00  0.00     0.037 A 
ATOM     56  C   UNL     1       8.892 -12.895   4.926  1.00  0.00     0.049 A 
ATOM     57  C   UNL     1       3.881 -13.601   2.203  1.00  0.00     0.074 A 
ATOM     58  C   UNL     1       9.988 -13.289   4.184  1.00  0.00     0.029 A 
ATOM     59  N   UNL     1       7.945 -13.873   4.741  1.00  0.00    -0.354 N 
ATOM     60  N   UNL     1       4.785 -14.460   1.812  1.00  0.00    -0.248 NA
ATOM     61  C   UNL     1       3.861 -13.330   3.631  1.00  0.00     0.031 C 
ATOM     62  C   UNL     1       9.474 -14.215   3.228  1.00  0.00     0.029 A 
ATOM     63  C   UNL     1       8.109 -14.373   3.474  1.00  0.00     0.049 A 
ATOM     64  H   UNL     1       7.272 -14.163   5.398  1.00  0.00     0.167 HD
ATOM     65  C   UNL     1       5.701 -14.514   2.851  1.00  0.00     0.074 A 
ATOM     66  C   UNL     1       5.018 -13.896   3.985  1.00  0.00     0.031 C 
ATOM     67  C   UNL     1       7.017 -14.799   2.621  1.00  0.00     0.037 A 
BRANCH  54  68
ATOM     68  C   UNL     1       7.864 -11.627   6.930  1.00  0.00     0.058 A 
ATOM     69  C   UNL     1       8.181 -12.650   7.851  1.00  0.00     0.135 A 
ATOM     70  C   UNL     1       6.775 -10.804   7.298  1.00  0.00     0.135 A 
ATOM     71  F   UNL     1       9.196 -13.496   7.610  1.00  0.00    -0.206 F 
ATOM     72  C   UNL     1       7.421 -12.891   8.998  1.00  0.00     0.059 A 
ATOM     73  C   UNL     1       6.040 -10.992   8.464  1.00  0.00     0.059 A 
ATOM     74  F   UNL     1       6.302  -9.840   6.500  1.00  0.00    -0.206 F 
ATOM     75  C   UNL     1       6.338 -12.067   9.283  1.00  0.00     0.060 A 
BRANCH  75  76
ATOM     76  S   UNL     1       5.270 -12.450  10.683  1.00  0.00     0.124 S 
ATOM     77  O   UNL     1       4.593 -13.651  10.208  1.00  0.00    -0.237 OA
ATOM     78  O   UNL     1       6.237 -12.641  11.759  1.00  0.00    -0.237 OA
ATOM     79  O   UNL     1       4.436 -11.257  10.802  1.00  0.00    -0.744 OA
ENDBRANCH  75  76
ENDBRANCH  54  68
BRANCH  55  80
ATOM     80  C   UNL     1       1.730 -12.473   1.224  1.00  0.00     0.058 A 
ATOM     81  C   UNL     1       0.862 -13.543   1.493  1.00  0.00     0.135 A 
ATOM     82  C   UNL     1       1.137 -11.195   1.147  1.00  0.00     0.135 A 
ATOM     83  F   UNL     1       1.343 -14.790   1.603  1.00  0.00    -0.206 F 
ATOM     84  C   UNL     1      -0.506 -13.354   1.721  1.00  0.00     0.059 A 
ATOM     85  C   UNL     1      -0.225 -10.983   1.356  1.00  0.00     0.059 A 
ATOM     86  F   UNL     1       1.881 -10.095   0.955  1.00  0.00    -0.206 F 
ATOM     87  C   UNL     1      -1.037 -12.065   1.670  1.00  0.00     0.060 A 
BRANCH  87  88
ATOM     88  S   UNL     1      -2.762 -11.796   2.142  1.00  0.00     0.124 S 
ATOM     89  O   UNL     1      -3.478 -12.415   1.032  1.00  0.00    -0.237 OA
ATOM     90  O   UNL     1      -2.843 -12.494   3.421  1.00  0.00    -0.237 OA
ATOM     91  O   UNL     1      -2.869 -10.342   2.223  1.00  0.00    -0.744 OA
ENDBRANCH  87  88
ENDBRANCH  55  80
BRANCH  67  92
ATOM     92  C   UNL     1       7.403 -15.368   1.277  1.00  0.00     0.058 A 
ATOM     93  C   UNL     1       7.326 -14.658   0.066  1.00  0.00     0.135 A 
ATOM     94  C   UNL     1       8.048 -16.614   1.244  1.00  0.00     0.135 A 
ATOM     95  F   UNL     1       6.816 -13.422   0.022  1.00  0.00    -0.206 F 
ATOM     96  C   UNL     1       7.842 -15.171  -1.126  1.00  0.00     0.059 A 
ATOM     97  C   UNL     1       8.597 -17.132   0.072  1.00  0.00     0.059 A 
ATOM     98  F   UNL     1       8.210 -17.316   2.377  1.00  0.00    -0.206 F 
ATOM     99  C   UNL     1       8.486 -16.407  -1.111  1.00  0.00     0.060 A 
BRANCH  99 100
ATOM    100  S   UNL     1       9.258 -17.011  -2.628  1.00  0.00     0.124 S 
ATOM    101  O   UNL     1       8.101 -17.390  -3.433  1.00  0.00    -0.237 OA
ATOM    102  O   UNL     1      10.000 -15.843  -3.096  1.00  0.00    -0.237 OA
ATOM    103  O   UNL     1      10.089 -18.121  -2.169  1.00  0.00    -0.744 OA
ENDBRANCH  99 100
ENDBRANCH  67  92
ENDBRANCH  41  42
ENDBRANCH  33  36
ENDBRANCH  31  32
ENDBRANCH   1  31
TORSDOF 17
