REMARK SMILES C[C@@H](Oc1cncc(C(=O)NCCCNC(=O)c2ccc(-c3c4nc(c(-c5c(F)cc(S(=O)(=O)[O-])cc5F)c5ccc([nH]5)c(-c5c(F)cc(S(=O)(=O)[O-])cc5F)c5nc(c(-c6c(F)cc(S(=O)(=O)[O-])cc6F)c6ccc3[nH]6)C=C5)C=C4)cc2)n1)C(F)(F)F
REMARK SMILES IDX 13 1 12 2 11 3 9 4 10 5 8 7 4 8 5 9 84 10 6 11 7 12 3 13
REMARK SMILES IDX 2 14 1 15 85 16 86 17 87 18 88 19 14 20 15 21 16 22 17 24
REMARK SMILES IDX 18 25 19 26 83 27 20 28 82 29 21 30 22 31 23 32 76 33 24 34
REMARK SMILES IDX 81 35 75 36 77 37 25 38 80 39 74 40 73 41 26 43 60 44 39 45
REMARK SMILES IDX 59 46 40 47 43 48 58 49 78 50 41 51 42 52 57 54 79 55 44 56
REMARK SMILES IDX 27 57 28 58 37 59 29 60 30 61 36 62 38 63 31 64 32 65 33 66
REMARK SMILES IDX 34 67 35 68 61 69 62 70 71 71 63 72 64 73 70 74 72 75 65 76
REMARK SMILES IDX 66 77 67 78 68 79 69 80 45 81 46 82 55 83 47 84 48 85 54 86
REMARK SMILES IDX 56 87 49 88 50 89 51 90 52 91 53 92
REMARK H PARENT 11 6 15 23 77 42 43 53
REMARK Flexibility Score: inf
ROOT
ATOM      1  C   UNL     1       1.852  -3.103  -6.217  1.00  0.00     0.042 C 
ENDROOT
BRANCH   1   2
ATOM      2  C   UNL     1       2.283  -3.981  -5.047  1.00  0.00     0.118 C 
BRANCH   2   3
ATOM      3  N   UNL     1       3.728  -3.982  -4.894  1.00  0.00    -0.351 N 
ATOM      4  C   UNL     1       4.554  -3.387  -3.974  1.00  0.00     0.271 C 
ATOM      5  O   UNL     1       5.769  -3.540  -4.129  1.00  0.00    -0.267 OA
ATOM      6  H   UNL     1       4.203  -4.507  -5.578  1.00  0.00     0.163 HD
BRANCH   4   7
ATOM      7  C   UNL     1       4.069  -2.629  -2.784  1.00  0.00     0.150 A 
ATOM      8  C   UNL     1       2.412  -1.798  -1.438  1.00  0.00     0.233 A 
ATOM      9  C   UNL     1       3.349  -1.549  -0.442  1.00  0.00     0.179 A 
ATOM     10  N   UNL     1       2.748  -2.345  -2.625  1.00  0.00    -0.205 NA
ATOM     11  N   UNL     1       4.673  -1.765  -0.609  1.00  0.00    -0.257 NA
ATOM     12  C   UNL     1       5.008  -2.319  -1.802  1.00  0.00     0.145 A 
BRANCH   8  13
ATOM     13  O   UNL     1       1.073  -1.728  -1.163  1.00  0.00    -0.464 OA
BRANCH  13  14
ATOM     14  C   UNL     1       0.529  -0.394  -1.262  1.00  0.00     0.277 C 
ATOM     15  C   UNL     1       0.721   0.338   0.069  1.00  0.00     0.063 C 
BRANCH  14  16
ATOM     16  C   UNL     1      -0.972  -0.501  -1.561  1.00  0.00     0.425 C 
ATOM     17  F   UNL     1      -1.552   0.722  -1.571  1.00  0.00    -0.167 F 
ATOM     18  F   UNL     1      -1.203  -1.069  -2.764  1.00  0.00    -0.167 F 
ATOM     19  F   UNL     1      -1.611  -1.239  -0.623  1.00  0.00    -0.167 F 
ENDBRANCH  14  16
ENDBRANCH  13  14
ENDBRANCH   8  13
ENDBRANCH   4   7
ENDBRANCH   2   3
ENDBRANCH   1   2
BRANCH   1  20
ATOM     20  C   UNL     1       2.283  -3.648  -7.579  1.00  0.00     0.118 C 
BRANCH  20  21
ATOM     21  N   UNL     1       1.671  -4.937  -7.886  1.00  0.00    -0.352 N 
ATOM     22  C   UNL     1       0.779  -5.283  -8.871  1.00  0.00     0.251 C 
ATOM     23  H   UNL     1       1.940  -5.675  -7.293  1.00  0.00     0.163 HD
ATOM     24  O   UNL     1       0.221  -6.378  -8.826  1.00  0.00    -0.269 OA
BRANCH  22  25
ATOM     25  C   UNL     1       0.477  -4.343  -9.969  1.00  0.00     0.039 A 
ATOM     26  C   UNL     1      -0.853  -4.154 -10.354  1.00  0.00     0.014 A 
ATOM     27  C   UNL     1       1.501  -3.654 -10.623  1.00  0.00     0.014 A 
ATOM     28  C   UNL     1      -1.163  -3.204 -11.330  1.00  0.00     0.010 A 
ATOM     29  C   UNL     1       1.186  -2.659 -11.545  1.00  0.00     0.010 A 
ATOM     30  C   UNL     1      -0.150  -2.411 -11.894  1.00  0.00    -0.014 A 
BRANCH  30  31
ATOM     31  C   UNL     1      -0.464  -1.282 -12.808  1.00  0.00     0.031 A 
ATOM     32  C   UNL     1       0.033  -1.292 -14.227  1.00  0.00     0.074 A 
ATOM     33  C   UNL     1      -1.124  -0.209 -12.327  1.00  0.00     0.049 A 
ATOM     34  N   UNL     1      -0.021  -0.344 -15.126  1.00  0.00    -0.248 NA
ATOM     35  C   UNL     1       0.694  -2.523 -14.691  1.00  0.00     0.031 C 
ATOM     36  C   UNL     1      -1.632  -0.070 -10.959  1.00  0.00     0.029 A 
ATOM     37  N   UNL     1      -1.464   0.980 -12.924  1.00  0.00    -0.354 N 
ATOM     38  C   UNL     1       0.597  -0.859 -16.260  1.00  0.00     0.074 A 
ATOM     39  C   UNL     1       1.064  -2.186 -15.920  1.00  0.00     0.031 C 
ATOM     40  C   UNL     1      -2.226   1.127 -10.827  1.00  0.00     0.029 A 
ATOM     41  C   UNL     1      -2.095   1.864 -12.079  1.00  0.00     0.049 A 
ATOM     42  H   UNL     1      -1.274   1.181 -13.869  1.00  0.00     0.167 HD
ATOM     43  C   UNL     1       0.740  -0.285 -17.478  1.00  0.00     0.037 A 
ATOM     44  C   UNL     1      -2.496   3.134 -12.279  1.00  0.00     0.037 A 
ATOM     45  C   UNL     1       0.264   1.033 -17.811  1.00  0.00     0.049 A 
ATOM     46  C   UNL     1      -2.264   3.769 -13.625  1.00  0.00     0.074 A 
ATOM     47  C   UNL     1       0.333   1.690 -19.027  1.00  0.00     0.029 A 
ATOM     48  N   UNL     1      -0.367   1.897 -16.927  1.00  0.00    -0.354 N 
ATOM     49  N   UNL     1      -1.724   3.248 -14.701  1.00  0.00    -0.248 NA
ATOM     50  C   UNL     1      -2.692   5.167 -13.784  1.00  0.00     0.031 C 
ATOM     51  C   UNL     1      -0.211   2.968 -18.867  1.00  0.00     0.029 A 
ATOM     52  C   UNL     1      -0.667   3.090 -17.565  1.00  0.00     0.049 A 
ATOM     53  H   UNL     1      -0.571   1.692 -15.986  1.00  0.00     0.167 HD
ATOM     54  C   UNL     1      -1.771   4.245 -15.669  1.00  0.00     0.074 A 
ATOM     55  C   UNL     1      -2.412   5.391 -15.060  1.00  0.00     0.031 C 
ATOM     56  C   UNL     1      -1.318   4.218 -16.947  1.00  0.00     0.037 A 
BRANCH  43  57
ATOM     57  C   UNL     1       1.425  -1.079 -18.556  1.00  0.00     0.058 A 
ATOM     58  C   UNL     1       0.802  -2.185 -19.157  1.00  0.00     0.135 A 
ATOM     59  C   UNL     1       2.679  -0.685 -19.052  1.00  0.00     0.135 A 
ATOM     60  F   UNL     1      -0.389  -2.615 -18.712  1.00  0.00    -0.206 F 
ATOM     61  C   UNL     1       1.401  -2.877 -20.205  1.00  0.00     0.059 A 
ATOM     62  C   UNL     1       3.284  -1.346 -20.118  1.00  0.00     0.059 A 
ATOM     63  F   UNL     1       3.320   0.363 -18.512  1.00  0.00    -0.206 F 
ATOM     64  C   UNL     1       2.639  -2.445 -20.684  1.00  0.00     0.060 A 
BRANCH  64  65
ATOM     65  S   UNL     1       3.379  -3.331 -22.071  1.00  0.00     0.124 S 
ATOM     66  O   UNL     1       3.737  -4.602 -21.449  1.00  0.00    -0.237 OA
ATOM     67  O   UNL     1       2.278  -3.383 -23.028  1.00  0.00    -0.237 OA
ATOM     68  O   UNL     1       4.503  -2.484 -22.457  1.00  0.00    -0.744 OA
ENDBRANCH  64  65
ENDBRANCH  43  57
BRANCH  44  69
ATOM     69  C   UNL     1      -3.140   3.907 -11.181  1.00  0.00     0.058 A 
ATOM     70  C   UNL     1      -4.480   4.312 -11.273  1.00  0.00     0.135 A 
ATOM     71  C   UNL     1      -2.422   4.289 -10.036  1.00  0.00     0.135 A 
ATOM     72  F   UNL     1      -5.208   3.978 -12.350  1.00  0.00    -0.206 F 
ATOM     73  C   UNL     1      -5.074   5.100 -10.293  1.00  0.00     0.059 A 
ATOM     74  C   UNL     1      -3.004   5.049  -9.026  1.00  0.00     0.059 A 
ATOM     75  F   UNL     1      -1.142   3.914  -9.887  1.00  0.00    -0.206 F 
ATOM     76  C   UNL     1      -4.325   5.468  -9.174  1.00  0.00     0.060 A 
BRANCH  76  77
ATOM     77  S   UNL     1      -5.103   6.492  -7.907  1.00  0.00     0.124 S 
ATOM     78  O   UNL     1      -5.168   7.786  -8.577  1.00  0.00    -0.237 OA
ATOM     79  O   UNL     1      -6.378   5.813  -7.704  1.00  0.00    -0.237 OA
ATOM     80  O   UNL     1      -4.170   6.407  -6.788  1.00  0.00    -0.744 OA
ENDBRANCH  76  77
ENDBRANCH  44  69
BRANCH  56  81
ATOM     81  C   UNL     1      -1.523   5.452 -17.783  1.00  0.00     0.058 A 
ATOM     82  C   UNL     1      -0.778   6.620 -17.562  1.00  0.00     0.135 A 
ATOM     83  C   UNL     1      -2.430   5.445 -18.854  1.00  0.00     0.135 A 
ATOM     84  F   UNL     1       0.096   6.683 -16.544  1.00  0.00    -0.206 F 
ATOM     85  C   UNL     1      -0.938   7.746 -18.363  1.00  0.00     0.059 A 
ATOM     86  C   UNL     1      -2.585   6.548 -19.688  1.00  0.00     0.059 A 
ATOM     87  F   UNL     1      -3.163   4.350 -19.114  1.00  0.00    -0.206 F 
ATOM     88  C   UNL     1      -1.839   7.698 -19.429  1.00  0.00     0.060 A 
BRANCH  88  89
ATOM     89  S   UNL     1      -1.997   9.149 -20.490  1.00  0.00     0.124 S 
ATOM     90  O   UNL     1      -2.696  10.082 -19.612  1.00  0.00    -0.237 OA
ATOM     91  O   UNL     1      -0.604   9.474 -20.781  1.00  0.00    -0.237 OA
ATOM     92  O   UNL     1      -2.770   8.658 -21.627  1.00  0.00    -0.744 OA
ENDBRANCH  88  89
ENDBRANCH  56  81
ENDBRANCH  30  31
ENDBRANCH  22  25
ENDBRANCH  20  21
ENDBRANCH   1  20
TORSDOF 16
