REMARK SMILES Cc1nccn1C1(C(=O)NCCCNC(=O)c2ccc(-c3c4nc(c(-c5c(F)cc(S(=O)(=O)[O-])cc5F)c5ccc([nH]5)c(-c5c(F)cc(S(=O)(=O)[O-])cc5F)c5nc(c(-c6c(F)cc(S(=O)(=O)[O-])cc6F)c6ccc3[nH]6)C=C5)C=C4)cc2)CCN(C(=O)[C@@H]2C[C@H]2c2ccccc2)CC1
REMARK SMILES IDX 12 1 11 2 10 3 8 4 9 5 7 7 83 8 98 9 84 10 97 11 85 12 86 13
REMARK SMILES IDX 87 14 6 15 1 16 2 17 3 18 4 19 5 20 88 21 89 22 90 23 91 24
REMARK SMILES IDX 92 25 96 26 93 27 95 28 94 29 13 30 14 31 15 32 16 34 17 35
REMARK SMILES IDX 18 36 82 37 19 38 81 39 20 40 21 41 22 42 75 43 23 44 80 45
REMARK SMILES IDX 74 46 76 47 24 48 79 49 73 50 72 51 25 53 59 54 38 55 58 56
REMARK SMILES IDX 39 57 42 58 57 59 77 60 40 61 41 62 56 64 78 65 43 66 26 67
REMARK SMILES IDX 27 68 36 69 28 70 29 71 35 72 37 73 30 74 31 75 32 76 33 77
REMARK SMILES IDX 34 78 60 79 61 80 70 81 62 82 63 83 69 84 71 85 64 86 65 87
REMARK SMILES IDX 66 88 67 89 68 90 44 91 45 92 54 93 46 94 47 95 53 96 55 97
REMARK SMILES IDX 48 98 49 99 50 100 51 101 52 102
REMARK H PARENT 10 6 14 33 76 52 42 63
REMARK Flexibility Score: inf
ROOT
ATOM      1  C   UNL     1      -3.273   1.531  -4.401  1.00  0.00     0.042 C 
ENDROOT
BRANCH   1   2
ATOM      2  C   UNL     1      -3.600   0.705  -3.153  1.00  0.00     0.117 C 
BRANCH   2   3
ATOM      3  N   UNL     1      -3.164  -0.683  -3.239  1.00  0.00    -0.354 N 
ATOM      4  C   UNL     1      -2.111  -1.393  -2.734  1.00  0.00     0.246 C 
ATOM      5  O   UNL     1      -1.992  -2.506  -3.256  1.00  0.00    -0.272 OA
ATOM      6  H   UNL     1      -3.767  -1.236  -3.786  1.00  0.00     0.163 HD
BRANCH   4   7
ATOM      7  C   UNL     1      -1.083  -0.820  -1.680  1.00  0.00     0.127 C 
ATOM      8  C   UNL     1      -0.281   0.241  -2.504  1.00  0.00     0.061 C 
ATOM      9  C   UNL     1      -1.845  -0.278  -0.441  1.00  0.00     0.061 C 
ATOM     10  C   UNL     1      -0.268   1.701  -2.013  1.00  0.00     0.122 C 
ATOM     11  C   UNL     1      -1.136   0.937   0.112  1.00  0.00     0.122 C 
ATOM     12  N   UNL     1      -1.138   1.982  -0.878  1.00  0.00    -0.342 N 
ATOM     13  C   UNL     1      -1.711   3.254  -0.780  1.00  0.00     0.226 C 
ATOM     14  O   UNL     1      -1.384   4.146  -1.561  1.00  0.00    -0.275 OA
BRANCH   7  15
ATOM     15  N   UNL     1      -0.170  -1.901  -1.131  1.00  0.00    -0.320 N 
ATOM     16  C   UNL     1       1.836  -0.595  -0.081  1.00  0.00     0.087 C 
ATOM     17  C   UNL     1       1.040  -1.800  -0.431  1.00  0.00     0.106 A 
ATOM     18  N   UNL     1       1.443  -2.983  -0.006  1.00  0.00    -0.242 NA
ATOM     19  C   UNL     1       0.495  -3.875  -0.377  1.00  0.00     0.131 A 
ATOM     20  C   UNL     1      -0.537  -3.230  -1.000  1.00  0.00     0.108 A 
ENDBRANCH   7  15
BRANCH  13  21
ATOM     21  C   UNL     1      -2.797   3.608   0.192  1.00  0.00     0.087 C 
ATOM     22  C   UNL     1      -2.452   3.884   1.637  1.00  0.00     0.023 C 
ATOM     23  C   UNL     1      -3.402   2.773   1.284  1.00  0.00     0.032 C 
BRANCH  23  24
ATOM     24  C   UNL     1      -4.854   2.767   1.644  1.00  0.00    -0.044 A 
ATOM     25  C   UNL     1      -5.229   2.781   2.997  1.00  0.00     0.004 A 
ATOM     26  C   UNL     1      -5.819   2.406   0.692  1.00  0.00     0.004 A 
ATOM     27  C   UNL     1      -6.492   2.348   3.396  1.00  0.00     0.000 A 
ATOM     28  C   UNL     1      -7.085   1.974   1.088  1.00  0.00     0.000 A 
ATOM     29  C   UNL     1      -7.410   1.919   2.441  1.00  0.00     0.000 A 
ENDBRANCH  23  24
ENDBRANCH  13  21
ENDBRANCH   4   7
ENDBRANCH   2   3
ENDBRANCH   1   2
BRANCH   1  30
ATOM     30  C   UNL     1      -4.024   1.078  -5.641  1.00  0.00     0.118 C 
BRANCH  30  31
ATOM     31  N   UNL     1      -5.455   1.386  -5.612  1.00  0.00    -0.352 N 
ATOM     32  C   UNL     1      -6.362   1.265  -6.658  1.00  0.00     0.251 C 
ATOM     33  H   UNL     1      -5.814   1.714  -4.756  1.00  0.00     0.163 HD
ATOM     34  O   UNL     1      -7.427   1.852  -6.634  1.00  0.00    -0.269 OA
BRANCH  32  35
ATOM     35  C   UNL     1      -5.994   0.391  -7.791  1.00  0.00     0.039 A 
ATOM     36  C   UNL     1      -6.250   0.740  -9.119  1.00  0.00     0.014 A 
ATOM     37  C   UNL     1      -5.323  -0.788  -7.483  1.00  0.00     0.014 A 
ATOM     38  C   UNL     1      -5.755  -0.085 -10.129  1.00  0.00     0.010 A 
ATOM     39  C   UNL     1      -4.664  -1.472  -8.464  1.00  0.00     0.010 A 
ATOM     40  C   UNL     1      -4.946  -1.182  -9.788  1.00  0.00    -0.014 A 
BRANCH  40  41
ATOM     41  C   UNL     1      -4.288  -1.997 -10.800  1.00  0.00     0.031 A 
ATOM     42  C   UNL     1      -3.441  -1.211 -11.732  1.00  0.00     0.074 A 
ATOM     43  C   UNL     1      -4.263  -3.349 -10.756  1.00  0.00     0.049 A 
ATOM     44  N   UNL     1      -3.723  -0.862 -12.942  1.00  0.00    -0.248 NA
ATOM     45  C   UNL     1      -2.234  -0.558 -11.196  1.00  0.00     0.031 C 
ATOM     46  C   UNL     1      -4.766  -4.241  -9.700  1.00  0.00     0.029 A 
ATOM     47  N   UNL     1      -3.693  -4.225 -11.625  1.00  0.00    -0.354 N 
ATOM     48  C   UNL     1      -2.594  -0.198 -13.411  1.00  0.00     0.074 A 
ATOM     49  C   UNL     1      -1.843   0.174 -12.242  1.00  0.00     0.031 C 
ATOM     50  C   UNL     1      -4.276  -5.489  -9.879  1.00  0.00     0.029 A 
ATOM     51  C   UNL     1      -3.592  -5.534 -11.156  1.00  0.00     0.049 A 
ATOM     52  H   UNL     1      -3.376  -3.956 -12.517  1.00  0.00     0.167 HD
ATOM     53  C   UNL     1      -2.231  -0.290 -14.721  1.00  0.00     0.037 A 
ATOM     54  C   UNL     1      -2.993  -6.579 -11.781  1.00  0.00     0.037 A 
ATOM     55  C   UNL     1      -3.312  -0.840 -15.507  1.00  0.00     0.049 A 
ATOM     56  C   UNL     1      -2.931  -6.222 -13.221  1.00  0.00     0.074 A 
ATOM     57  C   UNL     1      -4.611  -0.471 -15.792  1.00  0.00     0.029 A 
ATOM     58  N   UNL     1      -3.224  -2.180 -15.799  1.00  0.00    -0.354 N 
ATOM     59  N   UNL     1      -3.985  -6.053 -13.975  1.00  0.00    -0.248 NA
ATOM     60  C   UNL     1      -1.712  -5.602 -13.710  1.00  0.00     0.031 C 
ATOM     61  C   UNL     1      -5.349  -1.693 -15.822  1.00  0.00     0.029 A 
ATOM     62  C   UNL     1      -4.457  -2.752 -15.636  1.00  0.00     0.049 A 
ATOM     63  H   UNL     1      -2.406  -2.651 -16.080  1.00  0.00     0.167 HD
ATOM     64  C   UNL     1      -3.676  -4.967 -14.781  1.00  0.00     0.074 A 
ATOM     65  C   UNL     1      -2.229  -4.803 -14.646  1.00  0.00     0.031 C 
ATOM     66  C   UNL     1      -4.657  -4.136 -15.245  1.00  0.00     0.037 A 
BRANCH  53  67
ATOM     67  C   UNL     1      -0.799  -0.317 -15.222  1.00  0.00     0.058 A 
ATOM     68  C   UNL     1      -0.565  -0.324 -16.615  1.00  0.00     0.135 A 
ATOM     69  C   UNL     1       0.326  -0.623 -14.422  1.00  0.00     0.135 A 
ATOM     70  F   UNL     1      -1.559  -0.054 -17.476  1.00  0.00    -0.206 F 
ATOM     71  C   UNL     1       0.664  -0.684 -17.169  1.00  0.00     0.059 A 
ATOM     72  C   UNL     1       1.573  -0.932 -14.953  1.00  0.00     0.059 A 
ATOM     73  F   UNL     1       0.258  -0.733 -13.092  1.00  0.00    -0.206 F 
ATOM     74  C   UNL     1       1.725  -0.998 -16.326  1.00  0.00     0.060 A 
BRANCH  74  75
ATOM     75  S   UNL     1       3.291  -1.534 -17.035  1.00  0.00     0.124 S 
ATOM     76  O   UNL     1       2.929  -2.830 -17.595  1.00  0.00    -0.237 OA
ATOM     77  O   UNL     1       3.563  -0.472 -17.998  1.00  0.00    -0.237 OA
ATOM     78  O   UNL     1       4.186  -1.569 -15.881  1.00  0.00    -0.744 OA
ENDBRANCH  74  75
ENDBRANCH  53  67
BRANCH  54  79
ATOM     79  C   UNL     1      -2.131  -7.639 -11.184  1.00  0.00     0.058 A 
ATOM     80  C   UNL     1      -1.745  -8.770 -11.929  1.00  0.00     0.135 A 
ATOM     81  C   UNL     1      -1.421  -7.415  -9.988  1.00  0.00     0.135 A 
ATOM     82  F   UNL     1      -2.354  -9.049 -13.092  1.00  0.00    -0.206 F 
ATOM     83  C   UNL     1      -0.682  -9.596 -11.541  1.00  0.00     0.059 A 
ATOM     84  C   UNL     1      -0.361  -8.227  -9.579  1.00  0.00     0.059 A 
ATOM     85  F   UNL     1      -1.676  -6.340  -9.227  1.00  0.00    -0.206 F 
ATOM     86  C   UNL     1       0.021  -9.302 -10.373  1.00  0.00     0.060 A 
BRANCH  86  87
ATOM     87  S   UNL     1       1.500 -10.261  -9.957  1.00  0.00     0.124 S 
ATOM     88  O   UNL     1       0.930 -11.560  -9.613  1.00  0.00    -0.237 OA
ATOM     89  O   UNL     1       2.261 -10.211 -11.201  1.00  0.00    -0.237 OA
ATOM     90  O   UNL     1       2.082  -9.520  -8.842  1.00  0.00    -0.744 OA
ENDBRANCH  86  87
ENDBRANCH  54  79
BRANCH  66  91
ATOM     91  C   UNL     1      -6.086  -4.624 -15.200  1.00  0.00     0.058 A 
ATOM     92  C   UNL     1      -6.826  -4.882 -14.031  1.00  0.00     0.135 A 
ATOM     93  C   UNL     1      -6.778  -4.701 -16.419  1.00  0.00     0.135 A 
ATOM     94  F   UNL     1      -6.272  -4.746 -12.818  1.00  0.00    -0.206 F 
ATOM     95  C   UNL     1      -8.181  -5.231 -14.079  1.00  0.00     0.059 A 
ATOM     96  C   UNL     1      -8.131  -5.015 -16.488  1.00  0.00     0.059 A 
ATOM     97  F   UNL     1      -6.144  -4.416 -17.568  1.00  0.00    -0.206 F 
ATOM     98  C   UNL     1      -8.825  -5.292 -15.314  1.00  0.00     0.060 A 
BRANCH  98  99
ATOM     99  S   UNL     1     -10.589  -5.678 -15.379  1.00  0.00     0.124 S 
ATOM    100  O   UNL     1     -10.612  -7.084 -14.988  1.00  0.00    -0.237 OA
ATOM    101  O   UNL     1     -11.156  -4.742 -14.413  1.00  0.00    -0.237 OA
ATOM    102  O   UNL     1     -10.947  -5.414 -16.772  1.00  0.00    -0.744 OA
ENDBRANCH  98  99
ENDBRANCH  66  91
ENDBRANCH  40  41
ENDBRANCH  32  35
ENDBRANCH  30  31
ENDBRANCH   1  30
TORSDOF 16
