REMARK SMILES CC(C)N1C(=O)C[C@@H]([N@@H+]2CC[C@H](C(=O)NCCCNC(=O)c3ccc(-c4c5nc(c(-c6c(F)cc(S(=O)(=O)[O-])cc6F)c6ccc([nH]6)c(-c6c(F)cc(S(=O)(=O)[O-])cc6F)c6nc(c(-c7c(F)cc(S(=O)(=O)[O-])cc7F)c7ccc4[nH]7)C=C6)C=C5)cc3)[C@@H]2C)C1=O
REMARK SMILES IDX 17 1 16 2 15 3 13 4 14 5 12 7 9 8 10 9 88 10 11 12 89 13
REMARK SMILES IDX 8 14 4 15 5 16 90 17 6 18 7 19 91 20 2 21 1 22 3 23 18 24
REMARK SMILES IDX 19 25 20 26 21 28 22 29 23 30 87 31 24 32 86 33 25 34 26 35
REMARK SMILES IDX 27 36 80 37 28 38 85 39 79 40 81 41 29 42 84 43 78 44 77 45
REMARK SMILES IDX 30 47 64 48 43 49 63 50 44 51 47 52 62 53 82 54 45 55 46 56
REMARK SMILES IDX 61 58 83 59 48 60 31 61 32 62 41 63 33 64 34 65 40 66 42 67
REMARK SMILES IDX 35 68 36 69 37 70 38 71 39 72 65 73 66 74 75 75 67 76 68 77
REMARK SMILES IDX 74 78 76 79 69 80 70 81 71 82 72 83 73 84 49 85 50 86 59 87
REMARK SMILES IDX 51 88 52 89 58 90 60 91 53 92 54 93 55 94 56 95 57 96
REMARK H PARENT 15 6 9 11 19 27 81 46 47 57
REMARK Flexibility Score: inf
ROOT
ATOM      1  C   UNL     1      -9.080   0.917  -4.577  1.00  0.00     0.042 C 
ENDROOT
BRANCH   1   2
ATOM      2  C   UNL     1      -7.865   0.732  -5.476  1.00  0.00     0.117 C 
BRANCH   2   3
ATOM      3  N   UNL     1      -6.691   1.422  -4.970  1.00  0.00    -0.356 N 
ATOM      4  C   UNL     1      -5.523   0.945  -4.463  1.00  0.00     0.229 C 
ATOM      5  O   UNL     1      -4.659   1.770  -4.160  1.00  0.00    -0.275 OA
ATOM      6  H   UNL     1      -6.753   2.405  -4.998  1.00  0.00     0.163 HD
BRANCH   4   7
ATOM      7  C   UNL     1      -5.307  -0.553  -4.290  1.00  0.00     0.142 C 
ATOM      8  N   UNL     1      -3.684  -1.189  -2.617  1.00  0.00    -0.321 N 
ATOM      9  C   UNL     1      -2.968  -0.821  -3.839  1.00  0.00     0.264 C 
ATOM     10  C   UNL     1      -5.131  -0.994  -2.826  1.00  0.00     0.194 C 
ATOM     11  H   UNL     1      -3.560  -2.188  -2.450  1.00  0.00     0.349 HD
ATOM     12  C   UNL     1      -3.994  -0.965  -4.948  1.00  0.00     0.081 C 
ATOM     13  C   UNL     1      -5.946  -0.194  -1.809  1.00  0.00     0.076 C 
BRANCH   8  14
ATOM     14  C   UNL     1      -3.088  -0.733  -1.352  1.00  0.00     0.284 C 
ATOM     15  N   UNL     1      -0.792  -0.208  -1.278  1.00  0.00    -0.275 N 
ATOM     16  C   UNL     1      -1.443   0.995  -1.236  1.00  0.00     0.236 C 
ATOM     17  C   UNL     1      -1.663  -1.261  -1.193  1.00  0.00     0.288 C 
ATOM     18  O   UNL     1      -0.918   2.098  -1.186  1.00  0.00    -0.274 OA
ATOM     19  C   UNL     1      -2.920   0.771  -1.175  1.00  0.00     0.176 C 
ATOM     20  O   UNL     1      -1.370  -2.438  -1.023  1.00  0.00    -0.267 OA
BRANCH  15  21
ATOM     21  C   UNL     1       0.669  -0.280  -1.223  1.00  0.00     0.087 C 
ATOM     22  C   UNL     1       1.166  -0.132   0.216  1.00  0.00     0.031 C 
ATOM     23  C   UNL     1       1.264  -1.529  -1.873  1.00  0.00     0.031 C 
ENDBRANCH  15  21
ENDBRANCH   8  14
ENDBRANCH   4   7
ENDBRANCH   2   3
ENDBRANCH   1   2
BRANCH   1  24
ATOM     24  C   UNL     1      -9.546   2.365  -4.443  1.00  0.00     0.118 C 
BRANCH  24  25
ATOM     25  N   UNL     1      -9.932   2.955  -5.718  1.00  0.00    -0.352 N 
ATOM     26  C   UNL     1     -11.145   3.445  -6.138  1.00  0.00     0.251 C 
ATOM     27  H   UNL     1      -9.210   3.013  -6.384  1.00  0.00     0.163 HD
ATOM     28  O   UNL     1     -11.304   3.730  -7.322  1.00  0.00    -0.269 OA
BRANCH  26  29
ATOM     29  C   UNL     1     -12.260   3.607  -5.180  1.00  0.00     0.039 A 
ATOM     30  C   UNL     1     -13.544   3.208  -5.560  1.00  0.00     0.014 A 
ATOM     31  C   UNL     1     -12.044   4.161  -3.916  1.00  0.00     0.014 A 
ATOM     32  C   UNL     1     -14.595   3.289  -4.642  1.00  0.00     0.010 A 
ATOM     33  C   UNL     1     -13.072   4.168  -2.979  1.00  0.00     0.010 A 
ATOM     34  C   UNL     1     -14.358   3.728  -3.330  1.00  0.00    -0.014 A 
BRANCH  34  35
ATOM     35  C   UNL     1     -15.429   3.727  -2.300  1.00  0.00     0.031 A 
ATOM     36  C   UNL     1     -15.865   5.021  -1.666  1.00  0.00     0.074 A 
ATOM     37  C   UNL     1     -15.941   2.557  -1.870  1.00  0.00     0.049 A 
ATOM     38  N   UNL     1     -16.681   5.215  -0.663  1.00  0.00    -0.248 NA
ATOM     39  C   UNL     1     -15.283   6.256  -2.215  1.00  0.00     0.031 C 
ATOM     40  C   UNL     1     -15.572   1.233  -2.378  1.00  0.00     0.029 A 
ATOM     41  N   UNL     1     -16.867   2.287  -0.892  1.00  0.00    -0.354 N 
ATOM     42  C   UNL     1     -16.697   6.588  -0.448  1.00  0.00     0.074 A 
ATOM     43  C   UNL     1     -15.771   7.174  -1.393  1.00  0.00     0.031 C 
ATOM     44  C   UNL     1     -16.272   0.296  -1.718  1.00  0.00     0.029 A 
ATOM     45  C   UNL     1     -17.103   0.945  -0.709  1.00  0.00     0.049 A 
ATOM     46  H   UNL     1     -17.319   2.990  -0.371  1.00  0.00     0.167 HD
ATOM     47  C   UNL     1     -17.429   7.297   0.444  1.00  0.00     0.037 A 
ATOM     48  C   UNL     1     -17.885   0.305   0.184  1.00  0.00     0.037 A 
ATOM     49  C   UNL     1     -18.368   6.708   1.363  1.00  0.00     0.049 A 
ATOM     50  C   UNL     1     -18.680   1.113   1.174  1.00  0.00     0.074 A 
ATOM     51  C   UNL     1     -19.201   7.345   2.266  1.00  0.00     0.029 A 
ATOM     52  N   UNL     1     -18.597   5.347   1.500  1.00  0.00    -0.354 N 
ATOM     53  N   UNL     1     -18.724   2.415   1.327  1.00  0.00    -0.248 NA
ATOM     54  C   UNL     1     -19.532   0.369   2.111  1.00  0.00     0.031 C 
ATOM     55  C   UNL     1     -19.900   6.367   2.981  1.00  0.00     0.029 A 
ATOM     56  C   UNL     1     -19.542   5.123   2.487  1.00  0.00     0.049 A 
ATOM     57  H   UNL     1     -18.154   4.643   0.973  1.00  0.00     0.167 HD
ATOM     58  C   UNL     1     -19.631   2.647   2.355  1.00  0.00     0.074 A 
ATOM     59  C   UNL     1     -20.116   1.351   2.784  1.00  0.00     0.031 C 
ATOM     60  C   UNL     1     -20.028   3.827   2.892  1.00  0.00     0.037 A 
BRANCH  47  61
ATOM     61  C   UNL     1     -17.248   8.790   0.468  1.00  0.00     0.058 A 
ATOM     62  C   UNL     1     -17.703   9.606  -0.580  1.00  0.00     0.135 A 
ATOM     63  C   UNL     1     -16.646   9.418   1.571  1.00  0.00     0.135 A 
ATOM     64  F   UNL     1     -18.273   9.058  -1.665  1.00  0.00    -0.206 F 
ATOM     65  C   UNL     1     -17.540  10.987  -0.551  1.00  0.00     0.059 A 
ATOM     66  C   UNL     1     -16.500  10.801   1.635  1.00  0.00     0.059 A 
ATOM     67  F   UNL     1     -16.193   8.687   2.602  1.00  0.00    -0.206 F 
ATOM     68  C   UNL     1     -16.937  11.575   0.562  1.00  0.00     0.060 A 
BRANCH  68  69
ATOM     69  S   UNL     1     -16.737  13.369   0.584  1.00  0.00     0.124 S 
ATOM     70  O   UNL     1     -15.666  13.554  -0.390  1.00  0.00    -0.237 OA
ATOM     71  O   UNL     1     -18.057  13.835   0.171  1.00  0.00    -0.237 OA
ATOM     72  O   UNL     1     -16.380  13.655   1.970  1.00  0.00    -0.744 OA
ENDBRANCH  68  69
ENDBRANCH  47  61
BRANCH  48  73
ATOM     73  C   UNL     1     -17.962  -1.180   0.173  1.00  0.00     0.058 A 
ATOM     74  C   UNL     1     -19.127  -1.838  -0.247  1.00  0.00     0.135 A 
ATOM     75  C   UNL     1     -16.871  -1.971   0.567  1.00  0.00     0.135 A 
ATOM     76  F   UNL     1     -20.199  -1.126  -0.627  1.00  0.00    -0.206 F 
ATOM     77  C   UNL     1     -19.216  -3.226  -0.264  1.00  0.00     0.059 A 
ATOM     78  C   UNL     1     -16.926  -3.361   0.534  1.00  0.00     0.059 A 
ATOM     79  F   UNL     1     -15.727  -1.391   0.961  1.00  0.00    -0.206 F 
ATOM     80  C   UNL     1     -18.107  -3.980   0.126  1.00  0.00     0.060 A 
BRANCH  80  81
ATOM     81  S   UNL     1     -18.216  -5.781   0.052  1.00  0.00     0.124 S 
ATOM     82  O   UNL     1     -19.088  -6.069   1.184  1.00  0.00    -0.237 OA
ATOM     83  O   UNL     1     -18.791  -5.999  -1.271  1.00  0.00    -0.237 OA
ATOM     84  O   UNL     1     -16.827  -6.206   0.201  1.00  0.00    -0.744 OA
ENDBRANCH  80  81
ENDBRANCH  48  73
BRANCH  60  85
ATOM     85  C   UNL     1     -21.069   3.786   3.977  1.00  0.00     0.058 A 
ATOM     86  C   UNL     1     -20.763   3.363   5.279  1.00  0.00     0.135 A 
ATOM     87  C   UNL     1     -22.369   4.256   3.726  1.00  0.00     0.135 A 
ATOM     88  F   UNL     1     -19.538   2.896   5.568  1.00  0.00    -0.206 F 
ATOM     89  C   UNL     1     -21.713   3.398   6.294  1.00  0.00     0.059 A 
ATOM     90  C   UNL     1     -23.326   4.325   4.732  1.00  0.00     0.059 A 
ATOM     91  F   UNL     1     -22.709   4.680   2.499  1.00  0.00    -0.206 F 
ATOM     92  C   UNL     1     -22.991   3.889   6.013  1.00  0.00     0.060 A 
BRANCH  92  93
ATOM     93  S   UNL     1     -24.194   3.988   7.355  1.00  0.00     0.124 S 
ATOM     94  O   UNL     1     -24.539   2.583   7.545  1.00  0.00    -0.237 OA
ATOM     95  O   UNL     1     -23.416   4.601   8.427  1.00  0.00    -0.237 OA
ATOM     96  O   UNL     1     -25.254   4.825   6.801  1.00  0.00    -0.744 OA
ENDBRANCH  92  93
ENDBRANCH  60  85
ENDBRANCH  34  35
ENDBRANCH  26  29
ENDBRANCH  24  25
ENDBRANCH   1  24
TORSDOF 15
