REMARK SMILES Cc1ccc2nc(CC3(CC(=O)NCCCNC(=O)c4ccc(-c5c6nc(c(-c7c(F)cc(S(=O)(=O)[O-])cc7F)c7ccc([nH]7)c(-c7c(F)cc(S(=O)(=O)[O-])cc7F)c7nc(c(-c8c(F)cc(S(=O)(=O)[O-])cc8F)c8ccc5[nH]8)C=C7)C=C6)cc4)CCCCC3)sc2c1
REMARK SMILES IDX 15 1 14 2 13 3 11 4 12 5 10 7 9 8 86 9 90 10 87 11 89 12
REMARK SMILES IDX 88 13 8 14 7 15 1 16 2 17 3 18 93 19 4 20 92 21 5 22 91 23
REMARK SMILES IDX 6 24 16 25 17 26 18 27 19 29 20 30 21 31 85 32 22 33 84 34
REMARK SMILES IDX 23 35 24 36 25 37 78 38 26 39 83 40 77 41 79 42 27 43 82 44
REMARK SMILES IDX 76 45 75 46 28 48 62 49 41 50 61 51 42 52 45 53 60 54 80 55
REMARK SMILES IDX 43 56 44 57 59 59 81 60 46 61 29 62 30 63 39 64 31 65 32 66
REMARK SMILES IDX 38 67 40 68 33 69 34 70 35 71 36 72 37 73 63 74 64 75 73 76
REMARK SMILES IDX 65 77 66 78 72 79 74 80 67 81 68 82 69 83 70 84 71 85 47 86
REMARK SMILES IDX 48 87 57 88 49 89 50 90 56 91 58 92 51 93 52 94 53 95 54 96
REMARK SMILES IDX 55 97
REMARK H PARENT 13 6 17 28 79 47 45 58
REMARK Flexibility Score: inf
ROOT
ATOM      1  C   UNL     1      -3.846  -5.113   0.098  1.00  0.00     0.042 C 
ENDROOT
BRANCH   1   2
ATOM      2  C   UNL     1      -5.263  -4.828  -0.389  1.00  0.00     0.117 C 
BRANCH   2   3
ATOM      3  N   UNL     1      -5.879  -3.747   0.357  1.00  0.00    -0.356 N 
ATOM      4  C   UNL     1      -6.104  -2.452   0.011  1.00  0.00     0.220 C 
ATOM      5  O   UNL     1      -6.647  -1.720   0.844  1.00  0.00    -0.275 OA
ATOM      6  H   UNL     1      -6.182  -3.991   1.262  1.00  0.00     0.163 HD
BRANCH   4   7
ATOM      7  C   UNL     1      -5.720  -1.900  -1.358  1.00  0.00     0.107 C 
BRANCH   7   8
ATOM      8  C   UNL     1      -4.270  -1.325  -1.542  1.00  0.00    -0.015 C 
ATOM      9  C   UNL     1      -4.298  -0.265  -2.688  1.00  0.00     0.008 C 
ATOM     10  C   UNL     1      -3.263  -2.408  -2.010  1.00  0.00     0.008 C 
ATOM     11  C   UNL     1      -4.605  -0.861  -4.069  1.00  0.00     0.001 C 
ATOM     12  C   UNL     1      -3.590  -3.055  -3.352  1.00  0.00     0.001 C 
ATOM     13  C   UNL     1      -3.658  -1.998  -4.443  1.00  0.00     0.000 C 
BRANCH   8  14
ATOM     14  C   UNL     1      -3.826  -0.625  -0.205  1.00  0.00     0.075 C 
BRANCH  14  15
ATOM     15  C   UNL     1      -2.350  -0.386  -0.068  1.00  0.00     0.094 A 
ATOM     16  C   UNL     1       3.668   1.017  -0.028  1.00  0.00     0.044 C 
ATOM     17  C   UNL     1       2.318   0.360   0.030  1.00  0.00    -0.050 A 
ATOM     18  C   UNL     1       2.216  -1.027   0.161  1.00  0.00     0.006 A 
ATOM     19  C   UNL     1       1.158   1.149  -0.047  1.00  0.00     0.024 A 
ATOM     20  C   UNL     1       0.965  -1.649   0.221  1.00  0.00     0.030 A 
ATOM     21  C   UNL     1      -0.093   0.510  -0.016  1.00  0.00     0.055 A 
ATOM     22  C   UNL     1      -0.205  -0.873   0.129  1.00  0.00     0.082 A 
ATOM     23  S   UNL     1      -1.675   1.187  -0.154  1.00  0.00    -0.119 S 
ATOM     24  N   UNL     1      -1.496  -1.360   0.154  1.00  0.00    -0.241 NA
ENDBRANCH  14  15
ENDBRANCH   8  14
ENDBRANCH   7   8
ENDBRANCH   4   7
ENDBRANCH   2   3
ENDBRANCH   1   2
BRANCH   1  25
ATOM     25  C   UNL     1      -3.759  -6.085   1.262  1.00  0.00     0.118 C 
BRANCH  25  26
ATOM     26  N   UNL     1      -3.981  -7.463   0.855  1.00  0.00    -0.352 N 
ATOM     27  C   UNL     1      -3.128  -8.541   0.834  1.00  0.00     0.251 C 
ATOM     28  H   UNL     1      -4.894  -7.657   0.542  1.00  0.00     0.163 HD
ATOM     29  O   UNL     1      -3.492  -9.568   0.265  1.00  0.00    -0.269 OA
BRANCH  27  30
ATOM     30  C   UNL     1      -1.783  -8.486   1.462  1.00  0.00     0.039 A 
ATOM     31  C   UNL     1      -0.735  -9.200   0.869  1.00  0.00     0.014 A 
ATOM     32  C   UNL     1      -1.547  -7.792   2.650  1.00  0.00     0.014 A 
ATOM     33  C   UNL     1       0.545  -9.172   1.434  1.00  0.00     0.010 A 
ATOM     34  C   UNL     1      -0.252  -7.678   3.153  1.00  0.00     0.010 A 
ATOM     35  C   UNL     1       0.806  -8.385   2.566  1.00  0.00    -0.014 A 
BRANCH  35  36
ATOM     36  C   UNL     1       2.163  -8.316   3.172  1.00  0.00     0.031 A 
ATOM     37  C   UNL     1       2.383  -8.778   4.590  1.00  0.00     0.074 A 
ATOM     38  C   UNL     1       3.183  -7.775   2.477  1.00  0.00     0.049 A 
ATOM     39  N   UNL     1       3.470  -8.734   5.317  1.00  0.00    -0.248 NA
ATOM     40  C   UNL     1       1.216  -9.331   5.296  1.00  0.00     0.031 C 
ATOM     41  C   UNL     1       3.087  -7.234   1.120  1.00  0.00     0.029 A 
ATOM     42  N   UNL     1       4.497  -7.579   2.821  1.00  0.00    -0.354 N 
ATOM     43  C   UNL     1       3.111  -9.223   6.569  1.00  0.00     0.074 A 
ATOM     44  C   UNL     1       1.694  -9.506   6.519  1.00  0.00     0.031 C 
ATOM     45  C   UNL     1       4.294  -6.787   0.739  1.00  0.00     0.029 A 
ATOM     46  C   UNL     1       5.241  -6.974   1.835  1.00  0.00     0.049 A 
ATOM     47  H   UNL     1       4.872  -7.845   3.691  1.00  0.00     0.167 HD
ATOM     48  C   UNL     1       3.893  -9.439   7.654  1.00  0.00     0.037 A 
ATOM     49  C   UNL     1       6.537  -6.607   1.815  1.00  0.00     0.037 A 
ATOM     50  C   UNL     1       5.310  -9.190   7.685  1.00  0.00     0.049 A 
ATOM     51  C   UNL     1       7.399  -6.888   3.015  1.00  0.00     0.074 A 
ATOM     52  C   UNL     1       6.209  -9.452   8.704  1.00  0.00     0.029 A 
ATOM     53  N   UNL     1       6.035  -8.616   6.651  1.00  0.00    -0.354 N 
ATOM     54  N   UNL     1       7.060  -7.425   4.163  1.00  0.00    -0.248 NA
ATOM     55  C   UNL     1       8.819  -6.526   2.915  1.00  0.00     0.031 C 
ATOM     56  C   UNL     1       7.470  -8.996   8.302  1.00  0.00     0.029 A 
ATOM     57  C   UNL     1       7.366  -8.494   7.014  1.00  0.00     0.049 A 
ATOM     58  H   UNL     1       5.659  -8.336   5.785  1.00  0.00     0.167 HD
ATOM     59  C   UNL     1       8.227  -7.481   4.917  1.00  0.00     0.074 A 
ATOM     60  C   UNL     1       9.284  -6.936   4.088  1.00  0.00     0.031 C 
ATOM     61  C   UNL     1       8.406  -7.944   6.179  1.00  0.00     0.037 A 
BRANCH  48  62
ATOM     62  C   UNL     1       3.223  -9.968   8.895  1.00  0.00     0.058 A 
ATOM     63  C   UNL     1       2.695 -11.269   8.956  1.00  0.00     0.135 A 
ATOM     64  C   UNL     1       3.099  -9.161  10.038  1.00  0.00     0.135 A 
ATOM     65  F   UNL     1       2.775 -12.082   7.890  1.00  0.00    -0.206 F 
ATOM     66  C   UNL     1       2.023 -11.731  10.083  1.00  0.00     0.059 A 
ATOM     67  C   UNL     1       2.458  -9.614  11.188  1.00  0.00     0.059 A 
ATOM     68  F   UNL     1       3.590  -7.912  10.040  1.00  0.00    -0.206 F 
ATOM     69  C   UNL     1       1.901 -10.892  11.191  1.00  0.00     0.060 A 
BRANCH  69  70
ATOM     70  S   UNL     1       0.996 -11.492  12.633  1.00  0.00     0.124 S 
ATOM     71  O   UNL     1      -0.385 -11.393  12.170  1.00  0.00    -0.237 OA
ATOM     72  O   UNL     1       1.515 -12.846  12.791  1.00  0.00    -0.237 OA
ATOM     73  O   UNL     1       1.373 -10.553  13.686  1.00  0.00    -0.744 OA
ENDBRANCH  69  70
ENDBRANCH  48  62
BRANCH  49  74
ATOM     74  C   UNL     1       7.093  -5.964   0.595  1.00  0.00     0.058 A 
ATOM     75  C   UNL     1       7.945  -6.670  -0.267  1.00  0.00     0.135 A 
ATOM     76  C   UNL     1       6.732  -4.657   0.233  1.00  0.00     0.135 A 
ATOM     77  F   UNL     1       8.323  -7.920   0.040  1.00  0.00    -0.206 F 
ATOM     78  C   UNL     1       8.416  -6.106  -1.448  1.00  0.00     0.059 A 
ATOM     79  C   UNL     1       7.173  -4.079  -0.953  1.00  0.00     0.059 A 
ATOM     80  F   UNL     1       5.905  -3.945   1.015  1.00  0.00    -0.206 F 
ATOM     81  C   UNL     1       8.016  -4.812  -1.788  1.00  0.00     0.060 A 
BRANCH  81  82
ATOM     82  S   UNL     1       8.558  -4.125  -3.368  1.00  0.00     0.124 S 
ATOM     83  O   UNL     1       9.965  -3.851  -3.103  1.00  0.00    -0.237 OA
ATOM     84  O   UNL     1       8.282  -5.222  -4.290  1.00  0.00    -0.237 OA
ATOM     85  O   UNL     1       7.706  -2.950  -3.531  1.00  0.00    -0.744 OA
ENDBRANCH  81  82
ENDBRANCH  49  74
BRANCH  61  86
ATOM     86  C   UNL     1       9.801  -7.900   6.741  1.00  0.00     0.058 A 
ATOM     87  C   UNL     1      10.396  -6.694   7.140  1.00  0.00     0.135 A 
ATOM     88  C   UNL     1      10.527  -9.086   6.934  1.00  0.00     0.135 A 
ATOM     89  F   UNL     1       9.747  -5.531   6.971  1.00  0.00    -0.206 F 
ATOM     90  C   UNL     1      11.672  -6.662   7.694  1.00  0.00     0.059 A 
ATOM     91  C   UNL     1      11.794  -9.081   7.510  1.00  0.00     0.059 A 
ATOM     92  F   UNL     1       9.999 -10.268   6.579  1.00  0.00    -0.206 F 
ATOM     93  C   UNL     1      12.363  -7.862   7.876  1.00  0.00     0.060 A 
BRANCH  93  94
ATOM     94  S   UNL     1      14.003  -7.812   8.628  1.00  0.00     0.124 S 
ATOM     95  O   UNL     1      14.813  -7.293   7.531  1.00  0.00    -0.237 OA
ATOM     96  O   UNL     1      13.805  -6.904   9.754  1.00  0.00    -0.237 OA
ATOM     97  O   UNL     1      14.254  -9.203   8.991  1.00  0.00    -0.744 OA
ENDBRANCH  93  94
ENDBRANCH  61  86
ENDBRANCH  35  36
ENDBRANCH  27  30
ENDBRANCH  25  26
ENDBRANCH   1  25
TORSDOF 16
