REMARK SMILES O=C(CCCC[C@@H]1CCSS1)NCCCNC(=O)c1ccc(-c2c3nc(c(-c4c(F)cc(S(=O)(=O)[O-])cc4F)c4ccc([nH]4)c(-c4c(F)cc(S(=O)(=O)[O-])cc4F)c4nc(c(-c5c(F)cc(S(=O)(=O)[O-])cc5F)c5ccc2[nH]5)C=C4)C=C3)cc1
REMARK SMILES IDX 13 1 12 2 1 3 2 4 3 6 4 7 5 8 6 9 7 10 8 11 11 12 9 13 10 14
REMARK SMILES IDX 14 15 15 16 16 17 17 18 18 20 19 21 20 22 84 23 21 24 83 25
REMARK SMILES IDX 22 26 23 27 24 28 77 29 25 30 82 31 76 32 78 33 26 34 81 35
REMARK SMILES IDX 75 36 74 37 27 39 61 40 40 41 60 42 41 43 44 44 59 45 79 46
REMARK SMILES IDX 42 47 43 48 58 50 80 51 45 52 28 53 29 54 38 55 30 56 31 57
REMARK SMILES IDX 37 58 39 59 32 60 33 61 34 62 35 63 36 64 62 65 63 66 72 67
REMARK SMILES IDX 64 68 65 69 71 70 73 71 66 72 67 73 68 74 69 75 70 76 46 77
REMARK SMILES IDX 47 78 56 79 48 80 49 81 55 82 57 83 50 84 51 85 52 86 53 87
REMARK SMILES IDX 54 88
REMARK H PARENT 12 5 16 19 78 38 44 49
REMARK Flexibility Score: inf
ROOT
ATOM      1  C   UNL     1       1.976   1.893   1.461  1.00  0.00     0.117 C 
ENDROOT
BRANCH   1   2
ATOM      2  N   UNL     1       2.611   0.803   0.749  1.00  0.00    -0.356 N 
ATOM      3  O   UNL     1       0.807   0.232  -0.556  1.00  0.00    -0.275 OA
ATOM      4  C   UNL     1       1.979   0.075  -0.230  1.00  0.00     0.219 C 
ATOM      5  H   UNL     1       3.540   0.572   0.979  1.00  0.00     0.163 HD
BRANCH   4   6
ATOM      6  C   UNL     1       2.870  -0.955  -0.896  1.00  0.00     0.100 C 
BRANCH   6   7
ATOM      7  C   UNL     1       3.792  -0.353  -1.958  1.00  0.00     0.010 C 
BRANCH   7   8
ATOM      8  C   UNL     1       4.952   0.509  -1.447  1.00  0.00     0.002 C 
BRANCH   8   9
ATOM      9  C   UNL     1       5.925  -0.162  -0.467  1.00  0.00     0.015 C 
BRANCH   9  10
ATOM     10  C   UNL     1       6.749  -1.299  -1.096  1.00  0.00     0.059 C 
ATOM     11  C   UNL     1       6.298  -2.690  -0.628  1.00  0.00     0.027 C 
ATOM     12  S   UNL     1       8.504  -1.149  -0.611  1.00  0.00    -0.091 SA
ATOM     13  C   UNL     1       7.322  -3.743  -1.037  1.00  0.00     0.083 C 
ATOM     14  S   UNL     1       8.930  -3.146  -0.474  1.00  0.00    -0.094 SA
ENDBRANCH   9  10
ENDBRANCH   8   9
ENDBRANCH   7   8
ENDBRANCH   6   7
ENDBRANCH   4   6
ENDBRANCH   1   2
BRANCH   1  15
ATOM     15  C   UNL     1       2.317   1.888   2.947  1.00  0.00     0.042 C 
BRANCH  15  16
ATOM     16  C   UNL     1       3.801   2.043   3.272  1.00  0.00     0.118 C 
BRANCH  16  17
ATOM     17  N   UNL     1       4.353   3.326   2.869  1.00  0.00    -0.352 N 
ATOM     18  C   UNL     1       5.086   4.234   3.594  1.00  0.00     0.251 C 
ATOM     19  H   UNL     1       4.176   3.582   1.935  1.00  0.00     0.163 HD
ATOM     20  O   UNL     1       5.343   5.330   3.094  1.00  0.00    -0.269 OA
BRANCH  18  21
ATOM     21  C   UNL     1       5.540   3.928   4.971  1.00  0.00     0.039 A 
ATOM     22  C   UNL     1       5.457   4.930   5.941  1.00  0.00     0.014 A 
ATOM     23  C   UNL     1       6.065   2.678   5.312  1.00  0.00     0.014 A 
ATOM     24  C   UNL     1       5.838   4.661   7.259  1.00  0.00     0.010 A 
ATOM     25  C   UNL     1       6.370   2.387   6.643  1.00  0.00     0.010 A 
ATOM     26  C   UNL     1       6.263   3.376   7.633  1.00  0.00    -0.014 A 
BRANCH  26  27
ATOM     27  C   UNL     1       6.587   3.060   9.052  1.00  0.00     0.031 A 
ATOM     28  C   UNL     1       7.979   2.645   9.450  1.00  0.00     0.074 A 
ATOM     29  C   UNL     1       5.612   3.111   9.983  1.00  0.00     0.049 A 
ATOM     30  N   UNL     1       8.438   2.322  10.633  1.00  0.00    -0.248 NA
ATOM     31  C   UNL     1       8.982   2.558   8.377  1.00  0.00     0.031 C 
ATOM     32  C   UNL     1       4.210   3.445   9.721  1.00  0.00     0.029 A 
ATOM     33  N   UNL     1       5.647   2.880  11.336  1.00  0.00    -0.354 N 
ATOM     34  C   UNL     1       9.775   1.989  10.447  1.00  0.00     0.074 A 
ATOM     35  C   UNL     1      10.039   2.092   9.028  1.00  0.00     0.031 C 
ATOM     36  C   UNL     1       3.528   3.428  10.877  1.00  0.00     0.029 A 
ATOM     37  C   UNL     1       4.431   3.046  11.959  1.00  0.00     0.049 A 
ATOM     38  H   UNL     1       6.466   2.620  11.816  1.00  0.00     0.167 HD
ATOM     39  C   UNL     1      10.705   1.653  11.374  1.00  0.00     0.037 A 
ATOM     40  C   UNL     1       4.080   2.906  13.252  1.00  0.00     0.037 A 
ATOM     41  C   UNL     1      10.444   1.569  12.789  1.00  0.00     0.049 A 
ATOM     42  C   UNL     1       5.130   2.531  14.263  1.00  0.00     0.074 A 
ATOM     43  C   UNL     1      11.333   1.291  13.813  1.00  0.00     0.029 A 
ATOM     44  N   UNL     1       9.203   1.756  13.380  1.00  0.00    -0.354 N 
ATOM     45  N   UNL     1       6.406   2.289  14.076  1.00  0.00    -0.248 NA
ATOM     46  C   UNL     1       4.696   2.420  15.662  1.00  0.00     0.031 C 
ATOM     47  C   UNL     1      10.621   1.260  15.016  1.00  0.00     0.029 A 
ATOM     48  C   UNL     1       9.299   1.577  14.751  1.00  0.00     0.049 A 
ATOM     49  H   UNL     1       8.375   1.983  12.897  1.00  0.00     0.167 HD
ATOM     50  C   UNL     1       6.932   2.026  15.337  1.00  0.00     0.074 A 
ATOM     51  C   UNL     1       5.839   2.154  16.279  1.00  0.00     0.031 C 
ATOM     52  C   UNL     1       8.205   1.709  15.682  1.00  0.00     0.037 A 
BRANCH  39  53
ATOM     53  C   UNL     1      12.100   1.354  10.890  1.00  0.00     0.058 A 
ATOM     54  C   UNL     1      12.934   2.360  10.374  1.00  0.00     0.135 A 
ATOM     55  C   UNL     1      12.627   0.055  10.983  1.00  0.00     0.135 A 
ATOM     56  F   UNL     1      12.480   3.617  10.249  1.00  0.00    -0.206 F 
ATOM     57  C   UNL     1      14.226   2.084   9.940  1.00  0.00     0.059 A 
ATOM     58  C   UNL     1      13.928  -0.238  10.584  1.00  0.00     0.059 A 
ATOM     59  F   UNL     1      11.877  -0.946  11.470  1.00  0.00    -0.206 F 
ATOM     60  C   UNL     1      14.716   0.781  10.050  1.00  0.00     0.060 A 
BRANCH  60  61
ATOM     61  S   UNL     1      16.398   0.443   9.490  1.00  0.00     0.124 S 
ATOM     62  O   UNL     1      16.247   0.537   8.041  1.00  0.00    -0.237 OA
ATOM     63  O   UNL     1      17.158   1.519  10.118  1.00  0.00    -0.237 OA
ATOM     64  O   UNL     1      16.667  -0.895  10.006  1.00  0.00    -0.744 OA
ENDBRANCH  60  61
ENDBRANCH  39  53
BRANCH  40  65
ATOM     65  C   UNL     1       2.671   3.146  13.670  1.00  0.00     0.058 A 
ATOM     66  C   UNL     1       2.329   4.258  14.456  1.00  0.00     0.135 A 
ATOM     67  C   UNL     1       1.639   2.275  13.288  1.00  0.00     0.135 A 
ATOM     68  F   UNL     1       3.280   5.117  14.853  1.00  0.00    -0.206 F 
ATOM     69  C   UNL     1       1.019   4.487  14.864  1.00  0.00     0.059 A 
ATOM     70  C   UNL     1       0.317   2.499  13.660  1.00  0.00     0.059 A 
ATOM     71  F   UNL     1       1.910   1.206  12.523  1.00  0.00    -0.206 F 
ATOM     72  C   UNL     1       0.019   3.602  14.458  1.00  0.00     0.060 A 
BRANCH  72  73
ATOM     73  S   UNL     1      -1.685   3.935  14.955  1.00  0.00     0.124 S 
ATOM     74  O   UNL     1      -1.647   3.606  16.375  1.00  0.00    -0.237 OA
ATOM     75  O   UNL     1      -1.828   5.350  14.629  1.00  0.00    -0.237 OA
ATOM     76  O   UNL     1      -2.462   3.025  14.117  1.00  0.00    -0.744 OA
ENDBRANCH  72  73
ENDBRANCH  40  65
BRANCH  52  77
ATOM     77  C   UNL     1       8.496   1.514  17.146  1.00  0.00     0.058 A 
ATOM     78  C   UNL     1       8.023   0.399  17.855  1.00  0.00     0.135 A 
ATOM     79  C   UNL     1       9.291   2.440  17.841  1.00  0.00     0.135 A 
ATOM     80  F   UNL     1       7.254  -0.516  17.241  1.00  0.00    -0.206 F 
ATOM     81  C   UNL     1       8.297   0.226  19.208  1.00  0.00     0.059 A 
ATOM     82  C   UNL     1       9.605   2.272  19.186  1.00  0.00     0.059 A 
ATOM     83  F   UNL     1       9.782   3.519  17.210  1.00  0.00    -0.206 F 
ATOM     84  C   UNL     1       9.089   1.169  19.866  1.00  0.00     0.060 A 
BRANCH  84  85
ATOM     85  S   UNL     1       9.451   0.926  21.617  1.00  0.00     0.124 S 
ATOM     86  O   UNL     1       8.168   1.253  22.231  1.00  0.00    -0.237 OA
ATOM     87  O   UNL     1       9.835  -0.482  21.664  1.00  0.00    -0.237 OA
ATOM     88  O   UNL     1      10.531   1.873  21.877  1.00  0.00    -0.744 OA
ENDBRANCH  84  85
ENDBRANCH  52  77
ENDBRANCH  26  27
ENDBRANCH  18  21
ENDBRANCH  16  17
ENDBRANCH  15  16
ENDBRANCH   1  15
TORSDOF 17
