REMARK SMILES O=C(NCCCNC(=O)[C@H]1C[NH2+]C[C@H]1c1ccc(C2CC2)cc1)c1ccc(-c2c3nc(c(-c4c(F)cc(S(=O)(=O)[O-])cc4F)c4ccc([nH]4)c(-c4c(F)cc(S(=O)(=O)[O-])cc4F)c4nc(c(-c5c(F)cc(S(=O)(=O)[O-])cc5F)c5ccc2[nH]5)C=C4)C=C3)cc1
REMARK SMILES IDX 4 1 3 2 1 3 2 4 24 6 25 7 89 8 26 9 88 10 27 11 28 12 29 13
REMARK SMILES IDX 82 14 30 15 87 16 81 17 83 18 31 19 86 20 80 21 79 22 32 24
REMARK SMILES IDX 66 25 45 26 65 27 46 28 49 29 64 30 84 31 47 32 48 33 63 35
REMARK SMILES IDX 85 36 50 37 33 38 34 39 43 40 35 41 36 42 42 43 44 44 37 45
REMARK SMILES IDX 38 46 39 47 40 48 41 49 67 50 68 51 77 52 69 53 70 54 76 55
REMARK SMILES IDX 78 56 71 57 72 58 73 59 74 60 75 61 51 62 52 63 61 64 53 65
REMARK SMILES IDX 54 66 60 67 62 68 55 69 56 70 57 71 58 72 59 73 5 74 6 75
REMARK SMILES IDX 7 76 8 77 9 79 10 80 11 81 14 82 12 83 13 84 15 87 16 88
REMARK SMILES IDX 23 89 17 90 22 91 18 92 19 93 20 94 21 95
REMARK H PARENT 3 5 83 23 49 34 7 78 12 85 12 86
REMARK Flexibility Score: inf
ROOT
ATOM      1  C   UNL     1       9.538   7.403  -6.070  1.00  0.00     0.118 C 
ENDROOT
BRANCH   1   2
ATOM      2  N   UNL     1      10.082   6.752  -7.256  1.00  0.00    -0.352 N 
ATOM      3  O   UNL     1      10.727   6.578  -9.405  1.00  0.00    -0.269 OA
ATOM      4  C   UNL     1      10.518   7.304  -8.435  1.00  0.00     0.251 C 
ATOM      5  H   UNL     1      10.146   5.771  -7.203  1.00  0.00     0.163 HD
BRANCH   4   6
ATOM      6  C   UNL     1      10.723   8.765  -8.536  1.00  0.00     0.039 A 
ATOM      7  C   UNL     1      11.274   9.471  -7.465  1.00  0.00     0.014 A 
ATOM      8  C   UNL     1      10.388   9.434  -9.716  1.00  0.00     0.014 A 
ATOM      9  C   UNL     1      11.339  10.855  -7.510  1.00  0.00     0.010 A 
ATOM     10  C   UNL     1      10.569  10.818  -9.805  1.00  0.00     0.010 A 
ATOM     11  C   UNL     1      11.029  11.541  -8.695  1.00  0.00    -0.014 A 
BRANCH  11  12
ATOM     12  C   UNL     1      11.309  12.996  -8.761  1.00  0.00     0.031 A 
ATOM     13  C   UNL     1      10.212  14.000  -8.965  1.00  0.00     0.074 A 
ATOM     14  C   UNL     1      12.585  13.398  -8.587  1.00  0.00     0.049 A 
ATOM     15  N   UNL     1      10.296  15.304  -9.015  1.00  0.00    -0.248 NA
ATOM     16  C   UNL     1       8.847  13.480  -9.143  1.00  0.00     0.031 C 
ATOM     17  C   UNL     1      13.731  12.500  -8.398  1.00  0.00     0.029 A 
ATOM     18  N   UNL     1      13.136  14.649  -8.513  1.00  0.00    -0.354 N 
ATOM     19  C   UNL     1       9.004  15.763  -9.243  1.00  0.00     0.074 A 
ATOM     20  C   UNL     1       8.156  14.595  -9.348  1.00  0.00     0.031 C 
ATOM     21  C   UNL     1      14.832  13.228  -8.171  1.00  0.00     0.029 A 
ATOM     22  C   UNL     1      14.491  14.639  -8.280  1.00  0.00     0.049 A 
ATOM     23  H   UNL     1      12.612  15.477  -8.616  1.00  0.00     0.167 HD
ATOM     24  C   UNL     1       8.572  17.044  -9.346  1.00  0.00     0.037 A 
ATOM     25  C   UNL     1      15.372  15.652  -8.189  1.00  0.00     0.037 A 
ATOM     26  C   UNL     1       9.432  18.195  -9.229  1.00  0.00     0.049 A 
ATOM     27  C   UNL     1      14.865  17.057  -8.336  1.00  0.00     0.074 A 
ATOM     28  C   UNL     1       9.090  19.535  -9.295  1.00  0.00     0.029 A 
ATOM     29  N   UNL     1      10.805  18.146  -9.027  1.00  0.00    -0.354 N 
ATOM     30  N   UNL     1      13.635  17.471  -8.524  1.00  0.00    -0.248 NA
ATOM     31  C   UNL     1      15.863  18.130  -8.264  1.00  0.00     0.031 C 
ATOM     32  C   UNL     1      10.261  20.293  -9.182  1.00  0.00     0.029 A 
ATOM     33  C   UNL     1      11.327  19.430  -8.990  1.00  0.00     0.049 A 
ATOM     34  H   UNL     1      11.331  17.320  -8.926  1.00  0.00     0.167 HD
ATOM     35  C   UNL     1      13.709  18.857  -8.580  1.00  0.00     0.074 A 
ATOM     36  C   UNL     1      15.100  19.208  -8.377  1.00  0.00     0.031 C 
ATOM     37  C   UNL     1      12.717  19.758  -8.788  1.00  0.00     0.037 A 
BRANCH  24  38
ATOM     38  C   UNL     1       7.108  17.278  -9.609  1.00  0.00     0.058 A 
ATOM     39  C   UNL     1       6.134  17.053  -8.624  1.00  0.00     0.135 A 
ATOM     40  C   UNL     1       6.681  17.801 -10.841  1.00  0.00     0.135 A 
ATOM     41  F   UNL     1       6.481  16.539  -7.434  1.00  0.00    -0.206 F 
ATOM     42  C   UNL     1       4.788  17.326  -8.854  1.00  0.00     0.059 A 
ATOM     43  C   UNL     1       5.344  18.106 -11.085  1.00  0.00     0.059 A 
ATOM     44  F   UNL     1       7.569  18.034 -11.821  1.00  0.00    -0.206 F 
ATOM     45  C   UNL     1       4.404  17.857 -10.087  1.00  0.00     0.060 A 
BRANCH  45  46
ATOM     46  S   UNL     1       2.657  18.229 -10.358  1.00  0.00     0.124 S 
ATOM     47  O   UNL     1       2.085  16.889 -10.452  1.00  0.00    -0.237 OA
ATOM     48  O   UNL     1       2.310  18.983  -9.158  1.00  0.00    -0.237 OA
ATOM     49  O   UNL     1       2.660  18.997 -11.599  1.00  0.00    -0.744 OA
ENDBRANCH  45  46
ENDBRANCH  24  38
BRANCH  25  50
ATOM     50  C   UNL     1      16.816  15.366  -7.977  1.00  0.00     0.058 A 
ATOM     51  C   UNL     1      17.463  15.731  -6.789  1.00  0.00     0.135 A 
ATOM     52  C   UNL     1      17.575  14.711  -8.961  1.00  0.00     0.135 A 
ATOM     53  F   UNL     1      16.782  16.359  -5.819  1.00  0.00    -0.206 F 
ATOM     54  C   UNL     1      18.818  15.482  -6.593  1.00  0.00     0.059 A 
ATOM     55  C   UNL     1      18.921  14.421  -8.775  1.00  0.00     0.059 A 
ATOM     56  F   UNL     1      16.997  14.320 -10.108  1.00  0.00    -0.206 F 
ATOM     57  C   UNL     1      19.538  14.826  -7.593  1.00  0.00     0.060 A 
BRANCH  57  58
ATOM     58  S   UNL     1      21.290  14.486  -7.321  1.00  0.00     0.124 S 
ATOM     59  O   UNL     1      21.873  15.813  -7.484  1.00  0.00    -0.237 OA
ATOM     60  O   UNL     1      21.291  13.948  -5.965  1.00  0.00    -0.237 OA
ATOM     61  O   UNL     1      21.610  13.522  -8.370  1.00  0.00    -0.744 OA
ENDBRANCH  57  58
ENDBRANCH  25  50
BRANCH  37  62
ATOM     62  C   UNL     1      13.105  21.209  -8.779  1.00  0.00     0.058 A 
ATOM     63  C   UNL     1      13.850  21.779  -9.824  1.00  0.00     0.135 A 
ATOM     64  C   UNL     1      12.712  22.044  -7.721  1.00  0.00     0.135 A 
ATOM     65  F   UNL     1      14.260  21.021 -10.854  1.00  0.00    -0.206 F 
ATOM     66  C   UNL     1      14.222  23.119  -9.803  1.00  0.00     0.059 A 
ATOM     67  C   UNL     1      13.045  23.394  -7.696  1.00  0.00     0.059 A 
ATOM     68  F   UNL     1      11.991  21.551  -6.702  1.00  0.00    -0.206 F 
ATOM     69  C   UNL     1      13.814  23.919  -8.733  1.00  0.00     0.060 A 
BRANCH  69  70
ATOM     70  S   UNL     1      14.288  25.660  -8.726  1.00  0.00     0.124 S 
ATOM     71  O   UNL     1      15.707  25.576  -8.397  1.00  0.00    -0.237 OA
ATOM     72  O   UNL     1      13.977  26.073 -10.091  1.00  0.00    -0.237 OA
ATOM     73  O   UNL     1      13.437  26.240  -7.692  1.00  0.00    -0.744 OA
ENDBRANCH  69  70
ENDBRANCH  37  62
ENDBRANCH  11  12
ENDBRANCH   4   6
ENDBRANCH   1   2
BRANCH   1  74
ATOM     74  C   UNL     1       8.102   6.989  -5.803  1.00  0.00     0.042 C 
BRANCH  74  75
ATOM     75  C   UNL     1       7.990   5.546  -5.343  1.00  0.00     0.117 C 
BRANCH  75  76
ATOM     76  N   UNL     1       8.320   5.380  -3.946  1.00  0.00    -0.356 N 
ATOM     77  C   UNL     1       7.532   5.209  -2.856  1.00  0.00     0.229 C 
ATOM     78  H   UNL     1       9.286   5.394  -3.752  1.00  0.00     0.163 HD
ATOM     79  O   UNL     1       8.113   5.091  -1.770  1.00  0.00    -0.275 OA
BRANCH  77  80
ATOM     80  C   UNL     1       6.006   5.163  -2.898  1.00  0.00     0.146 C 
ATOM     81  C   UNL     1       5.356   6.428  -3.433  1.00  0.00     0.274 C 
ATOM     82  C   UNL     1       5.308   4.004  -3.618  1.00  0.00     0.092 C 
ATOM     83  N   UNL     1       4.476   6.067  -4.547  1.00  0.00    -0.345 N 
ATOM     84  C   UNL     1       4.632   4.639  -4.838  1.00  0.00     0.269 C 
ATOM     85  H   UNL     1       4.728   6.612  -5.372  1.00  0.00     0.346 HD
ATOM     86  H   UNL     1       3.507   6.263  -4.297  1.00  0.00     0.346 HD
BRANCH  82  87
ATOM     87  C   UNL     1       6.119   2.736  -3.774  1.00  0.00    -0.038 A 
ATOM     88  C   UNL     1       6.510   2.195  -5.000  1.00  0.00     0.004 A 
ATOM     89  C   UNL     1       6.503   2.050  -2.612  1.00  0.00     0.004 A 
ATOM     90  C   UNL     1       7.254   1.006  -5.055  1.00  0.00     0.004 A 
ATOM     91  C   UNL     1       7.241   0.864  -2.676  1.00  0.00     0.004 A 
ATOM     92  C   UNL     1       7.634   0.303  -3.898  1.00  0.00    -0.045 A 
BRANCH  92  93
ATOM     93  C   UNL     1       8.409  -0.996  -4.019  1.00  0.00     0.019 C 
ATOM     94  C   UNL     1       9.208  -1.583  -2.880  1.00  0.00     0.009 C 
ATOM     95  C   UNL     1       7.914  -2.225  -3.290  1.00  0.00     0.009 C 
ENDBRANCH  92  93
ENDBRANCH  82  87
ENDBRANCH  77  80
ENDBRANCH  75  76
ENDBRANCH  74  75
ENDBRANCH   1  74
TORSDOF 15
