REMARK SMILES CCOc1cc2c(cc1C(=O)NCCCNC(=O)c1ccc(-c3c4nc(c(-c5c(F)cc(S(=O)(=O)[O-])cc5F)c5ccc([nH]5)c(-c5c(F)cc(S(=O)(=O)[O-])cc5F)c5nc(c(-c6c(F)cc(S(=O)(=O)[O-])cc6F)c6ccc3[nH]6)C=C5)C=C4)cc1)CCC2
REMARK SMILES IDX 14 1 13 2 12 3 10 4 11 5 9 7 4 8 5 9 6 10 8 11 7 12 87 13
REMARK SMILES IDX 85 14 86 15 3 16 2 17 1 18 15 19 16 20 17 21 18 23 19 24
REMARK SMILES IDX 20 25 84 26 21 27 83 28 22 29 23 30 24 31 77 32 25 33 82 34
REMARK SMILES IDX 76 35 78 36 26 37 81 38 75 39 74 40 27 42 61 43 40 44 60 45
REMARK SMILES IDX 41 46 44 47 59 48 79 49 42 50 43 51 58 53 80 54 45 55 28 56
REMARK SMILES IDX 29 57 38 58 30 59 31 60 37 61 39 62 32 63 33 64 34 65 35 66
REMARK SMILES IDX 36 67 62 68 63 69 72 70 64 71 65 72 71 73 73 74 66 75 67 76
REMARK SMILES IDX 68 77 69 78 70 79 46 80 47 81 56 82 48 83 49 84 55 85 57 86
REMARK SMILES IDX 50 87 51 88 52 89 53 90 54 91
REMARK H PARENT 12 6 16 22 78 41 44 52
REMARK Flexibility Score: inf
ROOT
ATOM      1  C   UNL     1      -0.990   1.610  -3.493  1.00  0.00     0.042 C 
ENDROOT
BRANCH   1   2
ATOM      2  C   UNL     1      -0.446   0.267  -3.977  1.00  0.00     0.118 C 
BRANCH   2   3
ATOM      3  N   UNL     1       0.700   0.437  -4.837  1.00  0.00    -0.352 N 
ATOM      4  C   UNL     1       2.052   0.290  -4.745  1.00  0.00     0.255 C 
ATOM      5  O   UNL     1       2.617   0.501  -5.830  1.00  0.00    -0.269 OA
ATOM      6  H   UNL     1       0.433   0.740  -5.735  1.00  0.00     0.163 HD
BRANCH   4   7
ATOM      7  C   UNL     1       2.915  -0.074  -3.563  1.00  0.00     0.082 A 
ATOM      8  C   UNL     1       2.587  -0.414  -2.230  1.00  0.00     0.132 A 
ATOM      9  C   UNL     1       3.591  -0.809  -1.316  1.00  0.00     0.051 A 
ATOM     10  C   UNL     1       4.915  -0.815  -1.700  1.00  0.00    -0.041 A 
ATOM     11  C   UNL     1       4.298  -0.083  -3.905  1.00  0.00     0.021 A 
ATOM     12  C   UNL     1       5.268  -0.456  -2.989  1.00  0.00    -0.044 A 
ATOM     13  C   UNL     1       6.122  -1.154  -0.887  1.00  0.00     0.036 C 
ATOM     14  C   UNL     1       6.748  -0.535  -3.185  1.00  0.00     0.036 C 
ATOM     15  C   UNL     1       7.149  -1.422  -1.997  1.00  0.00     0.010 C 
BRANCH   8  16
ATOM     16  O   UNL     1       1.310  -0.532  -1.760  1.00  0.00    -0.493 OA
BRANCH  16  17
ATOM     17  C   UNL     1       0.937   0.474  -0.805  1.00  0.00     0.226 C 
ATOM     18  C   UNL     1       1.067   0.001   0.633  1.00  0.00     0.049 C 
ENDBRANCH  16  17
ENDBRANCH   8  16
ENDBRANCH   4   7
ENDBRANCH   2   3
ENDBRANCH   1   2
BRANCH   1  19
ATOM     19  C   UNL     1      -2.027   2.206  -4.443  1.00  0.00     0.118 C 
BRANCH  19  20
ATOM     20  N   UNL     1      -3.215   1.359  -4.543  1.00  0.00    -0.352 N 
ATOM     21  C   UNL     1      -4.471   1.488  -4.014  1.00  0.00     0.251 C 
ATOM     22  H   UNL     1      -3.088   0.551  -5.090  1.00  0.00     0.163 HD
ATOM     23  O   UNL     1      -5.198   0.493  -3.975  1.00  0.00    -0.269 OA
BRANCH  21  24
ATOM     24  C   UNL     1      -4.971   2.782  -3.502  1.00  0.00     0.039 A 
ATOM     25  C   UNL     1      -5.889   2.782  -2.447  1.00  0.00     0.014 A 
ATOM     26  C   UNL     1      -4.609   3.990  -4.100  1.00  0.00     0.014 A 
ATOM     27  C   UNL     1      -6.399   3.990  -1.965  1.00  0.00     0.010 A 
ATOM     28  C   UNL     1      -5.037   5.197  -3.554  1.00  0.00     0.010 A 
ATOM     29  C   UNL     1      -5.950   5.212  -2.491  1.00  0.00    -0.014 A 
BRANCH  29  30
ATOM     30  C   UNL     1      -6.431   6.509  -1.950  1.00  0.00     0.031 A 
ATOM     31  C   UNL     1      -7.168   7.478  -2.838  1.00  0.00     0.074 A 
ATOM     32  C   UNL     1      -6.150   6.837  -0.673  1.00  0.00     0.049 A 
ATOM     33  N   UNL     1      -7.606   8.681  -2.564  1.00  0.00    -0.248 NA
ATOM     34  C   UNL     1      -7.418   7.056  -4.227  1.00  0.00     0.031 C 
ATOM     35  C   UNL     1      -5.385   6.010   0.265  1.00  0.00     0.029 A 
ATOM     36  N   UNL     1      -6.469   7.953   0.058  1.00  0.00    -0.354 N 
ATOM     37  C   UNL     1      -8.160   9.163  -3.745  1.00  0.00     0.074 A 
ATOM     38  C   UNL     1      -7.953   8.148  -4.754  1.00  0.00     0.031 C 
ATOM     39  C   UNL     1      -5.324   6.631   1.453  1.00  0.00     0.029 A 
ATOM     40  C   UNL     1      -6.010   7.914   1.354  1.00  0.00     0.049 A 
ATOM     41  H   UNL     1      -6.978   8.710  -0.311  1.00  0.00     0.167 HD
ATOM     42  C   UNL     1      -8.810  10.332  -3.962  1.00  0.00     0.037 A 
ATOM     43  C   UNL     1      -6.129   8.813   2.349  1.00  0.00     0.037 A 
ATOM     44  C   UNL     1      -9.050  11.318  -2.941  1.00  0.00     0.049 A 
ATOM     45  C   UNL     1      -6.885  10.087   2.092  1.00  0.00     0.074 A 
ATOM     46  C   UNL     1      -9.752  12.507  -3.039  1.00  0.00     0.029 A 
ATOM     47  N   UNL     1      -8.602  11.226  -1.631  1.00  0.00    -0.354 N 
ATOM     48  N   UNL     1      -7.454  10.498   0.983  1.00  0.00    -0.248 NA
ATOM     49  C   UNL     1      -7.025  11.014   3.222  1.00  0.00     0.031 C 
ATOM     50  C   UNL     1      -9.700  13.149  -1.796  1.00  0.00     0.029 A 
ATOM     51  C   UNL     1      -9.002  12.341  -0.914  1.00  0.00     0.049 A 
ATOM     52  H   UNL     1      -8.076  10.478  -1.265  1.00  0.00     0.167 HD
ATOM     53  C   UNL     1      -8.036  11.723   1.288  1.00  0.00     0.074 A 
ATOM     54  C   UNL     1      -7.770  11.973   2.691  1.00  0.00     0.031 C 
ATOM     55  C   UNL     1      -8.725  12.569   0.482  1.00  0.00     0.037 A 
BRANCH  42  56
ATOM     56  C   UNL     1      -9.328  10.599  -5.349  1.00  0.00     0.058 A 
ATOM     57  C   UNL     1     -10.412   9.882  -5.880  1.00  0.00     0.135 A 
ATOM     58  C   UNL     1      -8.765  11.612  -6.143  1.00  0.00     0.135 A 
ATOM     59  F   UNL     1     -10.978   8.890  -5.173  1.00  0.00    -0.206 F 
ATOM     60  C   UNL     1     -10.904  10.142  -7.155  1.00  0.00     0.059 A 
ATOM     61  C   UNL     1      -9.259  11.909  -7.410  1.00  0.00     0.059 A 
ATOM     62  F   UNL     1      -7.725  12.328  -5.687  1.00  0.00    -0.206 F 
ATOM     63  C   UNL     1     -10.323  11.159  -7.912  1.00  0.00     0.060 A 
BRANCH  63  64
ATOM     64  S   UNL     1     -10.987  11.500  -9.556  1.00  0.00     0.124 S 
ATOM     65  O   UNL     1     -10.496  10.350 -10.312  1.00  0.00    -0.237 OA
ATOM     66  O   UNL     1     -12.428  11.525  -9.310  1.00  0.00    -0.237 OA
ATOM     67  O   UNL     1     -10.393  12.782  -9.906  1.00  0.00    -0.744 OA
ENDBRANCH  63  64
ENDBRANCH  42  56
BRANCH  43  68
ATOM     68  C   UNL     1      -5.543   8.528   3.687  1.00  0.00     0.058 A 
ATOM     69  C   UNL     1      -6.366   8.261   4.791  1.00  0.00     0.135 A 
ATOM     70  C   UNL     1      -4.155   8.516   3.888  1.00  0.00     0.135 A 
ATOM     71  F   UNL     1      -7.700   8.263   4.649  1.00  0.00    -0.206 F 
ATOM     72  C   UNL     1      -5.836   8.017   6.053  1.00  0.00     0.059 A 
ATOM     73  C   UNL     1      -3.600   8.249   5.136  1.00  0.00     0.059 A 
ATOM     74  F   UNL     1      -3.323   8.743   2.860  1.00  0.00    -0.206 F 
ATOM     75  C   UNL     1      -4.450   8.015   6.216  1.00  0.00     0.060 A 
BRANCH  75  76
ATOM     76  S   UNL     1      -3.768   7.665   7.851  1.00  0.00     0.124 S 
ATOM     77  O   UNL     1      -4.022   8.920   8.549  1.00  0.00    -0.237 OA
ATOM     78  O   UNL     1      -4.567   6.521   8.280  1.00  0.00    -0.237 OA
ATOM     79  O   UNL     1      -2.366   7.369   7.572  1.00  0.00    -0.744 OA
ENDBRANCH  75  76
ENDBRANCH  43  68
BRANCH  55  80
ATOM     80  C   UNL     1      -9.256  13.826   1.110  1.00  0.00     0.058 A 
ATOM     81  C   UNL     1      -8.406  14.881   1.476  1.00  0.00     0.135 A 
ATOM     82  C   UNL     1     -10.633  13.984   1.333  1.00  0.00     0.135 A 
ATOM     83  F   UNL     1      -7.080  14.777   1.288  1.00  0.00    -0.206 F 
ATOM     84  C   UNL     1      -8.898  16.033   2.080  1.00  0.00     0.059 A 
ATOM     85  C   UNL     1     -11.150  15.139   1.910  1.00  0.00     0.059 A 
ATOM     86  F   UNL     1     -11.491  13.010   0.988  1.00  0.00    -0.206 F 
ATOM     87  C   UNL     1     -10.272  16.150   2.297  1.00  0.00     0.060 A 
BRANCH  87  88
ATOM     88  S   UNL     1     -10.900  17.649   3.082  1.00  0.00     0.124 S 
ATOM     89  O   UNL     1     -10.536  17.424   4.477  1.00  0.00    -0.237 OA
ATOM     90  O   UNL     1     -10.156  18.700   2.394  1.00  0.00    -0.237 OA
ATOM     91  O   UNL     1     -12.330  17.609   2.792  1.00  0.00    -0.744 OA
ENDBRANCH  87  88
ENDBRANCH  55  80
ENDBRANCH  29  30
ENDBRANCH  21  24
ENDBRANCH  19  20
ENDBRANCH   1  19
TORSDOF 15
