REMARK SMILES Cc1ccn2c([C@H]3C[C@@H]3C(=O)NCCCNC(=O)c3ccc(-c4c5nc(c(-c6c(F)cc(S(=O)(=O)[O-])cc6F)c6ccc([nH]6)c(-c6c(F)cc(S(=O)(=O)[O-])cc6F)c6nc(c(-c7c(F)cc(S(=O)(=O)[O-])cc7F)c7ccc4[nH]7)C=C6)C=C5)cc3)nnc2c1
REMARK SMILES IDX 15 1 14 2 13 3 12 4 10 5 11 6 9 8 7 9 8 10 6 11 1 12 2 13
REMARK SMILES IDX 3 14 88 15 4 16 87 17 5 18 86 19 85 20 16 21 17 22 18 24
REMARK SMILES IDX 19 25 20 26 84 27 21 28 83 29 22 30 23 31 24 32 77 33 25 34
REMARK SMILES IDX 82 35 76 36 78 37 26 38 81 39 75 40 74 41 27 43 61 44 40 45
REMARK SMILES IDX 60 46 41 47 44 48 59 49 79 50 42 51 43 52 58 54 80 55 45 56
REMARK SMILES IDX 28 57 29 58 38 59 30 60 31 61 37 62 39 63 32 64 33 65 34 66
REMARK SMILES IDX 35 67 36 68 62 69 63 70 72 71 64 72 65 73 71 74 73 75 66 76
REMARK SMILES IDX 67 77 68 78 69 79 70 80 46 81 47 82 56 83 48 84 49 85 55 86
REMARK SMILES IDX 57 87 50 88 51 89 52 90 53 91 54 92
REMARK H PARENT 12 7 16 23 78 42 44 53
REMARK Flexibility Score: inf
ROOT
ATOM      1  C   UNL     1      -1.237   2.385  -1.239  1.00  0.00     0.118 C 
ENDROOT
BRANCH   1   2
ATOM      2  C   UNL     1      -1.494   3.796  -0.702  1.00  0.00     0.042 C 
BRANCH   2   3
ATOM      3  C   UNL     1      -2.747   3.907   0.163  1.00  0.00     0.117 C 
BRANCH   3   4
ATOM      4  N   UNL     1      -2.646   3.094   1.366  1.00  0.00    -0.356 N 
ATOM      5  C   UNL     1      -2.446   3.514   2.646  1.00  0.00     0.223 C 
ATOM      6  O   UNL     1      -2.347   2.703   3.571  1.00  0.00    -0.275 OA
ATOM      7  H   UNL     1      -2.733   2.121   1.239  1.00  0.00     0.163 HD
BRANCH   5   8
ATOM      8  C   UNL     1      -2.396   4.962   2.902  1.00  0.00     0.090 C 
ATOM      9  C   UNL     1      -1.119   5.747   2.654  1.00  0.00     0.071 C 
ATOM     10  C   UNL     1      -1.624   5.542   4.055  1.00  0.00     0.026 C 
BRANCH   9  11
ATOM     11  C   UNL     1      -1.273   7.104   1.993  1.00  0.00     0.141 A 
ATOM     12  C   UNL     1       2.033  11.443   0.825  1.00  0.00     0.044 C 
ATOM     13  C   UNL     1       1.171  10.250   1.115  1.00  0.00    -0.046 A 
ATOM     14  C   UNL     1       1.775   9.163   1.890  1.00  0.00     0.022 A 
ATOM     15  C   UNL     1      -0.117  10.177   0.705  1.00  0.00     0.053 A 
ATOM     16  C   UNL     1       1.042   8.074   2.176  1.00  0.00     0.095 A 
ATOM     17  C   UNL     1      -0.910   9.052   1.065  1.00  0.00     0.161 A 
ATOM     18  N   UNL     1      -0.284   8.027   1.756  1.00  0.00    -0.286 N 
ATOM     19  N   UNL     1      -2.191   8.775   0.944  1.00  0.00    -0.130 NA
ATOM     20  N   UNL     1      -2.428   7.573   1.569  1.00  0.00    -0.134 NA
ENDBRANCH   9  11
ENDBRANCH   5   8
ENDBRANCH   3   4
ENDBRANCH   2   3
ENDBRANCH   1   2
BRANCH   1  21
ATOM     21  N   UNL     1      -2.320   1.838  -2.035  1.00  0.00    -0.352 N 
ATOM     22  C   UNL     1      -2.671   1.884  -3.357  1.00  0.00     0.251 C 
ATOM     23  H   UNL     1      -2.952   1.309  -1.496  1.00  0.00     0.163 HD
ATOM     24  O   UNL     1      -3.599   1.141  -3.689  1.00  0.00    -0.269 OA
BRANCH  22  25
ATOM     25  C   UNL     1      -2.062   2.776  -4.385  1.00  0.00     0.039 A 
ATOM     26  C   UNL     1      -1.009   3.658  -4.163  1.00  0.00     0.014 A 
ATOM     27  C   UNL     1      -2.651   2.751  -5.667  1.00  0.00     0.014 A 
ATOM     28  C   UNL     1      -0.614   4.545  -5.159  1.00  0.00     0.010 A 
ATOM     29  C   UNL     1      -2.241   3.622  -6.677  1.00  0.00     0.010 A 
ATOM     30  C   UNL     1      -1.243   4.549  -6.411  1.00  0.00    -0.014 A 
BRANCH  30  31
ATOM     31  C   UNL     1      -0.726   5.490  -7.406  1.00  0.00     0.031 A 
ATOM     32  C   UNL     1       0.724   5.343  -7.695  1.00  0.00     0.074 A 
ATOM     33  C   UNL     1      -1.446   6.420  -8.069  1.00  0.00     0.049 A 
ATOM     34  N   UNL     1       1.683   6.128  -7.327  1.00  0.00    -0.248 NA
ATOM     35  C   UNL     1       1.177   4.116  -8.365  1.00  0.00     0.031 C 
ATOM     36  C   UNL     1      -2.903   6.528  -8.153  1.00  0.00     0.029 A 
ATOM     37  N   UNL     1      -1.009   7.438  -8.877  1.00  0.00    -0.354 N 
ATOM     38  C   UNL     1       2.834   5.624  -7.927  1.00  0.00     0.074 A 
ATOM     39  C   UNL     1       2.498   4.307  -8.404  1.00  0.00     0.031 C 
ATOM     40  C   UNL     1      -3.229   7.409  -9.127  1.00  0.00     0.029 A 
ATOM     41  C   UNL     1      -2.016   8.047  -9.614  1.00  0.00     0.049 A 
ATOM     42  H   UNL     1      -0.066   7.713  -8.929  1.00  0.00     0.167 HD
ATOM     43  C   UNL     1       3.884   6.440  -8.218  1.00  0.00     0.037 A 
ATOM     44  C   UNL     1      -1.875   8.999 -10.568  1.00  0.00     0.037 A 
ATOM     45  C   UNL     1       3.769   7.710  -7.551  1.00  0.00     0.049 A 
ATOM     46  C   UNL     1      -0.626   9.750 -10.296  1.00  0.00     0.074 A 
ATOM     47  C   UNL     1       4.043   8.239  -6.310  1.00  0.00     0.029 A 
ATOM     48  N   UNL     1       2.977   8.608  -8.210  1.00  0.00    -0.354 N 
ATOM     49  N   UNL     1      -0.442  10.494  -9.240  1.00  0.00    -0.248 NA
ATOM     50  C   UNL     1       0.572   9.480 -11.088  1.00  0.00     0.031 C 
ATOM     51  C   UNL     1       3.277   9.440  -6.203  1.00  0.00     0.029 A 
ATOM     52  C   UNL     1       2.567   9.620  -7.385  1.00  0.00     0.049 A 
ATOM     53  H   UNL     1       2.732   8.536  -9.161  1.00  0.00     0.167 HD
ATOM     54  C   UNL     1       0.917  10.436  -9.016  1.00  0.00     0.074 A 
ATOM     55  C   UNL     1       1.502   9.962 -10.261  1.00  0.00     0.031 C 
ATOM     56  C   UNL     1       1.422  10.426  -7.752  1.00  0.00     0.037 A 
BRANCH  43  57
ATOM     57  C   UNL     1       4.759   6.308  -9.449  1.00  0.00     0.058 A 
ATOM     58  C   UNL     1       5.911   7.116  -9.566  1.00  0.00     0.135 A 
ATOM     59  C   UNL     1       4.342   5.669 -10.637  1.00  0.00     0.135 A 
ATOM     60  F   UNL     1       6.391   7.781  -8.503  1.00  0.00    -0.206 F 
ATOM     61  C   UNL     1       6.559   7.323 -10.786  1.00  0.00     0.059 A 
ATOM     62  C   UNL     1       5.005   5.820 -11.851  1.00  0.00     0.059 A 
ATOM     63  F   UNL     1       3.214   4.951 -10.701  1.00  0.00    -0.206 F 
ATOM     64  C   UNL     1       6.088   6.679 -11.926  1.00  0.00     0.060 A 
BRANCH  64  65
ATOM     65  S   UNL     1       6.864   7.016 -13.518  1.00  0.00     0.124 S 
ATOM     66  O   UNL     1       6.466   8.399 -13.751  1.00  0.00    -0.237 OA
ATOM     67  O   UNL     1       8.276   6.799 -13.217  1.00  0.00    -0.237 OA
ATOM     68  O   UNL     1       6.260   6.024 -14.401  1.00  0.00    -0.744 OA
ENDBRANCH  64  65
ENDBRANCH  43  57
BRANCH  44  69
ATOM     69  C   UNL     1      -2.604   9.130 -11.857  1.00  0.00     0.058 A 
ATOM     70  C   UNL     1      -2.456  10.282 -12.652  1.00  0.00     0.135 A 
ATOM     71  C   UNL     1      -3.191   8.012 -12.482  1.00  0.00     0.135 A 
ATOM     72  F   UNL     1      -1.908  11.394 -12.137  1.00  0.00    -0.206 F 
ATOM     73  C   UNL     1      -2.780  10.296 -14.011  1.00  0.00     0.059 A 
ATOM     74  C   UNL     1      -3.534   8.007 -13.833  1.00  0.00     0.059 A 
ATOM     75  F   UNL     1      -3.353   6.856 -11.822  1.00  0.00    -0.206 F 
ATOM     76  C   UNL     1      -3.288   9.140 -14.600  1.00  0.00     0.060 A 
BRANCH  76  77
ATOM     77  S   UNL     1      -3.489   9.082 -16.395  1.00  0.00     0.124 S 
ATOM     78  O   UNL     1      -4.599  10.006 -16.604  1.00  0.00    -0.237 OA
ATOM     79  O   UNL     1      -2.184   9.537 -16.864  1.00  0.00    -0.237 OA
ATOM     80  O   UNL     1      -3.788   7.677 -16.657  1.00  0.00    -0.744 OA
ENDBRANCH  76  77
ENDBRANCH  44  69
BRANCH  56  81
ATOM     81  C   UNL     1       0.665  11.143  -6.681  1.00  0.00     0.058 A 
ATOM     82  C   UNL     1      -0.573  10.742  -6.157  1.00  0.00     0.135 A 
ATOM     83  C   UNL     1       1.280  12.266  -6.106  1.00  0.00     0.135 A 
ATOM     84  F   UNL     1      -1.192   9.643  -6.614  1.00  0.00    -0.206 F 
ATOM     85  C   UNL     1      -1.179  11.441  -5.109  1.00  0.00     0.059 A 
ATOM     86  C   UNL     1       0.708  12.961  -5.048  1.00  0.00     0.059 A 
ATOM     87  F   UNL     1       2.481  12.676  -6.547  1.00  0.00    -0.206 F 
ATOM     88  C   UNL     1      -0.524  12.543  -4.554  1.00  0.00     0.060 A 
BRANCH  88  89
ATOM     89  S   UNL     1      -1.254  13.389  -3.135  1.00  0.00     0.124 S 
ATOM     90  O   UNL     1      -2.474  13.951  -3.701  1.00  0.00    -0.237 OA
ATOM     91  O   UNL     1      -1.431  12.298  -2.181  1.00  0.00    -0.237 OA
ATOM     92  O   UNL     1      -0.235  14.365  -2.756  1.00  0.00    -0.744 OA
ENDBRANCH  88  89
ENDBRANCH  56  81
ENDBRANCH  30  31
ENDBRANCH  22  25
ENDBRANCH   1  21
TORSDOF 14
