REMARK SMILES CC[C@H](C)[C@@H](Nc1ncnc2ccccc12)C(=O)NCCCNC(=O)c1ccc(-c2c3nc(c(-c4c(F)cc(S(=O)(=O)[O-])cc4F)c4ccc([nH]4)c(-c4c(F)cc(S(=O)(=O)[O-])cc4F)c4nc(c(-c5c(F)cc(S(=O)(=O)[O-])cc5F)c5ccc2[nH]5)C=C4)C=C3)cc1
REMARK SMILES IDX 21 1 20 2 19 3 17 4 18 5 5 7 3 8 4 9 2 10 1 11 6 12 7 14
REMARK SMILES IDX 8 15 16 16 9 17 11 18 15 19 10 20 12 21 14 22 13 23 22 24
REMARK SMILES IDX 23 25 24 26 25 28 26 29 27 30 91 31 28 32 90 33 29 34 30 35
REMARK SMILES IDX 31 36 84 37 32 38 89 39 83 40 85 41 33 42 88 43 82 44 81 45
REMARK SMILES IDX 34 47 68 48 47 49 67 50 48 51 51 52 66 53 86 54 49 55 50 56
REMARK SMILES IDX 65 58 87 59 52 60 35 61 36 62 45 63 37 64 38 65 44 66 46 67
REMARK SMILES IDX 39 68 40 69 41 70 42 71 43 72 69 73 70 74 79 75 71 76 72 77
REMARK SMILES IDX 78 78 80 79 73 80 74 81 75 82 76 83 77 84 53 85 54 86 63 87
REMARK SMILES IDX 55 88 56 89 62 90 64 91 57 92 58 93 59 94 60 95 61 96
REMARK H PARENT 19 6 6 13 23 27 85 46 51 57
REMARK Flexibility Score: inf
ROOT
ATOM      1  C   UNL     1       4.561   1.270   3.492  1.00  0.00     0.042 C 
ENDROOT
BRANCH   1   2
ATOM      2  C   UNL     1       3.576   0.466   4.318  1.00  0.00     0.117 C 
BRANCH   2   3
ATOM      3  N   UNL     1       2.508   1.300   4.837  1.00  0.00    -0.354 N 
ATOM      4  C   UNL     1       1.159   1.180   4.694  1.00  0.00     0.242 C 
ATOM      5  O   UNL     1       0.452   2.043   5.227  1.00  0.00    -0.273 OA
ATOM      6  H   UNL     1       2.803   2.070   5.374  1.00  0.00     0.163 HD
BRANCH   4   7
ATOM      7  C   UNL     1       0.519   0.035   3.869  1.00  0.00     0.173 C 
BRANCH   7   8
ATOM      8  C   UNL     1       0.734   0.317   2.342  1.00  0.00     0.018 C 
ATOM      9  C   UNL     1       0.232  -0.820   1.445  1.00  0.00     0.010 C 
BRANCH   8  10
ATOM     10  C   UNL     1       0.120   1.704   1.980  1.00  0.00     0.002 C 
ATOM     11  C   UNL     1      -0.513   1.849   0.605  1.00  0.00     0.004 C 
ENDBRANCH   8  10
ENDBRANCH   7   8
BRANCH   7  12
ATOM     12  N   UNL     1       0.941  -1.324   4.274  1.00  0.00    -0.358 N 
ATOM     13  H   UNL     1       0.791  -2.046   3.622  1.00  0.00     0.162 HD
BRANCH  12  14
ATOM     14  C   UNL     1       1.524  -1.683   5.471  1.00  0.00     0.137 A 
ATOM     15  N   UNL     1       2.561  -2.519   5.275  1.00  0.00    -0.219 NA
ATOM     16  C   UNL     1       1.202  -1.186   6.744  1.00  0.00     0.043 A 
ATOM     17  C   UNL     1       3.352  -2.758   6.324  1.00  0.00     0.224 A 
ATOM     18  C   UNL     1       2.147  -1.461   7.745  1.00  0.00     0.076 A 
ATOM     19  C   UNL     1       0.047  -0.436   7.084  1.00  0.00     0.014 A 
ATOM     20  N   UNL     1       3.217  -2.234   7.544  1.00  0.00    -0.236 NA
ATOM     21  C   UNL     1       1.980  -0.892   9.001  1.00  0.00     0.029 A 
ATOM     22  C   UNL     1      -0.105   0.117   8.354  1.00  0.00     0.001 A 
ATOM     23  C   UNL     1       0.877  -0.094   9.310  1.00  0.00     0.002 A 
ENDBRANCH  12  14
ENDBRANCH   7  12
ENDBRANCH   4   7
ENDBRANCH   2   3
ENDBRANCH   1   2
BRANCH   1  24
ATOM     24  C   UNL     1       5.338   2.283   4.316  1.00  0.00     0.118 C 
BRANCH  24  25
ATOM     25  N   UNL     1       6.258   1.657   5.259  1.00  0.00    -0.352 N 
ATOM     26  C   UNL     1       7.610   1.867   5.395  1.00  0.00     0.251 C 
ATOM     27  H   UNL     1       5.860   1.000   5.876  1.00  0.00     0.163 HD
ATOM     28  O   UNL     1       8.288   1.148   6.122  1.00  0.00    -0.269 OA
BRANCH  26  29
ATOM     29  C   UNL     1       8.232   2.960   4.624  1.00  0.00     0.039 A 
ATOM     30  C   UNL     1       9.346   2.691   3.827  1.00  0.00     0.014 A 
ATOM     31  C   UNL     1       7.650   4.230   4.636  1.00  0.00     0.014 A 
ATOM     32  C   UNL     1       9.834   3.684   2.975  1.00  0.00     0.010 A 
ATOM     33  C   UNL     1       8.083   5.185   3.728  1.00  0.00     0.010 A 
ATOM     34  C   UNL     1       9.180   4.923   2.891  1.00  0.00    -0.014 A 
BRANCH  34  35
ATOM     35  C   UNL     1       9.619   5.992   1.962  1.00  0.00     0.031 A 
ATOM     36  C   UNL     1      10.060   7.312   2.528  1.00  0.00     0.074 A 
ATOM     37  C   UNL     1       9.495   5.827   0.631  1.00  0.00     0.049 A 
ATOM     38  N   UNL     1      10.266   8.448   1.918  1.00  0.00    -0.248 NA
ATOM     39  C   UNL     1      10.245   7.367   3.987  1.00  0.00     0.031 C 
ATOM     40  C   UNL     1       9.034   4.608  -0.035  1.00  0.00     0.029 A 
ATOM     41  N   UNL     1       9.713   6.707  -0.400  1.00  0.00    -0.354 N 
ATOM     42  C   UNL     1      10.556   9.364   2.921  1.00  0.00     0.074 A 
ATOM     43  C   UNL     1      10.461   8.658   4.181  1.00  0.00     0.031 C 
ATOM     44  C   UNL     1       9.002   4.817  -1.361  1.00  0.00     0.029 A 
ATOM     45  C   UNL     1       9.397   6.195  -1.636  1.00  0.00     0.049 A 
ATOM     46  H   UNL     1      10.062   7.618  -0.266  1.00  0.00     0.167 HD
ATOM     47  C   UNL     1      10.884  10.672   2.802  1.00  0.00     0.037 A 
ATOM     48  C   UNL     1       9.402   6.779  -2.850  1.00  0.00     0.037 A 
ATOM     49  C   UNL     1      11.020  11.350   1.542  1.00  0.00     0.049 A 
ATOM     50  C   UNL     1       9.820   8.218  -2.971  1.00  0.00     0.074 A 
ATOM     51  C   UNL     1      11.412  12.654   1.303  1.00  0.00     0.029 A 
ATOM     52  N   UNL     1      10.774  10.770   0.305  1.00  0.00    -0.354 N 
ATOM     53  N   UNL     1      10.135   9.063  -2.018  1.00  0.00    -0.248 NA
ATOM     54  C   UNL     1       9.890   8.783  -4.325  1.00  0.00     0.031 C 
ATOM     55  C   UNL     1      11.381  12.871  -0.079  1.00  0.00     0.029 A 
ATOM     56  C   UNL     1      11.003  11.691  -0.702  1.00  0.00     0.049 A 
ATOM     57  H   UNL     1      10.480   9.841   0.166  1.00  0.00     0.167 HD
ATOM     58  C   UNL     1      10.465  10.252  -2.657  1.00  0.00     0.074 A 
ATOM     59  C   UNL     1      10.312  10.018  -4.079  1.00  0.00     0.031 C 
ATOM     60  C   UNL     1      10.863  11.429  -2.114  1.00  0.00     0.037 A 
BRANCH  47  61
ATOM     61  C   UNL     1      11.105  11.440   4.075  1.00  0.00     0.058 A 
ATOM     62  C   UNL     1      12.217  11.201   4.898  1.00  0.00     0.135 A 
ATOM     63  C   UNL     1      10.175  12.404   4.495  1.00  0.00     0.135 A 
ATOM     64  F   UNL     1      13.128  10.278   4.551  1.00  0.00    -0.206 F 
ATOM     65  C   UNL     1      12.370  11.847   6.120  1.00  0.00     0.059 A 
ATOM     66  C   UNL     1      10.323  13.085   5.700  1.00  0.00     0.059 A 
ATOM     67  F   UNL     1       9.095  12.675   3.745  1.00  0.00    -0.206 F 
ATOM     68  C   UNL     1      11.410  12.778   6.518  1.00  0.00     0.060 A 
BRANCH  68  69
ATOM     69  S   UNL     1      11.589  13.575   8.128  1.00  0.00     0.124 S 
ATOM     70  O   UNL     1      11.108  12.527   9.023  1.00  0.00    -0.237 OA
ATOM     71  O   UNL     1      13.022  13.849   8.188  1.00  0.00    -0.237 OA
ATOM     72  O   UNL     1      10.734  14.752   8.019  1.00  0.00    -0.744 OA
ENDBRANCH  68  69
ENDBRANCH  47  61
BRANCH  48  73
ATOM     73  C   UNL     1       9.017   5.980  -4.043  1.00  0.00     0.058 A 
ATOM     74  C   UNL     1       9.992   5.502  -4.930  1.00  0.00     0.135 A 
ATOM     75  C   UNL     1       7.682   5.615  -4.276  1.00  0.00     0.135 A 
ATOM     76  F   UNL     1      11.280   5.829  -4.750  1.00  0.00    -0.206 F 
ATOM     77  C   UNL     1       9.659   4.683  -6.004  1.00  0.00     0.059 A 
ATOM     78  C   UNL     1       7.327   4.783  -5.333  1.00  0.00     0.059 A 
ATOM     79  F   UNL     1       6.716   6.034  -3.444  1.00  0.00    -0.206 F 
ATOM     80  C   UNL     1       8.324   4.320  -6.192  1.00  0.00     0.060 A 
BRANCH  80  81
ATOM     81  S   UNL     1       7.917   3.174  -7.528  1.00  0.00     0.124 S 
ATOM     82  O   UNL     1       8.024   4.037  -8.698  1.00  0.00    -0.237 OA
ATOM     83  O   UNL     1       8.954   2.157  -7.387  1.00  0.00    -0.237 OA
ATOM     84  O   UNL     1       6.567   2.732  -7.189  1.00  0.00    -0.744 OA
ENDBRANCH  80  81
ENDBRANCH  48  73
BRANCH  60  85
ATOM     85  C   UNL     1      11.207  12.549  -3.051  1.00  0.00     0.058 A 
ATOM     86  C   UNL     1      10.214  13.322  -3.669  1.00  0.00     0.135 A 
ATOM     87  C   UNL     1      12.548  12.919  -3.245  1.00  0.00     0.135 A 
ATOM     88  F   UNL     1       8.919  13.004  -3.519  1.00  0.00    -0.206 F 
ATOM     89  C   UNL     1      10.538  14.429  -4.447  1.00  0.00     0.059 A 
ATOM     90  C   UNL     1      12.894  14.032  -4.004  1.00  0.00     0.059 A 
ATOM     91  F   UNL     1      13.534  12.213  -2.668  1.00  0.00    -0.206 F 
ATOM     92  C   UNL     1      11.881  14.781  -4.601  1.00  0.00     0.060 A 
BRANCH  92  93
ATOM     93  S   UNL     1      12.286  16.266  -5.545  1.00  0.00     0.124 S 
ATOM     94  O   UNL     1      12.093  15.805  -6.916  1.00  0.00    -0.237 OA
ATOM     95  O   UNL     1      11.303  17.227  -5.055  1.00  0.00    -0.237 OA
ATOM     96  O   UNL     1      13.668  16.543  -5.164  1.00  0.00    -0.744 OA
ENDBRANCH  92  93
ENDBRANCH  60  85
ENDBRANCH  34  35
ENDBRANCH  26  29
ENDBRANCH  24  25
ENDBRANCH   1  24
TORSDOF 17
