REMARK SMILES CCc1n[nH]c(C(=O)N[C@@]2(C(=O)NCCCNC(=O)c3ccc(-c4c5nc(c(-c6c(F)cc(S(=O)(=O)[O-])cc6F)c6ccc([nH]6)c(-c6c(F)cc(S(=O)(=O)[O-])cc6F)c6nc(c(-c7c(F)cc(S(=O)(=O)[O-])cc7F)c7ccc4[nH]7)C=C6)C=C5)cc3)CCCC[C@H]2C)n1
REMARK SMILES IDX 15 1 14 2 13 3 11 4 12 5 10 7 86 8 90 9 87 10 89 11 91 12
REMARK SMILES IDX 88 13 9 14 7 15 8 16 6 18 3 19 4 20 92 21 5 22 2 24 1 25
REMARK SMILES IDX 16 26 17 27 18 28 19 30 20 31 21 32 85 33 22 34 84 35 23 36
REMARK SMILES IDX 24 37 25 38 78 39 26 40 83 41 77 42 79 43 27 44 82 45 76 46
REMARK SMILES IDX 75 47 28 49 62 50 41 51 61 52 42 53 45 54 60 55 80 56 43 57
REMARK SMILES IDX 44 58 59 60 81 61 46 62 29 63 30 64 39 65 31 66 32 67 38 68
REMARK SMILES IDX 40 69 33 70 34 71 35 72 36 73 37 74 63 75 64 76 73 77 65 78
REMARK SMILES IDX 66 79 72 80 74 81 67 82 68 83 69 84 70 85 71 86 47 87 48 88
REMARK SMILES IDX 57 89 49 90 50 91 56 92 58 93 51 94 52 95 53 96 54 97 55 98
REMARK H PARENT 13 6 9 17 5 23 17 29 79 48 45 59
REMARK Flexibility Score: inf
ROOT
ATOM      1  C   UNL     1      -1.279   5.477  -0.780  1.00  0.00     0.042 C 
ENDROOT
BRANCH   1   2
ATOM      2  C   UNL     1      -0.303   4.465  -0.226  1.00  0.00     0.117 C 
BRANCH   2   3
ATOM      3  N   UNL     1       0.638   5.000   0.743  1.00  0.00    -0.354 N 
ATOM      4  C   UNL     1       0.980   4.587   2.000  1.00  0.00     0.246 C 
ATOM      5  O   UNL     1       1.862   5.247   2.566  1.00  0.00    -0.272 OA
ATOM      6  H   UNL     1       1.116   5.806   0.439  1.00  0.00     0.163 HD
BRANCH   4   7
ATOM      7  C   UNL     1       0.217   3.443   2.757  1.00  0.00     0.122 C 
ATOM      8  C   UNL     1       0.133   2.167   1.915  1.00  0.00     0.039 C 
ATOM      9  C   UNL     1      -1.233   3.969   3.064  1.00  0.00     0.021 C 
ATOM     10  C   UNL     1      -0.785   1.098   2.499  1.00  0.00     0.003 C 
ATOM     11  C   UNL     1      -2.144   2.866   3.626  1.00  0.00     0.006 C 
ATOM     12  C   UNL     1      -1.301   5.212   3.961  1.00  0.00     0.011 C 
ATOM     13  C   UNL     1      -2.183   1.655   2.701  1.00  0.00     0.000 C 
BRANCH   7  14
ATOM     14  N   UNL     1       0.981   3.247   4.047  1.00  0.00    -0.335 N 
ATOM     15  C   UNL     1       1.796   2.304   4.642  1.00  0.00     0.289 C 
ATOM     16  O   UNL     1       2.211   2.589   5.770  1.00  0.00    -0.266 OA
ATOM     17  H   UNL     1       0.862   4.023   4.641  1.00  0.00     0.165 HD
BRANCH  15  18
ATOM     18  C   UNL     1       2.055   0.994   4.087  1.00  0.00     0.214 A 
ATOM     19  C   UNL     1       2.082  -0.707   2.824  1.00  0.00     0.151 A 
ATOM     20  N   UNL     1       1.966  -1.248   4.045  1.00  0.00    -0.158 NA
ATOM     21  N   UNL     1       2.290   0.647   2.837  1.00  0.00    -0.207 NA
ATOM     22  N   UNL     1       2.031  -0.153   4.830  1.00  0.00    -0.255 N 
ATOM     23  H   UNL     1       2.058  -0.177   5.814  1.00  0.00     0.192 HD
BRANCH  19  24
ATOM     24  C   UNL     1       1.744  -1.467   1.581  1.00  0.00     0.076 C 
ATOM     25  C   UNL     1       1.833  -0.677   0.281  1.00  0.00     0.012 C 
ENDBRANCH  19  24
ENDBRANCH  15  18
ENDBRANCH   7  14
ENDBRANCH   4   7
ENDBRANCH   2   3
ENDBRANCH   1   2
BRANCH   1  26
ATOM     26  C   UNL     1      -0.634   6.552  -1.622  1.00  0.00     0.118 C 
BRANCH  26  27
ATOM     27  N   UNL     1      -0.012   6.021  -2.828  1.00  0.00    -0.352 N 
ATOM     28  C   UNL     1      -0.425   6.054  -4.141  1.00  0.00     0.251 C 
ATOM     29  H   UNL     1       0.846   5.562  -2.679  1.00  0.00     0.163 HD
ATOM     30  O   UNL     1       0.153   5.363  -4.971  1.00  0.00    -0.269 OA
BRANCH  28  31
ATOM     31  C   UNL     1      -1.579   6.891  -4.540  1.00  0.00     0.039 A 
ATOM     32  C   UNL     1      -2.478   6.406  -5.493  1.00  0.00     0.014 A 
ATOM     33  C   UNL     1      -1.781   8.150  -3.976  1.00  0.00     0.014 A 
ATOM     34  C   UNL     1      -3.619   7.148  -5.808  1.00  0.00     0.010 A 
ATOM     35  C   UNL     1      -2.978   8.821  -4.186  1.00  0.00     0.010 A 
ATOM     36  C   UNL     1      -3.906   8.338  -5.117  1.00  0.00    -0.014 A 
BRANCH  36  37
ATOM     37  C   UNL     1      -5.156   9.103  -5.360  1.00  0.00     0.031 A 
ATOM     38  C   UNL     1      -5.082  10.536  -5.822  1.00  0.00     0.074 A 
ATOM     39  C   UNL     1      -6.349   8.537  -5.088  1.00  0.00     0.049 A 
ATOM     40  N   UNL     1      -6.052  11.394  -6.005  1.00  0.00    -0.248 NA
ATOM     41  C   UNL     1      -3.741  11.090  -6.077  1.00  0.00     0.031 C 
ATOM     42  C   UNL     1      -6.545   7.179  -4.572  1.00  0.00     0.029 A 
ATOM     43  N   UNL     1      -7.623   9.036  -5.192  1.00  0.00    -0.354 N 
ATOM     44  C   UNL     1      -5.439  12.587  -6.372  1.00  0.00     0.074 A 
ATOM     45  C   UNL     1      -4.012  12.361  -6.328  1.00  0.00     0.031 C 
ATOM     46  C   UNL     1      -7.860   6.946  -4.431  1.00  0.00     0.029 A 
ATOM     47  C   UNL     1      -8.599   8.149  -4.799  1.00  0.00     0.049 A 
ATOM     48  H   UNL     1      -7.821   9.944  -5.518  1.00  0.00     0.167 HD
ATOM     49  C   UNL     1      -6.014  13.756  -6.738  1.00  0.00     0.037 A 
ATOM     50  C   UNL     1      -9.937   8.293  -4.730  1.00  0.00     0.037 A 
ATOM     51  C   UNL     1      -7.436  13.959  -6.816  1.00  0.00     0.049 A 
ATOM     52  C   UNL     1     -10.552   9.598  -5.157  1.00  0.00     0.074 A 
ATOM     53  C   UNL     1      -8.121  15.078  -7.255  1.00  0.00     0.029 A 
ATOM     54  N   UNL     1      -8.392  13.025  -6.443  1.00  0.00    -0.354 N 
ATOM     55  N   UNL     1      -9.959  10.688  -5.583  1.00  0.00    -0.248 NA
ATOM     56  C   UNL     1     -12.017   9.692  -5.102  1.00  0.00     0.031 C 
ATOM     57  C   UNL     1      -9.489  14.844  -7.092  1.00  0.00     0.029 A 
ATOM     58  C   UNL     1      -9.661  13.555  -6.613  1.00  0.00     0.049 A 
ATOM     59  H   UNL     1      -8.198  12.120  -6.108  1.00  0.00     0.167 HD
ATOM     60  C   UNL     1     -10.980  11.588  -5.872  1.00  0.00     0.074 A 
ATOM     61  C   UNL     1     -12.227  10.908  -5.588  1.00  0.00     0.031 C 
ATOM     62  C   UNL     1     -10.893  12.861  -6.332  1.00  0.00     0.037 A 
BRANCH  49  63
ATOM     63  C   UNL     1      -5.110  14.908  -7.087  1.00  0.00     0.058 A 
ATOM     64  C   UNL     1      -4.318  14.904  -8.248  1.00  0.00     0.135 A 
ATOM     65  C   UNL     1      -5.073  16.053  -6.276  1.00  0.00     0.135 A 
ATOM     66  F   UNL     1      -4.299  13.829  -9.051  1.00  0.00    -0.206 F 
ATOM     67  C   UNL     1      -3.507  15.984  -8.579  1.00  0.00     0.059 A 
ATOM     68  C   UNL     1      -4.294  17.159  -6.604  1.00  0.00     0.059 A 
ATOM     69  F   UNL     1      -5.806  16.110  -5.153  1.00  0.00    -0.206 F 
ATOM     70  C   UNL     1      -3.505  17.110  -7.753  1.00  0.00     0.060 A 
BRANCH  70  71
ATOM     71  S   UNL     1      -2.465  18.512  -8.211  1.00  0.00     0.124 S 
ATOM     72  O   UNL     1      -1.130  17.983  -7.945  1.00  0.00    -0.237 OA
ATOM     73  O   UNL     1      -2.802  18.701  -9.618  1.00  0.00    -0.237 OA
ATOM     74  O   UNL     1      -2.909  19.574  -7.314  1.00  0.00    -0.744 OA
ENDBRANCH  70  71
ENDBRANCH  49  63
BRANCH  50  75
ATOM     75  C   UNL     1     -10.783   7.168  -4.247  1.00  0.00     0.058 A 
ATOM     76  C   UNL     1     -11.646   6.483  -5.116  1.00  0.00     0.135 A 
ATOM     77  C   UNL     1     -10.741   6.749  -2.908  1.00  0.00     0.135 A 
ATOM     78  F   UNL     1     -11.727   6.847  -6.405  1.00  0.00    -0.206 F 
ATOM     79  C   UNL     1     -12.453   5.440  -4.672  1.00  0.00     0.059 A 
ATOM     80  C   UNL     1     -11.515   5.689  -2.446  1.00  0.00     0.059 A 
ATOM     81  F   UNL     1      -9.918   7.356  -2.038  1.00  0.00    -0.206 F 
ATOM     82  C   UNL     1     -12.378   5.049  -3.334  1.00  0.00     0.060 A 
BRANCH  82  83
ATOM     83  S   UNL     1     -13.399   3.667  -2.777  1.00  0.00     0.124 S 
ATOM     84  O   UNL     1     -14.729   4.264  -2.780  1.00  0.00    -0.237 OA
ATOM     85  O   UNL     1     -13.145   2.665  -3.808  1.00  0.00    -0.237 OA
ATOM     86  O   UNL     1     -12.849   3.354  -1.461  1.00  0.00    -0.744 OA
ENDBRANCH  82  83
ENDBRANCH  50  75
BRANCH  62  87
ATOM     87  C   UNL     1     -12.180  13.594  -6.592  1.00  0.00     0.058 A 
ATOM     88  C   UNL     1     -13.005  14.037  -5.547  1.00  0.00     0.135 A 
ATOM     89  C   UNL     1     -12.563  13.907  -7.907  1.00  0.00     0.135 A 
ATOM     90  F   UNL     1     -12.688  13.760  -4.272  1.00  0.00    -0.206 F 
ATOM     91  C   UNL     1     -14.177  14.743  -5.796  1.00  0.00     0.059 A 
ATOM     92  C   UNL     1     -13.713  14.639  -8.178  1.00  0.00     0.059 A 
ATOM     93  F   UNL     1     -11.804  13.518  -8.944  1.00  0.00    -0.206 F 
ATOM     94  C   UNL     1     -14.521  15.042  -7.116  1.00  0.00     0.060 A 
BRANCH  94  95
ATOM     95  S   UNL     1     -16.028  15.987  -7.423  1.00  0.00     0.124 S 
ATOM     96  O   UNL     1     -17.060  14.999  -7.127  1.00  0.00    -0.237 OA
ATOM     97  O   UNL     1     -15.907  17.084  -6.468  1.00  0.00    -0.237 OA
ATOM     98  O   UNL     1     -15.909  16.370  -8.827  1.00  0.00    -0.744 OA
ENDBRANCH  94  95
ENDBRANCH  62  87
ENDBRANCH  36  37
ENDBRANCH  28  31
ENDBRANCH  26  27
ENDBRANCH   1  26
TORSDOF 16
