REMARK SMILES O=C(NCCCNC(=O)[C@H]1CC[C@@H](CNC(=O)c2ccc(CO)cc2)O1)c1ccc(-c2c3nc(c(-c4c(F)cc(S(=O)(=O)[O-])cc4F)c4ccc([nH]4)c(-c4c(F)cc(S(=O)(=O)[O-])cc4F)c4nc(c(-c5c(F)cc(S(=O)(=O)[O-])cc5F)c5ccc2[nH]5)C=C4)C=C3)cc1
REMARK SMILES IDX 6 1 5 2 4 3 3 4 1 5 2 6 27 8 28 9 92 10 29 11 91 12 30 13
REMARK SMILES IDX 31 14 32 15 85 16 33 17 90 18 84 19 86 20 34 21 89 22 83 23
REMARK SMILES IDX 82 24 35 26 69 27 48 28 68 29 49 30 52 31 67 32 87 33 50 34
REMARK SMILES IDX 51 35 66 37 88 38 53 39 36 40 37 41 46 42 38 43 39 44 45 45
REMARK SMILES IDX 47 46 40 47 41 48 42 49 43 50 44 51 70 52 71 53 80 54 72 55
REMARK SMILES IDX 73 56 79 57 81 58 74 59 75 60 76 61 77 62 78 63 54 64 55 65
REMARK SMILES IDX 64 66 56 67 57 68 63 69 65 70 58 71 59 72 60 73 61 74 62 75
REMARK SMILES IDX 7 76 8 77 9 79 10 80 11 81 26 82 12 83 13 84 14 85 15 86
REMARK SMILES IDX 16 87 17 89 18 90 19 91 25 92 20 93 24 94 21 95 22 96 23 97
REMARK H PARENT 3 7 86 25 52 36 7 78 15 88 23 98
REMARK Flexibility Score: inf
ROOT
ATOM      1  C   UNL     1       6.586  -2.545   2.813  1.00  0.00     0.117 C 
ENDROOT
BRANCH   1   2
ATOM      2  C   UNL     1       5.873  -1.458   2.026  1.00  0.00     0.042 C 
BRANCH   2   3
ATOM      3  C   UNL     1       4.872  -0.644   2.833  1.00  0.00     0.118 C 
BRANCH   3   4
ATOM      4  N   UNL     1       5.488   0.138   3.897  1.00  0.00    -0.352 N 
ATOM      5  O   UNL     1       6.425   1.900   4.929  1.00  0.00    -0.269 OA
ATOM      6  C   UNL     1       5.747   1.485   3.991  1.00  0.00     0.251 C 
ATOM      7  H   UNL     1       5.765  -0.388   4.682  1.00  0.00     0.163 HD
BRANCH   6   8
ATOM      8  C   UNL     1       5.251   2.429   2.964  1.00  0.00     0.039 A 
ATOM      9  C   UNL     1       3.970   2.303   2.429  1.00  0.00     0.014 A 
ATOM     10  C   UNL     1       6.074   3.479   2.544  1.00  0.00     0.014 A 
ATOM     11  C   UNL     1       3.589   3.088   1.348  1.00  0.00     0.010 A 
ATOM     12  C   UNL     1       5.641   4.348   1.535  1.00  0.00     0.010 A 
ATOM     13  C   UNL     1       4.410   4.134   0.899  1.00  0.00    -0.014 A 
BRANCH  13  14
ATOM     14  C   UNL     1       3.922   5.020  -0.191  1.00  0.00     0.031 A 
ATOM     15  C   UNL     1       4.649   5.117  -1.505  1.00  0.00     0.074 A 
ATOM     16  C   UNL     1       2.782   5.714   0.004  1.00  0.00     0.049 A 
ATOM     17  N   UNL     1       4.348   5.830  -2.560  1.00  0.00    -0.248 NA
ATOM     18  C   UNL     1       5.876   4.319  -1.655  1.00  0.00     0.031 C 
ATOM     19  C   UNL     1       1.995   5.710   1.241  1.00  0.00     0.029 A 
ATOM     20  N   UNL     1       2.073   6.537  -0.833  1.00  0.00    -0.354 N 
ATOM     21  C   UNL     1       5.354   5.589  -3.489  1.00  0.00     0.074 A 
ATOM     22  C   UNL     1       6.289   4.678  -2.864  1.00  0.00     0.031 C 
ATOM     23  C   UNL     1       0.889   6.445   1.064  1.00  0.00     0.029 A 
ATOM     24  C   UNL     1       0.921   7.032  -0.270  1.00  0.00     0.049 A 
ATOM     25  H   UNL     1       2.361   6.752  -1.750  1.00  0.00     0.167 HD
ATOM     26  C   UNL     1       5.481   6.078  -4.746  1.00  0.00     0.037 A 
ATOM     27  C   UNL     1      -0.002   7.881  -0.760  1.00  0.00     0.037 A 
ATOM     28  C   UNL     1       4.533   6.969  -5.367  1.00  0.00     0.049 A 
ATOM     29  C   UNL     1       0.170   8.417  -2.150  1.00  0.00     0.074 A 
ATOM     30  C   UNL     1       4.556   7.495  -6.648  1.00  0.00     0.029 A 
ATOM     31  N   UNL     1       3.393   7.469  -4.753  1.00  0.00    -0.354 N 
ATOM     32  N   UNL     1       1.119   8.160  -3.018  1.00  0.00    -0.248 NA
ATOM     33  C   UNL     1      -0.848   9.361  -2.627  1.00  0.00     0.031 C 
ATOM     34  C   UNL     1       3.453   8.343  -6.795  1.00  0.00     0.029 A 
ATOM     35  C   UNL     1       2.716   8.311  -5.622  1.00  0.00     0.049 A 
ATOM     36  H   UNL     1       3.106   7.256  -3.836  1.00  0.00     0.167 HD
ATOM     37  C   UNL     1       0.808   8.904  -4.149  1.00  0.00     0.074 A 
ATOM     38  C   UNL     1      -0.428   9.603  -3.861  1.00  0.00     0.031 C 
ATOM     39  C   UNL     1       1.488   9.001  -5.318  1.00  0.00     0.037 A 
BRANCH  26  40
ATOM     40  C   UNL     1       6.698   5.676  -5.535  1.00  0.00     0.058 A 
ATOM     41  C   UNL     1       6.847   4.382  -6.059  1.00  0.00     0.135 A 
ATOM     42  C   UNL     1       7.710   6.612  -5.808  1.00  0.00     0.135 A 
ATOM     43  F   UNL     1       5.918   3.444  -5.818  1.00  0.00    -0.206 F 
ATOM     44  C   UNL     1       7.967   4.023  -6.803  1.00  0.00     0.059 A 
ATOM     45  C   UNL     1       8.828   6.281  -6.570  1.00  0.00     0.059 A 
ATOM     46  F   UNL     1       7.618   7.864  -5.334  1.00  0.00    -0.206 F 
ATOM     47  C   UNL     1       8.954   4.979  -7.051  1.00  0.00     0.060 A 
BRANCH  47  48
ATOM     48  S   UNL     1      10.404   4.495  -8.013  1.00  0.00     0.124 S 
ATOM     49  O   UNL     1      11.135   3.682  -7.047  1.00  0.00    -0.237 OA
ATOM     50  O   UNL     1       9.810   3.769  -9.131  1.00  0.00    -0.237 OA
ATOM     51  O   UNL     1      11.025   5.771  -8.357  1.00  0.00    -0.744 OA
ENDBRANCH  47  48
ENDBRANCH  26  40
BRANCH  27  52
ATOM     52  C   UNL     1      -1.156   8.278   0.086  1.00  0.00     0.058 A 
ATOM     53  C   UNL     1      -2.453   7.829  -0.200  1.00  0.00     0.135 A 
ATOM     54  C   UNL     1      -0.977   9.082   1.224  1.00  0.00     0.135 A 
ATOM     55  F   UNL     1      -2.674   7.061  -1.278  1.00  0.00    -0.206 F 
ATOM     56  C   UNL     1      -3.534   8.166   0.608  1.00  0.00     0.059 A 
ATOM     57  C   UNL     1      -2.036   9.410   2.062  1.00  0.00     0.059 A 
ATOM     58  F   UNL     1       0.249   9.521   1.551  1.00  0.00    -0.206 F 
ATOM     59  C   UNL     1      -3.314   8.954   1.740  1.00  0.00     0.060 A 
BRANCH  59  60
ATOM     60  S   UNL     1      -4.711   9.335   2.819  1.00  0.00     0.124 S 
ATOM     61  O   UNL     1      -5.406  10.357   2.046  1.00  0.00    -0.237 OA
ATOM     62  O   UNL     1      -5.382   8.043   2.921  1.00  0.00    -0.237 OA
ATOM     63  O   UNL     1      -4.069   9.797   4.046  1.00  0.00    -0.744 OA
ENDBRANCH  59  60
ENDBRANCH  27  52
BRANCH  39  64
ATOM     64  C   UNL     1       0.894   9.881  -6.381  1.00  0.00     0.058 A 
ATOM     65  C   UNL     1       0.940  11.280  -6.287  1.00  0.00     0.135 A 
ATOM     66  C   UNL     1       0.303   9.317  -7.523  1.00  0.00     0.135 A 
ATOM     67  F   UNL     1       1.485  11.868  -5.210  1.00  0.00    -0.206 F 
ATOM     68  C   UNL     1       0.399  12.092  -7.278  1.00  0.00     0.059 A 
ATOM     69  C   UNL     1      -0.222  10.109  -8.538  1.00  0.00     0.059 A 
ATOM     70  F   UNL     1       0.241   7.983  -7.663  1.00  0.00    -0.206 F 
ATOM     71  C   UNL     1      -0.180  11.496  -8.401  1.00  0.00     0.060 A 
BRANCH  71  72
ATOM     72  S   UNL     1      -0.854  12.559  -9.695  1.00  0.00     0.124 S 
ATOM     73  O   UNL     1      -2.101  13.008  -9.086  1.00  0.00    -0.237 OA
ATOM     74  O   UNL     1       0.184  13.575  -9.839  1.00  0.00    -0.237 OA
ATOM     75  O   UNL     1      -1.000  11.655 -10.833  1.00  0.00    -0.744 OA
ENDBRANCH  71  72
ENDBRANCH  39  64
ENDBRANCH  13  14
ENDBRANCH   6   8
ENDBRANCH   3   4
ENDBRANCH   2   3
ENDBRANCH   1   2
BRANCH   1  76
ATOM     76  N   UNL     1       5.680  -3.470   3.471  1.00  0.00    -0.354 N 
ATOM     77  C   UNL     1       5.645  -4.833   3.428  1.00  0.00     0.249 C 
ATOM     78  H   UNL     1       4.988  -3.050   4.032  1.00  0.00     0.163 HD
ATOM     79  O   UNL     1       4.853  -5.410   4.177  1.00  0.00    -0.272 OA
BRANCH  77  80
ATOM     80  C   UNL     1       6.574  -5.591   2.458  1.00  0.00     0.207 C 
ATOM     81  C   UNL     1       8.040  -5.503   2.849  1.00  0.00     0.045 C 
ATOM     82  O   UNL     1       6.268  -6.995   2.460  1.00  0.00    -0.363 OA
ATOM     83  C   UNL     1       8.180  -6.636   3.834  1.00  0.00     0.037 C 
ATOM     84  C   UNL     1       7.256  -7.691   3.248  1.00  0.00     0.138 C 
BRANCH  84  85
ATOM     85  C   UNL     1       6.571  -8.563   4.311  1.00  0.00     0.148 C 
BRANCH  85  86
ATOM     86  N   UNL     1       7.255  -9.838   4.497  1.00  0.00    -0.349 N 
ATOM     87  C   UNL     1       8.261 -10.213   5.348  1.00  0.00     0.251 C 
ATOM     88  H   UNL     1       6.938 -10.558   3.906  1.00  0.00     0.163 HD
ATOM     89  O   UNL     1       8.839 -11.282   5.162  1.00  0.00    -0.269 OA
BRANCH  87  90
ATOM     90  C   UNL     1       8.685  -9.356   6.476  1.00  0.00     0.039 A 
ATOM     91  C   UNL     1      10.057  -9.204   6.709  1.00  0.00     0.014 A 
ATOM     92  C   UNL     1       7.767  -8.807   7.374  1.00  0.00     0.014 A 
ATOM     93  C   UNL     1      10.506  -8.455   7.799  1.00  0.00     0.007 A 
ATOM     94  C   UNL     1       8.217  -8.048   8.459  1.00  0.00     0.007 A 
ATOM     95  C   UNL     1       9.589  -7.853   8.672  1.00  0.00    -0.023 A 
BRANCH  95  96
ATOM     96  C   UNL     1      10.080  -7.053   9.850  1.00  0.00     0.191 C 
BRANCH  96  97
ATOM     97  O   UNL     1      10.544  -7.912  10.883  1.00  0.00    -0.392 OA
ATOM     98  H   UNL     1       9.817  -8.480  11.182  1.00  0.00     0.211 HD
ENDBRANCH  96  97
ENDBRANCH  95  96
ENDBRANCH  87  90
ENDBRANCH  85  86
ENDBRANCH  84  85
ENDBRANCH  77  80
ENDBRANCH   1  76
TORSDOF 18
