REMARK SMILES C[C@@H]1CC[C@@H](C(=O)NCCCNC(=O)c2ccc(-c3c4nc(c(-c5c(F)cc(S(=O)(=O)[O-])cc5F)c5ccc([nH]5)c(-c5c(F)cc(S(=O)(=O)[O-])cc5F)c5nc(c(-c6c(F)cc(S(=O)(=O)[O-])cc6F)c6ccc3[nH]6)C=C5)C=C4)cc2)[C@H](SCC[NH+](C)C)C1
REMARK SMILES IDX 9 1 8 2 6 3 7 4 5 6 1 7 2 8 3 9 88 10 4 11 81 12 82 13 83 14
REMARK SMILES IDX 84 15 85 16 86 17 87 18 10 20 11 21 12 22 13 23 14 25 15 26
REMARK SMILES IDX 16 27 80 28 17 29 79 30 18 31 19 32 20 33 73 34 21 35 78 36
REMARK SMILES IDX 72 37 74 38 22 39 77 40 71 41 70 42 23 44 57 45 36 46 56 47
REMARK SMILES IDX 37 48 40 49 55 50 75 51 38 52 39 53 54 55 76 56 41 57 24 58
REMARK SMILES IDX 25 59 34 60 26 61 27 62 33 63 35 64 28 65 29 66 30 67 31 68
REMARK SMILES IDX 32 69 58 70 59 71 68 72 60 73 61 74 67 75 69 76 62 77 63 78
REMARK SMILES IDX 64 79 65 80 66 81 42 82 43 83 52 84 44 85 45 86 51 87 53 88
REMARK SMILES IDX 46 89 47 90 48 91 49 92 50 93
REMARK H PARENT 8 5 85 19 12 24 74 43 40 54
REMARK Flexibility Score: inf
ROOT
ATOM      1  C   UNL     1      -4.769   0.064  -1.484  1.00  0.00     0.117 C 
ENDROOT
BRANCH   1   2
ATOM      2  N   UNL     1      -3.671  -0.505  -2.230  1.00  0.00    -0.356 N 
ATOM      3  C   UNL     1      -2.365  -0.682  -1.937  1.00  0.00     0.224 C 
ATOM      4  O   UNL     1      -1.700  -1.255  -2.807  1.00  0.00    -0.275 OA
ATOM      5  H   UNL     1      -3.924  -0.826  -3.126  1.00  0.00     0.163 HD
BRANCH   3   6
ATOM      6  C   UNL     1      -1.711  -0.143  -0.644  1.00  0.00     0.091 C 
ATOM      7  C   UNL     1       2.213  -1.210   0.127  1.00  0.00     0.007 C 
ATOM      8  C   UNL     1       1.108  -1.231  -0.931  1.00  0.00    -0.013 C 
ATOM      9  C   UNL     1       0.761   0.168  -1.474  1.00  0.00     0.004 C 
ATOM     10  C   UNL     1      -0.063  -2.095  -0.465  1.00  0.00     0.018 C 
ATOM     11  C   UNL     1      -0.620   0.782  -1.198  1.00  0.00     0.015 C 
ATOM     12  C   UNL     1      -1.230  -1.349   0.202  1.00  0.00     0.059 C 
BRANCH  12  13
ATOM     13  S   UNL     1      -1.039  -1.549   2.070  1.00  0.00    -0.152 SA
BRANCH  13  14
ATOM     14  C   UNL     1      -0.851   0.035   2.981  1.00  0.00     0.131 C 
BRANCH  14  15
ATOM     15  C   UNL     1       0.605   0.431   3.407  1.00  0.00     0.272 C 
BRANCH  15  16
ATOM     16  N   UNL     1       1.242   1.611   2.777  1.00  0.00    -0.339 N 
ATOM     17  C   UNL     1       2.689   1.451   2.602  1.00  0.00     0.332 C 
ATOM     18  C   UNL     1       0.622   1.955   1.522  1.00  0.00     0.332 C 
ATOM     19  H   UNL     1       1.095   2.381   3.429  1.00  0.00     0.347 HD
ENDBRANCH  15  16
ENDBRANCH  14  15
ENDBRANCH  13  14
ENDBRANCH  12  13
ENDBRANCH   3   6
ENDBRANCH   1   2
BRANCH   1  20
ATOM     20  C   UNL     1      -5.155   1.462  -1.958  1.00  0.00     0.042 C 
BRANCH  20  21
ATOM     21  C   UNL     1      -5.379   1.622  -3.464  1.00  0.00     0.118 C 
BRANCH  21  22
ATOM     22  N   UNL     1      -6.332   0.675  -4.024  1.00  0.00    -0.352 N 
ATOM     23  C   UNL     1      -7.500   0.875  -4.720  1.00  0.00     0.251 C 
ATOM     24  H   UNL     1      -6.101  -0.271  -3.879  1.00  0.00     0.163 HD
ATOM     25  O   UNL     1      -8.204  -0.092  -4.994  1.00  0.00    -0.269 OA
BRANCH  23  26
ATOM     26  C   UNL     1      -7.934   2.235  -5.114  1.00  0.00     0.039 A 
ATOM     27  C   UNL     1      -9.282   2.575  -4.966  1.00  0.00     0.014 A 
ATOM     28  C   UNL     1      -7.040   3.163  -5.653  1.00  0.00     0.014 A 
ATOM     29  C   UNL     1      -9.716   3.864  -5.288  1.00  0.00     0.010 A 
ATOM     30  C   UNL     1      -7.458   4.471  -5.900  1.00  0.00     0.010 A 
ATOM     31  C   UNL     1      -8.800   4.837  -5.720  1.00  0.00    -0.014 A 
BRANCH  31  32
ATOM     32  C   UNL     1      -9.233   6.238  -5.974  1.00  0.00     0.031 A 
ATOM     33  C   UNL     1      -9.121   6.835  -7.352  1.00  0.00     0.074 A 
ATOM     34  C   UNL     1      -9.676   6.993  -4.948  1.00  0.00     0.049 A 
ATOM     35  N   UNL     1      -9.407   8.048  -7.753  1.00  0.00    -0.248 NA
ATOM     36  C   UNL     1      -8.593   5.964  -8.415  1.00  0.00     0.031 C 
ATOM     37  C   UNL     1      -9.781   6.549  -3.556  1.00  0.00     0.029 A 
ATOM     38  N   UNL     1     -10.117   8.293  -4.912  1.00  0.00    -0.354 N 
ATOM     39  C   UNL     1      -9.085   8.089  -9.105  1.00  0.00     0.074 A 
ATOM     40  C   UNL     1      -8.528   6.797  -9.443  1.00  0.00     0.031 C 
ATOM     41  C   UNL     1     -10.278   7.548  -2.810  1.00  0.00     0.029 A 
ATOM     42  C   UNL     1     -10.494   8.715  -3.658  1.00  0.00     0.049 A 
ATOM     43  H   UNL     1     -10.158   8.869  -5.709  1.00  0.00     0.167 HD
ATOM     44  C   UNL     1      -9.259   9.101  -9.989  1.00  0.00     0.037 A 
ATOM     45  C   UNL     1     -10.958   9.908  -3.237  1.00  0.00     0.037 A 
ATOM     46  C   UNL     1      -9.836  10.377  -9.650  1.00  0.00     0.049 A 
ATOM     47  C   UNL     1     -11.150  11.015  -4.238  1.00  0.00     0.074 A 
ATOM     48  C   UNL     1     -10.106  11.448 -10.484  1.00  0.00     0.029 A 
ATOM     49  N   UNL     1     -10.229  10.756  -8.375  1.00  0.00    -0.354 N 
ATOM     50  N   UNL     1     -10.901  11.013  -5.526  1.00  0.00    -0.248 NA
ATOM     51  C   UNL     1     -11.697  12.282  -3.734  1.00  0.00     0.031 C 
ATOM     52  C   UNL     1     -10.619  12.491  -9.706  1.00  0.00     0.029 A 
ATOM     53  C   UNL     1     -10.723  12.051  -8.397  1.00  0.00     0.049 A 
ATOM     54  H   UNL     1     -10.167  10.189  -7.572  1.00  0.00     0.167 HD
ATOM     55  C   UNL     1     -11.293  12.263  -5.992  1.00  0.00     0.074 A 
ATOM     56  C   UNL     1     -11.803  12.992  -4.848  1.00  0.00     0.031 C 
ATOM     57  C   UNL     1     -11.240  12.761  -7.252  1.00  0.00     0.037 A 
BRANCH  44  58
ATOM     58  C   UNL     1      -8.828   8.868 -11.413  1.00  0.00     0.058 A 
ATOM     59  C   UNL     1      -9.509   7.974 -12.254  1.00  0.00     0.135 A 
ATOM     60  C   UNL     1      -7.743   9.577 -11.957  1.00  0.00     0.135 A 
ATOM     61  F   UNL     1     -10.545   7.259 -11.785  1.00  0.00    -0.206 F 
ATOM     62  C   UNL     1      -9.112   7.765 -13.571  1.00  0.00     0.059 A 
ATOM     63  C   UNL     1      -7.348   9.407 -13.281  1.00  0.00     0.059 A 
ATOM     64  F   UNL     1      -7.056  10.446 -11.200  1.00  0.00    -0.206 F 
ATOM     65  C   UNL     1      -8.030   8.487 -14.076  1.00  0.00     0.060 A 
BRANCH  65  66
ATOM     66  S   UNL     1      -7.532   8.207 -15.788  1.00  0.00     0.124 S 
ATOM     67  O   UNL     1      -6.923   6.883 -15.701  1.00  0.00    -0.237 OA
ATOM     68  O   UNL     1      -8.805   8.273 -16.498  1.00  0.00    -0.237 OA
ATOM     69  O   UNL     1      -6.608   9.305 -16.058  1.00  0.00    -0.744 OA
ENDBRANCH  65  66
ENDBRANCH  44  58
BRANCH  45  70
ATOM     70  C   UNL     1     -11.302  10.108  -1.802  1.00  0.00     0.058 A 
ATOM     71  C   UNL     1     -12.636  10.250  -1.392  1.00  0.00     0.135 A 
ATOM     72  C   UNL     1     -10.307  10.146  -0.812  1.00  0.00     0.135 A 
ATOM     73  F   UNL     1     -13.623  10.226  -2.301  1.00  0.00    -0.206 F 
ATOM     74  C   UNL     1     -12.972  10.442  -0.056  1.00  0.00     0.059 A 
ATOM     75  C   UNL     1     -10.620  10.308   0.534  1.00  0.00     0.059 A 
ATOM     76  F   UNL     1      -9.017   9.995  -1.149  1.00  0.00    -0.206 F 
ATOM     77  C   UNL     1     -11.956  10.467   0.901  1.00  0.00     0.060 A 
BRANCH  77  78
ATOM     78  S   UNL     1     -12.407  10.668   2.638  1.00  0.00     0.124 S 
ATOM     79  O   UNL     1     -12.793  12.073   2.681  1.00  0.00    -0.237 OA
ATOM     80  O   UNL     1     -13.491   9.702   2.787  1.00  0.00    -0.237 OA
ATOM     81  O   UNL     1     -11.175  10.329   3.345  1.00  0.00    -0.744 OA
ENDBRANCH  77  78
ENDBRANCH  45  70
BRANCH  57  82
ATOM     82  C   UNL     1     -11.791  14.142  -7.478  1.00  0.00     0.058 A 
ATOM     83  C   UNL     1     -11.128  15.291  -7.019  1.00  0.00     0.135 A 
ATOM     84  C   UNL     1     -12.977  14.318  -8.211  1.00  0.00     0.135 A 
ATOM     85  F   UNL     1      -9.994  15.179  -6.310  1.00  0.00    -0.206 F 
ATOM     86  C   UNL     1     -11.635  16.565  -7.256  1.00  0.00     0.059 A 
ATOM     87  C   UNL     1     -13.486  15.583  -8.485  1.00  0.00     0.059 A 
ATOM     88  F   UNL     1     -13.645  13.254  -8.682  1.00  0.00    -0.206 F 
ATOM     89  C   UNL     1     -12.814  16.701  -7.992  1.00  0.00     0.060 A 
BRANCH  89  90
ATOM     90  S   UNL     1     -13.444  18.361  -8.319  1.00  0.00     0.124 S 
ATOM     91  O   UNL     1     -13.966  18.740  -7.010  1.00  0.00    -0.237 OA
ATOM     92  O   UNL     1     -12.245  19.070  -8.753  1.00  0.00    -0.237 OA
ATOM     93  O   UNL     1     -14.448  18.145  -9.357  1.00  0.00    -0.744 OA
ENDBRANCH  89  90
ENDBRANCH  57  82
ENDBRANCH  31  32
ENDBRANCH  23  26
ENDBRANCH  21  22
ENDBRANCH  20  21
ENDBRANCH   1  20
TORSDOF 17
