REMARK SMILES Cc1sc(-c2ccco2)nc1C(=O)N[C@@H](C(=O)NCCCNC(=O)c1ccc(-c2c3nc(c(-c4c(F)cc(S(=O)(=O)[O-])cc4F)c4ccc([nH]4)c(-c4c(F)cc(S(=O)(=O)[O-])cc4F)c4nc(c(-c5c(F)cc(S(=O)(=O)[O-])cc5F)c5ccc2[nH]5)C=C4)C=C3)cc1)C(C)C
REMARK SMILES IDX 20 1 19 2 18 3 16 4 17 5 15 7 14 8 12 9 13 10 11 12 1 13
REMARK SMILES IDX 2 14 3 15 4 16 10 17 5 18 6 19 9 20 7 21 8 22 91 23 92 24
REMARK SMILES IDX 93 25 21 26 22 27 23 28 24 30 25 31 26 32 90 33 27 34 89 35
REMARK SMILES IDX 28 36 29 37 30 38 83 39 31 40 88 41 82 42 84 43 32 44 87 45
REMARK SMILES IDX 81 46 80 47 33 49 67 50 46 51 66 52 47 53 50 54 65 55 85 56
REMARK SMILES IDX 48 57 49 58 64 60 86 61 51 62 34 63 35 64 44 65 36 66 37 67
REMARK SMILES IDX 43 68 45 69 38 70 39 71 40 72 41 73 42 74 68 75 69 76 78 77
REMARK SMILES IDX 70 78 71 79 77 80 79 81 72 82 73 83 74 84 75 85 76 86 52 87
REMARK SMILES IDX 53 88 62 89 54 90 55 91 61 92 63 93 56 94 57 95 58 96 59 97
REMARK SMILES IDX 60 98
REMARK H PARENT 18 6 14 11 22 29 84 48 50 59
REMARK Flexibility Score: inf
ROOT
ATOM      1  C   UNL     1       1.002  -2.957   3.371  1.00  0.00     0.042 C 
ENDROOT
BRANCH   1   2
ATOM      2  C   UNL     1       1.981  -1.978   2.744  1.00  0.00     0.117 C 
BRANCH   2   3
ATOM      3  N   UNL     1       3.217  -2.622   2.345  1.00  0.00    -0.354 N 
ATOM      4  C   UNL     1       3.683  -2.945   1.100  1.00  0.00     0.242 C 
ATOM      5  O   UNL     1       4.772  -3.518   1.041  1.00  0.00    -0.273 OA
ATOM      6  H   UNL     1       3.815  -2.866   3.087  1.00  0.00     0.163 HD
BRANCH   4   7
ATOM      7  C   UNL     1       2.926  -2.462  -0.166  1.00  0.00     0.174 C 
BRANCH   7   8
ATOM      8  N   UNL     1       1.569  -2.971  -0.182  1.00  0.00    -0.339 N 
ATOM      9  C   UNL     1       0.323  -2.401  -0.199  1.00  0.00     0.271 C 
ATOM     10  O   UNL     1      -0.582  -3.246  -0.197  1.00  0.00    -0.267 OA
ATOM     11  H   UNL     1       1.534  -3.955  -0.179  1.00  0.00     0.164 HD
BRANCH   9  12
ATOM     12  C   UNL     1      -0.022  -0.945  -0.211  1.00  0.00     0.142 A 
ATOM     13  C   UNL     1       2.100   0.690   0.116  1.00  0.00     0.059 C 
ATOM     14  C   UNL     1       0.695   0.259  -0.136  1.00  0.00     0.035 A 
ATOM     15  S   UNL     1      -0.379   1.599  -0.413  1.00  0.00    -0.115 S 
ATOM     16  C   UNL     1      -1.713   0.568  -0.279  1.00  0.00     0.160 A 
ATOM     17  N   UNL     1      -1.422  -0.704  -0.208  1.00  0.00    -0.227 NA
BRANCH  16  18
ATOM     18  C   UNL     1      -3.035   1.102  -0.175  1.00  0.00     0.162 A 
ATOM     19  C   UNL     1      -4.014   0.788   0.752  1.00  0.00     0.053 A 
ATOM     20  O   UNL     1      -3.498   2.117  -0.976  1.00  0.00    -0.462 OA
ATOM     21  C   UNL     1      -5.103   1.663   0.521  1.00  0.00     0.043 A 
ATOM     22  C   UNL     1      -4.747   2.434  -0.558  1.00  0.00     0.196 A 
ENDBRANCH  16  18
ENDBRANCH   9  12
ENDBRANCH   7   8
BRANCH   7  23
ATOM     23  C   UNL     1       3.692  -2.756  -1.479  1.00  0.00     0.015 C 
ATOM     24  C   UNL     1       2.814  -2.574  -2.724  1.00  0.00     0.010 C 
ATOM     25  C   UNL     1       4.901  -1.813  -1.599  1.00  0.00     0.010 C 
ENDBRANCH   7  23
ENDBRANCH   4   7
ENDBRANCH   2   3
ENDBRANCH   1   2
BRANCH   1  26
ATOM     26  C   UNL     1       1.390  -3.329   4.793  1.00  0.00     0.118 C 
BRANCH  26  27
ATOM     27  N   UNL     1       1.284  -2.196   5.705  1.00  0.00    -0.352 N 
ATOM     28  C   UNL     1       0.686  -2.123   6.935  1.00  0.00     0.251 C 
ATOM     29  H   UNL     1       1.704  -1.362   5.391  1.00  0.00     0.163 HD
ATOM     30  O   UNL     1       0.543  -1.022   7.472  1.00  0.00    -0.269 OA
BRANCH  28  31
ATOM     31  C   UNL     1       0.205  -3.348   7.604  1.00  0.00     0.039 A 
ATOM     32  C   UNL     1      -1.001  -3.305   8.307  1.00  0.00     0.014 A 
ATOM     33  C   UNL     1       0.948  -4.531   7.558  1.00  0.00     0.014 A 
ATOM     34  C   UNL     1      -1.477  -4.458   8.934  1.00  0.00     0.010 A 
ATOM     35  C   UNL     1       0.426  -5.700   8.099  1.00  0.00     0.010 A 
ATOM     36  C   UNL     1      -0.777  -5.670   8.818  1.00  0.00    -0.014 A 
BRANCH  36  37
ATOM     37  C   UNL     1      -1.257  -6.903   9.489  1.00  0.00     0.031 A 
ATOM     38  C   UNL     1      -0.415  -7.547  10.559  1.00  0.00     0.074 A 
ATOM     39  C   UNL     1      -2.419  -7.466   9.105  1.00  0.00     0.049 A 
ATOM     40  N   UNL     1      -0.630  -8.650  11.229  1.00  0.00    -0.248 NA
ATOM     41  C   UNL     1       0.854  -6.881  10.899  1.00  0.00     0.031 C 
ATOM     42  C   UNL     1      -3.294  -6.964   8.043  1.00  0.00     0.029 A 
ATOM     43  N   UNL     1      -3.063  -8.587   9.563  1.00  0.00    -0.354 N 
ATOM     44  C   UNL     1       0.479  -8.816  12.051  1.00  0.00     0.074 A 
ATOM     45  C   UNL     1       1.395  -7.739  11.750  1.00  0.00     0.031 C 
ATOM     46  C   UNL     1      -4.373  -7.758   7.951  1.00  0.00     0.029 A 
ATOM     47  C   UNL     1      -4.252  -8.841   8.922  1.00  0.00     0.049 A 
ATOM     48  H   UNL     1      -2.707  -9.156  10.283  1.00  0.00     0.167 HD
ATOM     49  C   UNL     1       0.702  -9.763  12.994  1.00  0.00     0.037 A 
ATOM     50  C   UNL     1      -5.143  -9.835   9.099  1.00  0.00     0.037 A 
ATOM     51  C   UNL     1      -0.230 -10.813  13.310  1.00  0.00     0.049 A 
ATOM     52  C   UNL     1      -4.885 -10.862  10.170  1.00  0.00     0.074 A 
ATOM     53  C   UNL     1      -0.127 -11.794  14.280  1.00  0.00     0.029 A 
ATOM     54  N   UNL     1      -1.442 -11.015  12.664  1.00  0.00    -0.354 N 
ATOM     55  N   UNL     1      -3.857 -10.973  10.977  1.00  0.00    -0.248 NA
ATOM     56  C   UNL     1      -5.918 -11.888  10.365  1.00  0.00     0.031 C 
ATOM     57  C   UNL     1      -1.258 -12.614  14.194  1.00  0.00     0.029 A 
ATOM     58  C   UNL     1      -2.092 -12.111  13.209  1.00  0.00     0.049 A 
ATOM     59  H   UNL     1      -1.789 -10.462  11.928  1.00  0.00     0.167 HD
ATOM     60  C   UNL     1      -4.136 -12.058  11.802  1.00  0.00     0.074 A 
ATOM     61  C   UNL     1      -5.435 -12.560  11.400  1.00  0.00     0.031 C 
ATOM     62  C   UNL     1      -3.390 -12.589  12.803  1.00  0.00     0.037 A 
BRANCH  49  63
ATOM     63  C   UNL     1       1.999  -9.696  13.755  1.00  0.00     0.058 A 
ATOM     64  C   UNL     1       2.270  -8.662  14.666  1.00  0.00     0.135 A 
ATOM     65  C   UNL     1       2.978 -10.690  13.588  1.00  0.00     0.135 A 
ATOM     66  F   UNL     1       1.379  -7.674  14.852  1.00  0.00    -0.206 F 
ATOM     67  C   UNL     1       3.475  -8.595  15.357  1.00  0.00     0.059 A 
ATOM     68  C   UNL     1       4.178 -10.661  14.293  1.00  0.00     0.059 A 
ATOM     69  F   UNL     1       2.775 -11.702  12.730  1.00  0.00    -0.206 F 
ATOM     70  C   UNL     1       4.424  -9.600  15.163  1.00  0.00     0.060 A 
BRANCH  70  71
ATOM     71  S   UNL     1       5.981  -9.500  16.070  1.00  0.00     0.124 S 
ATOM     72  O   UNL     1       6.654  -8.407  15.375  1.00  0.00    -0.237 OA
ATOM     73  O   UNL     1       5.534  -9.207  17.428  1.00  0.00    -0.237 OA
ATOM     74  O   UNL     1       6.572 -10.821  15.880  1.00  0.00    -0.744 OA
ENDBRANCH  70  71
ENDBRANCH  49  63
BRANCH  50  75
ATOM     75  C   UNL     1      -6.380  -9.883   8.274  1.00  0.00     0.058 A 
ATOM     76  C   UNL     1      -7.636  -9.619   8.840  1.00  0.00     0.135 A 
ATOM     77  C   UNL     1      -6.332 -10.187   6.905  1.00  0.00     0.135 A 
ATOM     78  F   UNL     1      -7.734  -9.326  10.146  1.00  0.00    -0.206 F 
ATOM     79  C   UNL     1      -8.803  -9.678   8.086  1.00  0.00     0.059 A 
ATOM     80  C   UNL     1      -7.483 -10.225   6.123  1.00  0.00     0.059 A 
ATOM     81  F   UNL     1      -5.153 -10.429   6.310  1.00  0.00    -0.206 F 
ATOM     82  C   UNL     1      -8.716  -9.981   6.727  1.00  0.00     0.060 A 
BRANCH  82  83
ATOM     83  S   UNL     1     -10.234 -10.018   5.750  1.00  0.00     0.124 S 
ATOM     84  O   UNL     1     -10.857 -11.250   6.220  1.00  0.00    -0.237 OA
ATOM     85  O   UNL     1     -10.888  -8.777   6.154  1.00  0.00    -0.237 OA
ATOM     86  O   UNL     1      -9.747 -10.041   4.374  1.00  0.00    -0.744 OA
ENDBRANCH  82  83
ENDBRANCH  50  75
BRANCH  62  87
ATOM     87  C   UNL     1      -3.987 -13.737  13.571  1.00  0.00     0.058 A 
ATOM     88  C   UNL     1      -4.143 -15.011  13.005  1.00  0.00     0.135 A 
ATOM     89  C   UNL     1      -4.390 -13.558  14.905  1.00  0.00     0.135 A 
ATOM     90  F   UNL     1      -3.775 -15.236  11.734  1.00  0.00    -0.206 F 
ATOM     91  C   UNL     1      -4.721 -16.057  13.719  1.00  0.00     0.059 A 
ATOM     92  C   UNL     1      -4.940 -14.598  15.648  1.00  0.00     0.059 A 
ATOM     93  F   UNL     1      -4.248 -12.364  15.501  1.00  0.00    -0.206 F 
ATOM     94  C   UNL     1      -5.121 -15.838  15.038  1.00  0.00     0.060 A 
BRANCH  94  95
ATOM     95  S   UNL     1      -5.873 -17.200  15.954  1.00  0.00     0.124 S 
ATOM     96  O   UNL     1      -7.205 -17.251  15.361  1.00  0.00    -0.237 OA
ATOM     97  O   UNL     1      -4.992 -18.318  15.633  1.00  0.00    -0.237 OA
ATOM     98  O   UNL     1      -5.820 -16.746  17.341  1.00  0.00    -0.744 OA
ENDBRANCH  94  95
ENDBRANCH  62  87
ENDBRANCH  36  37
ENDBRANCH  28  31
ENDBRANCH  26  27
ENDBRANCH   1  26
TORSDOF 17
