REMARK SMILES COc1cccc(/C=C(/C#N)c2ccc(Br)cc2)c1O[C@@H](C)C(=O)NCCCNC(=O)c1ccc(-c2c3nc(c(-c4c(F)cc(S(=O)(=O)[O-])cc4F)c4ccc([nH]4)c(-c4c(F)cc(S(=O)(=O)[O-])cc4F)c4nc(c(-c5c(F)cc(S(=O)(=O)[O-])cc5F)c5ccc2[nH]5)C=C4)C=C3)cc1
REMARK SMILES IDX 26 1 25 2 23 3 24 4 21 6 22 7 20 8 19 9 3 10 4 11 5 12 7 13
REMARK SMILES IDX 6 14 2 15 1 16 8 17 9 18 10 19 11 20 12 21 13 22 18 23 14 24
REMARK SMILES IDX 17 25 15 26 16 27 27 28 28 29 29 30 30 31 31 33 32 34 33 35
REMARK SMILES IDX 97 36 34 37 96 38 35 39 36 40 37 41 90 42 38 43 95 44 89 45
REMARK SMILES IDX 91 46 39 47 94 48 88 49 87 50 40 52 74 53 53 54 73 55 54 56
REMARK SMILES IDX 57 57 72 58 92 59 55 60 56 61 71 63 93 64 58 65 41 66 42 67
REMARK SMILES IDX 51 68 43 69 44 70 50 71 52 72 45 73 46 74 47 75 48 76 49 77
REMARK SMILES IDX 75 78 76 79 85 80 77 81 78 82 84 83 86 84 79 85 80 86 81 87
REMARK SMILES IDX 82 88 83 89 59 90 60 91 69 92 61 93 62 94 68 95 70 96 63 97
REMARK SMILES IDX 64 98 65 99 66 100 67 101
REMARK H PARENT 25 5 29 32 91 51 57 62
REMARK Flexibility Score: inf
ROOT
ATOM      1  C   UNL     1       0.599   2.260   0.715  1.00  0.00     0.118 C 
ENDROOT
BRANCH   1   2
ATOM      2  N   UNL     1       1.812   2.232  -0.069  1.00  0.00    -0.353 N 
ATOM      3  C   UNL     1       2.702   1.270  -0.396  1.00  0.00     0.260 C 
ATOM      4  O   UNL     1       3.311   1.513  -1.456  1.00  0.00    -0.271 OA
ATOM      5  H   UNL     1       2.042   3.111  -0.449  1.00  0.00     0.163 HD
BRANCH   3   6
ATOM      6  C   UNL     1       3.085  -0.055   0.387  1.00  0.00     0.259 C 
ATOM      7  C   UNL     1       2.939  -1.267  -0.557  1.00  0.00     0.064 C 
BRANCH   6   8
ATOM      8  O   UNL     1       3.123  -0.525   1.719  1.00  0.00    -0.476 OA
BRANCH   8   9
ATOM      9  C   UNL     1       2.100  -0.269   2.579  1.00  0.00     0.169 A 
ATOM     10  C   UNL     1       0.776  -0.688   2.329  1.00  0.00     0.161 A 
ATOM     11  C   UNL     1      -0.232  -0.394   3.248  1.00  0.00     0.050 A 
ATOM     12  C   UNL     1       0.063   0.369   4.371  1.00  0.00     0.005 A 
ATOM     13  C   UNL     1       2.447   0.315   3.824  1.00  0.00     0.022 A 
ATOM     14  C   UNL     1       1.385   0.743   4.637  1.00  0.00     0.012 A 
BRANCH  10  15
ATOM     15  O   UNL     1       0.527  -1.515   1.267  1.00  0.00    -0.493 OA
ATOM     16  C   UNL     1      -0.532  -1.126   0.396  1.00  0.00     0.278 C 
ENDBRANCH  10  15
BRANCH  13  17
ATOM     17  C   UNL     1       3.888   0.355   4.278  1.00  0.00     0.032 C 
ATOM     18  C   UNL     1       4.375   0.298   5.542  1.00  0.00     0.060 C 
BRANCH  18  19
ATOM     19  C   UNL     1       5.838   0.074   5.887  1.00  0.00     0.100 C 
ATOM     20  N   UNL     1       7.053  -0.113   6.173  1.00  0.00    -0.192 NA
ENDBRANCH  18  19
BRANCH  18  21
ATOM     21  C   UNL     1       3.533   0.337   6.769  1.00  0.00    -0.008 A 
ATOM     22  C   UNL     1       3.646   1.432   7.644  1.00  0.00     0.010 A 
ATOM     23  C   UNL     1       2.614  -0.680   7.071  1.00  0.00     0.010 A 
ATOM     24  C   UNL     1       2.808   1.542   8.757  1.00  0.00     0.016 A 
ATOM     25  C   UNL     1       1.756  -0.554   8.169  1.00  0.00     0.016 A 
ATOM     26  C   UNL     1       1.849   0.562   8.999  1.00  0.00     0.018 A 
ATOM     27  Br  UNL     1       0.647   0.766  10.442  1.00  0.00    -0.051 Br
ENDBRANCH  18  21
ENDBRANCH  13  17
ENDBRANCH   8   9
ENDBRANCH   6   8
ENDBRANCH   3   6
ENDBRANCH   1   2
BRANCH   1  28
ATOM     28  C   UNL     1       0.723   3.056   2.001  1.00  0.00     0.042 C 
BRANCH  28  29
ATOM     29  C   UNL     1      -0.195   4.268   2.096  1.00  0.00     0.118 C 
BRANCH  29  30
ATOM     30  N   UNL     1      -1.615   3.927   2.078  1.00  0.00    -0.352 N 
ATOM     31  C   UNL     1      -2.641   4.182   2.959  1.00  0.00     0.251 C 
ATOM     32  H   UNL     1      -1.891   3.417   1.283  1.00  0.00     0.163 HD
ATOM     33  O   UNL     1      -3.734   3.664   2.728  1.00  0.00    -0.269 OA
BRANCH  31  34
ATOM     34  C   UNL     1      -2.475   5.026   4.172  1.00  0.00     0.039 A 
ATOM     35  C   UNL     1      -3.317   4.799   5.270  1.00  0.00     0.014 A 
ATOM     36  C   UNL     1      -1.557   6.073   4.239  1.00  0.00     0.014 A 
ATOM     37  C   UNL     1      -3.204   5.582   6.426  1.00  0.00     0.010 A 
ATOM     38  C   UNL     1      -1.357   6.765   5.432  1.00  0.00     0.010 A 
ATOM     39  C   UNL     1      -2.202   6.558   6.529  1.00  0.00    -0.014 A 
BRANCH  39  40
ATOM     40  C   UNL     1      -2.067   7.431   7.728  1.00  0.00     0.031 A 
ATOM     41  C   UNL     1      -2.171   8.931   7.574  1.00  0.00     0.074 A 
ATOM     42  C   UNL     1      -1.791   6.894   8.934  1.00  0.00     0.049 A 
ATOM     43  N   UNL     1      -1.959   9.873   8.457  1.00  0.00    -0.248 NA
ATOM     44  C   UNL     1      -2.512   9.441   6.235  1.00  0.00     0.031 C 
ATOM     45  C   UNL     1      -1.601   5.468   9.206  1.00  0.00     0.029 A 
ATOM     46  N   UNL     1      -1.611   7.489  10.158  1.00  0.00    -0.354 N 
ATOM     47  C   UNL     1      -2.112  11.076   7.774  1.00  0.00     0.074 A 
ATOM     48  C   UNL     1      -2.360  10.747   6.389  1.00  0.00     0.031 C 
ATOM     49  C   UNL     1      -1.357   5.297  10.516  1.00  0.00     0.029 A 
ATOM     50  C   UNL     1      -1.340   6.600  11.172  1.00  0.00     0.049 A 
ATOM     51  H   UNL     1      -1.671   8.462  10.297  1.00  0.00     0.167 HD
ATOM     52  C   UNL     1      -2.091  12.341   8.259  1.00  0.00     0.037 A 
ATOM     53  C   UNL     1      -1.103   6.814  12.481  1.00  0.00     0.037 A 
ATOM     54  C   UNL     1      -1.910  12.662   9.649  1.00  0.00     0.049 A 
ATOM     55  C   UNL     1      -1.145   8.224  13.009  1.00  0.00     0.074 A 
ATOM     56  C   UNL     1      -1.921  13.905  10.257  1.00  0.00     0.029 A 
ATOM     57  N   UNL     1      -1.710  11.726  10.654  1.00  0.00    -0.354 N 
ATOM     58  N   UNL     1      -1.330   9.345  12.352  1.00  0.00    -0.248 NA
ATOM     59  C   UNL     1      -0.961   8.399  14.456  1.00  0.00     0.031 C 
ATOM     60  C   UNL     1      -1.711  13.722  11.628  1.00  0.00     0.029 A 
ATOM     61  C   UNL     1      -1.602  12.363  11.878  1.00  0.00     0.049 A 
ATOM     62  H   UNL     1      -1.653  10.753  10.516  1.00  0.00     0.167 HD
ATOM     63  C   UNL     1      -1.302  10.355  13.307  1.00  0.00     0.074 A 
ATOM     64  C   UNL     1      -1.106   9.711  14.590  1.00  0.00     0.031 C 
ATOM     65  C   UNL     1      -1.419  11.696  13.141  1.00  0.00     0.037 A 
BRANCH  52  66
ATOM     66  C   UNL     1      -2.310  13.467   7.283  1.00  0.00     0.058 A 
ATOM     67  C   UNL     1      -3.562  13.681   6.683  1.00  0.00     0.135 A 
ATOM     68  C   UNL     1      -1.272  14.356   6.961  1.00  0.00     0.135 A 
ATOM     69  F   UNL     1      -4.586  12.850   6.941  1.00  0.00    -0.206 F 
ATOM     70  C   UNL     1      -3.769  14.713   5.775  1.00  0.00     0.059 A 
ATOM     71  C   UNL     1      -1.465  15.415   6.077  1.00  0.00     0.059 A 
ATOM     72  F   UNL     1      -0.055  14.200   7.504  1.00  0.00    -0.206 F 
ATOM     73  C   UNL     1      -2.714  15.575   5.477  1.00  0.00     0.060 A 
BRANCH  73  74
ATOM     74  S   UNL     1      -3.003  16.913   4.300  1.00  0.00     0.124 S 
ATOM     75  O   UNL     1      -3.039  16.185   3.036  1.00  0.00    -0.237 OA
ATOM     76  O   UNL     1      -4.279  17.458   4.754  1.00  0.00    -0.237 OA
ATOM     77  O   UNL     1      -1.849  17.787   4.489  1.00  0.00    -0.744 OA
ENDBRANCH  73  74
ENDBRANCH  52  66
BRANCH  53  78
ATOM     78  C   UNL     1      -0.834   5.666  13.389  1.00  0.00     0.058 A 
ATOM     79  C   UNL     1      -1.776   5.271  14.351  1.00  0.00     0.135 A 
ATOM     80  C   UNL     1       0.365   4.941  13.314  1.00  0.00     0.135 A 
ATOM     81  F   UNL     1      -2.937   5.933  14.463  1.00  0.00    -0.206 F 
ATOM     82  C   UNL     1      -1.527   4.218  15.227  1.00  0.00     0.059 A 
ATOM     83  C   UNL     1       0.626   3.867  14.161  1.00  0.00     0.059 A 
ATOM     84  F   UNL     1       1.290   5.263  12.395  1.00  0.00    -0.206 F 
ATOM     85  C   UNL     1      -0.321   3.524  15.125  1.00  0.00     0.060 A 
BRANCH  85  86
ATOM     86  S   UNL     1      -0.018   2.144  16.251  1.00  0.00     0.124 S 
ATOM     87  O   UNL     1       0.279   2.843  17.496  1.00  0.00    -0.237 OA
ATOM     88  O   UNL     1      -1.288   1.427  16.209  1.00  0.00    -0.237 OA
ATOM     89  O   UNL     1       1.108   1.450  15.633  1.00  0.00    -0.744 OA
ENDBRANCH  85  86
ENDBRANCH  53  78
BRANCH  65  90
ATOM     90  C   UNL     1      -1.364  12.549  14.377  1.00  0.00     0.058 A 
ATOM     91  C   UNL     1      -0.157  12.781  15.054  1.00  0.00     0.135 A 
ATOM     92  C   UNL     1      -2.523  13.178  14.860  1.00  0.00     0.135 A 
ATOM     93  F   UNL     1       0.977  12.201  14.632  1.00  0.00    -0.206 F 
ATOM     94  C   UNL     1      -0.105  13.586  16.186  1.00  0.00     0.059 A 
ATOM     95  C   UNL     1      -2.489  14.007  15.976  1.00  0.00     0.059 A 
ATOM     96  F   UNL     1      -3.699  12.998  14.239  1.00  0.00    -0.206 F 
ATOM     97  C   UNL     1      -1.278  14.194  16.641  1.00  0.00     0.060 A 
BRANCH  97  98
ATOM     98  S   UNL     1      -1.194  15.256  18.098  1.00  0.00     0.124 S 
ATOM     99  O   UNL     1      -1.095  14.273  19.171  1.00  0.00    -0.237 OA
ATOM    100  O   UNL     1       0.010  16.042  17.844  1.00  0.00    -0.237 OA
ATOM    101  O   UNL     1      -2.445  16.005  18.044  1.00  0.00    -0.744 OA
ENDBRANCH  97  98
ENDBRANCH  65  90
ENDBRANCH  39  40
ENDBRANCH  31  34
ENDBRANCH  29  30
ENDBRANCH  28  29
ENDBRANCH   1  28
TORSDOF 19
