REMARK SMILES O=C(NCCCNC(=O)c1cc2ccccc2cc1OCCO)c1ccc(-c2c3nc(c(-c4c(F)cc(S(=O)(=O)[O-])cc4F)c4ccc([nH]4)c(-c4c(F)cc(S(=O)(=O)[O-])cc4F)c4nc(c(-c5c(F)cc(S(=O)(=O)[O-])cc5F)c5ccc2[nH]5)C=C4)C=C3)cc1
REMARK SMILES IDX 5 1 4 2 3 3 1 4 2 5 24 7 25 8 89 9 26 10 88 11 27 12 28 13
REMARK SMILES IDX 29 14 82 15 30 16 87 17 81 18 83 19 31 20 86 21 80 22 79 23
REMARK SMILES IDX 32 25 66 26 45 27 65 28 46 29 49 30 64 31 84 32 47 33 48 34
REMARK SMILES IDX 63 36 85 37 50 38 33 39 34 40 43 41 35 42 36 43 42 44 44 45
REMARK SMILES IDX 37 46 38 47 39 48 40 49 41 50 67 51 68 52 77 53 69 54 70 55
REMARK SMILES IDX 76 56 78 57 71 58 72 59 73 60 74 61 75 62 51 63 52 64 61 65
REMARK SMILES IDX 53 66 54 67 60 68 62 69 55 70 56 71 57 72 58 73 59 74 6 75
REMARK SMILES IDX 7 76 8 77 9 79 10 80 11 81 19 82 12 83 18 84 13 85 17 86
REMARK SMILES IDX 14 87 16 88 15 89 20 90 21 91 22 92 23 93
REMARK H PARENT 3 6 83 24 49 35 7 78 23 94
REMARK Flexibility Score: inf
ROOT
ATOM      1  C   UNL     1       5.729  -0.631   1.674  1.00  0.00     0.042 C 
ENDROOT
BRANCH   1   2
ATOM      2  C   UNL     1       4.931  -0.963   0.418  1.00  0.00     0.118 C 
BRANCH   2   3
ATOM      3  N   UNL     1       3.487  -0.872   0.566  1.00  0.00    -0.352 N 
ATOM      4  O   UNL     1       1.382  -0.137   0.248  1.00  0.00    -0.269 OA
ATOM      5  C   UNL     1       2.574  -0.030  -0.028  1.00  0.00     0.251 C 
ATOM      6  H   UNL     1       3.098  -1.521   1.196  1.00  0.00     0.163 HD
BRANCH   5   7
ATOM      7  C   UNL     1       3.017   1.045  -0.943  1.00  0.00     0.039 A 
ATOM      8  C   UNL     1       3.962   0.819  -1.943  1.00  0.00     0.014 A 
ATOM      9  C   UNL     1       2.480   2.324  -0.773  1.00  0.00     0.014 A 
ATOM     10  C   UNL     1       4.526   1.897  -2.617  1.00  0.00     0.010 A 
ATOM     11  C   UNL     1       2.967   3.391  -1.532  1.00  0.00     0.010 A 
ATOM     12  C   UNL     1       4.037   3.198  -2.418  1.00  0.00    -0.014 A 
BRANCH  12  13
ATOM     13  C   UNL     1       4.642   4.344  -3.147  1.00  0.00     0.031 A 
ATOM     14  C   UNL     1       5.286   5.478  -2.395  1.00  0.00     0.074 A 
ATOM     15  C   UNL     1       4.612   4.360  -4.494  1.00  0.00     0.049 A 
ATOM     16  N   UNL     1       5.787   6.596  -2.856  1.00  0.00    -0.248 NA
ATOM     17  C   UNL     1       5.369   5.346  -0.931  1.00  0.00     0.031 C 
ATOM     18  C   UNL     1       4.020   3.318  -5.335  1.00  0.00     0.029 A 
ATOM     19  N   UNL     1       5.088   5.282  -5.391  1.00  0.00    -0.354 N 
ATOM     20  C   UNL     1       6.204   7.317  -1.743  1.00  0.00     0.074 A 
ATOM     21  C   UNL     1       5.887   6.515  -0.581  1.00  0.00     0.031 C 
ATOM     22  C   UNL     1       4.192   3.643  -6.624  1.00  0.00     0.029 A 
ATOM     23  C   UNL     1       4.840   4.948  -6.701  1.00  0.00     0.049 A 
ATOM     24  H   UNL     1       5.561   6.102  -5.123  1.00  0.00     0.167 HD
ATOM     25  C   UNL     1       6.795   8.536  -1.696  1.00  0.00     0.037 A 
ATOM     26  C   UNL     1       5.071   5.627  -7.840  1.00  0.00     0.037 A 
ATOM     27  C   UNL     1       7.133   9.314  -2.861  1.00  0.00     0.049 A 
ATOM     28  C   UNL     1       5.724   6.975  -7.768  1.00  0.00     0.074 A 
ATOM     29  C   UNL     1       7.762  10.545  -2.922  1.00  0.00     0.029 A 
ATOM     30  N   UNL     1       6.867   8.935  -4.170  1.00  0.00    -0.354 N 
ATOM     31  N   UNL     1       6.115   7.640  -6.707  1.00  0.00    -0.248 NA
ATOM     32  C   UNL     1       5.962   7.670  -9.039  1.00  0.00     0.031 C 
ATOM     33  C   UNL     1       7.845  10.927  -4.266  1.00  0.00     0.029 A 
ATOM     34  C   UNL     1       7.307   9.915  -5.045  1.00  0.00     0.049 A 
ATOM     35  H   UNL     1       6.431   8.094  -4.436  1.00  0.00     0.167 HD
ATOM     36  C   UNL     1       6.660   8.826  -7.182  1.00  0.00     0.074 A 
ATOM     37  C   UNL     1       6.554   8.784  -8.627  1.00  0.00     0.031 C 
ATOM     38  C   UNL     1       7.201   9.853  -6.482  1.00  0.00     0.037 A 
BRANCH  25  39
ATOM     39  C   UNL     1       7.083   9.116  -0.337  1.00  0.00     0.058 A 
ATOM     40  C   UNL     1       8.102   8.613   0.487  1.00  0.00     0.135 A 
ATOM     41  C   UNL     1       6.326  10.197   0.146  1.00  0.00     0.135 A 
ATOM     42  F   UNL     1       8.848   7.574   0.081  1.00  0.00    -0.206 F 
ATOM     43  C   UNL     1       8.331   9.130   1.759  1.00  0.00     0.059 A 
ATOM     44  C   UNL     1       6.554  10.746   1.405  1.00  0.00     0.059 A 
ATOM     45  F   UNL     1       5.343  10.722  -0.602  1.00  0.00    -0.206 F 
ATOM     46  C   UNL     1       7.544  10.190   2.213  1.00  0.00     0.060 A 
BRANCH  46  47
ATOM     47  S   UNL     1       7.822  10.825   3.881  1.00  0.00     0.124 S 
ATOM     48  O   UNL     1       7.182   9.794   4.693  1.00  0.00    -0.237 OA
ATOM     49  O   UNL     1       9.279  10.878   3.960  1.00  0.00    -0.237 OA
ATOM     50  O   UNL     1       7.151  12.121   3.867  1.00  0.00    -0.744 OA
ENDBRANCH  46  47
ENDBRANCH  25  39
BRANCH  26  51
ATOM     51  C   UNL     1       4.660   5.022  -9.132  1.00  0.00     0.058 A 
ATOM     52  C   UNL     1       5.607   4.474 -10.007  1.00  0.00     0.135 A 
ATOM     53  C   UNL     1       3.302   4.888  -9.465  1.00  0.00     0.135 A 
ATOM     54  F   UNL     1       6.916   4.582  -9.732  1.00  0.00    -0.206 F 
ATOM     55  C   UNL     1       5.223   3.798 -11.161  1.00  0.00     0.059 A 
ATOM     56  C   UNL     1       2.893   4.197 -10.600  1.00  0.00     0.059 A 
ATOM     57  F   UNL     1       2.358   5.380  -8.647  1.00  0.00    -0.206 F 
ATOM     58  C   UNL     1       3.863   3.653 -11.441  1.00  0.00     0.060 A 
BRANCH  58  59
ATOM     59  S   UNL     1       3.372   2.674 -12.878  1.00  0.00     0.124 S 
ATOM     60  O   UNL     1       3.654   3.597 -13.971  1.00  0.00    -0.237 OA
ATOM     61  O   UNL     1       4.253   1.515 -12.776  1.00  0.00    -0.237 OA
ATOM     62  O   UNL     1       1.960   2.400 -12.629  1.00  0.00    -0.744 OA
ENDBRANCH  58  59
ENDBRANCH  26  51
BRANCH  38  63
ATOM     63  C   UNL     1       7.755  11.008  -7.265  1.00  0.00     0.058 A 
ATOM     64  C   UNL     1       6.918  11.980  -7.832  1.00  0.00     0.135 A 
ATOM     65  C   UNL     1       9.143  11.185  -7.377  1.00  0.00     0.135 A 
ATOM     66  F   UNL     1       5.584  11.849  -7.760  1.00  0.00    -0.206 F 
ATOM     67  C   UNL     1       7.439  13.091  -8.486  1.00  0.00     0.059 A 
ATOM     68  C   UNL     1       9.686  12.298  -8.009  1.00  0.00     0.059 A 
ATOM     69  F   UNL     1       9.984  10.284  -6.845  1.00  0.00    -0.206 F 
ATOM     70  C   UNL     1       8.825  13.245  -8.564  1.00  0.00     0.060 A 
BRANCH  70  71
ATOM     71  S   UNL     1       9.492  14.724  -9.357  1.00  0.00     0.124 S 
ATOM     72  O   UNL     1       9.290  14.417 -10.769  1.00  0.00    -0.237 OA
ATOM     73  O   UNL     1       8.647  15.781  -8.810  1.00  0.00    -0.237 OA
ATOM     74  O   UNL     1      10.882  14.749  -8.911  1.00  0.00    -0.744 OA
ENDBRANCH  70  71
ENDBRANCH  38  63
ENDBRANCH  12  13
ENDBRANCH   5   7
ENDBRANCH   2   3
ENDBRANCH   1   2
BRANCH   1  75
ATOM     75  C   UNL     1       5.566  -1.596   2.838  1.00  0.00     0.118 C 
BRANCH  75  76
ATOM     76  N   UNL     1       5.757  -2.991   2.471  1.00  0.00    -0.352 N 
ATOM     77  C   UNL     1       5.927  -4.056   3.313  1.00  0.00     0.255 C 
ATOM     78  H   UNL     1       5.765  -3.192   1.507  1.00  0.00     0.163 HD
ATOM     79  O   UNL     1       5.939  -5.206   2.887  1.00  0.00    -0.269 OA
BRANCH  77  80
ATOM     80  C   UNL     1       6.175  -3.799   4.734  1.00  0.00     0.082 A 
ATOM     81  C   UNL     1       7.534  -3.746   5.086  1.00  0.00     0.026 A 
ATOM     82  C   UNL     1       5.182  -3.534   5.677  1.00  0.00     0.132 A 
ATOM     83  C   UNL     1       7.927  -3.386   6.380  1.00  0.00    -0.017 A 
ATOM     84  C   UNL     1       5.580  -3.187   6.976  1.00  0.00     0.056 A 
ATOM     85  C   UNL     1       9.281  -3.275   6.729  1.00  0.00     0.009 A 
ATOM     86  C   UNL     1       6.935  -3.103   7.342  1.00  0.00    -0.015 A 
ATOM     87  C   UNL     1       9.653  -2.884   8.015  1.00  0.00     0.001 A 
ATOM     88  C   UNL     1       7.325  -2.718   8.634  1.00  0.00     0.009 A 
ATOM     89  C   UNL     1       8.676  -2.607   8.967  1.00  0.00     0.001 A 
BRANCH  82  90
ATOM     90  O   UNL     1       3.837  -3.429   5.491  1.00  0.00    -0.490 OA
BRANCH  90  91
ATOM     91  C   UNL     1       3.144  -4.331   4.622  1.00  0.00     0.257 C 
BRANCH  91  92
ATOM     92  C   UNL     1       2.458  -3.516   3.526  1.00  0.00     0.197 C 
BRANCH  92  93
ATOM     93  O   UNL     1       1.911  -2.313   4.064  1.00  0.00    -0.393 OA
ATOM     94  H   UNL     1       1.252  -2.533   4.742  1.00  0.00     0.210 HD
ENDBRANCH  92  93
ENDBRANCH  91  92
ENDBRANCH  90  91
ENDBRANCH  82  90
ENDBRANCH  77  80
ENDBRANCH  75  76
ENDBRANCH   1  75
TORSDOF 17
