REMARK SMILES CCCC[C@H](C(=O)NCCCNC(=O)c1ccc(-c2c3nc(c(-c4c(F)cc(S(=O)(=O)[O-])cc4F)c4ccc([nH]4)c(-c4c(F)cc(S(=O)(=O)[O-])cc4F)c4nc(c(-c5c(F)cc(S(=O)(=O)[O-])cc5F)c5ccc2[nH]5)C=C4)C=C3)cc1)[C@H](C)O
REMARK SMILES IDX 10 1 9 2 8 3 6 4 7 5 5 7 4 8 3 9 2 10 1 11 81 12 82 13 83 14
REMARK SMILES IDX 11 16 12 17 13 18 14 20 15 21 16 22 80 23 17 24 79 25 18 26
REMARK SMILES IDX 19 27 20 28 73 29 21 30 78 31 72 32 74 33 22 34 77 35 71 36
REMARK SMILES IDX 70 37 23 39 57 40 36 41 56 42 37 43 40 44 55 45 75 46 38 47
REMARK SMILES IDX 39 48 54 50 76 51 41 52 24 53 25 54 34 55 26 56 27 57 33 58
REMARK SMILES IDX 35 59 28 60 29 61 30 62 31 63 32 64 58 65 59 66 68 67 60 68
REMARK SMILES IDX 61 69 67 70 69 71 62 72 63 73 64 74 65 75 66 76 42 77 43 78
REMARK SMILES IDX 52 79 44 80 45 81 51 82 53 83 46 84 47 85 48 86 49 87 50 88
REMARK H PARENT 8 6 83 15 12 19 74 38 40 49
REMARK Flexibility Score: inf
ROOT
ATOM      1  C   UNL     1       1.583   6.517   1.139  1.00  0.00     0.042 C 
ENDROOT
BRANCH   1   2
ATOM      2  C   UNL     1       0.111   6.145   1.286  1.00  0.00     0.117 C 
BRANCH   2   3
ATOM      3  N   UNL     1      -0.548   6.070  -0.002  1.00  0.00    -0.356 N 
ATOM      4  C   UNL     1      -1.077   5.035  -0.699  1.00  0.00     0.225 C 
ATOM      5  O   UNL     1      -1.515   5.305  -1.826  1.00  0.00    -0.275 OA
ATOM      6  H   UNL     1      -0.628   6.938  -0.459  1.00  0.00     0.163 HD
BRANCH   4   7
ATOM      7  C   UNL     1      -1.164   3.590  -0.190  1.00  0.00     0.107 C 
BRANCH   7   8
ATOM      8  C   UNL     1       0.145   2.777  -0.334  1.00  0.00     0.016 C 
BRANCH   8   9
ATOM      9  C   UNL     1       1.363   3.003   0.568  1.00  0.00     0.001 C 
BRANCH   9  10
ATOM     10  C   UNL     1       1.224   2.733   2.064  1.00  0.00    -0.003 C 
ATOM     11  C   UNL     1       1.404   1.268   2.426  1.00  0.00     0.004 C 
ENDBRANCH   9  10
ENDBRANCH   8   9
ENDBRANCH   7   8
BRANCH   7  12
ATOM     12  C   UNL     1      -2.014   3.440   1.085  1.00  0.00     0.123 C 
ATOM     13  C   UNL     1      -2.235   1.990   1.505  1.00  0.00     0.039 C 
BRANCH  12  14
ATOM     14  O   UNL     1      -3.318   4.001   0.876  1.00  0.00    -0.393 OA
ATOM     15  H   UNL     1      -3.774   3.509   0.176  1.00  0.00     0.210 HD
ENDBRANCH  12  14
ENDBRANCH   7  12
ENDBRANCH   4   7
ENDBRANCH   2   3
ENDBRANCH   1   2
BRANCH   1  16
ATOM     16  C   UNL     1       1.828   7.994   0.883  1.00  0.00     0.118 C 
BRANCH  16  17
ATOM     17  N   UNL     1       1.623   8.806   2.070  1.00  0.00    -0.352 N 
ATOM     18  C   UNL     1       2.526   9.484   2.854  1.00  0.00     0.251 C 
ATOM     19  H   UNL     1       0.685   8.883   2.360  1.00  0.00     0.163 HD
ATOM     20  O   UNL     1       2.152   9.936   3.933  1.00  0.00    -0.269 OA
BRANCH  18  21
ATOM     21  C   UNL     1       3.937   9.655   2.430  1.00  0.00     0.039 A 
ATOM     22  C   UNL     1       4.942   9.612   3.402  1.00  0.00     0.014 A 
ATOM     23  C   UNL     1       4.281   9.899   1.098  1.00  0.00     0.014 A 
ATOM     24  C   UNL     1       6.283   9.753   3.029  1.00  0.00     0.010 A 
ATOM     25  C   UNL     1       5.619   9.932   0.714  1.00  0.00     0.010 A 
ATOM     26  C   UNL     1       6.637   9.879   1.676  1.00  0.00    -0.014 A 
BRANCH  26  27
ATOM     27  C   UNL     1       8.058   9.989   1.250  1.00  0.00     0.031 A 
ATOM     28  C   UNL     1       8.536  11.222   0.526  1.00  0.00     0.074 A 
ATOM     29  C   UNL     1       8.903   8.959   1.460  1.00  0.00     0.049 A 
ATOM     30  N   UNL     1       9.711  11.475   0.010  1.00  0.00    -0.248 NA
ATOM     31  C   UNL     1       7.554  12.301   0.329  1.00  0.00     0.031 C 
ATOM     32  C   UNL     1       8.550   7.691   2.102  1.00  0.00     0.029 A 
ATOM     33  N   UNL     1      10.231   8.811   1.145  1.00  0.00    -0.354 N 
ATOM     34  C   UNL     1       9.603  12.726  -0.588  1.00  0.00     0.074 A 
ATOM     35  C   UNL     1       8.233  13.155  -0.422  1.00  0.00     0.031 C 
ATOM     36  C   UNL     1       9.638   6.907   2.159  1.00  0.00     0.029 A 
ATOM     37  C   UNL     1      10.756   7.596   1.522  1.00  0.00     0.049 A 
ATOM     38  H   UNL     1      10.758   9.508   0.693  1.00  0.00     0.167 HD
ATOM     39  C   UNL     1      10.564  13.463  -1.195  1.00  0.00     0.037 A 
ATOM     40  C   UNL     1      11.995   7.091   1.365  1.00  0.00     0.037 A 
ATOM     41  C   UNL     1      11.935  13.045  -1.325  1.00  0.00     0.049 A 
ATOM     42  C   UNL     1      13.049   7.931   0.695  1.00  0.00     0.074 A 
ATOM     43  C   UNL     1      13.000  13.743  -1.867  1.00  0.00     0.029 A 
ATOM     44  N   UNL     1      12.432  11.819  -0.907  1.00  0.00    -0.354 N 
ATOM     45  N   UNL     1      12.943   9.138   0.192  1.00  0.00    -0.248 NA
ATOM     46  C   UNL     1      14.391   7.346   0.579  1.00  0.00     0.031 C 
ATOM     47  C   UNL     1      14.132  12.922  -1.816  1.00  0.00     0.029 A 
ATOM     48  C   UNL     1      13.784  11.733  -1.196  1.00  0.00     0.049 A 
ATOM     49  H   UNL     1      11.902  11.114  -0.470  1.00  0.00     0.167 HD
ATOM     50  C   UNL     1      14.210   9.467  -0.277  1.00  0.00     0.074 A 
ATOM     51  C   UNL     1      15.068   8.337   0.014  1.00  0.00     0.031 C 
ATOM     52  C   UNL     1      14.626  10.602  -0.892  1.00  0.00     0.037 A 
BRANCH  39  53
ATOM     53  C   UNL     1      10.167  14.801  -1.759  1.00  0.00     0.058 A 
ATOM     54  C   UNL     1       9.825  15.880  -0.927  1.00  0.00     0.135 A 
ATOM     55  C   UNL     1      10.157  15.019  -3.146  1.00  0.00     0.135 A 
ATOM     56  F   UNL     1       9.803  15.726   0.407  1.00  0.00    -0.206 F 
ATOM     57  C   UNL     1       9.456  17.115  -1.450  1.00  0.00     0.059 A 
ATOM     58  C   UNL     1       9.820  16.255  -3.691  1.00  0.00     0.059 A 
ATOM     59  F   UNL     1      10.475  14.024  -3.989  1.00  0.00    -0.206 F 
ATOM     60  C   UNL     1       9.456  17.293  -2.834  1.00  0.00     0.060 A 
BRANCH  60  61
ATOM     61  S   UNL     1       8.977  18.903  -3.496  1.00  0.00     0.124 S 
ATOM     62  O   UNL     1       7.536  18.896  -3.264  1.00  0.00    -0.237 OA
ATOM     63  O   UNL     1       9.748  19.823  -2.666  1.00  0.00    -0.237 OA
ATOM     64  O   UNL     1       9.388  18.832  -4.895  1.00  0.00    -0.744 OA
ENDBRANCH  60  61
ENDBRANCH  39  53
BRANCH  40  65
ATOM     65  C   UNL     1      12.312   5.729   1.874  1.00  0.00     0.058 A 
ATOM     66  C   UNL     1      13.147   5.552   2.987  1.00  0.00     0.135 A 
ATOM     67  C   UNL     1      11.774   4.581   1.272  1.00  0.00     0.135 A 
ATOM     68  F   UNL     1      13.691   6.618   3.594  1.00  0.00    -0.206 F 
ATOM     69  C   UNL     1      13.452   4.285   3.477  1.00  0.00     0.059 A 
ATOM     70  C   UNL     1      12.043   3.305   1.759  1.00  0.00     0.059 A 
ATOM     71  F   UNL     1      10.956   4.697   0.215  1.00  0.00    -0.206 F 
ATOM     72  C   UNL     1      12.891   3.167   2.857  1.00  0.00     0.060 A 
BRANCH  72  73
ATOM     73  S   UNL     1      13.251   1.531   3.532  1.00  0.00     0.124 S 
ATOM     74  O   UNL     1      14.634   1.339   3.115  1.00  0.00    -0.237 OA
ATOM     75  O   UNL     1      13.036   1.736   4.961  1.00  0.00    -0.237 OA
ATOM     76  O   UNL     1      12.268   0.674   2.875  1.00  0.00    -0.744 OA
ENDBRANCH  72  73
ENDBRANCH  40  65
BRANCH  52  77
ATOM     77  C   UNL     1      16.080  10.697  -1.262  1.00  0.00     0.058 A 
ATOM     78  C   UNL     1      16.622   9.958  -2.324  1.00  0.00     0.135 A 
ATOM     79  C   UNL     1      16.930  11.581  -0.576  1.00  0.00     0.135 A 
ATOM     80  F   UNL     1      15.855   9.095  -3.008  1.00  0.00    -0.206 F 
ATOM     81  C   UNL     1      17.962  10.075  -2.681  1.00  0.00     0.059 A 
ATOM     82  C   UNL     1      18.265  11.735  -0.933  1.00  0.00     0.059 A 
ATOM     83  F   UNL     1      16.459  12.319   0.442  1.00  0.00    -0.206 F 
ATOM     84  C   UNL     1      18.775  10.969  -1.980  1.00  0.00     0.060 A 
BRANCH  84  85
ATOM     85  S   UNL     1      20.503  11.137  -2.476  1.00  0.00     0.124 S 
ATOM     86  O   UNL     1      21.076   9.896  -1.966  1.00  0.00    -0.237 OA
ATOM     87  O   UNL     1      20.403  11.239  -3.928  1.00  0.00    -0.237 OA
ATOM     88  O   UNL     1      20.934  12.354  -1.796  1.00  0.00    -0.744 OA
ENDBRANCH  84  85
ENDBRANCH  52  77
ENDBRANCH  26  27
ENDBRANCH  18  21
ENDBRANCH  16  17
ENDBRANCH   1  16
TORSDOF 18
