REMARK SMILES O=C(Cc1c(F)cc(Cl)cc1F)NCCCNC(=O)c1ccc(-c2c3nc(c(-c4c(F)cc(S(=O)(=O)[O-])cc4F)c4ccc([nH]4)c(-c4c(F)cc(S(=O)(=O)[O-])cc4F)c4nc(c(-c5c(F)cc(S(=O)(=O)[O-])cc5F)c5ccc2[nH]5)C=C4)C=C3)cc1
REMARK SMILES IDX 16 1 15 2 14 3 13 4 1 5 2 6 3 8 4 9 5 10 11 11 6 12 7 13
REMARK SMILES IDX 10 14 12 15 8 16 9 17 17 18 18 19 19 21 20 22 21 23 85 24
REMARK SMILES IDX 22 25 84 26 23 27 24 28 25 29 78 30 26 31 83 32 77 33 79 34
REMARK SMILES IDX 27 35 82 36 76 37 75 38 28 40 62 41 41 42 61 43 42 44 45 45
REMARK SMILES IDX 60 46 80 47 43 48 44 49 59 51 81 52 46 53 29 54 30 55 39 56
REMARK SMILES IDX 31 57 32 58 38 59 40 60 33 61 34 62 35 63 36 64 37 65 63 66
REMARK SMILES IDX 64 67 73 68 65 69 66 70 72 71 74 72 67 73 68 74 69 75 70 76
REMARK SMILES IDX 71 77 47 78 48 79 57 80 49 81 50 82 56 83 58 84 51 85 52 86
REMARK SMILES IDX 53 87 54 88 55 89
REMARK H PARENT 13 7 17 20 79 39 45 50
REMARK Flexibility Score: inf
ROOT
ATOM      1  C   UNL     1       3.968  -1.384  -3.565  1.00  0.00     0.118 C 
ENDROOT
BRANCH   1   2
ATOM      2  C   UNL     1       2.487  -1.279  -3.215  1.00  0.00     0.042 C 
BRANCH   2   3
ATOM      3  C   UNL     1       2.155  -1.599  -1.765  1.00  0.00     0.117 C 
BRANCH   3   4
ATOM      4  N   UNL     1       2.830  -0.723  -0.829  1.00  0.00    -0.356 N 
ATOM      5  O   UNL     1       0.922   0.108   0.155  1.00  0.00    -0.275 OA
ATOM      6  C   UNL     1       2.144   0.003   0.123  1.00  0.00     0.224 C 
ATOM      7  H   UNL     1       3.811  -0.643  -0.874  1.00  0.00     0.163 HD
BRANCH   6   8
ATOM      8  C   UNL     1       3.034   0.698   1.135  1.00  0.00     0.141 C 
BRANCH   8   9
ATOM      9  C   UNL     1       3.845  -0.197   2.044  1.00  0.00     0.033 A 
ATOM     10  C   UNL     1       4.860   0.385   2.812  1.00  0.00     0.131 A 
ATOM     11  C   UNL     1       3.631  -1.569   2.206  1.00  0.00     0.131 A 
ATOM     12  F   UNL     1       5.084   1.703   2.720  1.00  0.00    -0.207 F 
ATOM     13  C   UNL     1       5.652  -0.363   3.679  1.00  0.00     0.060 A 
ATOM     14  C   UNL     1       4.422  -2.339   3.056  1.00  0.00     0.060 A 
ATOM     15  F   UNL     1       2.654  -2.196   1.541  1.00  0.00    -0.207 F 
ATOM     16  C   UNL     1       5.432  -1.731   3.791  1.00  0.00     0.046 A 
ATOM     17  Cl  UNL     1       6.406  -2.673   4.849  1.00  0.00    -0.084 Cl
ENDBRANCH   8   9
ENDBRANCH   6   8
ENDBRANCH   3   4
ENDBRANCH   2   3
ENDBRANCH   1   2
BRANCH   1  18
ATOM     18  N   UNL     1       4.499  -2.732  -3.425  1.00  0.00    -0.352 N 
ATOM     19  C   UNL     1       5.151  -3.521  -4.341  1.00  0.00     0.251 C 
ATOM     20  H   UNL     1       4.372  -3.140  -2.538  1.00  0.00     0.163 HD
ATOM     21  O   UNL     1       5.397  -4.694  -4.059  1.00  0.00    -0.269 OA
BRANCH  19  22
ATOM     22  C   UNL     1       5.538  -2.983  -5.664  1.00  0.00     0.039 A 
ATOM     23  C   UNL     1       5.336  -3.776  -6.799  1.00  0.00     0.014 A 
ATOM     24  C   UNL     1       6.118  -1.718  -5.793  1.00  0.00     0.014 A 
ATOM     25  C   UNL     1       5.658  -3.277  -8.064  1.00  0.00     0.010 A 
ATOM     26  C   UNL     1       6.371  -1.195  -7.059  1.00  0.00     0.010 A 
ATOM     27  C   UNL     1       6.151  -1.970  -8.207  1.00  0.00    -0.014 A 
BRANCH  27  28
ATOM     28  C   UNL     1       6.473  -1.401  -9.541  1.00  0.00     0.031 A 
ATOM     29  C   UNL     1       7.896  -1.048  -9.879  1.00  0.00     0.074 A 
ATOM     30  C   UNL     1       5.486  -1.151 -10.424  1.00  0.00     0.049 A 
ATOM     31  N   UNL     1       8.370  -0.439 -10.935  1.00  0.00    -0.248 NA
ATOM     32  C   UNL     1       8.920  -1.412  -8.886  1.00  0.00     0.031 C 
ATOM     33  C   UNL     1       4.067  -1.440 -10.213  1.00  0.00     0.029 A 
ATOM     34  N   UNL     1       5.527  -0.586 -11.675  1.00  0.00    -0.354 N 
ATOM     35  C   UNL     1       9.742  -0.341 -10.732  1.00  0.00     0.074 A 
ATOM     36  C   UNL     1      10.017  -0.903  -9.428  1.00  0.00     0.031 C 
ATOM     37  C   UNL     1       3.375  -1.069 -11.303  1.00  0.00     0.029 A 
ATOM     38  C   UNL     1       4.292  -0.473 -12.270  1.00  0.00     0.049 A 
ATOM     39  H   UNL     1       6.361  -0.290 -12.105  1.00  0.00     0.167 HD
ATOM     40  C   UNL     1      10.688   0.151 -11.567  1.00  0.00     0.037 A 
ATOM     41  C   UNL     1       3.938   0.063 -13.455  1.00  0.00     0.037 A 
ATOM     42  C   UNL     1      10.410   0.699 -12.870  1.00  0.00     0.049 A 
ATOM     43  C   UNL     1       5.003   0.648 -14.343  1.00  0.00     0.074 A 
ATOM     44  C   UNL     1      11.302   1.203 -13.800  1.00  0.00     0.029 A 
ATOM     45  N   UNL     1       9.145   0.811 -13.430  1.00  0.00    -0.354 N 
ATOM     46  N   UNL     1       6.297   0.721 -14.143  1.00  0.00    -0.248 NA
ATOM     47  C   UNL     1       4.558   1.224 -15.620  1.00  0.00     0.031 C 
ATOM     48  C   UNL     1      10.574   1.663 -14.902  1.00  0.00     0.029 A 
ATOM     49  C   UNL     1       9.232   1.396 -14.684  1.00  0.00     0.049 A 
ATOM     50  H   UNL     1       8.309   0.519 -13.000  1.00  0.00     0.167 HD
ATOM     51  C   UNL     1       6.824   1.331 -15.277  1.00  0.00     0.074 A 
ATOM     52  C   UNL     1       5.710   1.586 -16.167  1.00  0.00     0.031 C 
ATOM     53  C   UNL     1       8.112   1.653 -15.556  1.00  0.00     0.037 A 
BRANCH  40  54
ATOM     54  C   UNL     1      12.118   0.115 -11.099  1.00  0.00     0.058 A 
ATOM     55  C   UNL     1      12.824  -1.094 -10.983  1.00  0.00     0.135 A 
ATOM     56  C   UNL     1      12.807   1.304 -10.807  1.00  0.00     0.135 A 
ATOM     57  F   UNL     1      12.209  -2.261 -11.229  1.00  0.00    -0.206 F 
ATOM     58  C   UNL     1      14.153  -1.125 -10.574  1.00  0.00     0.059 A 
ATOM     59  C   UNL     1      14.146   1.298 -10.425  1.00  0.00     0.059 A 
ATOM     60  F   UNL     1      12.181   2.488 -10.897  1.00  0.00    -0.206 F 
ATOM     61  C   UNL     1      14.807   0.077 -10.302  1.00  0.00     0.060 A 
BRANCH  61  62
ATOM     62  S   UNL     1      16.537   0.016  -9.790  1.00  0.00     0.124 S 
ATOM     63  O   UNL     1      16.428  -0.588  -8.465  1.00  0.00    -0.237 OA
ATOM     64  O   UNL     1      17.136  -0.824 -10.822  1.00  0.00    -0.237 OA
ATOM     65  O   UNL     1      16.949   1.416  -9.807  1.00  0.00    -0.744 OA
ENDBRANCH  61  62
ENDBRANCH  40  54
BRANCH  41  66
ATOM     66  C   UNL     1       2.511   0.053 -13.879  1.00  0.00     0.058 A 
ATOM     67  C   UNL     1       2.082  -0.761 -14.938  1.00  0.00     0.135 A 
ATOM     68  C   UNL     1       1.546   0.839 -13.228  1.00  0.00     0.135 A 
ATOM     69  F   UNL     1       2.968  -1.522 -15.599  1.00  0.00    -0.206 F 
ATOM     70  C   UNL     1       0.752  -0.791 -15.344  1.00  0.00     0.059 A 
ATOM     71  C   UNL     1       0.205   0.806 -13.598  1.00  0.00     0.059 A 
ATOM     72  F   UNL     1       1.902   1.627 -12.202  1.00  0.00    -0.206 F 
ATOM     73  C   UNL     1      -0.181  -0.009 -14.662  1.00  0.00     0.060 A 
BRANCH  73  74
ATOM     74  S   UNL     1      -1.914  -0.104 -15.161  1.00  0.00     0.124 S 
ATOM     75  O   UNL     1      -1.881   0.542 -16.468  1.00  0.00    -0.237 OA
ATOM     76  O   UNL     1      -2.149  -1.544 -15.166  1.00  0.00    -0.237 OA
ATOM     77  O   UNL     1      -2.608   0.634 -14.110  1.00  0.00    -0.744 OA
ENDBRANCH  73  74
ENDBRANCH  41  66
BRANCH  53  78
ATOM     78  C   UNL     1       8.388   2.302 -16.886  1.00  0.00     0.058 A 
ATOM     79  C   UNL     1       7.982   3.618 -17.163  1.00  0.00     0.135 A 
ATOM     80  C   UNL     1       9.089   1.610 -17.887  1.00  0.00     0.135 A 
ATOM     81  F   UNL     1       7.306   4.324 -16.242  1.00  0.00    -0.206 F 
ATOM     82  C   UNL     1       8.224   4.209 -18.398  1.00  0.00     0.059 A 
ATOM     83  C   UNL     1       9.372   2.194 -19.119  1.00  0.00     0.059 A 
ATOM     84  F   UNL     1       9.515   0.356 -17.671  1.00  0.00    -0.206 F 
ATOM     85  C   UNL     1       8.918   3.487 -19.371  1.00  0.00     0.060 A 
BRANCH  85  86
ATOM     86  S   UNL     1       9.221   4.267 -20.971  1.00  0.00     0.124 S 
ATOM     87  O   UNL     1       7.883   4.275 -21.552  1.00  0.00    -0.237 OA
ATOM     88  O   UNL     1       9.753   5.571 -20.585  1.00  0.00    -0.237 OA
ATOM     89  O   UNL     1      10.179   3.371 -21.611  1.00  0.00    -0.744 OA
ENDBRANCH  85  86
ENDBRANCH  53  78
ENDBRANCH  27  28
ENDBRANCH  19  22
ENDBRANCH   1  18
TORSDOF 14
