REMARK SMILES O=C(NCCCNC(=O)[C@H]1O[C@@H](Oc2c(-c3cc(O)c(O)c(O)c3)oc3cc(O)cc(O)c3c2=O)[C@H](O)[C@@H](O)[C@@H]1O)c1ccc(-c2c3nc(c(-c4c(F)cc(S(=O)(=O)[O-])cc4F)c4ccc([nH]4)c(-c4c(F)cc(S(=O)(=O)[O-])cc4F)c4nc(c(-c5c(F)cc(S(=O)(=O)[O-])cc5F)c5ccc2[nH]5)C=C4)C=C3)cc1
REMARK SMILES IDX 5 1 4 2 3 3 1 4 2 5 42 7 43 8 107 9 44 10 106 11 45 12 46 13
REMARK SMILES IDX 47 14 100 15 48 16 105 17 99 18 101 19 49 20 104 21 98 22
REMARK SMILES IDX 97 23 50 25 84 26 63 27 83 28 64 29 67 30 82 31 102 32 65 33
REMARK SMILES IDX 66 34 81 36 103 37 68 38 51 39 52 40 61 41 53 42 54 43 60 44
REMARK SMILES IDX 62 45 55 46 56 47 57 48 58 49 59 50 85 51 86 52 95 53 87 54
REMARK SMILES IDX 88 55 94 56 96 57 89 58 90 59 91 60 92 61 93 62 69 63 70 64
REMARK SMILES IDX 79 65 71 66 72 67 78 68 80 69 73 70 74 71 75 72 76 73 77 74
REMARK SMILES IDX 6 75 7 76 8 77 9 79 10 80 11 81 40 82 12 83 38 84 36 85
REMARK SMILES IDX 41 86 13 88 14 89 15 90 34 91 25 92 33 93 35 94 26 95 31 96
REMARK SMILES IDX 27 97 30 98 28 99 16 100 17 101 24 102 18 103 22 104 20 105
REMARK SMILES IDX 19 106 23 108 21 110 32 112 29 114 39 116 37 118
REMARK H PARENT 3 6 101 24 67 35 7 78 41 87 19 107 23 109 21 111 32 113 29 115
REMARK H PARENT 39 117 37 119
REMARK Flexibility Score: inf
ROOT
ATOM      1  C   UNL     1       9.557  -2.230   4.014  1.00  0.00     0.042 C 
ENDROOT
BRANCH   1   2
ATOM      2  C   UNL     1      10.895  -2.686   4.564  1.00  0.00     0.118 C 
BRANCH   2   3
ATOM      3  N   UNL     1      11.165  -4.080   4.260  1.00  0.00    -0.352 N 
ATOM      4  O   UNL     1      11.989  -5.808   3.086  1.00  0.00    -0.269 OA
ATOM      5  C   UNL     1      12.076  -4.617   3.388  1.00  0.00     0.251 C 
ATOM      6  H   UNL     1      10.615  -4.732   4.751  1.00  0.00     0.163 HD
BRANCH   5   7
ATOM      7  C   UNL     1      13.144  -3.777   2.800  1.00  0.00     0.039 A 
ATOM      8  C   UNL     1      13.824  -2.829   3.570  1.00  0.00     0.014 A 
ATOM      9  C   UNL     1      13.505  -3.975   1.465  1.00  0.00     0.014 A 
ATOM     10  C   UNL     1      14.764  -1.992   2.978  1.00  0.00     0.010 A 
ATOM     11  C   UNL     1      14.521  -3.202   0.897  1.00  0.00     0.010 A 
ATOM     12  C   UNL     1      15.148  -2.192   1.644  1.00  0.00    -0.014 A 
BRANCH  12  13
ATOM     13  C   UNL     1      16.270  -1.406   1.072  1.00  0.00     0.031 A 
ATOM     14  C   UNL     1      16.060  -0.497  -0.105  1.00  0.00     0.074 A 
ATOM     15  C   UNL     1      17.498  -1.551   1.607  1.00  0.00     0.049 A 
ATOM     16  N   UNL     1      16.942   0.199  -0.775  1.00  0.00    -0.248 NA
ATOM     17  C   UNL     1      14.683  -0.362  -0.604  1.00  0.00     0.031 C 
ATOM     18  C   UNL     1      17.822  -2.421   2.741  1.00  0.00     0.029 A 
ATOM     19  N   UNL     1      18.701  -0.989   1.266  1.00  0.00    -0.354 N 
ATOM     20  C   UNL     1      16.236   0.835  -1.789  1.00  0.00     0.074 A 
ATOM     21  C   UNL     1      14.855   0.421  -1.660  1.00  0.00     0.031 C 
ATOM     22  C   UNL     1      19.132  -2.328   3.008  1.00  0.00     0.029 A 
ATOM     23  C   UNL     1      19.753  -1.451   2.022  1.00  0.00     0.049 A 
ATOM     24  H   UNL     1      18.803  -0.321   0.550  1.00  0.00     0.167 HD
ATOM     25  C   UNL     1      16.702   1.685  -2.737  1.00  0.00     0.037 A 
ATOM     26  C   UNL     1      21.077  -1.232   1.913  1.00  0.00     0.037 A 
ATOM     27  C   UNL     1      18.083   2.084  -2.850  1.00  0.00     0.049 A 
ATOM     28  C   UNL     1      21.576  -0.312   0.840  1.00  0.00     0.074 A 
ATOM     29  C   UNL     1      18.650   2.977  -3.742  1.00  0.00     0.029 A 
ATOM     30  N   UNL     1      19.118   1.600  -2.059  1.00  0.00    -0.354 N 
ATOM     31  N   UNL     1      20.889   0.325  -0.078  1.00  0.00    -0.248 NA
ATOM     32  C   UNL     1      23.024  -0.076   0.784  1.00  0.00     0.031 C 
ATOM     33  C   UNL     1      20.033   2.987  -3.532  1.00  0.00     0.029 A 
ATOM     34  C   UNL     1      20.323   2.151  -2.465  1.00  0.00     0.049 A 
ATOM     35  H   UNL     1      19.011   0.960  -1.319  1.00  0.00     0.167 HD
ATOM     36  C   UNL     1      21.818   1.054  -0.811  1.00  0.00     0.074 A 
ATOM     37  C   UNL     1      23.115   0.784  -0.223  1.00  0.00     0.031 C 
ATOM     38  C   UNL     1      21.610   1.875  -1.869  1.00  0.00     0.037 A 
BRANCH  25  39
ATOM     39  C   UNL     1      15.716   2.208  -3.749  1.00  0.00     0.058 A 
ATOM     40  C   UNL     1      14.690   3.101  -3.399  1.00  0.00     0.135 A 
ATOM     41  C   UNL     1      15.803   1.813  -5.094  1.00  0.00     0.135 A 
ATOM     42  F   UNL     1      14.552   3.509  -2.127  1.00  0.00    -0.206 F 
ATOM     43  C   UNL     1      13.757   3.541  -4.333  1.00  0.00     0.059 A 
ATOM     44  C   UNL     1      14.899   2.265  -6.052  1.00  0.00     0.059 A 
ATOM     45  F   UNL     1      16.768   0.968  -5.490  1.00  0.00    -0.206 F 
ATOM     46  C   UNL     1      13.864   3.109  -5.656  1.00  0.00     0.060 A 
BRANCH  46  47
ATOM     47  S   UNL     1      12.616   3.648  -6.843  1.00  0.00     0.124 S 
ATOM     48  O   UNL     1      11.458   2.866  -6.421  1.00  0.00    -0.237 OA
ATOM     49  O   UNL     1      12.537   5.083  -6.585  1.00  0.00    -0.237 OA
ATOM     50  O   UNL     1      13.188   3.276  -8.133  1.00  0.00    -0.744 OA
ENDBRANCH  46  47
ENDBRANCH  25  39
BRANCH  26  51
ATOM     51  C   UNL     1      22.000  -1.928   2.847  1.00  0.00     0.058 A 
ATOM     52  C   UNL     1      22.652  -1.236   3.876  1.00  0.00     0.135 A 
ATOM     53  C   UNL     1      22.176  -3.321   2.779  1.00  0.00     0.135 A 
ATOM     54  F   UNL     1      22.518   0.095   3.979  1.00  0.00    -0.206 F 
ATOM     55  C   UNL     1      23.440  -1.900   4.811  1.00  0.00     0.059 A 
ATOM     56  C   UNL     1      22.936  -4.009   3.717  1.00  0.00     0.059 A 
ATOM     57  F   UNL     1      21.555  -4.031   1.823  1.00  0.00    -0.206 F 
ATOM     58  C   UNL     1      23.565  -3.288   4.730  1.00  0.00     0.060 A 
BRANCH  58  59
ATOM     59  S   UNL     1      24.513  -4.147   6.005  1.00  0.00     0.124 S 
ATOM     60  O   UNL     1      25.878  -3.764   5.665  1.00  0.00    -0.237 OA
ATOM     61  O   UNL     1      23.973  -3.566   7.230  1.00  0.00    -0.237 OA
ATOM     62  O   UNL     1      24.178  -5.551   5.786  1.00  0.00    -0.744 OA
ENDBRANCH  58  59
ENDBRANCH  26  51
BRANCH  38  63
ATOM     63  C   UNL     1      22.805   2.579  -2.451  1.00  0.00     0.058 A 
ATOM     64  C   UNL     1      23.752   1.904  -3.235  1.00  0.00     0.135 A 
ATOM     65  C   UNL     1      22.951   3.967  -2.294  1.00  0.00     0.135 A 
ATOM     66  F   UNL     1      23.666   0.575  -3.405  1.00  0.00    -0.206 F 
ATOM     67  C   UNL     1      24.804   2.581  -3.845  1.00  0.00     0.059 A 
ATOM     68  C   UNL     1      23.978   4.668  -2.916  1.00  0.00     0.059 A 
ATOM     69  F   UNL     1      22.070   4.660  -1.555  1.00  0.00    -0.206 F 
ATOM     70  C   UNL     1      24.901   3.966  -3.689  1.00  0.00     0.060 A 
BRANCH  70  71
ATOM     71  S   UNL     1      26.224   4.842  -4.549  1.00  0.00     0.124 S 
ATOM     72  O   UNL     1      27.397   4.433  -3.783  1.00  0.00    -0.237 OA
ATOM     73  O   UNL     1      26.129   4.299  -5.901  1.00  0.00    -0.237 OA
ATOM     74  O   UNL     1      25.846   6.246  -4.416  1.00  0.00    -0.744 OA
ENDBRANCH  70  71
ENDBRANCH  38  63
ENDBRANCH  12  13
ENDBRANCH   5   7
ENDBRANCH   2   3
ENDBRANCH   1   2
BRANCH   1  75
ATOM     75  C   UNL     1       8.346  -2.795   4.756  1.00  0.00     0.117 C 
BRANCH  75  76
ATOM     76  N   UNL     1       8.291  -2.365   6.149  1.00  0.00    -0.354 N 
ATOM     77  C   UNL     1       7.451  -1.477   6.768  1.00  0.00     0.252 C 
ATOM     78  H   UNL     1       8.965  -2.777   6.736  1.00  0.00     0.163 HD
ATOM     79  O   UNL     1       7.677  -1.205   7.949  1.00  0.00    -0.272 OA
BRANCH  77  80
ATOM     80  C   UNL     1       6.240  -0.907   6.007  1.00  0.00     0.242 C 
ATOM     81  O   UNL     1       5.217  -0.429   6.905  1.00  0.00    -0.324 OA
ATOM     82  C   UNL     1       6.640   0.275   5.122  1.00  0.00     0.184 C 
ATOM     83  C   UNL     1       3.990  -0.135   6.234  1.00  0.00     0.340 C 
ATOM     84  C   UNL     1       5.451   0.606   4.230  1.00  0.00     0.181 C 
ATOM     85  C   UNL     1       4.191   0.832   5.044  1.00  0.00     0.214 C 
BRANCH  82  86
ATOM     86  O   UNL     1       7.725   0.047   4.238  1.00  0.00    -0.387 OA
ATOM     87  H   UNL     1       7.486  -0.649   3.606  1.00  0.00     0.211 HD
ENDBRANCH  82  86
BRANCH  83  88
ATOM     88  O   UNL     1       2.937   0.403   7.075  1.00  0.00    -0.454 OA
BRANCH  88  89
ATOM     89  C   UNL     1       3.322   1.184   8.155  1.00  0.00     0.214 A 
ATOM     90  C   UNL     1       3.386   2.535   8.135  1.00  0.00     0.181 A 
ATOM     91  C   UNL     1       3.443   0.501   9.483  1.00  0.00     0.239 A 
ATOM     92  O   UNL     1       3.742   3.322   9.209  1.00  0.00    -0.452 OA
ATOM     93  C   UNL     1       3.704   1.370  10.661  1.00  0.00     0.111 A 
ATOM     94  O   UNL     1       3.279  -0.711   9.571  1.00  0.00    -0.285 OA
ATOM     95  C   UNL     1       3.864   2.737  10.440  1.00  0.00     0.146 A 
ATOM     96  C   UNL     1       3.779   0.893  11.980  1.00  0.00     0.134 A 
ATOM     97  C   UNL     1       4.132   3.613  11.495  1.00  0.00     0.094 A 
ATOM     98  C   UNL     1       4.037   1.767  13.045  1.00  0.00     0.093 A 
ATOM     99  C   UNL     1       4.217   3.121  12.789  1.00  0.00     0.123 A 
BRANCH  90 100
ATOM    100  C   UNL     1       3.145   3.342   6.921  1.00  0.00     0.029 A 
ATOM    101  C   UNL     1       4.211   4.077   6.362  1.00  0.00     0.062 A 
ATOM    102  C   UNL     1       1.927   3.255   6.228  1.00  0.00     0.062 A 
ATOM    103  C   UNL     1       4.103   4.565   5.061  1.00  0.00     0.162 A 
ATOM    104  C   UNL     1       1.823   3.807   4.955  1.00  0.00     0.162 A 
ATOM    105  C   UNL     1       2.909   4.441   4.360  1.00  0.00     0.200 A 
BRANCH 103 106
ATOM    106  O   UNL     1       5.234   5.036   4.457  1.00  0.00    -0.504 OA
ATOM    107  H   UNL     1       6.029   5.112   4.946  1.00  0.00     0.293 HD
ENDBRANCH 103 106
BRANCH 104 108
ATOM    108  O   UNL     1       0.657   3.655   4.259  1.00  0.00    -0.504 OA
ATOM    109  H   UNL     1       0.573   4.022   3.401  1.00  0.00     0.293 HD
ENDBRANCH 104 108
BRANCH 105 110
ATOM    110  O   UNL     1       2.769   4.896   3.078  1.00  0.00    -0.502 OA
ATOM    111  H   UNL     1       3.484   5.327   2.652  1.00  0.00     0.293 HD
ENDBRANCH 105 110
ENDBRANCH  90 100
BRANCH  96 112
ATOM    112  O   UNL     1       3.575  -0.428  12.261  1.00  0.00    -0.507 OA
ATOM    113  H   UNL     1       3.628  -0.733  13.146  1.00  0.00     0.293 HD
ENDBRANCH  96 112
BRANCH  99 114
ATOM    114  O   UNL     1       4.465   4.014  13.788  1.00  0.00    -0.508 OA
ATOM    115  H   UNL     1       4.583   4.922  13.587  1.00  0.00     0.293 HD
ENDBRANCH  99 114
ENDBRANCH  88  89
ENDBRANCH  83  88
BRANCH  84 116
ATOM    116  O   UNL     1       5.799   1.784   3.467  1.00  0.00    -0.387 OA
ATOM    117  H   UNL     1       5.986   2.518   4.073  1.00  0.00     0.211 HD
ENDBRANCH  84 116
BRANCH  85 118
ATOM    118  O   UNL     1       3.051   0.895   4.183  1.00  0.00    -0.384 OA
ATOM    119  H   UNL     1       2.930   0.038   3.744  1.00  0.00     0.211 HD
ENDBRANCH  85 118
ENDBRANCH  77  80
ENDBRANCH  75  76
ENDBRANCH   1  75
TORSDOF 24
