REMARK SMILES Cc1ccc(S(=O)(=O)n2cc(C(=O)C(=O)NCC(=O)NCC(=O)NCCCNC(=O)c3ccc(-c4c5nc(c(-c6c(F)cc(S(=O)(=O)[O-])cc6F)c6ccc([nH]6)c(-c6c(F)cc(S(=O)(=O)[O-])cc6F)c6nc(c(-c7c(F)cc(S(=O)(=O)[O-])cc7F)c7ccc4[nH]7)C=C6)C=C5)cc3)c3ccccc32)cc1
REMARK SMILES IDX 22 1 23 2 24 3 21 5 20 6 18 7 19 8 17 10 16 11 14 12 15 13
REMARK SMILES IDX 12 15 13 16 11 17 9 18 10 19 102 20 97 21 101 22 98 23
REMARK SMILES IDX 100 24 99 25 6 26 7 27 8 28 5 29 1 30 2 31 3 32 104 33 4 34
REMARK SMILES IDX 103 35 25 36 26 37 27 38 28 39 29 40 30 42 31 43 32 44 96 45
REMARK SMILES IDX 33 46 95 47 34 48 35 49 36 50 89 51 37 52 94 53 88 54 90 55
REMARK SMILES IDX 38 56 93 57 87 58 86 59 39 61 73 62 52 63 72 64 53 65 56 66
REMARK SMILES IDX 71 67 91 68 54 69 55 70 70 72 92 73 57 74 40 75 41 76 50 77
REMARK SMILES IDX 42 78 43 79 49 80 51 81 44 82 45 83 46 84 47 85 48 86 74 87
REMARK SMILES IDX 75 88 84 89 76 90 77 91 83 92 85 93 78 94 79 95 80 96 81 97
REMARK SMILES IDX 82 98 58 99 59 100 68 101 60 102 61 103 67 104 69 105 62 106
REMARK SMILES IDX 63 107 64 108 65 109 66 110
REMARK H PARENT 24 4 20 9 16 14 28 41 90 60 56 71
REMARK Flexibility Score: inf
ROOT
ATOM      1  C   UNL     1     -10.108   3.415   1.152  1.00  0.00     0.239 C 
ATOM      2  O   UNL     1     -10.615   2.837   0.188  1.00  0.00    -0.273 OA
ATOM      3  N   UNL     1     -10.132   2.801   2.375  1.00  0.00    -0.355 N 
ATOM      4  H   UNL     1     -10.724   2.020   2.458  1.00  0.00     0.163 HD
ENDROOT
BRANCH   1   5
ATOM      5  C   UNL     1      -9.352   4.744   0.963  1.00  0.00     0.216 C 
BRANCH   5   6
ATOM      6  N   UNL     1      -9.799   5.802   1.851  1.00  0.00    -0.346 N 
ATOM      7  C   UNL     1      -9.134   6.642   2.686  1.00  0.00     0.239 C 
ATOM      8  O   UNL     1      -9.809   7.509   3.252  1.00  0.00    -0.273 OA
ATOM      9  H   UNL     1     -10.775   5.938   1.848  1.00  0.00     0.164 HD
BRANCH   7  10
ATOM     10  C   UNL     1      -7.605   6.632   2.855  1.00  0.00     0.216 C 
BRANCH  10  11
ATOM     11  N   UNL     1      -6.982   5.410   3.357  1.00  0.00    -0.340 N 
ATOM     12  C   UNL     1      -6.139   4.492   2.762  1.00  0.00     0.292 C 
ATOM     13  O   UNL     1      -5.763   3.517   3.402  1.00  0.00    -0.265 OA
ATOM     14  H   UNL     1      -7.205   5.202   4.293  1.00  0.00     0.164 HD
BRANCH  12  15
ATOM     15  C   UNL     1      -5.680   4.667   1.306  1.00  0.00     0.252 C 
ATOM     16  O   UNL     1      -5.873   5.760   0.779  1.00  0.00    -0.283 OA
BRANCH  15  17
ATOM     17  C   UNL     1      -5.027   3.598   0.537  1.00  0.00     0.054 A 
ATOM     18  N   UNL     1      -4.152   1.662  -0.156  1.00  0.00    -0.240 N 
ATOM     19  C   UNL     1      -4.831   2.269   0.874  1.00  0.00     0.117 A 
ATOM     20  C   UNL     1      -3.888   2.555  -1.175  1.00  0.00     0.065 A 
ATOM     21  C   UNL     1      -4.436   3.775  -0.764  1.00  0.00     0.012 A 
ATOM     22  C   UNL     1      -3.201   2.431  -2.397  1.00  0.00     0.028 A 
ATOM     23  C   UNL     1      -4.301   4.895  -1.615  1.00  0.00     0.011 A 
ATOM     24  C   UNL     1      -3.061   3.567  -3.200  1.00  0.00     0.002 A 
ATOM     25  C   UNL     1      -3.609   4.784  -2.819  1.00  0.00     0.001 A 
BRANCH  18  26
ATOM     26  S   UNL     1      -3.591   0.051  -0.122  1.00  0.00     0.268 S 
ATOM     27  O   UNL     1      -3.905  -0.490  -1.427  1.00  0.00    -0.201 OA
ATOM     28  O   UNL     1      -4.112  -0.530   1.104  1.00  0.00    -0.201 OA
BRANCH  26  29
ATOM     29  C   UNL     1      -1.820   0.089   0.021  1.00  0.00     0.088 A 
ATOM     30  C   UNL     1       2.481  -0.045   0.026  1.00  0.00     0.044 C 
ATOM     31  C   UNL     1       0.982   0.006   0.043  1.00  0.00    -0.051 A 
ATOM     32  C   UNL     1       0.241  -1.180  -0.031  1.00  0.00     0.005 A 
ATOM     33  C   UNL     1       0.306   1.228   0.140  1.00  0.00     0.005 A 
ATOM     34  C   UNL     1      -1.154  -1.140  -0.049  1.00  0.00     0.022 A 
ATOM     35  C   UNL     1      -1.092   1.274   0.142  1.00  0.00     0.022 A 
ENDBRANCH  26  29
ENDBRANCH  18  26
ENDBRANCH  15  17
ENDBRANCH  12  15
ENDBRANCH  10  11
ENDBRANCH   7  10
ENDBRANCH   5   6
ENDBRANCH   1   5
BRANCH   3  36
ATOM     36  C   UNL     1      -9.385   3.169   3.564  1.00  0.00     0.117 C 
BRANCH  36  37
ATOM     37  C   UNL     1     -10.151   4.095   4.495  1.00  0.00     0.042 C 
BRANCH  37  38
ATOM     38  C   UNL     1     -10.909   3.319   5.544  1.00  0.00     0.118 C 
BRANCH  38  39
ATOM     39  N   UNL     1     -10.201   3.132   6.803  1.00  0.00    -0.352 N 
ATOM     40  C   UNL     1     -10.842   2.899   8.020  1.00  0.00     0.251 C 
ATOM     41  H   UNL     1      -9.218   3.173   6.796  1.00  0.00     0.163 HD
ATOM     42  O   UNL     1     -10.515   3.425   9.074  1.00  0.00    -0.269 OA
BRANCH  40  43
ATOM     43  C   UNL     1     -11.862   1.826   7.994  1.00  0.00     0.039 A 
ATOM     44  C   UNL     1     -11.581   0.622   8.653  1.00  0.00     0.014 A 
ATOM     45  C   UNL     1     -12.852   1.901   7.026  1.00  0.00     0.014 A 
ATOM     46  C   UNL     1     -12.138  -0.554   8.172  1.00  0.00     0.010 A 
ATOM     47  C   UNL     1     -13.212   0.740   6.409  1.00  0.00     0.010 A 
ATOM     48  C   UNL     1     -12.847  -0.480   6.983  1.00  0.00    -0.014 A 
BRANCH  48  49
ATOM     49  C   UNL     1     -13.435  -1.590   6.278  1.00  0.00     0.031 A 
ATOM     50  C   UNL     1     -14.883  -1.773   6.497  1.00  0.00     0.074 A 
ATOM     51  C   UNL     1     -12.716  -2.098   5.253  1.00  0.00     0.049 A 
ATOM     52  N   UNL     1     -15.554  -2.777   6.081  1.00  0.00    -0.248 NA
ATOM     53  C   UNL     1     -15.716  -0.804   7.223  1.00  0.00     0.031 C 
ATOM     54  C   UNL     1     -13.171  -2.850   4.092  1.00  0.00     0.029 A 
ATOM     55  N   UNL     1     -11.321  -2.171   5.175  1.00  0.00    -0.354 N 
ATOM     56  C   UNL     1     -16.891  -2.447   6.168  1.00  0.00     0.074 A 
ATOM     57  C   UNL     1     -16.948  -1.250   6.962  1.00  0.00     0.031 C 
ATOM     58  C   UNL     1     -12.137  -3.562   3.605  1.00  0.00     0.029 A 
ATOM     59  C   UNL     1     -11.029  -3.391   4.532  1.00  0.00     0.049 A 
ATOM     60  H   UNL     1     -10.674  -1.505   5.503  1.00  0.00     0.167 HD
ATOM     61  C   UNL     1     -17.766  -3.159   5.407  1.00  0.00     0.037 A 
ATOM     62  C   UNL     1     -10.470  -4.402   5.267  1.00  0.00     0.037 A 
ATOM     63  C   UNL     1     -17.037  -4.216   4.714  1.00  0.00     0.049 A 
ATOM     64  C   UNL     1     -11.432  -5.561   5.444  1.00  0.00     0.074 A 
ATOM     65  C   UNL     1     -16.458  -4.273   3.457  1.00  0.00     0.029 A 
ATOM     66  N   UNL     1     -16.435  -5.210   5.473  1.00  0.00    -0.354 N 
ATOM     67  N   UNL     1     -12.735  -5.449   5.418  1.00  0.00    -0.248 NA
ATOM     68  C   UNL     1     -10.998  -6.951   5.544  1.00  0.00     0.031 C 
ATOM     69  C   UNL     1     -15.452  -5.273   3.487  1.00  0.00     0.029 A 
ATOM     70  C   UNL     1     -15.421  -5.818   4.760  1.00  0.00     0.049 A 
ATOM     71  H   UNL     1     -16.694  -5.448   6.392  1.00  0.00     0.167 HD
ATOM     72  C   UNL     1     -13.309  -6.697   5.445  1.00  0.00     0.074 A 
ATOM     73  C   UNL     1     -12.175  -7.600   5.529  1.00  0.00     0.031 C 
ATOM     74  C   UNL     1     -14.660  -6.903   5.357  1.00  0.00     0.037 A 
BRANCH  61  75
ATOM     75  C   UNL     1     -19.185  -2.768   5.084  1.00  0.00     0.058 A 
ATOM     76  C   UNL     1     -19.746  -3.153   3.845  1.00  0.00     0.135 A 
ATOM     77  C   UNL     1     -20.047  -2.037   5.925  1.00  0.00     0.135 A 
ATOM     78  F   UNL     1     -19.048  -3.851   2.941  1.00  0.00    -0.206 F 
ATOM     79  C   UNL     1     -21.045  -2.830   3.463  1.00  0.00     0.059 A 
ATOM     80  C   UNL     1     -21.347  -1.671   5.548  1.00  0.00     0.059 A 
ATOM     81  F   UNL     1     -19.678  -1.683   7.164  1.00  0.00    -0.206 F 
ATOM     82  C   UNL     1     -21.841  -2.085   4.317  1.00  0.00     0.060 A 
BRANCH  82  83
ATOM     83  S   UNL     1     -23.521  -1.706   3.788  1.00  0.00     0.124 S 
ATOM     84  O   UNL     1     -23.294  -1.007   2.526  1.00  0.00    -0.237 OA
ATOM     85  O   UNL     1     -24.111  -3.035   3.679  1.00  0.00    -0.237 OA
ATOM     86  O   UNL     1     -24.040  -0.877   4.872  1.00  0.00    -0.744 OA
ENDBRANCH  82  83
ENDBRANCH  61  75
BRANCH  62  87
ATOM     87  C   UNL     1      -9.464  -3.871   6.248  1.00  0.00     0.058 A 
ATOM     88  C   UNL     1      -8.323  -3.246   5.694  1.00  0.00     0.135 A 
ATOM     89  C   UNL     1      -9.833  -3.478   7.544  1.00  0.00     0.135 A 
ATOM     90  F   UNL     1      -7.895  -3.608   4.473  1.00  0.00    -0.206 F 
ATOM     91  C   UNL     1      -7.727  -2.134   6.285  1.00  0.00     0.059 A 
ATOM     92  C   UNL     1      -9.225  -2.380   8.169  1.00  0.00     0.059 A 
ATOM     93  F   UNL     1     -10.889  -4.042   8.147  1.00  0.00    -0.206 F 
ATOM     94  C   UNL     1      -8.243  -1.658   7.486  1.00  0.00     0.060 A 
BRANCH  94  95
ATOM     95  S   UNL     1      -7.730  -0.009   8.043  1.00  0.00     0.124 S 
ATOM     96  O   UNL     1      -6.280  -0.152   8.123  1.00  0.00    -0.237 OA
ATOM     97  O   UNL     1      -8.225   0.854   6.966  1.00  0.00    -0.237 OA
ATOM     98  O   UNL     1      -8.414   0.139   9.321  1.00  0.00    -0.744 OA
ENDBRANCH  94  95
ENDBRANCH  62  87
BRANCH  74  99
ATOM     99  C   UNL     1     -15.415  -8.167   5.732  1.00  0.00     0.058 A 
ATOM    100  C   UNL     1     -14.898  -9.178   6.556  1.00  0.00     0.135 A 
ATOM    101  C   UNL     1     -16.789  -8.319   5.390  1.00  0.00     0.135 A 
ATOM    102  F   UNL     1     -13.662  -9.111   7.066  1.00  0.00    -0.206 F 
ATOM    103  C   UNL     1     -15.649 -10.289   6.939  1.00  0.00     0.059 A 
ATOM    104  C   UNL     1     -17.580  -9.370   5.838  1.00  0.00     0.059 A 
ATOM    105  F   UNL     1     -17.435  -7.437   4.613  1.00  0.00    -0.206 F 
ATOM    106  C   UNL     1     -16.989 -10.375   6.579  1.00  0.00     0.060 A 
BRANCH 106 107
ATOM    107  S   UNL     1     -17.957 -11.795   7.104  1.00  0.00     0.124 S 
ATOM    108  O   UNL     1     -17.570 -12.788   6.108  1.00  0.00    -0.237 OA
ATOM    109  O   UNL     1     -17.462 -12.031   8.457  1.00  0.00    -0.237 OA
ATOM    110  O   UNL     1     -19.334 -11.319   7.022  1.00  0.00    -0.744 OA
ENDBRANCH 106 107
ENDBRANCH  74  99
ENDBRANCH  48  49
ENDBRANCH  40  43
ENDBRANCH  38  39
ENDBRANCH  37  38
ENDBRANCH  36  37
ENDBRANCH   3  36
TORSDOF 20
