REMARK SMILES O=C(C[C@@H]1C[N@@H+]([C@H]2CCCc3sccc32)CCO1)NCCCNC(=O)c1ccc(-c2c3nc(c(-c4c(F)cc(S(=O)(=O)[O-])cc4F)c4ccc([nH]4)c(-c4c(F)cc(S(=O)(=O)[O-])cc4F)c4nc(c(-c5c(F)cc(S(=O)(=O)[O-])cc5F)c5ccc2[nH]5)C=C4)C=C3)cc1
REMARK SMILES IDX 21 1 20 2 19 3 1 4 2 5 3 7 4 8 5 9 18 10 6 11 17 12 16 13
REMARK SMILES IDX 7 15 8 16 15 17 9 18 11 19 14 20 10 21 12 22 13 23 22 24
REMARK SMILES IDX 23 25 24 26 25 28 26 29 27 30 91 31 28 32 90 33 29 34 30 35
REMARK SMILES IDX 31 36 84 37 32 38 89 39 83 40 85 41 33 42 88 43 82 44 81 45
REMARK SMILES IDX 34 47 68 48 47 49 67 50 48 51 51 52 66 53 86 54 49 55 50 56
REMARK SMILES IDX 65 58 87 59 52 60 35 61 36 62 45 63 37 64 38 65 44 66 46 67
REMARK SMILES IDX 39 68 40 69 41 70 42 71 43 72 69 73 70 74 79 75 71 76 72 77
REMARK SMILES IDX 78 78 80 79 73 80 74 81 75 82 76 83 77 84 53 85 54 86 63 87
REMARK SMILES IDX 55 88 56 89 62 90 64 91 57 92 58 93 59 94 60 95 61 96
REMARK H PARENT 19 6 6 14 23 27 85 46 51 57
REMARK Flexibility Score: inf
ROOT
ATOM      1  C   UNL     1       2.477  -0.782   8.412  1.00  0.00     0.042 C 
ENDROOT
BRANCH   1   2
ATOM      2  C   UNL     1       3.654  -1.627   7.942  1.00  0.00     0.117 C 
BRANCH   2   3
ATOM      3  N   UNL     1       4.665  -0.828   7.278  1.00  0.00    -0.356 N 
ATOM      4  O   UNL     1       6.479  -1.741   8.359  1.00  0.00    -0.275 OA
ATOM      5  C   UNL     1       6.013  -0.972   7.529  1.00  0.00     0.222 C 
ATOM      6  H   UNL     1       4.376  -0.155   6.620  1.00  0.00     0.163 HD
BRANCH   5   7
ATOM      7  C   UNL     1       6.875  -0.098   6.647  1.00  0.00     0.138 C 
BRANCH   7   8
ATOM      8  C   UNL     1       7.168  -0.681   5.259  1.00  0.00     0.182 C 
ATOM      9  C   UNL     1       6.237  -1.822   4.779  1.00  0.00     0.295 C 
ATOM     10  O   UNL     1       8.534  -1.135   5.230  1.00  0.00    -0.366 OA
ATOM     11  N   UNL     1       6.561  -2.358   3.446  1.00  0.00    -0.325 N 
ATOM     12  C   UNL     1       8.907  -1.487   3.893  1.00  0.00     0.222 C 
ATOM     13  C   UNL     1       8.003  -2.588   3.308  1.00  0.00     0.291 C 
ATOM     14  H   UNL     1       6.180  -3.301   3.364  1.00  0.00     0.348 HD
BRANCH  11  15
ATOM     15  C   UNL     1       5.799  -1.780   2.334  1.00  0.00     0.216 C 
ATOM     16  C   UNL     1       6.183  -0.375   1.810  1.00  0.00     0.071 C 
ATOM     17  C   UNL     1       5.757  -2.770   1.187  1.00  0.00     0.023 A 
ATOM     18  C   UNL     1       7.329  -0.370   0.790  1.00  0.00     0.012 C 
ATOM     19  C   UNL     1       6.335  -2.510  -0.044  1.00  0.00     0.014 A 
ATOM     20  C   UNL     1       5.085  -4.035   1.179  1.00  0.00     0.022 A 
ATOM     21  C   UNL     1       7.039  -1.249  -0.432  1.00  0.00     0.047 C 
ATOM     22  S   UNL     1       6.102  -3.772  -1.164  1.00  0.00    -0.148 S 
ATOM     23  C   UNL     1       5.186  -4.675  -0.037  1.00  0.00     0.065 A 
ENDBRANCH  11  15
ENDBRANCH   7   8
ENDBRANCH   5   7
ENDBRANCH   2   3
ENDBRANCH   1   2
BRANCH   1  24
ATOM     24  C   UNL     1       1.700  -0.098   7.291  1.00  0.00     0.118 C 
BRANCH  24  25
ATOM     25  N   UNL     1       0.987  -1.030   6.428  1.00  0.00    -0.352 N 
ATOM     26  C   UNL     1      -0.354  -1.083   6.127  1.00  0.00     0.251 C 
ATOM     27  H   UNL     1       1.544  -1.720   6.000  1.00  0.00     0.163 HD
ATOM     28  O   UNL     1      -0.802  -2.028   5.484  1.00  0.00    -0.269 OA
BRANCH  26  29
ATOM     29  C   UNL     1      -1.258  -0.015   6.607  1.00  0.00     0.039 A 
ATOM     30  C   UNL     1      -2.437  -0.370   7.268  1.00  0.00     0.014 A 
ATOM     31  C   UNL     1      -0.925   1.331   6.436  1.00  0.00     0.014 A 
ATOM     32  C   UNL     1      -3.238   0.624   7.836  1.00  0.00     0.010 A 
ATOM     33  C   UNL     1      -1.686   2.314   7.063  1.00  0.00     0.010 A 
ATOM     34  C   UNL     1      -2.844   1.971   7.780  1.00  0.00    -0.014 A 
BRANCH  34  35
ATOM     35  C   UNL     1      -3.604   3.040   8.479  1.00  0.00     0.031 A 
ATOM     36  C   UNL     1      -4.234   4.154   7.689  1.00  0.00     0.074 A 
ATOM     37  C   UNL     1      -3.644   3.062   9.826  1.00  0.00     0.049 A 
ATOM     38  N   UNL     1      -4.808   5.249   8.117  1.00  0.00    -0.248 NA
ATOM     39  C   UNL     1      -4.186   4.035   6.223  1.00  0.00     0.031 C 
ATOM     40  C   UNL     1      -3.041   2.059  10.708  1.00  0.00     0.029 A 
ATOM     41  N   UNL     1      -4.197   3.973  10.693  1.00  0.00    -0.354 N 
ATOM     42  C   UNL     1      -5.169   5.958   6.978  1.00  0.00     0.074 A 
ATOM     43  C   UNL     1      -4.711   5.190   5.840  1.00  0.00     0.031 C 
ATOM     44  C   UNL     1      -3.265   2.405  11.986  1.00  0.00     0.029 A 
ATOM     45  C   UNL     1      -3.985   3.674  12.019  1.00  0.00     0.049 A 
ATOM     46  H   UNL     1      -4.698   4.765  10.393  1.00  0.00     0.167 HD
ATOM     47  C   UNL     1      -5.836   7.133   6.888  1.00  0.00     0.037 A 
ATOM     48  C   UNL     1      -4.315   4.353  13.136  1.00  0.00     0.037 A 
ATOM     49  C   UNL     1      -6.315   7.878   8.023  1.00  0.00     0.049 A 
ATOM     50  C   UNL     1      -5.049   5.661  13.011  1.00  0.00     0.074 A 
ATOM     51  C   UNL     1      -7.051   9.050   8.034  1.00  0.00     0.029 A 
ATOM     52  N   UNL     1      -6.108   7.524   9.349  1.00  0.00    -0.354 N 
ATOM     53  N   UNL     1      -5.426   6.292  11.925  1.00  0.00    -0.248 NA
ATOM     54  C   UNL     1      -5.405   6.349  14.261  1.00  0.00     0.031 C 
ATOM     55  C   UNL     1      -7.254   9.427   9.365  1.00  0.00     0.029 A 
ATOM     56  C   UNL     1      -6.687   8.464  10.185  1.00  0.00     0.049 A 
ATOM     57  H   UNL     1      -5.622   6.723   9.650  1.00  0.00     0.167 HD
ATOM     58  C   UNL     1      -6.091   7.433  12.361  1.00  0.00     0.074 A 
ATOM     59  C   UNL     1      -6.067   7.406  13.808  1.00  0.00     0.031 C 
ATOM     60  C   UNL     1      -6.673   8.412  11.626  1.00  0.00     0.037 A 
BRANCH  47  61
ATOM     61  C   UNL     1      -6.090   7.689   5.514  1.00  0.00     0.058 A 
ATOM     62  C   UNL     1      -7.010   7.092   4.637  1.00  0.00     0.135 A 
ATOM     63  C   UNL     1      -5.434   8.853   5.082  1.00  0.00     0.135 A 
ATOM     64  F   UNL     1      -7.654   5.970   4.993  1.00  0.00    -0.206 F 
ATOM     65  C   UNL     1      -7.247   7.611   3.368  1.00  0.00     0.059 A 
ATOM     66  C   UNL     1      -5.676   9.406   3.828  1.00  0.00     0.059 A 
ATOM     67  F   UNL     1      -4.545   9.464   5.881  1.00  0.00    -0.206 F 
ATOM     68  C   UNL     1      -6.573   8.768   2.972  1.00  0.00     0.060 A 
BRANCH  68  69
ATOM     69  S   UNL     1      -6.890   9.427   1.322  1.00  0.00     0.124 S 
ATOM     70  O   UNL     1      -6.178   8.466   0.485  1.00  0.00    -0.237 OA
ATOM     71  O   UNL     1      -8.346   9.381   1.241  1.00  0.00    -0.237 OA
ATOM     72  O   UNL     1      -6.309  10.765   1.373  1.00  0.00    -0.744 OA
ENDBRANCH  68  69
ENDBRANCH  47  61
BRANCH  48  73
ATOM     73  C   UNL     1      -3.963   3.801  14.471  1.00  0.00     0.058 A 
ATOM     74  C   UNL     1      -4.955   3.299  15.326  1.00  0.00     0.135 A 
ATOM     75  C   UNL     1      -2.632   3.751  14.914  1.00  0.00     0.135 A 
ATOM     76  F   UNL     1      -6.243   3.332  14.950  1.00  0.00    -0.206 F 
ATOM     77  C   UNL     1      -4.644   2.778  16.578  1.00  0.00     0.059 A 
ATOM     78  C   UNL     1      -2.293   3.213  16.152  1.00  0.00     0.059 A 
ATOM     79  F   UNL     1      -1.644   4.204  14.127  1.00  0.00    -0.206 F 
ATOM     80  C   UNL     1      -3.308   2.738  16.981  1.00  0.00     0.060 A 
BRANCH  80  81
ATOM     81  S   UNL     1      -2.910   2.015  18.588  1.00  0.00     0.124 S 
ATOM     82  O   UNL     1      -3.368   3.058  19.499  1.00  0.00    -0.237 OA
ATOM     83  O   UNL     1      -3.698   0.787  18.575  1.00  0.00    -0.237 OA
ATOM     84  O   UNL     1      -1.465   1.825  18.521  1.00  0.00    -0.744 OA
ENDBRANCH  80  81
ENDBRANCH  48  73
BRANCH  60  85
ATOM     85  C   UNL     1      -7.377   9.517  12.362  1.00  0.00     0.058 A 
ATOM     86  C   UNL     1      -6.669  10.538  13.014  1.00  0.00     0.135 A 
ATOM     87  C   UNL     1      -8.779   9.601  12.337  1.00  0.00     0.135 A 
ATOM     88  F   UNL     1      -5.329  10.499  13.074  1.00  0.00    -0.206 F 
ATOM     89  C   UNL     1      -7.327  11.604  13.620  1.00  0.00     0.059 A 
ATOM     90  C   UNL     1      -9.456  10.670  12.914  1.00  0.00     0.059 A 
ATOM     91  F   UNL     1      -9.501   8.653  11.720  1.00  0.00    -0.206 F 
ATOM     92  C   UNL     1      -8.722  11.665  13.557  1.00  0.00     0.060 A 
BRANCH  92  93
ATOM     93  S   UNL     1      -9.559  13.090  14.285  1.00  0.00     0.124 S 
ATOM     94  O   UNL     1      -9.438  12.806  15.711  1.00  0.00    -0.237 OA
ATOM     95  O   UNL     1      -8.761  14.207  13.790  1.00  0.00    -0.237 OA
ATOM     96  O   UNL     1     -10.911  13.004  13.740  1.00  0.00    -0.744 OA
ENDBRANCH  92  93
ENDBRANCH  60  85
ENDBRANCH  34  35
ENDBRANCH  26  29
ENDBRANCH  24  25
ENDBRANCH   1  24
TORSDOF 15
