REMARK SMILES Cc1cc2c(c(C)c1Br)C=C(C(=O)NCCCNC(=O)c1ccc(-c3c4nc(c(-c5c(F)cc(S(=O)(=O)[O-])cc5F)c5ccc([nH]5)c(-c5c(F)cc(S(=O)(=O)[O-])cc5F)c5nc(c(-c6c(F)cc(S(=O)(=O)[O-])cc6F)c6ccc3[nH]6)C=C5)C=C4)cc1)[C@@H](C(F)(F)F)O2
REMARK SMILES IDX 17 1 16 2 15 3 14 4 12 5 13 6 11 8 1 9 2 10 3 11 8 12 4 13
REMARK SMILES IDX 6 14 9 15 5 16 92 17 7 18 10 19 87 20 88 21 89 22 90 23
REMARK SMILES IDX 91 24 18 25 19 26 20 28 21 29 22 30 86 31 23 32 85 33 24 34
REMARK SMILES IDX 25 35 26 36 79 37 27 38 84 39 78 40 80 41 28 42 83 43 77 44
REMARK SMILES IDX 76 45 29 47 63 48 42 49 62 50 43 51 46 52 61 53 81 54 44 55
REMARK SMILES IDX 45 56 60 58 82 59 47 60 30 61 31 62 40 63 32 64 33 65 39 66
REMARK SMILES IDX 41 67 34 68 35 69 36 70 37 71 38 72 64 73 65 74 74 75 66 76
REMARK SMILES IDX 67 77 73 78 75 79 68 80 69 81 70 82 71 83 72 84 48 85 49 86
REMARK SMILES IDX 58 87 50 88 51 89 57 90 59 91 52 92 53 93 54 94 55 95 56 96
REMARK H PARENT 14 7 18 27 80 46 46 57
REMARK Flexibility Score: inf
ROOT
ATOM      1  C   UNL     1      -4.129   7.234   6.920  1.00  0.00     0.118 C 
ENDROOT
BRANCH   1   2
ATOM      2  C   UNL     1      -3.767   5.943   6.198  1.00  0.00     0.042 C 
BRANCH   2   3
ATOM      3  C   UNL     1      -4.034   6.026   4.704  1.00  0.00     0.118 C 
BRANCH   3   4
ATOM      4  N   UNL     1      -3.011   6.795   4.009  1.00  0.00    -0.352 N 
ATOM      5  C   UNL     1      -1.999   6.550   3.146  1.00  0.00     0.251 C 
ATOM      6  O   UNL     1      -1.365   7.546   2.783  1.00  0.00    -0.270 OA
ATOM      7  H   UNL     1      -3.074   7.753   4.226  1.00  0.00     0.163 HD
BRANCH   5   8
ATOM      8  C   UNL     1      -1.624   5.205   2.622  1.00  0.00     0.067 C 
ATOM      9  C   UNL     1       1.053  -0.076  -0.072  1.00  0.00     0.046 C 
ATOM     10  C   UNL     1       0.693   1.318   0.364  1.00  0.00    -0.033 A 
ATOM     11  C   UNL     1      -0.312   1.460   1.325  1.00  0.00     0.051 A 
ATOM     12  C   UNL     1       1.304   2.479  -0.158  1.00  0.00     0.024 A 
ATOM     13  C   UNL     1      -0.700   2.720   1.763  1.00  0.00     0.128 A 
ATOM     14  C   UNL     1       0.929   3.771   0.294  1.00  0.00    -0.026 A 
ATOM     15  Br  UNL     1       2.655   2.261  -1.498  1.00  0.00    -0.050 Br
ATOM     16  C   UNL     1      -0.088   3.878   1.276  1.00  0.00     0.021 A 
ATOM     17  O   UNL     1      -1.674   2.724   2.718  1.00  0.00    -0.475 OA
ATOM     18  C   UNL     1       1.578   5.034  -0.225  1.00  0.00     0.046 C 
ATOM     19  C   UNL     1      -0.519   5.156   1.855  1.00  0.00     0.026 C 
ATOM     20  C   UNL     1      -2.413   3.959   2.882  1.00  0.00     0.314 C 
BRANCH  20  21
ATOM     21  C   UNL     1      -3.709   3.895   2.050  1.00  0.00     0.429 C 
ATOM     22  F   UNL     1      -4.568   2.985   2.574  1.00  0.00    -0.167 F 
ATOM     23  F   UNL     1      -4.373   5.076   2.025  1.00  0.00    -0.167 F 
ATOM     24  F   UNL     1      -3.487   3.548   0.762  1.00  0.00    -0.167 F 
ENDBRANCH  20  21
ENDBRANCH   5   8
ENDBRANCH   3   4
ENDBRANCH   2   3
ENDBRANCH   1   2
BRANCH   1  25
ATOM     25  N   UNL     1      -5.558   7.525   6.824  1.00  0.00    -0.352 N 
ATOM     26  C   UNL     1      -6.550   7.401   7.762  1.00  0.00     0.251 C 
ATOM     27  H   UNL     1      -5.854   7.864   5.948  1.00  0.00     0.163 HD
ATOM     28  O   UNL     1      -7.727   7.413   7.407  1.00  0.00    -0.269 OA
BRANCH  26  29
ATOM     29  C   UNL     1      -6.203   7.253   9.188  1.00  0.00     0.039 A 
ATOM     30  C   UNL     1      -6.940   6.377   9.989  1.00  0.00     0.014 A 
ATOM     31  C   UNL     1      -5.162   8.003   9.739  1.00  0.00     0.014 A 
ATOM     32  C   UNL     1      -6.587   6.211  11.329  1.00  0.00     0.010 A 
ATOM     33  C   UNL     1      -4.748   7.760  11.041  1.00  0.00     0.010 A 
ATOM     34  C   UNL     1      -5.467   6.875  11.855  1.00  0.00    -0.014 A 
BRANCH  34  35
ATOM     35  C   UNL     1      -5.049   6.692  13.265  1.00  0.00     0.031 A 
ATOM     36  C   UNL     1      -5.058   7.868  14.204  1.00  0.00     0.074 A 
ATOM     37  C   UNL     1      -4.607   5.487  13.678  1.00  0.00     0.049 A 
ATOM     38  N   UNL     1      -4.664   7.932  15.448  1.00  0.00    -0.248 NA
ATOM     39  C   UNL     1      -5.546   9.150  13.665  1.00  0.00     0.031 C 
ATOM     40  C   UNL     1      -4.507   4.290  12.839  1.00  0.00     0.029 A 
ATOM     41  N   UNL     1      -4.155   5.071  14.903  1.00  0.00    -0.354 N 
ATOM     42  C   UNL     1      -4.845   9.255  15.834  1.00  0.00     0.074 A 
ATOM     43  C   UNL     1      -5.322   9.976  14.676  1.00  0.00     0.031 C 
ATOM     44  C   UNL     1      -4.056   3.268  13.583  1.00  0.00     0.029 A 
ATOM     45  C   UNL     1      -3.795   3.744  14.938  1.00  0.00     0.049 A 
ATOM     46  H   UNL     1      -4.093   5.666  15.685  1.00  0.00     0.167 HD
ATOM     47  C   UNL     1      -4.663   9.810  17.054  1.00  0.00     0.037 A 
ATOM     48  C   UNL     1      -3.308   2.998  15.949  1.00  0.00     0.037 A 
ATOM     49  C   UNL     1      -4.226   9.073  18.209  1.00  0.00     0.049 A 
ATOM     50  C   UNL     1      -3.111   3.639  17.296  1.00  0.00     0.074 A 
ATOM     51  C   UNL     1      -4.068   9.526  19.506  1.00  0.00     0.029 A 
ATOM     52  N   UNL     1      -3.882   7.729  18.207  1.00  0.00    -0.354 N 
ATOM     53  N   UNL     1      -3.346   4.878  17.659  1.00  0.00    -0.248 NA
ATOM     54  C   UNL     1      -2.586   2.787  18.370  1.00  0.00     0.031 C 
ATOM     55  C   UNL     1      -3.584   8.467  20.280  1.00  0.00     0.029 A 
ATOM     56  C   UNL     1      -3.489   7.341  19.476  1.00  0.00     0.049 A 
ATOM     57  H   UNL     1      -3.913   7.139  17.420  1.00  0.00     0.167 HD
ATOM     58  C   UNL     1      -3.016   4.949  19.007  1.00  0.00     0.074 A 
ATOM     59  C   UNL     1      -2.582   3.623  19.399  1.00  0.00     0.031 C 
ATOM     60  C   UNL     1      -3.065   6.014  19.845  1.00  0.00     0.037 A 
BRANCH  47  61
ATOM     61  C   UNL     1      -4.959  11.275  17.213  1.00  0.00     0.058 A 
ATOM     62  C   UNL     1      -6.274  11.766  17.178  1.00  0.00     0.135 A 
ATOM     63  C   UNL     1      -3.925  12.191  17.468  1.00  0.00     0.135 A 
ATOM     64  F   UNL     1      -7.299  10.938  16.917  1.00  0.00    -0.206 F 
ATOM     65  C   UNL     1      -6.553  13.114  17.375  1.00  0.00     0.059 A 
ATOM     66  C   UNL     1      -4.184  13.539  17.697  1.00  0.00     0.059 A 
ATOM     67  F   UNL     1      -2.649  11.776  17.506  1.00  0.00    -0.206 F 
ATOM     68  C   UNL     1      -5.501  13.992  17.642  1.00  0.00     0.060 A 
BRANCH  68  69
ATOM     69  S   UNL     1      -5.890  15.730  17.932  1.00  0.00     0.124 S 
ATOM     70  O   UNL     1      -6.317  16.160  16.604  1.00  0.00    -0.237 OA
ATOM     71  O   UNL     1      -6.941  15.648  18.941  1.00  0.00    -0.237 OA
ATOM     72  O   UNL     1      -4.623  16.291  18.394  1.00  0.00    -0.744 OA
ENDBRANCH  68  69
ENDBRANCH  47  61
BRANCH  48  73
ATOM     73  C   UNL     1      -3.003   1.558  15.729  1.00  0.00     0.058 A 
ATOM     74  C   UNL     1      -3.790   0.557  16.317  1.00  0.00     0.135 A 
ATOM     75  C   UNL     1      -1.938   1.153  14.909  1.00  0.00     0.135 A 
ATOM     76  F   UNL     1      -4.816   0.892  17.114  1.00  0.00    -0.206 F 
ATOM     77  C   UNL     1      -3.527  -0.794  16.111  1.00  0.00     0.059 A 
ATOM     78  C   UNL     1      -1.670  -0.191  14.667  1.00  0.00     0.059 A 
ATOM     79  F   UNL     1      -1.165   2.071  14.308  1.00  0.00    -0.206 F 
ATOM     80  C   UNL     1      -2.466  -1.158  15.280  1.00  0.00     0.060 A 
BRANCH  80  81
ATOM     81  S   UNL     1      -2.168  -2.913  14.980  1.00  0.00     0.124 S 
ATOM     82  O   UNL     1      -1.676  -3.355  16.280  1.00  0.00    -0.237 OA
ATOM     83  O   UNL     1      -3.496  -3.388  14.604  1.00  0.00    -0.237 OA
ATOM     84  O   UNL     1      -1.184  -2.908  13.901  1.00  0.00    -0.744 OA
ENDBRANCH  80  81
ENDBRANCH  48  73
BRANCH  60  85
ATOM     85  C   UNL     1      -2.654   5.797  21.274  1.00  0.00     0.058 A 
ATOM     86  C   UNL     1      -1.307   5.634  21.631  1.00  0.00     0.135 A 
ATOM     87  C   UNL     1      -3.607   5.845  22.304  1.00  0.00     0.135 A 
ATOM     88  F   UNL     1      -0.359   5.575  20.682  1.00  0.00    -0.206 F 
ATOM     89  C   UNL     1      -0.919   5.516  22.960  1.00  0.00     0.059 A 
ATOM     90  C   UNL     1      -3.239   5.758  23.643  1.00  0.00     0.059 A 
ATOM     91  F   UNL     1      -4.907   6.012  22.015  1.00  0.00    -0.206 F 
ATOM     92  C   UNL     1      -1.892   5.588  23.960  1.00  0.00     0.060 A 
BRANCH  92  93
ATOM     93  S   UNL     1      -1.363   5.489  25.683  1.00  0.00     0.124 S 
ATOM     94  O   UNL     1      -0.962   4.090  25.788  1.00  0.00    -0.237 OA
ATOM     95  O   UNL     1      -0.279   6.465  25.731  1.00  0.00    -0.237 OA
ATOM     96  O   UNL     1      -2.563   5.855  26.430  1.00  0.00    -0.744 OA
ENDBRANCH  92  93
ENDBRANCH  60  85
ENDBRANCH  34  35
ENDBRANCH  26  29
ENDBRANCH   1  25
TORSDOF 14
