REMARK SMILES O=C(NCCCNC(=O)[C@@H]1CC(=O)N(c2ccc(Cl)cc2C(=O)c2ccccc2)C1)c1ccc(-c2c3nc(c(-c4c(F)cc(S(=O)(=O)[O-])cc4F)c4ccc([nH]4)c(-c4c(F)cc(S(=O)(=O)[O-])cc4F)c4nc(c(-c5c(F)cc(S(=O)(=O)[O-])cc5F)c5ccc2[nH]5)C=C4)C=C3)cc1
REMARK SMILES IDX 5 1 4 2 3 3 1 4 2 5 31 7 32 8 96 9 33 10 95 11 34 12 35 13
REMARK SMILES IDX 36 14 89 15 37 16 94 17 88 18 90 19 38 20 93 21 87 22 86 23
REMARK SMILES IDX 39 25 73 26 52 27 72 28 53 29 56 30 71 31 91 32 54 33 55 34
REMARK SMILES IDX 70 36 92 37 57 38 40 39 41 40 50 41 42 42 43 43 49 44 51 45
REMARK SMILES IDX 44 46 45 47 46 48 47 49 48 50 74 51 75 52 84 53 76 54 77 55
REMARK SMILES IDX 83 56 85 57 78 58 79 59 80 60 81 61 82 62 58 63 59 64 68 65
REMARK SMILES IDX 60 66 61 67 67 68 69 69 62 70 63 71 64 72 65 73 66 74 6 75
REMARK SMILES IDX 7 76 8 77 9 79 10 80 11 81 30 82 12 83 14 84 13 85 15 86
REMARK SMILES IDX 16 87 21 88 17 89 20 90 18 91 19 92 22 93 23 94 24 95 25 96
REMARK SMILES IDX 29 97 26 98 28 99 27 100
REMARK H PARENT 3 6 90 24 56 35 7 78
REMARK Flexibility Score: inf
ROOT
ATOM      1  C   UNL     1       4.037   0.817  -1.298  1.00  0.00     0.042 C 
ENDROOT
BRANCH   1   2
ATOM      2  C   UNL     1       3.517   1.868  -0.338  1.00  0.00     0.118 C 
BRANCH   2   3
ATOM      3  N   UNL     1       2.178   1.529   0.129  1.00  0.00    -0.352 N 
ATOM      4  O   UNL     1       0.547   0.190   0.894  1.00  0.00    -0.269 OA
ATOM      5  C   UNL     1       1.745   0.466   0.893  1.00  0.00     0.251 C 
ATOM      6  H   UNL     1       1.471   2.158  -0.145  1.00  0.00     0.163 HD
BRANCH   5   7
ATOM      7  C   UNL     1       2.699  -0.357   1.682  1.00  0.00     0.039 A 
ATOM      8  C   UNL     1       3.879   0.195   2.165  1.00  0.00     0.014 A 
ATOM      9  C   UNL     1       2.388  -1.679   2.026  1.00  0.00     0.014 A 
ATOM     10  C   UNL     1       4.816  -0.582   2.819  1.00  0.00     0.010 A 
ATOM     11  C   UNL     1       3.240  -2.403   2.876  1.00  0.00     0.010 A 
ATOM     12  C   UNL     1       4.457  -1.847   3.295  1.00  0.00    -0.014 A 
BRANCH  12  13
ATOM     13  C   UNL     1       5.314  -2.426   4.365  1.00  0.00     0.031 A 
ATOM     14  C   UNL     1       5.981  -3.758   4.212  1.00  0.00     0.074 A 
ATOM     15  C   UNL     1       5.539  -1.666   5.462  1.00  0.00     0.049 A 
ATOM     16  N   UNL     1       6.785  -4.365   5.046  1.00  0.00    -0.248 NA
ATOM     17  C   UNL     1       5.703  -4.516   2.984  1.00  0.00     0.031 C 
ATOM     18  C   UNL     1       4.912  -0.362   5.726  1.00  0.00     0.029 A 
ATOM     19  N   UNL     1       6.385  -1.832   6.527  1.00  0.00    -0.354 N 
ATOM     20  C   UNL     1       7.098  -5.582   4.456  1.00  0.00     0.074 A 
ATOM     21  C   UNL     1       6.370  -5.642   3.206  1.00  0.00     0.031 C 
ATOM     22  C   UNL     1       5.471   0.194   6.807  1.00  0.00     0.029 A 
ATOM     23  C   UNL     1       6.400  -0.759   7.391  1.00  0.00     0.049 A 
ATOM     24  H   UNL     1       6.929  -2.641   6.663  1.00  0.00     0.167 HD
ATOM     25  C   UNL     1       7.925  -6.551   4.919  1.00  0.00     0.037 A 
ATOM     26  C   UNL     1       7.059  -0.568   8.549  1.00  0.00     0.037 A 
ATOM     27  C   UNL     1       8.647  -6.463   6.165  1.00  0.00     0.049 A 
ATOM     28  C   UNL     1       7.953  -1.665   9.038  1.00  0.00     0.074 A 
ATOM     29  C   UNL     1       9.500  -7.394   6.733  1.00  0.00     0.029 A 
ATOM     30  N   UNL     1       8.610  -5.378   7.032  1.00  0.00    -0.354 N 
ATOM     31  N   UNL     1       8.224  -2.817   8.471  1.00  0.00    -0.248 NA
ATOM     32  C   UNL     1       8.621  -1.451  10.326  1.00  0.00     0.031 C 
ATOM     33  C   UNL     1       9.945  -6.890   7.960  1.00  0.00     0.029 A 
ATOM     34  C   UNL     1       9.416  -5.621   8.134  1.00  0.00     0.049 A 
ATOM     35  H   UNL     1       8.087  -4.557   6.886  1.00  0.00     0.167 HD
ATOM     36  C   UNL     1       9.097  -3.466   9.332  1.00  0.00     0.074 A 
ATOM     37  C   UNL     1       9.338  -2.560  10.438  1.00  0.00     0.031 C 
ATOM     38  C   UNL     1       9.639  -4.703   9.224  1.00  0.00     0.037 A 
BRANCH  25  39
ATOM     39  C   UNL     1       8.083  -7.793   4.084  1.00  0.00     0.058 A 
ATOM     40  C   UNL     1       8.781  -7.779   2.865  1.00  0.00     0.135 A 
ATOM     41  C   UNL     1       7.571  -9.024   4.527  1.00  0.00     0.135 A 
ATOM     42  F   UNL     1       9.276  -6.629   2.383  1.00  0.00    -0.206 F 
ATOM     43  C   UNL     1       8.949  -8.935   2.109  1.00  0.00     0.059 A 
ATOM     44  C   UNL     1       7.752 -10.198   3.801  1.00  0.00     0.059 A 
ATOM     45  F   UNL     1       6.892  -9.096   5.684  1.00  0.00    -0.206 F 
ATOM     46  C   UNL     1       8.434 -10.141   2.587  1.00  0.00     0.060 A 
BRANCH  46  47
ATOM     47  S   UNL     1       8.684 -11.635   1.603  1.00  0.00     0.124 S 
ATOM     48  O   UNL     1       7.796 -11.392   0.471  1.00  0.00    -0.237 OA
ATOM     49  O   UNL     1      10.113 -11.579   1.310  1.00  0.00    -0.237 OA
ATOM     50  O   UNL     1       8.273 -12.709   2.502  1.00  0.00    -0.744 OA
ENDBRANCH  46  47
ENDBRANCH  25  39
BRANCH  26  51
ATOM     51  C   UNL     1       6.843   0.677   9.338  1.00  0.00     0.058 A 
ATOM     52  C   UNL     1       7.876   1.600   9.553  1.00  0.00     0.135 A 
ATOM     53  C   UNL     1       5.584   0.970   9.890  1.00  0.00     0.135 A 
ATOM     54  F   UNL     1       9.098   1.370   9.050  1.00  0.00    -0.206 F 
ATOM     55  C   UNL     1       7.677   2.754  10.307  1.00  0.00     0.059 A 
ATOM     56  C   UNL     1       5.351   2.134  10.613  1.00  0.00     0.059 A 
ATOM     57  F   UNL     1       4.552   0.133   9.699  1.00  0.00    -0.206 F 
ATOM     58  C   UNL     1       6.410   3.011  10.833  1.00  0.00     0.060 A 
BRANCH  58  59
ATOM     59  S   UNL     1       6.152   4.519  11.793  1.00  0.00     0.124 S 
ATOM     60  O   UNL     1       6.825   4.187  13.043  1.00  0.00    -0.237 OA
ATOM     61  O   UNL     1       6.805   5.527  10.964  1.00  0.00    -0.237 OA
ATOM     62  O   UNL     1       4.698   4.625  11.866  1.00  0.00    -0.744 OA
ENDBRANCH  58  59
ENDBRANCH  26  51
BRANCH  38  63
ATOM     63  C   UNL     1      10.570  -5.126  10.325  1.00  0.00     0.058 A 
ATOM     64  C   UNL     1      10.101  -5.425  11.614  1.00  0.00     0.135 A 
ATOM     65  C   UNL     1      11.948  -5.237  10.084  1.00  0.00     0.135 A 
ATOM     66  F   UNL     1       8.793  -5.323  11.899  1.00  0.00    -0.206 F 
ATOM     67  C   UNL     1      10.972  -5.782  12.637  1.00  0.00     0.059 A 
ATOM     68  C   UNL     1      12.834  -5.624  11.084  1.00  0.00     0.059 A 
ATOM     69  F   UNL     1      12.447  -4.970   8.866  1.00  0.00    -0.206 F 
ATOM     70  C   UNL     1      12.337  -5.877  12.362  1.00  0.00     0.060 A 
BRANCH  70  71
ATOM     71  S   UNL     1      13.457  -6.347  13.697  1.00  0.00     0.124 S 
ATOM     72  O   UNL     1      13.487  -5.128  14.498  1.00  0.00    -0.237 OA
ATOM     73  O   UNL     1      12.766  -7.484  14.297  1.00  0.00    -0.237 OA
ATOM     74  O   UNL     1      14.698  -6.672  13.000  1.00  0.00    -0.744 OA
ENDBRANCH  70  71
ENDBRANCH  38  63
ENDBRANCH  12  13
ENDBRANCH   5   7
ENDBRANCH   2   3
ENDBRANCH   1   2
BRANCH   1  75
ATOM     75  C   UNL     1       3.561   1.144  -2.701  1.00  0.00     0.117 C 
BRANCH  75  76
ATOM     76  N   UNL     1       4.541   2.051  -3.350  1.00  0.00    -0.356 N 
ATOM     77  C   UNL     1       5.600   2.116  -4.322  1.00  0.00     0.225 C 
ATOM     78  H   UNL     1       4.422   2.951  -2.969  1.00  0.00     0.163 HD
ATOM     79  O   UNL     1       5.931   3.304  -3.938  1.00  0.00    -0.275 OA
BRANCH  77  80
ATOM     80  C   UNL     1       6.374   0.842  -5.921  1.00  0.00     0.107 C 
ATOM     81  C   UNL     1       5.709   0.371  -7.495  1.00  0.00     0.116 C 
ATOM     82  C   UNL     1       6.996  -0.767  -5.902  1.00  0.00     0.139 C 
ATOM     83  C   UNL     1       5.186  -1.051  -7.334  1.00  0.00     0.227 C 
ATOM     84  N   UNL     1       5.892  -1.632  -6.274  1.00  0.00    -0.311 N 
ATOM     85  O   UNL     1       4.232  -1.498  -7.951  1.00  0.00    -0.274 OA
BRANCH  84  86
ATOM     86  C   UNL     1       5.263  -2.560  -5.384  1.00  0.00     0.055 A 
ATOM     87  C   UNL     1       4.560  -3.655  -5.902  1.00  0.00     0.028 A 
ATOM     88  C   UNL     1       5.269  -2.400  -3.980  1.00  0.00     0.048 A 
ATOM     89  C   UNL     1       3.945  -4.586  -5.051  1.00  0.00     0.023 A 
ATOM     90  C   UNL     1       4.679  -3.343  -3.125  1.00  0.00     0.035 A 
ATOM     91  C   UNL     1       4.019  -4.434  -3.669  1.00  0.00     0.041 A 
ATOM     92  Cl  UNL     1       3.257  -5.574  -2.632  1.00  0.00    -0.084 Cl
BRANCH  88  93
ATOM     93  C   UNL     1       5.804  -1.195  -3.327  1.00  0.00     0.195 C 
ATOM     94  O   UNL     1       6.342  -1.249  -2.230  1.00  0.00    -0.289 OA
BRANCH  93  95
ATOM     95  C   UNL     1       5.796   0.084  -4.059  1.00  0.00     0.023 A 
ATOM     96  C   UNL     1       7.336   1.011  -3.994  1.00  0.00     0.012 A 
ATOM     97  C   UNL     1       4.468   0.619  -5.194  1.00  0.00     0.012 A 
ATOM     98  C   UNL     1       7.593   2.423  -5.045  1.00  0.00     0.001 A 
ATOM     99  C   UNL     1       4.685   2.136  -6.151  1.00  0.00     0.001 A 
ATOM    100  C   UNL     1       6.265   2.979  -6.137  1.00  0.00     0.000 A 
ENDBRANCH  93  95
ENDBRANCH  88  93
ENDBRANCH  84  86
ENDBRANCH  77  80
ENDBRANCH  75  76
ENDBRANCH   1  75
TORSDOF 16
