REMARK SMILES C[C@@H]1[C@@H](C(=O)NCCCNC(=O)c2ccc(-c3c4nc(c(-c5c(F)cc(S(=O)(=O)[O-])cc5F)c5ccc([nH]5)c(-c5c(F)cc(S(=O)(=O)[O-])cc5F)c5nc(c(-c6c(F)cc(S(=O)(=O)[O-])cc6F)c6ccc3[nH]6)C=C5)C=C4)cc2)CCN1C(=O)CN1C(=O)CNC1=O
REMARK SMILES IDX 8 1 7 2 6 3 4 4 5 5 3 7 1 8 2 9 81 10 79 11 80 12 82 13
REMARK SMILES IDX 83 14 84 15 85 16 86 17 90 18 87 19 88 20 89 21 91 22 9 24
REMARK SMILES IDX 10 25 11 26 12 28 13 29 14 30 78 31 15 32 77 33 16 34 17 35
REMARK SMILES IDX 18 36 71 37 19 38 76 39 70 40 72 41 20 42 75 43 69 44 68 45
REMARK SMILES IDX 21 47 55 48 34 49 54 50 35 51 38 52 53 53 73 54 36 55 37 56
REMARK SMILES IDX 52 58 74 59 39 60 22 61 23 62 32 63 24 64 25 65 31 66 33 67
REMARK SMILES IDX 26 68 27 69 28 70 29 71 30 72 56 73 57 74 66 75 58 76 59 77
REMARK SMILES IDX 65 78 67 79 60 80 61 81 62 82 63 83 64 84 40 85 41 86 50 87
REMARK SMILES IDX 42 88 43 89 49 90 51 91 44 92 45 93 46 94 47 95 48 96
REMARK H PARENT 6 6 89 23 10 27 72 46 38 57
REMARK Flexibility Score: inf
ROOT
ATOM      1  C   UNL     1      -3.026   4.162  -1.099  1.00  0.00     0.042 C 
ENDROOT
BRANCH   1   2
ATOM      2  C   UNL     1      -2.614   2.751  -0.707  1.00  0.00     0.117 C 
BRANCH   2   3
ATOM      3  N   UNL     1      -1.619   2.202  -1.606  1.00  0.00    -0.356 N 
ATOM      4  C   UNL     1      -0.453   1.561  -1.347  1.00  0.00     0.225 C 
ATOM      5  O   UNL     1       0.372   1.542  -2.268  1.00  0.00    -0.275 OA
ATOM      6  H   UNL     1      -1.824   2.312  -2.562  1.00  0.00     0.163 HD
BRANCH   4   7
ATOM      7  C   UNL     1      -0.098   1.043   0.045  1.00  0.00     0.102 C 
ATOM      8  C   UNL     1       1.954  -0.088   1.020  1.00  0.00     0.032 C 
ATOM      9  C   UNL     1       0.902  -0.136  -0.089  1.00  0.00     0.094 C 
ATOM     10  N   UNL     1       0.064  -1.347   0.012  1.00  0.00    -0.338 N 
ATOM     11  C   UNL     1      -1.196   0.419   0.915  1.00  0.00     0.037 C 
ATOM     12  C   UNL     1      -1.269  -1.023   0.465  1.00  0.00     0.121 C 
BRANCH  10  13
ATOM     13  C   UNL     1       0.284  -2.603  -0.532  1.00  0.00     0.243 C 
ATOM     14  O   UNL     1      -0.567  -3.495  -0.483  1.00  0.00    -0.273 OA
BRANCH  13  15
ATOM     15  C   UNL     1       1.594  -2.829  -1.272  1.00  0.00     0.230 C 
BRANCH  15  16
ATOM     16  N   UNL     1       1.550  -2.609  -2.703  1.00  0.00    -0.253 N 
ATOM     17  C   UNL     1       2.534  -3.061  -3.538  1.00  0.00     0.250 C 
ATOM     18  C   UNL     1       0.765  -1.705  -3.356  1.00  0.00     0.325 C 
ATOM     19  O   UNL     1       3.415  -3.863  -3.257  1.00  0.00    -0.272 OA
ATOM     20  C   UNL     1       2.400  -2.360  -4.879  1.00  0.00     0.218 C 
ATOM     21  N   UNL     1       1.267  -1.527  -4.625  1.00  0.00    -0.329 N 
ATOM     22  O   UNL     1      -0.231  -1.140  -2.951  1.00  0.00    -0.248 OA
ATOM     23  H   UNL     1       0.888  -0.899  -5.281  1.00  0.00     0.165 HD
ENDBRANCH  15  16
ENDBRANCH  13  15
ENDBRANCH  10  13
ENDBRANCH   4   7
ENDBRANCH   2   3
ENDBRANCH   1   2
BRANCH   1  24
ATOM     24  C   UNL     1      -3.706   4.268  -2.456  1.00  0.00     0.118 C 
BRANCH  24  25
ATOM     25  N   UNL     1      -5.040   3.683  -2.479  1.00  0.00    -0.352 N 
ATOM     26  C   UNL     1      -6.278   4.282  -2.515  1.00  0.00     0.251 C 
ATOM     27  H   UNL     1      -5.058   2.699  -2.468  1.00  0.00     0.163 HD
ATOM     28  O   UNL     1      -7.285   3.594  -2.366  1.00  0.00    -0.269 OA
BRANCH  26  29
ATOM     29  C   UNL     1      -6.404   5.748  -2.690  1.00  0.00     0.039 A 
ATOM     30  C   UNL     1      -7.340   6.444  -1.920  1.00  0.00     0.014 A 
ATOM     31  C   UNL     1      -5.611   6.440  -3.606  1.00  0.00     0.014 A 
ATOM     32  C   UNL     1      -7.411   7.838  -2.005  1.00  0.00     0.010 A 
ATOM     33  C   UNL     1      -5.605   7.832  -3.609  1.00  0.00     0.010 A 
ATOM     34  C   UNL     1      -6.508   8.550  -2.812  1.00  0.00    -0.014 A 
BRANCH  34  35
ATOM     35  C   UNL     1      -6.489  10.037  -2.843  1.00  0.00     0.031 A 
ATOM     36  C   UNL     1      -6.726  10.769  -4.139  1.00  0.00     0.074 A 
ATOM     37  C   UNL     1      -6.184  10.728  -1.726  1.00  0.00     0.049 A 
ATOM     38  N   UNL     1      -6.652  12.051  -4.391  1.00  0.00    -0.248 NA
ATOM     39  C   UNL     1      -7.057   9.948  -5.316  1.00  0.00     0.031 C 
ATOM     40  C   UNL     1      -5.880  10.138  -0.420  1.00  0.00     0.029 A 
ATOM     41  N   UNL     1      -6.066  12.079  -1.511  1.00  0.00    -0.354 N 
ATOM     42  C   UNL     1      -6.905  12.186  -5.751  1.00  0.00     0.074 A 
ATOM     43  C   UNL     1      -7.075  10.852  -6.284  1.00  0.00     0.031 C 
ATOM     44  C   UNL     1      -5.641  11.120   0.464  1.00  0.00     0.029 A 
ATOM     45  C   UNL     1      -5.729  12.408  -0.218  1.00  0.00     0.049 A 
ATOM     46  H   UNL     1      -6.210  12.751  -2.216  1.00  0.00     0.167 HD
ATOM     47  C   UNL     1      -7.014  13.319  -6.486  1.00  0.00     0.037 A 
ATOM     48  C   UNL     1      -5.508  13.608   0.353  1.00  0.00     0.037 A 
ATOM     49  C   UNL     1      -6.880  14.646  -5.945  1.00  0.00     0.049 A 
ATOM     50  C   UNL     1      -5.642  14.853  -0.482  1.00  0.00     0.074 A 
ATOM     51  C   UNL     1      -7.033  15.859  -6.594  1.00  0.00     0.029 A 
ATOM     52  N   UNL     1      -6.567  14.935  -4.625  1.00  0.00    -0.354 N 
ATOM     53  N   UNL     1      -5.938  14.963  -1.755  1.00  0.00    -0.248 NA
ATOM     54  C   UNL     1      -5.417  16.136   0.197  1.00  0.00     0.031 C 
ATOM     55  C   UNL     1      -6.771  16.881  -5.676  1.00  0.00     0.029 A 
ATOM     56  C   UNL     1      -6.505  16.307  -4.443  1.00  0.00     0.049 A 
ATOM     57  H   UNL     1      -6.411  14.264  -3.921  1.00  0.00     0.167 HD
ATOM     58  C   UNL     1      -5.964  16.328  -2.022  1.00  0.00     0.074 A 
ATOM     59  C   UNL     1      -5.663  17.002  -0.776  1.00  0.00     0.031 C 
ATOM     60  C   UNL     1      -6.215  16.964  -3.193  1.00  0.00     0.037 A 
BRANCH  47  61
ATOM     61  C   UNL     1      -7.305  13.171  -7.956  1.00  0.00     0.058 A 
ATOM     62  C   UNL     1      -8.551  12.718  -8.418  1.00  0.00     0.135 A 
ATOM     63  C   UNL     1      -6.339  13.516  -8.915  1.00  0.00     0.135 A 
ATOM     64  F   UNL     1      -9.507  12.359  -7.545  1.00  0.00    -0.206 F 
ATOM     65  C   UNL     1      -8.818  12.580  -9.776  1.00  0.00     0.059 A 
ATOM     66  C   UNL     1      -6.595  13.415 -10.280  1.00  0.00     0.059 A 
ATOM     67  F   UNL     1      -5.130  13.956  -8.530  1.00  0.00    -0.206 F 
ATOM     68  C   UNL     1      -7.833  12.931 -10.700  1.00  0.00     0.060 A 
BRANCH  68  69
ATOM     69  S   UNL     1      -8.197  12.750 -12.458  1.00  0.00     0.124 S 
ATOM     70  O   UNL     1      -8.150  11.299 -12.616  1.00  0.00    -0.237 OA
ATOM     71  O   UNL     1      -9.521  13.356 -12.567  1.00  0.00    -0.237 OA
ATOM     72  O   UNL     1      -7.118  13.487 -13.107  1.00  0.00    -0.744 OA
ENDBRANCH  68  69
ENDBRANCH  47  61
BRANCH  48  73
ATOM     73  C   UNL     1      -5.165  13.693   1.798  1.00  0.00     0.058 A 
ATOM     74  C   UNL     1      -6.081  14.210   2.727  1.00  0.00     0.135 A 
ATOM     75  C   UNL     1      -3.924  13.250   2.283  1.00  0.00     0.135 A 
ATOM     76  F   UNL     1      -7.278  14.652   2.312  1.00  0.00    -0.206 F 
ATOM     77  C   UNL     1      -5.775  14.302   4.081  1.00  0.00     0.059 A 
ATOM     78  C   UNL     1      -3.604  13.308   3.636  1.00  0.00     0.059 A 
ATOM     79  F   UNL     1      -3.019  12.731   1.439  1.00  0.00    -0.206 F 
ATOM     80  C   UNL     1      -4.533  13.845   4.526  1.00  0.00     0.060 A 
BRANCH  80  81
ATOM     81  S   UNL     1      -4.165  13.924   6.293  1.00  0.00     0.124 S 
ATOM     82  O   UNL     1      -3.947  15.352   6.484  1.00  0.00    -0.237 OA
ATOM     83  O   UNL     1      -5.382  13.378   6.884  1.00  0.00    -0.237 OA
ATOM     84  O   UNL     1      -2.981  13.080   6.425  1.00  0.00    -0.744 OA
ENDBRANCH  80  81
ENDBRANCH  48  73
BRANCH  60  85
ATOM     85  C   UNL     1      -6.215  18.467  -3.179  1.00  0.00     0.058 A 
ATOM     86  C   UNL     1      -5.026  19.205  -3.073  1.00  0.00     0.135 A 
ATOM     87  C   UNL     1      -7.417  19.177  -3.329  1.00  0.00     0.135 A 
ATOM     88  F   UNL     1      -3.850  18.575  -2.921  1.00  0.00    -0.206 F 
ATOM     89  C   UNL     1      -5.031  20.596  -3.095  1.00  0.00     0.059 A 
ATOM     90  C   UNL     1      -7.443  20.567  -3.382  1.00  0.00     0.059 A 
ATOM     91  F   UNL     1      -8.582  18.519  -3.445  1.00  0.00    -0.206 F 
ATOM     92  C   UNL     1      -6.245  21.268  -3.252  1.00  0.00     0.060 A 
BRANCH  92  93
ATOM     93  S   UNL     1      -6.234  23.072  -3.316  1.00  0.00     0.124 S 
ATOM     94  O   UNL     1      -5.996  23.414  -1.917  1.00  0.00    -0.237 OA
ATOM     95  O   UNL     1      -5.131  23.346  -4.232  1.00  0.00    -0.237 OA
ATOM     96  O   UNL     1      -7.561  23.403  -3.826  1.00  0.00    -0.744 OA
ENDBRANCH  92  93
ENDBRANCH  60  85
ENDBRANCH  34  35
ENDBRANCH  26  29
ENDBRANCH  24  25
ENDBRANCH   1  24
TORSDOF 16
