REMARK SMILES C[C@@H](C(=O)NCCCNC(=O)c1ccc(-c2c3nc(c(-c4c(F)cc(S(=O)(=O)[O-])cc4F)c4ccc([nH]4)c(-c4c(F)cc(S(=O)(=O)[O-])cc4F)c4nc(c(-c5c(F)cc(S(=O)(=O)[O-])cc5F)c5ccc2[nH]5)C=C4)C=C3)cc1)c1ccc2c3cc(Cl)ccc3n(C(=O)c3ccc(Cl)cc3)c2c1
REMARK SMILES IDX 7 1 6 2 5 3 3 4 4 5 2 7 1 8 78 9 79 10 100 11 80 12 99 13
REMARK SMILES IDX 81 14 89 15 82 16 88 17 83 18 87 19 84 20 86 21 85 22 90 23
REMARK SMILES IDX 91 24 92 25 93 26 98 27 94 28 97 29 95 30 96 31 8 32 9 33
REMARK SMILES IDX 10 34 11 36 12 37 13 38 77 39 14 40 76 41 15 42 16 43 17 44
REMARK SMILES IDX 70 45 18 46 75 47 69 48 71 49 19 50 74 51 68 52 67 53 20 55
REMARK SMILES IDX 54 56 33 57 53 58 34 59 37 60 52 61 72 62 35 63 36 64 51 66
REMARK SMILES IDX 73 67 38 68 21 69 22 70 31 71 23 72 24 73 30 74 32 75 25 76
REMARK SMILES IDX 26 77 27 78 28 79 29 80 55 81 56 82 65 83 57 84 58 85 64 86
REMARK SMILES IDX 66 87 59 88 60 89 61 90 62 91 63 92 39 93 40 94 49 95 41 96
REMARK SMILES IDX 42 97 48 98 50 99 43 100 44 101 45 102 46 103 47 104
REMARK H PARENT 5 6 9 35 71 54 37 65
REMARK Flexibility Score: inf
ROOT
ATOM      1  C   UNL     1       4.311  -0.013   1.372  1.00  0.00     0.042 C 
ENDROOT
BRANCH   1   2
ATOM      2  C   UNL     1       3.447  -1.238   1.662  1.00  0.00     0.117 C 
BRANCH   2   3
ATOM      3  N   UNL     1       2.381  -0.912   2.587  1.00  0.00    -0.356 N 
ATOM      4  C   UNL     1       1.087  -0.561   2.334  1.00  0.00     0.227 C 
ATOM      5  O   UNL     1       0.427  -0.144   3.288  1.00  0.00    -0.274 OA
ATOM      6  H   UNL     1       2.627  -0.949   3.540  1.00  0.00     0.163 HD
BRANCH   4   7
ATOM      7  C   UNL     1       0.514  -0.742   0.920  1.00  0.00     0.105 C 
ATOM      8  C   UNL     1       1.066   0.274  -0.085  1.00  0.00     0.023 C 
BRANCH   7   9
ATOM      9  C   UNL     1      -1.011  -0.731   0.930  1.00  0.00    -0.034 A 
ATOM     10  C   UNL     1      -1.739   0.449   0.773  1.00  0.00     0.005 A 
ATOM     11  C   UNL     1      -1.694  -1.940   1.143  1.00  0.00     0.032 A 
ATOM     12  C   UNL     1      -3.130   0.425   0.702  1.00  0.00     0.011 A 
ATOM     13  C   UNL     1      -3.104  -1.947   1.170  1.00  0.00     0.057 A 
ATOM     14  C   UNL     1      -3.817  -0.792   0.878  1.00  0.00     0.008 A 
ATOM     15  N   UNL     1      -4.019  -2.979   1.449  1.00  0.00    -0.276 N 
ATOM     16  C   UNL     1      -5.189  -1.135   0.850  1.00  0.00     0.009 A 
ATOM     17  C   UNL     1      -5.315  -2.450   1.321  1.00  0.00     0.057 A 
ATOM     18  C   UNL     1      -6.334  -0.377   0.527  1.00  0.00     0.031 A 
ATOM     19  C   UNL     1      -6.593  -2.951   1.643  1.00  0.00     0.029 A 
ATOM     20  C   UNL     1      -7.592  -0.911   0.770  1.00  0.00     0.041 A 
ATOM     21  C   UNL     1      -7.721  -2.164   1.353  1.00  0.00     0.023 A 
ATOM     22  Cl  UNL     1      -8.990   0.017   0.387  1.00  0.00    -0.084 Cl
BRANCH  15  23
ATOM     23  C   UNL     1      -3.607  -4.280   1.857  1.00  0.00     0.262 C 
ATOM     24  O   UNL     1      -2.490  -4.351   2.376  1.00  0.00    -0.268 OA
BRANCH  23  25
ATOM     25  C   UNL     1      -4.293  -5.598   1.713  1.00  0.00     0.040 A 
ATOM     26  C   UNL     1      -3.739  -6.678   2.437  1.00  0.00     0.015 A 
ATOM     27  C   UNL     1      -5.319  -5.866   0.804  1.00  0.00     0.015 A 
ATOM     28  C   UNL     1      -4.195  -7.985   2.265  1.00  0.00     0.021 A 
ATOM     29  C   UNL     1      -5.801  -7.178   0.655  1.00  0.00     0.021 A 
ATOM     30  C   UNL     1      -5.232  -8.230   1.376  1.00  0.00     0.041 A 
ATOM     31  Cl  UNL     1      -5.787  -9.841   1.140  1.00  0.00    -0.084 Cl
ENDBRANCH  23  25
ENDBRANCH  15  23
ENDBRANCH   7   9
ENDBRANCH   4   7
ENDBRANCH   2   3
ENDBRANCH   1   2
BRANCH   1  32
ATOM     32  C   UNL     1       5.045   0.518   2.598  1.00  0.00     0.118 C 
BRANCH  32  33
ATOM     33  N   UNL     1       6.002  -0.443   3.125  1.00  0.00    -0.352 N 
ATOM     34  C   UNL     1       7.362  -0.333   3.273  1.00  0.00     0.251 C 
ATOM     35  H   UNL     1       5.616  -1.299   3.420  1.00  0.00     0.163 HD
ATOM     36  O   UNL     1       8.025  -1.333   3.525  1.00  0.00    -0.269 OA
BRANCH  34  37
ATOM     37  C   UNL     1       8.022   0.981   3.115  1.00  0.00     0.039 A 
ATOM     38  C   UNL     1       9.235   1.048   2.425  1.00  0.00     0.014 A 
ATOM     39  C   UNL     1       7.460   2.138   3.661  1.00  0.00     0.014 A 
ATOM     40  C   UNL     1       9.856   2.285   2.238  1.00  0.00     0.010 A 
ATOM     41  C   UNL     1       8.036   3.378   3.401  1.00  0.00     0.010 A 
ATOM     42  C   UNL     1       9.245   3.464   2.696  1.00  0.00    -0.014 A 
BRANCH  42  43
ATOM     43  C   UNL     1       9.860   4.795   2.458  1.00  0.00     0.031 A 
ATOM     44  C   UNL     1      10.291   5.646   3.622  1.00  0.00     0.074 A 
ATOM     45  C   UNL     1       9.970   5.263   1.199  1.00  0.00     0.049 A 
ATOM     46  N   UNL     1      10.777   6.861   3.622  1.00  0.00    -0.248 NA
ATOM     47  C   UNL     1      10.130   5.065   4.965  1.00  0.00     0.031 C 
ATOM     48  C   UNL     1       9.547   4.549  -0.008  1.00  0.00     0.029 A 
ATOM     49  N   UNL     1      10.460   6.454   0.724  1.00  0.00    -0.354 N 
ATOM     50  C   UNL     1      10.965   7.194   4.958  1.00  0.00     0.074 A 
ATOM     51  C   UNL     1      10.486   6.076   5.742  1.00  0.00     0.031 C 
ATOM     52  C   UNL     1       9.814   5.307  -1.084  1.00  0.00     0.029 A 
ATOM     53  C   UNL     1      10.385   6.576  -0.643  1.00  0.00     0.049 A 
ATOM     54  H   UNL     1      10.829   7.155   1.308  1.00  0.00     0.167 HD
ATOM     55  C   UNL     1      11.507   8.319   5.484  1.00  0.00     0.037 A 
ATOM     56  C   UNL     1      10.727   7.599  -1.451  1.00  0.00     0.037 A 
ATOM     57  C   UNL     1      11.995   9.419   4.693  1.00  0.00     0.049 A 
ATOM     58  C   UNL     1      11.315   8.844  -0.846  1.00  0.00     0.074 A 
ATOM     59  C   UNL     1      12.612  10.580   5.124  1.00  0.00     0.029 A 
ATOM     60  N   UNL     1      11.916   9.499   3.310  1.00  0.00    -0.354 N 
ATOM     61  N   UNL     1      11.545   9.118   0.417  1.00  0.00    -0.248 NA
ATOM     62  C   UNL     1      11.697   9.918  -1.773  1.00  0.00     0.031 C 
ATOM     63  C   UNL     1      12.856  11.386   4.008  1.00  0.00     0.029 A 
ATOM     64  C   UNL     1      12.450  10.701   2.873  1.00  0.00     0.049 A 
ATOM     65  H   UNL     1      11.537   8.804   2.725  1.00  0.00     0.167 HD
ATOM     66  C   UNL     1      12.124  10.382   0.433  1.00  0.00     0.074 A 
ATOM     67  C   UNL     1      12.220  10.813  -0.946  1.00  0.00     0.031 C 
ATOM     68  C   UNL     1      12.543  11.117   1.494  1.00  0.00     0.037 A 
BRANCH  55  69
ATOM     69  C   UNL     1      11.595   8.416   6.984  1.00  0.00     0.058 A 
ATOM     70  C   UNL     1      12.458   7.595   7.730  1.00  0.00     0.135 A 
ATOM     71  C   UNL     1      10.825   9.358   7.685  1.00  0.00     0.135 A 
ATOM     72  F   UNL     1      13.208   6.666   7.115  1.00  0.00    -0.206 F 
ATOM     73  C   UNL     1      12.525   7.678   9.117  1.00  0.00     0.059 A 
ATOM     74  C   UNL     1      10.901   9.482   9.069  1.00  0.00     0.059 A 
ATOM     75  F   UNL     1       9.985  10.171   7.025  1.00  0.00    -0.206 F 
ATOM     76  C   UNL     1      11.741   8.624   9.778  1.00  0.00     0.060 A 
BRANCH  76  77
ATOM     77  S   UNL     1      11.837   8.714  11.578  1.00  0.00     0.124 S 
ATOM     78  O   UNL     1      11.145   7.490  11.968  1.00  0.00    -0.237 OA
ATOM     79  O   UNL     1      13.277   8.730  11.813  1.00  0.00    -0.237 OA
ATOM     80  O   UNL     1      11.139   9.957  11.895  1.00  0.00    -0.744 OA
ENDBRANCH  76  77
ENDBRANCH  55  69
BRANCH  56  81
ATOM     81  C   UNL     1      10.537   7.475  -2.921  1.00  0.00     0.058 A 
ATOM     82  C   UNL     1      11.637   7.364  -3.785  1.00  0.00     0.135 A 
ATOM     83  C   UNL     1       9.254   7.437  -3.490  1.00  0.00     0.135 A 
ATOM     84  F   UNL     1      12.884   7.402  -3.291  1.00  0.00    -0.206 F 
ATOM     85  C   UNL     1      11.474   7.232  -5.160  1.00  0.00     0.059 A 
ATOM     86  C   UNL     1       9.065   7.277  -4.859  1.00  0.00     0.059 A 
ATOM     87  F   UNL     1       8.168   7.522  -2.707  1.00  0.00    -0.206 F 
ATOM     88  C   UNL     1      10.182   7.183  -5.688  1.00  0.00     0.060 A 
BRANCH  88  89
ATOM     89  S   UNL     1       9.983   6.948  -7.467  1.00  0.00     0.124 S 
ATOM     90  O   UNL     1      10.418   8.240  -7.985  1.00  0.00    -0.237 OA
ATOM     91  O   UNL     1      10.873   5.822  -7.728  1.00  0.00    -0.237 OA
ATOM     92  O   UNL     1       8.559   6.658  -7.610  1.00  0.00    -0.744 OA
ENDBRANCH  88  89
ENDBRANCH  56  81
BRANCH  68  93
ATOM     93  C   UNL     1      13.179  12.450   1.209  1.00  0.00     0.058 A 
ATOM     94  C   UNL     1      12.430  13.549   0.759  1.00  0.00     0.135 A 
ATOM     95  C   UNL     1      14.550  12.645   1.444  1.00  0.00     0.135 A 
ATOM     96  F   UNL     1      11.117  13.416   0.512  1.00  0.00    -0.206 F 
ATOM     97  C   UNL     1      13.022  14.787   0.530  1.00  0.00     0.059 A 
ATOM     98  C   UNL     1      15.157  13.882   1.252  1.00  0.00     0.059 A 
ATOM     99  F   UNL     1      15.312  11.631   1.885  1.00  0.00    -0.206 F 
ATOM    100  C   UNL     1      14.386  14.945   0.783  1.00  0.00     0.060 A 
BRANCH 100 101
ATOM    101  S   UNL     1      15.133  16.566   0.516  1.00  0.00     0.124 S 
ATOM    102  O   UNL     1      15.152  16.645  -0.941  1.00  0.00    -0.237 OA
ATOM    103  O   UNL     1      14.193  17.457   1.188  1.00  0.00    -0.237 OA
ATOM    104  O   UNL     1      16.441  16.448   1.155  1.00  0.00    -0.744 OA
ENDBRANCH 100 101
ENDBRANCH  68  93
ENDBRANCH  42  43
ENDBRANCH  34  37
ENDBRANCH  32  33
ENDBRANCH   1  32
TORSDOF 16
