REMARK SMILES Cc1c(Br)c(C)c2c(c1Br)O[C@H](C(F)(F)F)C(C(=O)NCCCNC(=O)c1ccc(-c3c4nc(c(-c5c(F)cc(S(=O)(=O)[O-])cc5F)c5ccc([nH]5)c(-c5c(F)cc(S(=O)(=O)[O-])cc5F)c5nc(c(-c6c(F)cc(S(=O)(=O)[O-])cc6F)c6ccc3[nH]6)C=C5)C=C4)cc1)=C2
REMARK SMILES IDX 23 1 22 2 21 3 20 4 18 5 19 6 17 8 1 9 2 10 3 11 9 12 4 13
REMARK SMILES IDX 5 14 8 15 10 16 6 17 7 18 11 19 93 20 12 21 13 22 14 23
REMARK SMILES IDX 15 24 16 25 24 26 25 27 26 29 27 30 28 31 92 32 29 33 91 34
REMARK SMILES IDX 30 35 31 36 32 37 85 38 33 39 90 40 84 41 86 42 34 43 89 44
REMARK SMILES IDX 83 45 82 46 35 48 69 49 48 50 68 51 49 52 52 53 67 54 87 55
REMARK SMILES IDX 50 56 51 57 66 59 88 60 53 61 36 62 37 63 46 64 38 65 39 66
REMARK SMILES IDX 45 67 47 68 40 69 41 70 42 71 43 72 44 73 70 74 71 75 80 76
REMARK SMILES IDX 72 77 73 78 79 79 81 80 74 81 75 82 76 83 77 84 78 85 54 86
REMARK SMILES IDX 55 87 64 88 56 89 57 90 63 91 65 92 58 93 59 94 60 95 61 96
REMARK SMILES IDX 62 97
REMARK H PARENT 20 7 24 28 86 47 52 58
REMARK Flexibility Score: inf
ROOT
ATOM      1  C   UNL     1      -6.583   7.869   2.256  1.00  0.00     0.118 C 
ENDROOT
BRANCH   1   2
ATOM      2  C   UNL     1      -5.949   6.517   1.954  1.00  0.00     0.042 C 
BRANCH   2   3
ATOM      3  C   UNL     1      -5.303   6.482   0.578  1.00  0.00     0.118 C 
BRANCH   3   4
ATOM      4  N   UNL     1      -4.013   7.155   0.563  1.00  0.00    -0.352 N 
ATOM      5  C   UNL     1      -2.710   6.801   0.481  1.00  0.00     0.251 C 
ATOM      6  O   UNL     1      -1.906   7.738   0.491  1.00  0.00    -0.270 OA
ATOM      7  H   UNL     1      -4.116   8.132   0.632  1.00  0.00     0.163 HD
BRANCH   5   8
ATOM      8  C   UNL     1      -2.209   5.400   0.373  1.00  0.00     0.067 C 
ATOM      9  C   UNL     1       1.177  -0.194   0.010  1.00  0.00     0.047 C 
ATOM     10  C   UNL     1       0.705   1.239   0.091  1.00  0.00    -0.019 A 
ATOM     11  C   UNL     1       1.575   2.350  -0.045  1.00  0.00     0.025 A 
ATOM     12  C   UNL     1      -0.666   1.492   0.286  1.00  0.00     0.064 A 
ATOM     13  Br  UNL     1       3.442   2.038  -0.365  1.00  0.00    -0.050 Br
ATOM     14  C   UNL     1       1.095   3.685   0.041  1.00  0.00    -0.026 A 
ATOM     15  C   UNL     1      -1.151   2.804   0.369  1.00  0.00     0.142 A 
ATOM     16  Br  UNL     1      -1.929   0.053   0.406  1.00  0.00    -0.046 Br
ATOM     17  C   UNL     1       2.003   4.889  -0.087  1.00  0.00     0.046 C 
ATOM     18  C   UNL     1      -0.288   3.901   0.258  1.00  0.00     0.022 A 
ATOM     19  O   UNL     1      -2.489   2.961   0.617  1.00  0.00    -0.474 OA
ATOM     20  C   UNL     1      -0.873   5.242   0.402  1.00  0.00     0.026 C 
ATOM     21  C   UNL     1      -3.095   4.208   0.209  1.00  0.00     0.314 C 
BRANCH  21  22
ATOM     22  C   UNL     1      -3.658   4.073  -1.219  1.00  0.00     0.429 C 
ATOM     23  F   UNL     1      -4.725   3.237  -1.236  1.00  0.00    -0.167 F 
ATOM     24  F   UNL     1      -4.089   5.255  -1.722  1.00  0.00    -0.167 F 
ATOM     25  F   UNL     1      -2.747   3.589  -2.094  1.00  0.00    -0.167 F 
ENDBRANCH  21  22
ENDBRANCH   5   8
ENDBRANCH   3   4
ENDBRANCH   2   3
ENDBRANCH   1   2
BRANCH   1  26
ATOM     26  N   UNL     1      -7.676   8.170   1.334  1.00  0.00    -0.352 N 
ATOM     27  C   UNL     1      -9.033   8.145   1.536  1.00  0.00     0.251 C 
ATOM     28  H   UNL     1      -7.396   8.430   0.427  1.00  0.00     0.163 HD
ATOM     29  O   UNL     1      -9.791   8.138   0.567  1.00  0.00    -0.269 OA
BRANCH  27  30
ATOM     30  C   UNL     1      -9.573   8.129   2.907  1.00  0.00     0.039 A 
ATOM     31  C   UNL     1     -10.689   7.341   3.200  1.00  0.00     0.014 A 
ATOM     32  C   UNL     1      -8.987   8.916   3.901  1.00  0.00     0.014 A 
ATOM     33  C   UNL     1     -11.175   7.298   4.508  1.00  0.00     0.010 A 
ATOM     34  C   UNL     1      -9.405   8.792   5.218  1.00  0.00     0.010 A 
ATOM     35  C   UNL     1     -10.515   7.997   5.531  1.00  0.00    -0.014 A 
BRANCH  35  36
ATOM     36  C   UNL     1     -10.987   7.946   6.935  1.00  0.00     0.031 A 
ATOM     37  C   UNL     1     -11.456   9.208   7.607  1.00  0.00     0.074 A 
ATOM     38  C   UNL     1     -10.935   6.784   7.614  1.00  0.00     0.049 A 
ATOM     39  N   UNL     1     -11.834   9.391   8.845  1.00  0.00    -0.248 NA
ATOM     40  C   UNL     1     -11.473  10.433   6.789  1.00  0.00     0.031 C 
ATOM     41  C   UNL     1     -10.456   5.509   7.075  1.00  0.00     0.029 A 
ATOM     42  N   UNL     1     -11.286   6.486   8.906  1.00  0.00    -0.354 N 
ATOM     43  C   UNL     1     -12.126  10.745   8.953  1.00  0.00     0.074 A 
ATOM     44  C   UNL     1     -11.813  11.352   7.680  1.00  0.00     0.031 C 
ATOM     45  C   UNL     1     -10.579   4.559   8.016  1.00  0.00     0.029 A 
ATOM     46  C   UNL     1     -11.104   5.163   9.236  1.00  0.00     0.049 A 
ATOM     47  H   UNL     1     -11.635   7.155   9.537  1.00  0.00     0.167 HD
ATOM     48  C   UNL     1     -12.643  11.416  10.009  1.00  0.00     0.037 A 
ATOM     49  C   UNL     1     -11.335   4.514  10.394  1.00  0.00     0.037 A 
ATOM     50  C   UNL     1     -12.979  10.795  11.262  1.00  0.00     0.049 A 
ATOM     51  C   UNL     1     -11.892   5.285  11.560  1.00  0.00     0.074 A 
ATOM     52  C   UNL     1     -13.550  11.372  12.381  1.00  0.00     0.029 A 
ATOM     53  N   UNL     1     -12.779   9.454  11.558  1.00  0.00    -0.354 N 
ATOM     54  N   UNL     1     -12.207   6.557  11.630  1.00  0.00    -0.248 NA
ATOM     55  C   UNL     1     -12.125   4.536  12.802  1.00  0.00     0.031 C 
ATOM     56  C   UNL     1     -13.654  10.391  13.371  1.00  0.00     0.029 A 
ATOM     57  C   UNL     1     -13.196   9.190  12.851  1.00  0.00     0.049 A 
ATOM     58  H   UNL     1     -12.398   8.789  10.940  1.00  0.00     0.167 HD
ATOM     59  C   UNL     1     -12.696   6.757  12.916  1.00  0.00     0.074 A 
ATOM     60  C   UNL     1     -12.649   5.471  13.584  1.00  0.00     0.031 C 
ATOM     61  C   UNL     1     -13.142   7.900  13.494  1.00  0.00     0.037 A 
BRANCH  48  62
ATOM     62  C   UNL     1     -12.896  12.889   9.846  1.00  0.00     0.058 A 
ATOM     63  C   UNL     1     -13.915  13.370   9.008  1.00  0.00     0.135 A 
ATOM     64  C   UNL     1     -12.143  13.831  10.566  1.00  0.00     0.135 A 
ATOM     65  F   UNL     1     -14.652  12.515   8.280  1.00  0.00    -0.206 F 
ATOM     66  C   UNL     1     -14.165  14.731   8.871  1.00  0.00     0.059 A 
ATOM     67  C   UNL     1     -12.395  15.197  10.467  1.00  0.00     0.059 A 
ATOM     68  F   UNL     1     -11.153  13.428  11.377  1.00  0.00    -0.206 F 
ATOM     69  C   UNL     1     -13.402  15.637   9.609  1.00  0.00     0.060 A 
BRANCH  69  70
ATOM     70  S   UNL     1     -13.756  17.398   9.432  1.00  0.00     0.124 S 
ATOM     71  O   UNL     1     -13.295  17.653   8.070  1.00  0.00    -0.237 OA
ATOM     72  O   UNL     1     -15.201  17.444   9.630  1.00  0.00    -0.237 OA
ATOM     73  O   UNL     1     -12.960  18.014  10.488  1.00  0.00    -0.744 OA
ENDBRANCH  69  70
ENDBRANCH  48  62
BRANCH  49  74
ATOM     74  C   UNL     1     -11.075   3.053  10.488  1.00  0.00     0.058 A 
ATOM     75  C   UNL     1     -12.137   2.140  10.577  1.00  0.00     0.135 A 
ATOM     76  C   UNL     1      -9.771   2.535  10.457  1.00  0.00     0.135 A 
ATOM     77  F   UNL     1     -13.402   2.586  10.616  1.00  0.00    -0.206 F 
ATOM     78  C   UNL     1     -11.916   0.768  10.639  1.00  0.00     0.059 A 
ATOM     79  C   UNL     1      -9.525   1.166  10.493  1.00  0.00     0.059 A 
ATOM     80  F   UNL     1      -8.720   3.365  10.355  1.00  0.00    -0.206 F 
ATOM     81  C   UNL     1     -10.606   0.290  10.590  1.00  0.00     0.060 A 
BRANCH  81  82
ATOM     82  S   UNL     1     -10.338  -1.496  10.612  1.00  0.00     0.124 S 
ATOM     83  O   UNL     1     -10.724  -1.835  11.977  1.00  0.00    -0.237 OA
ATOM     84  O   UNL     1     -11.242  -1.951   9.561  1.00  0.00    -0.237 OA
ATOM     85  O   UNL     1      -8.917  -1.627  10.307  1.00  0.00    -0.744 OA
ENDBRANCH  81  82
ENDBRANCH  49  74
BRANCH  61  86
ATOM     86  C   UNL     1     -13.629   7.818  14.914  1.00  0.00     0.058 A 
ATOM     87  C   UNL     1     -12.737   7.668  15.986  1.00  0.00     0.135 A 
ATOM     88  C   UNL     1     -14.993   7.976  15.208  1.00  0.00     0.135 A 
ATOM     89  F   UNL     1     -11.424   7.507  15.757  1.00  0.00    -0.206 F 
ATOM     90  C   UNL     1     -13.182   7.665  17.303  1.00  0.00     0.059 A 
ATOM     91  C   UNL     1     -15.457   8.005  16.519  1.00  0.00     0.059 A 
ATOM     92  F   UNL     1     -15.885   8.134  14.218  1.00  0.00    -0.206 F 
ATOM     93  C   UNL     1     -14.544   7.841  17.560  1.00  0.00     0.060 A 
BRANCH  93  94
ATOM     94  S   UNL     1     -15.096   7.886  19.277  1.00  0.00     0.124 S 
ATOM     95  O   UNL     1     -14.917   6.495  19.680  1.00  0.00    -0.237 OA
ATOM     96  O   UNL     1     -14.172   8.844  19.876  1.00  0.00    -0.237 OA
ATOM     97  O   UNL     1     -16.481   8.337  19.179  1.00  0.00    -0.744 OA
ENDBRANCH  93  94
ENDBRANCH  61  86
ENDBRANCH  35  36
ENDBRANCH  27  30
ENDBRANCH   1  26
TORSDOF 14
