REMARK SMILES CCN1C(=O)CC[C@H](C(=O)NCCCNC(=O)c2ccc(-c3c4nc(c(-c5c(F)cc(S(=O)(=O)[O-])cc5F)c5ccc([nH]5)c(-c5c(F)cc(S(=O)(=O)[O-])cc5F)c5nc(c(-c6c(F)cc(S(=O)(=O)[O-])cc6F)c6ccc3[nH]6)C=C5)C=C4)cc2)[C@@H]1c1ccc(OC)cc1
REMARK SMILES IDX 13 1 12 2 11 3 9 4 10 5 8 7 3 8 4 9 84 10 5 11 6 12 7 13
REMARK SMILES IDX 2 14 1 15 85 16 86 17 92 18 87 19 91 20 88 21 89 22 90 23
REMARK SMILES IDX 14 24 15 25 16 26 17 28 18 29 19 30 83 31 20 32 82 33 21 34
REMARK SMILES IDX 22 35 23 36 76 37 24 38 81 39 75 40 77 41 25 42 80 43 74 44
REMARK SMILES IDX 73 45 26 47 60 48 39 49 59 50 40 51 43 52 58 53 78 54 41 55
REMARK SMILES IDX 42 56 57 58 79 59 44 60 27 61 28 62 37 63 29 64 30 65 36 66
REMARK SMILES IDX 38 67 31 68 32 69 33 70 34 71 35 72 61 73 62 74 71 75 63 76
REMARK SMILES IDX 64 77 70 78 72 79 65 80 66 81 67 82 68 83 69 84 45 85 46 86
REMARK SMILES IDX 55 87 47 88 48 89 54 90 56 91 49 92 50 93 51 94 52 95 53 96
REMARK H PARENT 11 6 15 27 77 46 43 57
REMARK Flexibility Score: inf
ROOT
ATOM      1  C   UNL     1      -0.710  -4.032   5.596  1.00  0.00     0.042 C 
ENDROOT
BRANCH   1   2
ATOM      2  C   UNL     1       0.017  -3.094   4.673  1.00  0.00     0.117 C 
BRANCH   2   3
ATOM      3  N   UNL     1       1.462  -3.143   4.771  1.00  0.00    -0.356 N 
ATOM      4  C   UNL     1       2.381  -2.998   3.779  1.00  0.00     0.225 C 
ATOM      5  O   UNL     1       3.535  -2.702   4.104  1.00  0.00    -0.275 OA
ATOM      6  H   UNL     1       1.825  -3.301   5.672  1.00  0.00     0.163 HD
BRANCH   4   7
ATOM      7  C   UNL     1       2.029  -3.201   2.311  1.00  0.00     0.106 C 
ATOM      8  N   UNL     1       1.010  -2.302   0.190  1.00  0.00    -0.335 N 
ATOM      9  C   UNL     1       0.672  -3.586  -0.230  1.00  0.00     0.223 C 
ATOM     10  C   UNL     1       1.428  -1.977   1.579  1.00  0.00     0.128 C 
ATOM     11  O   UNL     1       0.076  -3.794  -1.289  1.00  0.00    -0.275 OA
ATOM     12  C   UNL     1       1.173  -4.768   0.569  1.00  0.00     0.101 C 
ATOM     13  C   UNL     1       1.318  -4.524   2.049  1.00  0.00     0.026 C 
BRANCH   8  14
ATOM     14  C   UNL     1       0.660  -1.226  -0.751  1.00  0.00     0.117 C 
ATOM     15  C   UNL     1       1.225   0.161  -0.491  1.00  0.00     0.027 C 
ENDBRANCH   8  14
BRANCH  10  16
ATOM     16  C   UNL     1       0.368  -1.161   2.324  1.00  0.00    -0.024 A 
ATOM     17  C   UNL     1      -1.009  -1.331   2.105  1.00  0.00     0.010 A 
ATOM     18  C   UNL     1       0.768  -0.194   3.271  1.00  0.00     0.010 A 
ATOM     19  C   UNL     1      -1.946  -0.599   2.842  1.00  0.00     0.047 A 
ATOM     20  C   UNL     1      -0.175   0.531   4.015  1.00  0.00     0.047 A 
ATOM     21  C   UNL     1      -1.537   0.308   3.821  1.00  0.00     0.118 A 
BRANCH  21  22
ATOM     22  O   UNL     1      -2.551   0.905   4.513  1.00  0.00    -0.497 OA
ATOM     23  C   UNL     1      -2.223   1.441   5.792  1.00  0.00     0.278 C 
ENDBRANCH  21  22
ENDBRANCH  10  16
ENDBRANCH   4   7
ENDBRANCH   2   3
ENDBRANCH   1   2
BRANCH   1  24
ATOM     24  C   UNL     1      -0.591  -3.604   7.043  1.00  0.00     0.118 C 
BRANCH  24  25
ATOM     25  N   UNL     1      -1.065  -2.240   7.294  1.00  0.00    -0.352 N 
ATOM     26  C   UNL     1      -2.069  -1.796   8.117  1.00  0.00     0.251 C 
ATOM     27  H   UNL     1      -0.590  -1.536   6.796  1.00  0.00     0.163 HD
ATOM     28  O   UNL     1      -2.401  -0.614   8.129  1.00  0.00    -0.269 OA
BRANCH  26  29
ATOM     29  C   UNL     1      -2.753  -2.759   8.984  1.00  0.00     0.039 A 
ATOM     30  C   UNL     1      -4.144  -2.728   9.090  1.00  0.00     0.014 A 
ATOM     31  C   UNL     1      -2.000  -3.717   9.662  1.00  0.00     0.014 A 
ATOM     32  C   UNL     1      -4.781  -3.700   9.853  1.00  0.00     0.010 A 
ATOM     33  C   UNL     1      -2.640  -4.771  10.275  1.00  0.00     0.010 A 
ATOM     34  C   UNL     1      -4.030  -4.738  10.430  1.00  0.00    -0.014 A 
BRANCH  34  35
ATOM     35  C   UNL     1      -4.649  -5.750  11.306  1.00  0.00     0.031 A 
ATOM     36  C   UNL     1      -4.182  -5.842  12.735  1.00  0.00     0.074 A 
ATOM     37  C   UNL     1      -5.550  -6.609  10.799  1.00  0.00     0.049 A 
ATOM     38  N   UNL     1      -4.490  -6.719  13.651  1.00  0.00    -0.248 NA
ATOM     39  C   UNL     1      -3.185  -4.846  13.175  1.00  0.00     0.031 C 
ATOM     40  C   UNL     1      -6.012  -6.634   9.409  1.00  0.00     0.029 A 
ATOM     41  N   UNL     1      -6.234  -7.632  11.396  1.00  0.00    -0.354 N 
ATOM     42  C   UNL     1      -3.701  -6.402  14.751  1.00  0.00     0.074 A 
ATOM     43  C   UNL     1      -2.839  -5.312  14.363  1.00  0.00     0.031 C 
ATOM     44  C   UNL     1      -6.933  -7.600   9.270  1.00  0.00     0.029 A 
ATOM     45  C   UNL     1      -7.093  -8.286  10.547  1.00  0.00     0.049 A 
ATOM     46  H   UNL     1      -6.121  -7.876  12.343  1.00  0.00     0.167 HD
ATOM     47  C   UNL     1      -3.725  -6.947  15.988  1.00  0.00     0.037 A 
ATOM     48  C   UNL     1      -7.918  -9.322  10.787  1.00  0.00     0.037 A 
ATOM     49  C   UNL     1      -4.635  -7.995  16.360  1.00  0.00     0.049 A 
ATOM     50  C   UNL     1      -7.971  -9.876  12.184  1.00  0.00     0.074 A 
ATOM     51  C   UNL     1      -4.809  -8.592  17.593  1.00  0.00     0.029 A 
ATOM     52  N   UNL     1      -5.538  -8.594  15.489  1.00  0.00    -0.354 N 
ATOM     53  N   UNL     1      -7.258  -9.537  13.233  1.00  0.00    -0.248 NA
ATOM     54  C   UNL     1      -8.952 -10.936  12.436  1.00  0.00     0.031 C 
ATOM     55  C   UNL     1      -5.786  -9.584  17.458  1.00  0.00     0.029 A 
ATOM     56  C   UNL     1      -6.266  -9.562  16.156  1.00  0.00     0.049 A 
ATOM     57  H   UNL     1      -5.643  -8.363  14.538  1.00  0.00     0.167 HD
ATOM     58  C   UNL     1      -7.727 -10.318  14.282  1.00  0.00     0.074 A 
ATOM     59  C   UNL     1      -8.793 -11.137  13.737  1.00  0.00     0.031 C 
ATOM     60  C   UNL     1      -7.323 -10.355  15.578  1.00  0.00     0.037 A 
BRANCH  47  61
ATOM     61  C   UNL     1      -2.748  -6.415  17.003  1.00  0.00     0.058 A 
ATOM     62  C   UNL     1      -2.817  -5.096  17.487  1.00  0.00     0.135 A 
ATOM     63  C   UNL     1      -1.712  -7.230  17.488  1.00  0.00     0.135 A 
ATOM     64  F   UNL     1      -3.771  -4.261  17.044  1.00  0.00    -0.206 F 
ATOM     65  C   UNL     1      -1.872  -4.593  18.376  1.00  0.00     0.059 A 
ATOM     66  C   UNL     1      -0.777  -6.759  18.406  1.00  0.00     0.059 A 
ATOM     67  F   UNL     1      -1.590  -8.495  17.058  1.00  0.00    -0.206 F 
ATOM     68  C   UNL     1      -0.854  -5.433  18.828  1.00  0.00     0.060 A 
BRANCH  68  69
ATOM     69  S   UNL     1       0.369  -4.764  19.975  1.00  0.00     0.124 S 
ATOM     70  O   UNL     1       1.149  -3.897  19.096  1.00  0.00    -0.237 OA
ATOM     71  O   UNL     1      -0.466  -4.082  20.958  1.00  0.00    -0.237 OA
ATOM     72  O   UNL     1       1.064  -5.951  20.462  1.00  0.00    -0.744 OA
ENDBRANCH  68  69
ENDBRANCH  47  61
BRANCH  48  73
ATOM     73  C   UNL     1      -8.782  -9.846   9.697  1.00  0.00     0.058 A 
ATOM     74  C   UNL     1     -10.168  -9.628   9.706  1.00  0.00     0.135 A 
ATOM     75  C   UNL     1      -8.237 -10.528   8.598  1.00  0.00     0.135 A 
ATOM     76  F   UNL     1     -10.738  -8.978  10.732  1.00  0.00    -0.206 F 
ATOM     77  C   UNL     1     -10.985 -10.079   8.674  1.00  0.00     0.059 A 
ATOM     78  C   UNL     1      -9.029 -10.965   7.541  1.00  0.00     0.059 A 
ATOM     79  F   UNL     1      -6.913 -10.739   8.527  1.00  0.00    -0.206 F 
ATOM     80  C   UNL     1     -10.404 -10.743   7.592  1.00  0.00     0.060 A 
BRANCH  80  81
ATOM     81  S   UNL     1     -11.466 -11.268   6.229  1.00  0.00     0.124 S 
ATOM     82  O   UNL     1     -12.201 -12.371   6.838  1.00  0.00    -0.237 OA
ATOM     83  O   UNL     1     -12.236 -10.058   5.958  1.00  0.00    -0.237 OA
ATOM     84  O   UNL     1     -10.514 -11.643   5.187  1.00  0.00    -0.744 OA
ENDBRANCH  80  81
ENDBRANCH  48  73
BRANCH  60  85
ATOM     85  C   UNL     1      -8.076 -11.274  16.497  1.00  0.00     0.058 A 
ATOM     86  C   UNL     1      -7.964 -12.670  16.409  1.00  0.00     0.135 A 
ATOM     87  C   UNL     1      -8.903 -10.741  17.499  1.00  0.00     0.135 A 
ATOM     88  F   UNL     1      -7.185 -13.229  15.469  1.00  0.00    -0.206 F 
ATOM     89  C   UNL     1      -8.686 -13.508  17.251  1.00  0.00     0.059 A 
ATOM     90  C   UNL     1      -9.605 -11.559  18.375  1.00  0.00     0.059 A 
ATOM     91  F   UNL     1      -9.029  -9.412  17.638  1.00  0.00    -0.206 F 
ATOM     92  C   UNL     1      -9.508 -12.942  18.228  1.00  0.00     0.060 A 
BRANCH  92  93
ATOM     93  S   UNL     1     -10.445 -14.038  19.310  1.00  0.00     0.124 S 
ATOM     94  O   UNL     1     -11.492 -14.511  18.410  1.00  0.00    -0.237 OA
ATOM     95  O   UNL     1      -9.444 -15.028  19.695  1.00  0.00    -0.237 OA
ATOM     96  O   UNL     1     -10.891 -13.155  20.384  1.00  0.00    -0.744 OA
ENDBRANCH  92  93
ENDBRANCH  60  85
ENDBRANCH  34  35
ENDBRANCH  26  29
ENDBRANCH  24  25
ENDBRANCH   1  24
TORSDOF 16
