REMARK SMILES COCc1cc(SCC(=O)NCCCNC(=O)c2ccc(-c3c4nc(c(-c5c(F)cc(S(=O)(=O)[O-])cc5F)c5ccc([nH]5)c(-c5c(F)cc(S(=O)(=O)[O-])cc5F)c5nc(c(-c6c(F)cc(S(=O)(=O)[O-])cc6F)c6ccc3[nH]6)C=C5)C=C4)cc2)nc(-c2cccnc2)n1
REMARK SMILES IDX 12 1 11 2 9 3 10 4 8 6 7 7 6 8 4 9 5 10 92 11 85 12 84 13
REMARK SMILES IDX 3 14 2 15 1 16 86 17 87 18 91 19 88 20 90 21 89 22 13 23
REMARK SMILES IDX 14 24 15 25 16 26 17 28 18 29 19 30 83 31 20 32 82 33 21 34
REMARK SMILES IDX 22 35 23 36 76 37 24 38 81 39 75 40 77 41 25 42 80 43 74 44
REMARK SMILES IDX 73 45 26 47 60 48 39 49 59 50 40 51 43 52 58 53 78 54 41 55
REMARK SMILES IDX 42 56 57 58 79 59 44 60 27 61 28 62 37 63 29 64 30 65 36 66
REMARK SMILES IDX 38 67 31 68 32 69 33 70 34 71 35 72 61 73 62 74 71 75 63 76
REMARK SMILES IDX 64 77 70 78 72 79 65 80 66 81 67 82 68 83 69 84 45 85 46 86
REMARK SMILES IDX 55 87 47 88 48 89 54 90 56 91 49 92 50 93 51 94 52 95 53 96
REMARK H PARENT 11 5 15 27 77 46 43 57
REMARK Flexibility Score: inf
ROOT
ATOM      1  C   UNL     1      -0.467  -0.116  -8.556  1.00  0.00     0.117 C 
ENDROOT
BRANCH   1   2
ATOM      2  N   UNL     1      -0.294  -1.179  -7.584  1.00  0.00    -0.355 N 
ATOM      3  C   UNL     1      -0.995  -1.444  -6.450  1.00  0.00     0.230 C 
ATOM      4  O   UNL     1      -0.621  -2.395  -5.756  1.00  0.00    -0.274 OA
ATOM      5  H   UNL     1       0.442  -1.804  -7.776  1.00  0.00     0.163 HD
BRANCH   3   6
ATOM      6  C   UNL     1      -2.239  -0.661  -6.082  1.00  0.00     0.176 C 
BRANCH   6   7
ATOM      7  S   UNL     1      -1.953   1.062  -5.580  1.00  0.00    -0.096 SA
BRANCH   7   8
ATOM      8  C   UNL     1      -0.758   0.993  -4.263  1.00  0.00     0.101 A 
ATOM      9  C   UNL     1       0.632  -0.022  -2.666  1.00  0.00     0.071 A 
ATOM     10  C   UNL     1      -0.400  -0.144  -3.574  1.00  0.00     0.062 A 
ATOM     11  N   UNL     1       1.224   1.161  -2.408  1.00  0.00    -0.230 NA
ATOM     12  C   UNL     1       0.731   2.239  -3.035  1.00  0.00     0.162 A 
ATOM     13  N   UNL     1      -0.231   2.198  -3.969  1.00  0.00    -0.222 NA
BRANCH   9  14
ATOM     14  C   UNL     1       1.100  -1.209  -1.859  1.00  0.00     0.215 C 
BRANCH  14  15
ATOM     15  O   UNL     1       0.474  -1.275  -0.572  1.00  0.00    -0.378 OA
ATOM     16  C   UNL     1       0.948  -0.269   0.320  1.00  0.00     0.195 C 
ENDBRANCH  14  15
ENDBRANCH   9  14
BRANCH  12  17
ATOM     17  C   UNL     1       1.173   3.537  -2.538  1.00  0.00     0.038 A 
ATOM     18  C   UNL     1       0.275   4.580  -2.270  1.00  0.00     0.015 A 
ATOM     19  C   UNL     1       2.508   3.777  -2.219  1.00  0.00     0.123 A 
ATOM     20  C   UNL     1       0.727   5.772  -1.705  1.00  0.00     0.021 A 
ATOM     21  N   UNL     1       2.981   4.926  -1.672  1.00  0.00    -0.264 NA
ATOM     22  C   UNL     1       2.078   5.898  -1.431  1.00  0.00     0.111 A 
ENDBRANCH  12  17
ENDBRANCH   7   8
ENDBRANCH   6   7
ENDBRANCH   3   6
ENDBRANCH   1   2
BRANCH   1  23
ATOM     23  C   UNL     1       0.644   0.926  -8.459  1.00  0.00     0.042 C 
BRANCH  23  24
ATOM     24  C   UNL     1       2.043   0.386  -8.754  1.00  0.00     0.118 C 
BRANCH  24  25
ATOM     25  N   UNL     1       2.185  -0.108 -10.117  1.00  0.00    -0.352 N 
ATOM     26  C   UNL     1       3.061   0.265 -11.105  1.00  0.00     0.251 C 
ATOM     27  H   UNL     1       1.554  -0.821 -10.369  1.00  0.00     0.163 HD
ATOM     28  O   UNL     1       2.892  -0.162 -12.249  1.00  0.00    -0.269 OA
BRANCH  26  29
ATOM     29  C   UNL     1       4.187   1.181 -10.818  1.00  0.00     0.039 A 
ATOM     30  C   UNL     1       4.495   2.183 -11.742  1.00  0.00     0.014 A 
ATOM     31  C   UNL     1       4.959   1.041  -9.661  1.00  0.00     0.014 A 
ATOM     32  C   UNL     1       5.533   3.081 -11.477  1.00  0.00     0.010 A 
ATOM     33  C   UNL     1       5.942   1.983  -9.362  1.00  0.00     0.010 A 
ATOM     34  C   UNL     1       6.244   3.011 -10.268  1.00  0.00    -0.014 A 
BRANCH  34  35
ATOM     35  C   UNL     1       7.306   3.998  -9.937  1.00  0.00     0.031 A 
ATOM     36  C   UNL     1       8.729   3.546  -9.745  1.00  0.00     0.074 A 
ATOM     37  C   UNL     1       6.978   5.293  -9.746  1.00  0.00     0.049 A 
ATOM     38  N   UNL     1       9.776   4.243  -9.383  1.00  0.00    -0.248 NA
ATOM     39  C   UNL     1       9.008   2.118  -9.965  1.00  0.00     0.031 C 
ATOM     40  C   UNL     1       5.628   5.848  -9.858  1.00  0.00     0.029 A 
ATOM     41  N   UNL     1       7.753   6.374  -9.406  1.00  0.00    -0.354 N 
ATOM     42  C   UNL     1      10.830   3.339  -9.315  1.00  0.00     0.074 A 
ATOM     43  C   UNL     1      10.286   2.034  -9.623  1.00  0.00     0.031 C 
ATOM     44  C   UNL     1       5.672   7.167  -9.610  1.00  0.00     0.029 A 
ATOM     45  C   UNL     1       7.042   7.546  -9.280  1.00  0.00     0.049 A 
ATOM     46  H   UNL     1       8.725   6.317  -9.266  1.00  0.00     0.167 HD
ATOM     47  C   UNL     1      12.136   3.577  -9.043  1.00  0.00     0.037 A 
ATOM     48  C   UNL     1       7.445   8.783  -8.928  1.00  0.00     0.037 A 
ATOM     49  C   UNL     1      12.675   4.882  -8.759  1.00  0.00     0.049 A 
ATOM     50  C   UNL     1       8.900   9.021  -8.625  1.00  0.00     0.074 A 
ATOM     51  C   UNL     1      13.993   5.236  -8.527  1.00  0.00     0.029 A 
ATOM     52  N   UNL     1      11.927   6.047  -8.662  1.00  0.00    -0.354 N 
ATOM     53  N   UNL     1       9.895   8.166  -8.630  1.00  0.00    -0.248 NA
ATOM     54  C   UNL     1       9.291  10.394  -8.276  1.00  0.00     0.031 C 
ATOM     55  C   UNL     1      14.035   6.604  -8.241  1.00  0.00     0.029 A 
ATOM     56  C   UNL     1      12.753   7.116  -8.354  1.00  0.00     0.049 A 
ATOM     57  H   UNL     1      10.953   6.105  -8.794  1.00  0.00     0.167 HD
ATOM     58  C   UNL     1      11.033   8.903  -8.317  1.00  0.00     0.074 A 
ATOM     59  C   UNL     1      10.604  10.275  -8.139  1.00  0.00     0.031 C 
ATOM     60  C   UNL     1      12.316   8.481  -8.191  1.00  0.00     0.037 A 
BRANCH  47  61
ATOM     61  C   UNL     1      13.076   2.401  -9.040  1.00  0.00     0.058 A 
ATOM     62  C   UNL     1      13.416   1.722 -10.222  1.00  0.00     0.135 A 
ATOM     63  C   UNL     1      13.678   1.970  -7.846  1.00  0.00     0.135 A 
ATOM     64  F   UNL     1      12.861   2.082 -11.391  1.00  0.00    -0.206 F 
ATOM     65  C   UNL     1      14.291   0.641 -10.217  1.00  0.00     0.059 A 
ATOM     66  C   UNL     1      14.581   0.910  -7.821  1.00  0.00     0.059 A 
ATOM     67  F   UNL     1      13.392   2.581  -6.686  1.00  0.00    -0.206 F 
ATOM     68  C   UNL     1      14.869   0.242  -9.010  1.00  0.00     0.060 A 
BRANCH  68  69
ATOM     69  S   UNL     1      16.007  -1.159  -9.023  1.00  0.00     0.124 S 
ATOM     70  O   UNL     1      15.092  -2.274  -9.246  1.00  0.00    -0.237 OA
ATOM     71  O   UNL     1      16.891  -0.833 -10.137  1.00  0.00    -0.237 OA
ATOM     72  O   UNL     1      16.624  -1.110  -7.701  1.00  0.00    -0.744 OA
ENDBRANCH  68  69
ENDBRANCH  47  61
BRANCH  48  73
ATOM     73  C   UNL     1       6.459   9.895  -8.861  1.00  0.00     0.058 A 
ATOM     74  C   UNL     1       6.484  10.941  -9.796  1.00  0.00     0.135 A 
ATOM     75  C   UNL     1       5.465   9.931  -7.870  1.00  0.00     0.135 A 
ATOM     76  F   UNL     1       7.418  10.957 -10.759  1.00  0.00    -0.206 F 
ATOM     77  C   UNL     1       5.573  11.991  -9.742  1.00  0.00     0.059 A 
ATOM     78  C   UNL     1       4.525  10.955  -7.812  1.00  0.00     0.059 A 
ATOM     79  F   UNL     1       5.386   8.947  -6.962  1.00  0.00    -0.206 F 
ATOM     80  C   UNL     1       4.594  11.987  -8.747  1.00  0.00     0.060 A 
BRANCH  80  81
ATOM     81  S   UNL     1       3.388  13.331  -8.715  1.00  0.00     0.124 S 
ATOM     82  O   UNL     1       4.202  14.447  -8.247  1.00  0.00    -0.237 OA
ATOM     83  O   UNL     1       2.961  13.393 -10.109  1.00  0.00    -0.237 OA
ATOM     84  O   UNL     1       2.376  12.852  -7.778  1.00  0.00    -0.744 OA
ENDBRANCH  80  81
ENDBRANCH  48  73
BRANCH  60  85
ATOM     85  C   UNL     1      13.363   9.519  -7.891  1.00  0.00     0.058 A 
ATOM     86  C   UNL     1      13.462  10.133  -6.633  1.00  0.00     0.135 A 
ATOM     87  C   UNL     1      14.318   9.862  -8.864  1.00  0.00     0.135 A 
ATOM     88  F   UNL     1      12.573   9.847  -5.669  1.00  0.00    -0.206 F 
ATOM     89  C   UNL     1      14.454  11.069  -6.357  1.00  0.00     0.059 A 
ATOM     90  C   UNL     1      15.336  10.772  -8.600  1.00  0.00     0.059 A 
ATOM     91  F   UNL     1      14.277   9.296 -10.081  1.00  0.00    -0.206 F 
ATOM     92  C   UNL     1      15.389  11.380  -7.347  1.00  0.00     0.060 A 
BRANCH  92  93
ATOM     93  S   UNL     1      16.692  12.569  -6.965  1.00  0.00     0.124 S 
ATOM     94  O   UNL     1      15.950  13.826  -6.956  1.00  0.00    -0.237 OA
ATOM     95  O   UNL     1      17.168  12.105  -5.665  1.00  0.00    -0.237 OA
ATOM     96  O   UNL     1      17.637  12.406  -8.066  1.00  0.00    -0.744 OA
ENDBRANCH  92  93
ENDBRANCH  60  85
ENDBRANCH  34  35
ENDBRANCH  26  29
ENDBRANCH  24  25
ENDBRANCH  23  24
ENDBRANCH   1  23
TORSDOF 18
