REMARK SMILES O=C(NCCCNC(=O)c1[nH]ncc1C[N@H+]1CCC[C@H](C(=O)c2ccc3ccccc3c2)C1)c1ccc(-c2c3nc(c(-c4c(F)cc(S(=O)(=O)[O-])cc4F)c4ccc([nH]4)c(-c4c(F)cc(S(=O)(=O)[O-])cc4F)c4nc(c(-c5c(F)cc(S(=O)(=O)[O-])cc5F)c5ccc2[nH]5)C=C4)C=C3)cc1
REMARK SMILES IDX 5 1 4 2 3 3 1 4 2 5 34 7 35 8 99 9 36 10 98 11 37 12 38 13
REMARK SMILES IDX 39 14 92 15 40 16 97 17 91 18 93 19 41 20 96 21 90 22 89 23
REMARK SMILES IDX 42 25 76 26 55 27 75 28 56 29 59 30 74 31 94 32 57 33 58 34
REMARK SMILES IDX 73 36 95 37 60 38 43 39 44 40 53 41 45 42 46 43 52 44 54 45
REMARK SMILES IDX 47 46 48 47 49 48 50 49 51 50 77 51 78 52 87 53 79 54 80 55
REMARK SMILES IDX 86 56 88 57 81 58 82 59 83 60 84 61 85 62 61 63 62 64 71 65
REMARK SMILES IDX 63 66 64 67 70 68 72 69 65 70 66 71 67 72 68 73 69 74 6 75
REMARK SMILES IDX 7 76 8 77 9 79 10 80 11 81 14 82 12 83 13 85 15 86 16 87
REMARK SMILES IDX 17 88 33 89 18 91 20 92 19 93 21 94 22 95 23 96 24 97 32 98
REMARK SMILES IDX 25 99 31 100 26 101 30 102 27 103 29 104 28 105
REMARK H PARENT 3 6 93 24 59 35 7 78 11 84 16 90
REMARK Flexibility Score: inf
ROOT
ATOM      1  C   UNL     1       4.900  -2.093   0.634  1.00  0.00     0.042 C 
ENDROOT
BRANCH   1   2
ATOM      2  C   UNL     1       4.516  -1.231  -0.559  1.00  0.00     0.118 C 
BRANCH   2   3
ATOM      3  N   UNL     1       3.081  -0.988  -0.634  1.00  0.00    -0.352 N 
ATOM      4  O   UNL     1       1.118   0.029  -0.231  1.00  0.00    -0.269 OA
ATOM      5  C   UNL     1       2.342   0.121  -0.295  1.00  0.00     0.251 C 
ATOM      6  H   UNL     1       2.554  -1.742  -0.984  1.00  0.00     0.163 HD
BRANCH   5   7
ATOM      7  C   UNL     1       3.005   1.408   0.009  1.00  0.00     0.039 A 
ATOM      8  C   UNL     1       4.096   1.847  -0.741  1.00  0.00     0.014 A 
ATOM      9  C   UNL     1       2.502   2.213   1.037  1.00  0.00     0.014 A 
ATOM     10  C   UNL     1       4.788   2.988  -0.357  1.00  0.00     0.010 A 
ATOM     11  C   UNL     1       3.135   3.421   1.353  1.00  0.00     0.010 A 
ATOM     12  C   UNL     1       4.306   3.801   0.681  1.00  0.00    -0.014 A 
BRANCH  12  13
ATOM     13  C   UNL     1       5.021   5.065   0.993  1.00  0.00     0.031 A 
ATOM     14  C   UNL     1       5.683   5.281   2.325  1.00  0.00     0.074 A 
ATOM     15  C   UNL     1       5.116   6.004   0.030  1.00  0.00     0.049 A 
ATOM     16  N   UNL     1       6.390   6.303   2.734  1.00  0.00    -0.248 NA
ATOM     17  C   UNL     1       5.526   4.220   3.332  1.00  0.00     0.031 C 
ATOM     18  C   UNL     1       4.501   5.912  -1.298  1.00  0.00     0.029 A 
ATOM     19  N   UNL     1       5.792   7.196  -0.002  1.00  0.00    -0.354 N 
ATOM     20  C   UNL     1       6.734   6.028   4.052  1.00  0.00     0.074 A 
ATOM     21  C   UNL     1       6.148   4.745   4.379  1.00  0.00     0.031 C 
ATOM     22  C   UNL     1       4.890   6.960  -2.037  1.00  0.00     0.029 A 
ATOM     23  C   UNL     1       5.727   7.830  -1.219  1.00  0.00     0.049 A 
ATOM     24  H   UNL     1       6.276   7.562   0.773  1.00  0.00     0.167 HD
ATOM     25  C   UNL     1       7.473   6.775   4.907  1.00  0.00     0.037 A 
ATOM     26  C   UNL     1       6.278   8.984  -1.637  1.00  0.00     0.037 A 
ATOM     27  C   UNL     1       8.080   8.036   4.566  1.00  0.00     0.049 A 
ATOM     28  C   UNL     1       7.111   9.781  -0.679  1.00  0.00     0.074 A 
ATOM     29  C   UNL     1       8.872   8.854   5.354  1.00  0.00     0.029 A 
ATOM     30  N   UNL     1       7.965   8.661   3.333  1.00  0.00    -0.354 N 
ATOM     31  N   UNL     1       7.429   9.500   0.561  1.00  0.00    -0.248 NA
ATOM     32  C   UNL     1       7.647  11.056  -1.171  1.00  0.00     0.031 C 
ATOM     33  C   UNL     1       9.215   9.986   4.603  1.00  0.00     0.029 A 
ATOM     34  C   UNL     1       8.660   9.860   3.340  1.00  0.00     0.049 A 
ATOM     35  H   UNL     1       7.462   8.305   2.564  1.00  0.00     0.167 HD
ATOM     36  C   UNL     1       8.202  10.565   1.003  1.00  0.00     0.074 A 
ATOM     37  C   UNL     1       8.322  11.485  -0.112  1.00  0.00     0.031 C 
ATOM     38  C   UNL     1       8.757  10.766   2.224  1.00  0.00     0.037 A 
BRANCH  25  39
ATOM     39  C   UNL     1       7.643   6.254   6.306  1.00  0.00     0.058 A 
ATOM     40  C   UNL     1       8.507   5.187   6.598  1.00  0.00     0.135 A 
ATOM     41  C   UNL     1       6.933   6.833   7.371  1.00  0.00     0.135 A 
ATOM     42  F   UNL     1       9.197   4.588   5.614  1.00  0.00    -0.206 F 
ATOM     43  C   UNL     1       8.637   4.690   7.891  1.00  0.00     0.059 A 
ATOM     44  C   UNL     1       7.061   6.364   8.675  1.00  0.00     0.059 A 
ATOM     45  F   UNL     1       6.094   7.856   7.146  1.00  0.00    -0.206 F 
ATOM     46  C   UNL     1       7.901   5.279   8.922  1.00  0.00     0.060 A 
BRANCH  46  47
ATOM     47  S   UNL     1       8.051   4.609  10.592  1.00  0.00     0.124 S 
ATOM     48  O   UNL     1       7.186   3.436  10.511  1.00  0.00    -0.237 OA
ATOM     49  O   UNL     1       9.481   4.334  10.697  1.00  0.00    -0.237 OA
ATOM     50  O   UNL     1       7.562   5.694  11.436  1.00  0.00    -0.744 OA
ENDBRANCH  46  47
ENDBRANCH  25  39
BRANCH  26  51
ATOM     51  C   UNL     1       6.059   9.430  -3.035  1.00  0.00     0.058 A 
ATOM     52  C   UNL     1       7.080   9.326  -3.990  1.00  0.00     0.135 A 
ATOM     53  C   UNL     1       4.804   9.892  -3.460  1.00  0.00     0.135 A 
ATOM     54  F   UNL     1       8.296   8.891  -3.627  1.00  0.00    -0.206 F 
ATOM     55  C   UNL     1       6.862   9.654  -5.324  1.00  0.00     0.059 A 
ATOM     56  C   UNL     1       4.557  10.207  -4.792  1.00  0.00     0.059 A 
ATOM     57  F   UNL     1       3.792   9.990  -2.584  1.00  0.00    -0.206 F 
ATOM     58  C   UNL     1       5.594  10.085  -5.716  1.00  0.00     0.060 A 
BRANCH  58  59
ATOM     59  S   UNL     1       5.285  10.410  -7.466  1.00  0.00     0.124 S 
ATOM     60  O   UNL     1       5.854  11.743  -7.622  1.00  0.00    -0.237 OA
ATOM     61  O   UNL     1       6.013   9.325  -8.118  1.00  0.00    -0.237 OA
ATOM     62  O   UNL     1       3.831  10.324  -7.568  1.00  0.00    -0.744 OA
ENDBRANCH  58  59
ENDBRANCH  26  51
BRANCH  38  63
ATOM     63  C   UNL     1       9.541  12.031   2.410  1.00  0.00     0.058 A 
ATOM     64  C   UNL     1       8.898  13.263   2.604  1.00  0.00     0.135 A 
ATOM     65  C   UNL     1      10.943  12.007   2.420  1.00  0.00     0.135 A 
ATOM     66  F   UNL     1       7.558  13.335   2.593  1.00  0.00    -0.206 F 
ATOM     67  C   UNL     1       9.622  14.437   2.781  1.00  0.00     0.059 A 
ATOM     68  C   UNL     1      11.687  13.166   2.612  1.00  0.00     0.059 A 
ATOM     69  F   UNL     1      11.601  10.850   2.244  1.00  0.00    -0.206 F 
ATOM     70  C   UNL     1      11.017  14.379   2.780  1.00  0.00     0.060 A 
BRANCH  70  71
ATOM     71  S   UNL     1      11.953  15.902   3.032  1.00  0.00     0.124 S 
ATOM     72  O   UNL     1      11.903  16.499   1.701  1.00  0.00    -0.237 OA
ATOM     73  O   UNL     1      11.177  16.585   4.062  1.00  0.00    -0.237 OA
ATOM     74  O   UNL     1      13.264  15.424   3.459  1.00  0.00    -0.744 OA
ENDBRANCH  70  71
ENDBRANCH  38  63
ENDBRANCH  12  13
ENDBRANCH   5   7
ENDBRANCH   2   3
ENDBRANCH   1   2
BRANCH   1  75
ATOM     75  C   UNL     1       4.375  -3.517   0.541  1.00  0.00     0.118 C 
BRANCH  75  76
ATOM     76  N   UNL     1       4.958  -4.245  -0.577  1.00  0.00    -0.351 N 
ATOM     77  C   UNL     1       5.897  -5.244  -0.569  1.00  0.00     0.269 C 
ATOM     78  H   UNL     1       4.630  -3.983  -1.468  1.00  0.00     0.163 HD
ATOM     79  O   UNL     1       6.472  -5.519  -1.618  1.00  0.00    -0.268 OA
BRANCH  77  80
ATOM     80  C   UNL     1       6.197  -5.908   0.666  1.00  0.00     0.131 A 
ATOM     81  N   UNL     1       7.481  -6.185   1.043  1.00  0.00    -0.272 N 
ATOM     82  C   UNL     1       5.388  -6.474   1.645  1.00  0.00     0.057 A 
ATOM     83  N   UNL     1       7.578  -6.755   2.255  1.00  0.00    -0.183 NA
ATOM     84  H   UNL     1       8.263  -5.986   0.479  1.00  0.00     0.190 HD
ATOM     85  C   UNL     1       6.307  -6.919   2.624  1.00  0.00     0.145 A 
BRANCH  82  86
ATOM     86  C   UNL     1       3.895  -6.569   1.654  1.00  0.00     0.303 C 
BRANCH  86  87
ATOM     87  N   UNL     1       3.365  -7.932   1.578  1.00  0.00    -0.330 N 
ATOM     88  C   UNL     1       4.029  -8.780   0.588  1.00  0.00     0.262 C 
ATOM     89  C   UNL     1       3.232  -8.581   2.879  1.00  0.00     0.274 C 
ATOM     90  H   UNL     1       2.414  -7.810   1.229  1.00  0.00     0.348 HD
ATOM     91  C   UNL     1       3.229 -10.055   0.350  1.00  0.00     0.062 C 
ATOM     92  C   UNL     1       2.402  -9.864   2.780  1.00  0.00     0.116 C 
ATOM     93  C   UNL     1       2.869 -10.781   1.645  1.00  0.00     0.023 C 
BRANCH  92  94
ATOM     94  C   UNL     1       0.902  -9.561   2.870  1.00  0.00     0.171 C 
ATOM     95  O   UNL     1       0.279  -9.734   3.919  1.00  0.00    -0.294 OA
BRANCH  94  96
ATOM     96  C   UNL     1       0.167  -8.946   1.742  1.00  0.00     0.019 A 
ATOM     97  C   UNL     1      -0.118  -9.676   0.591  1.00  0.00     0.012 A 
ATOM     98  C   UNL     1      -0.337  -7.649   1.894  1.00  0.00     0.020 A 
ATOM     99  C   UNL     1      -0.822  -9.077  -0.455  1.00  0.00     0.009 A 
ATOM    100  C   UNL     1      -1.074  -7.045   0.860  1.00  0.00    -0.018 A 
ATOM    101  C   UNL     1      -1.300  -7.763  -0.339  1.00  0.00    -0.018 A 
ATOM    102  C   UNL     1      -1.598  -5.748   0.987  1.00  0.00     0.009 A 
ATOM    103  C   UNL     1      -2.013  -7.153  -1.383  1.00  0.00     0.009 A 
ATOM    104  C   UNL     1      -2.316  -5.161  -0.057  1.00  0.00     0.001 A 
ATOM    105  C   UNL     1      -2.517  -5.860  -1.243  1.00  0.00     0.001 A 
ENDBRANCH  94  96
ENDBRANCH  92  94
ENDBRANCH  86  87
ENDBRANCH  82  86
ENDBRANCH  77  80
ENDBRANCH  75  76
ENDBRANCH   1  75
TORSDOF 17
