REMARK SMILES O=C(NCCCNC(=O)[C@@H]1[C@@H](C(=O)Nc2nc(-c3ccc(F)cc3)cs2)[C@H]2C=C[C@@H]1O2)c1ccc(-c2c3nc(c(-c4c(F)cc(S(=O)(=O)[O-])cc4F)c4ccc([nH]4)c(-c4c(F)cc(S(=O)(=O)[O-])cc4F)c4nc(c(-c5c(F)cc(S(=O)(=O)[O-])cc5F)c5ccc2[nH]5)C=C4)C=C3)cc1
REMARK SMILES IDX 5 1 4 2 3 3 1 4 2 5 32 7 33 8 97 9 34 10 96 11 35 12 36 13
REMARK SMILES IDX 37 14 90 15 38 16 95 17 89 18 91 19 39 20 94 21 88 22 87 23
REMARK SMILES IDX 40 25 74 26 53 27 73 28 54 29 57 30 72 31 92 32 55 33 56 34
REMARK SMILES IDX 71 36 93 37 58 38 41 39 42 40 51 41 43 42 44 43 50 44 52 45
REMARK SMILES IDX 45 46 46 47 47 48 48 49 49 50 75 51 76 52 85 53 77 54 78 55
REMARK SMILES IDX 84 56 86 57 79 58 80 59 81 60 82 61 83 62 59 63 60 64 69 65
REMARK SMILES IDX 61 66 62 67 68 68 70 69 63 70 64 71 65 72 66 73 67 74 6 75
REMARK SMILES IDX 7 76 8 77 9 79 10 80 11 81 30 82 27 83 29 84 31 85 28 86
REMARK SMILES IDX 12 87 13 88 14 89 15 91 16 92 26 93 17 94 25 95 18 96 19 97
REMARK SMILES IDX 24 98 20 99 23 100 21 101 22 102
REMARK H PARENT 3 6 91 24 57 35 7 78 14 90
REMARK Flexibility Score: inf
ROOT
ATOM      1  C   UNL     1       5.172  -0.462  -2.044  1.00  0.00     0.042 C 
ENDROOT
BRANCH   1   2
ATOM      2  C   UNL     1       4.714   0.660  -1.132  1.00  0.00     0.118 C 
BRANCH   2   3
ATOM      3  N   UNL     1       3.270   0.649  -0.919  1.00  0.00    -0.352 N 
ATOM      4  O   UNL     1       1.293   0.128   0.013  1.00  0.00    -0.269 OA
ATOM      5  C   UNL     1       2.512   0.213   0.141  1.00  0.00     0.251 C 
ATOM      6  H   UNL     1       2.747   1.019  -1.666  1.00  0.00     0.163 HD
BRANCH   5   7
ATOM      7  C   UNL     1       3.163  -0.173   1.411  1.00  0.00     0.039 A 
ATOM      8  C   UNL     1       4.235   0.568   1.900  1.00  0.00     0.014 A 
ATOM      9  C   UNL     1       2.699  -1.282   2.128  1.00  0.00     0.014 A 
ATOM     10  C   UNL     1       4.973   0.088   2.969  1.00  0.00     0.010 A 
ATOM     11  C   UNL     1       3.364  -1.686   3.292  1.00  0.00     0.010 A 
ATOM     12  C   UNL     1       4.532  -1.025   3.701  1.00  0.00    -0.014 A 
BRANCH  12  13
ATOM     13  C   UNL     1       5.289  -1.408   4.920  1.00  0.00     0.031 A 
ATOM     14  C   UNL     1       5.979  -2.739   5.028  1.00  0.00     0.074 A 
ATOM     15  C   UNL     1       5.426  -0.485   5.895  1.00  0.00     0.049 A 
ATOM     16  N   UNL     1       6.723  -3.197   6.003  1.00  0.00    -0.248 NA
ATOM     17  C   UNL     1       5.816  -3.683   3.910  1.00  0.00     0.031 C 
ATOM     18  C   UNL     1       4.802   0.844   5.887  1.00  0.00     0.029 A 
ATOM     19  N   UNL     1       6.172  -0.487   7.044  1.00  0.00    -0.354 N 
ATOM     20  C   UNL     1       7.099  -4.482   5.629  1.00  0.00     0.074 A 
ATOM     21  C   UNL     1       6.488  -4.742   4.344  1.00  0.00     0.031 C 
ATOM     22  C   UNL     1       5.271   1.560   6.917  1.00  0.00     0.029 A 
ATOM     23  C   UNL     1       6.156   0.718   7.710  1.00  0.00     0.049 A 
ATOM     24  H   UNL     1       6.671  -1.273   7.363  1.00  0.00     0.167 HD
ATOM     25  C   UNL     1       7.888  -5.356   6.298  1.00  0.00     0.037 A 
ATOM     26  C   UNL     1       6.777   1.103   8.840  1.00  0.00     0.037 A 
ATOM     27  C   UNL     1       8.514  -5.070   7.565  1.00  0.00     0.049 A 
ATOM     28  C   UNL     1       7.633   0.108   9.564  1.00  0.00     0.074 A 
ATOM     29  C   UNL     1       9.321  -5.894   8.331  1.00  0.00     0.029 A 
ATOM     30  N   UNL     1       8.419  -3.863   8.242  1.00  0.00    -0.354 N 
ATOM     31  N   UNL     1       7.937  -1.119   9.214  1.00  0.00    -0.248 NA
ATOM     32  C   UNL     1       8.208   0.535  10.845  1.00  0.00     0.031 C 
ATOM     33  C   UNL     1       9.692  -5.195   9.484  1.00  0.00     0.029 A 
ATOM     34  C   UNL     1       9.146  -3.923   9.420  1.00  0.00     0.049 A 
ATOM     35  H   UNL     1       7.910  -3.080   7.932  1.00  0.00     0.167 HD
ATOM     36  C   UNL     1       8.738  -1.613  10.234  1.00  0.00     0.074 A 
ATOM     37  C   UNL     1       8.894  -0.543  11.200  1.00  0.00     0.031 C 
ATOM     38  C   UNL     1       9.283  -2.846  10.366  1.00  0.00     0.037 A 
BRANCH  25  39
ATOM     39  C   UNL     1       8.126  -6.710   5.690  1.00  0.00     0.058 A 
ATOM     40  C   UNL     1       7.531  -7.855   6.245  1.00  0.00     0.135 A 
ATOM     41  C   UNL     1       9.015  -6.888   4.619  1.00  0.00     0.135 A 
ATOM     42  F   UNL     1       6.667  -7.740   7.266  1.00  0.00    -0.206 F 
ATOM     43  C   UNL     1       7.830  -9.130   5.777  1.00  0.00     0.059 A 
ATOM     44  C   UNL     1       9.315  -8.155   4.122  1.00  0.00     0.059 A 
ATOM     45  F   UNL     1       9.592  -5.825   4.037  1.00  0.00    -0.206 F 
ATOM     46  C   UNL     1       8.730  -9.271   4.720  1.00  0.00     0.060 A 
BRANCH  46  47
ATOM     47  S   UNL     1       9.106 -10.934   4.123  1.00  0.00     0.124 S 
ATOM     48  O   UNL     1       9.903 -11.474   5.219  1.00  0.00    -0.237 OA
ATOM     49  O   UNL     1       7.774 -11.510   3.961  1.00  0.00    -0.237 OA
ATOM     50  O   UNL     1       9.829 -10.691   2.878  1.00  0.00    -0.744 OA
ENDBRANCH  46  47
ENDBRANCH  25  39
BRANCH  26  51
ATOM     51  C   UNL     1       6.597   2.487   9.349  1.00  0.00     0.058 A 
ATOM     52  C   UNL     1       5.356   2.924   9.840  1.00  0.00     0.135 A 
ATOM     53  C   UNL     1       7.651   3.411   9.319  1.00  0.00     0.135 A 
ATOM     54  F   UNL     1       4.313   2.081   9.879  1.00  0.00    -0.206 F 
ATOM     55  C   UNL     1       5.158   4.235  10.255  1.00  0.00     0.059 A 
ATOM     56  C   UNL     1       7.485   4.723   9.755  1.00  0.00     0.059 A 
ATOM     57  F   UNL     1       8.858   3.037   8.867  1.00  0.00    -0.206 F 
ATOM     58  C   UNL     1       6.228   5.129  10.205  1.00  0.00     0.060 A 
BRANCH  58  59
ATOM     59  S   UNL     1       5.956   6.826  10.756  1.00  0.00     0.124 S 
ATOM     60  O   UNL     1       5.217   7.382   9.627  1.00  0.00    -0.237 OA
ATOM     61  O   UNL     1       5.190   6.634  11.983  1.00  0.00    -0.237 OA
ATOM     62  O   UNL     1       7.309   7.340  10.939  1.00  0.00    -0.744 OA
ENDBRANCH  58  59
ENDBRANCH  26  51
BRANCH  38  63
ATOM     63  C   UNL     1      10.102  -3.099  11.597  1.00  0.00     0.058 A 
ATOM     64  C   UNL     1      11.501  -3.169  11.521  1.00  0.00     0.135 A 
ATOM     65  C   UNL     1       9.494  -3.319  12.843  1.00  0.00     0.135 A 
ATOM     66  F   UNL     1      12.127  -2.967  10.351  1.00  0.00    -0.206 F 
ATOM     67  C   UNL     1      12.271  -3.458  12.641  1.00  0.00     0.059 A 
ATOM     68  C   UNL     1      10.247  -3.589  13.980  1.00  0.00     0.059 A 
ATOM     69  F   UNL     1       8.159  -3.247  12.964  1.00  0.00    -0.206 F 
ATOM     70  C   UNL     1      11.635  -3.670  13.865  1.00  0.00     0.060 A 
BRANCH  70  71
ATOM     71  S   UNL     1      12.650  -4.018  15.317  1.00  0.00     0.124 S 
ATOM     72  O   UNL     1      13.044  -5.402  15.080  1.00  0.00    -0.237 OA
ATOM     73  O   UNL     1      13.714  -3.025  15.198  1.00  0.00    -0.237 OA
ATOM     74  O   UNL     1      11.729  -3.807  16.430  1.00  0.00    -0.744 OA
ENDBRANCH  70  71
ENDBRANCH  38  63
ENDBRANCH  12  13
ENDBRANCH   5   7
ENDBRANCH   2   3
ENDBRANCH   1   2
BRANCH   1  75
ATOM     75  C   UNL     1       4.669  -0.314  -3.466  1.00  0.00     0.117 C 
BRANCH  75  76
ATOM     76  N   UNL     1       5.242   0.833  -4.151  1.00  0.00    -0.356 N 
ATOM     77  C   UNL     1       5.757   0.991  -5.394  1.00  0.00     0.227 C 
ATOM     78  H   UNL     1       5.258   1.653  -3.607  1.00  0.00     0.163 HD
ATOM     79  O   UNL     1       6.062   2.147  -5.718  1.00  0.00    -0.275 OA
BRANCH  77  80
ATOM     80  C   UNL     1       6.066  -0.139  -6.355  1.00  0.00     0.127 C 
ATOM     81  C   UNL     1       5.019  -1.255  -6.552  1.00  0.00     0.127 C 
ATOM     82  C   UNL     1       7.293  -0.916  -5.840  1.00  0.00     0.155 C 
ATOM     83  C   UNL     1       5.889  -2.509  -6.305  1.00  0.00     0.155 C 
ATOM     84  C   UNL     1       7.906  -1.684  -6.971  1.00  0.00     0.004 C 
ATOM     85  O   UNL     1       6.655  -2.033  -5.159  1.00  0.00    -0.365 OA
ATOM     86  C   UNL     1       7.039  -2.665  -7.258  1.00  0.00     0.004 C 
BRANCH  81  87
ATOM     87  C   UNL     1       4.312  -1.285  -7.895  1.00  0.00     0.233 C 
ATOM     88  O   UNL     1       4.806  -1.812  -8.895  1.00  0.00    -0.274 OA
ATOM     89  N   UNL     1       3.026  -0.835  -7.993  1.00  0.00    -0.302 N 
ATOM     90  H   UNL     1       2.513  -1.140  -8.776  1.00  0.00     0.172 HD
BRANCH  89  91
ATOM     91  C   UNL     1       2.374  -0.010  -7.124  1.00  0.00     0.189 A 
ATOM     92  N   UNL     1       2.877   0.780  -6.214  1.00  0.00    -0.220 NA
ATOM     93  S   UNL     1       0.678   0.014  -7.302  1.00  0.00    -0.105 S 
ATOM     94  C   UNL     1       1.853   1.489  -5.605  1.00  0.00     0.084 A 
ATOM     95  C   UNL     1       0.578   1.145  -6.011  1.00  0.00     0.097 A 
BRANCH  94  96
ATOM     96  C   UNL     1       2.124   2.563  -4.664  1.00  0.00     0.001 A 
ATOM     97  C   UNL     1       2.974   3.611  -5.053  1.00  0.00     0.013 A 
ATOM     98  C   UNL     1       1.548   2.585  -3.387  1.00  0.00     0.013 A 
ATOM     99  C   UNL     1       3.233   4.671  -4.183  1.00  0.00     0.040 A 
ATOM    100  C   UNL     1       1.830   3.636  -2.508  1.00  0.00     0.040 A 
ATOM    101  C   UNL     1       2.662   4.672  -2.917  1.00  0.00     0.123 A 
ATOM    102  F   UNL     1       2.917   5.686  -2.079  1.00  0.00    -0.207 F 
ENDBRANCH  94  96
ENDBRANCH  89  91
ENDBRANCH  81  87
ENDBRANCH  77  80
ENDBRANCH  75  76
ENDBRANCH   1  75
TORSDOF 16
