REMARK SMILES C[C@@]1(C(=O)NCCCNC(=O)c2ccc(-c3c4nc(c(-c5c(F)cc(S(=O)(=O)[O-])cc5F)c5ccc([nH]5)c(-c5c(F)cc(S(=O)(=O)[O-])cc5F)c5nc(c(-c6c(F)cc(S(=O)(=O)[O-])cc6F)c6ccc3[nH]6)C=C5)C=C4)cc2)COC[C@H]1NC(=O)C[C@@H]1C[NH2+]CCO1
REMARK SMILES IDX 7 1 6 2 5 3 3 4 4 5 2 7 1 8 78 9 81 10 79 11 80 12 82 13
REMARK SMILES IDX 83 14 84 16 85 17 86 18 87 19 91 20 88 21 90 22 89 23 8 26
REMARK SMILES IDX 9 27 10 28 11 30 12 31 13 32 77 33 14 34 76 35 15 36 16 37
REMARK SMILES IDX 17 38 70 39 18 40 75 41 69 42 71 43 19 44 74 45 68 46 67 47
REMARK SMILES IDX 20 49 54 50 33 51 53 52 34 53 37 54 52 55 72 56 35 57 36 58
REMARK SMILES IDX 51 60 73 61 38 62 21 63 22 64 31 65 23 66 24 67 30 68 32 69
REMARK SMILES IDX 25 70 26 71 27 72 28 73 29 74 55 75 56 76 65 77 57 78 58 79
REMARK SMILES IDX 64 80 66 81 59 82 60 83 61 84 62 85 63 86 39 87 40 88 49 89
REMARK SMILES IDX 41 90 42 91 48 92 50 93 43 94 44 95 45 96 46 97 47 98
REMARK H PARENT 5 6 82 15 88 24 88 25 9 29 71 48 37 59
REMARK Flexibility Score: inf
ROOT
ATOM      1  C   UNL     1      -1.123  -2.080   4.616  1.00  0.00     0.042 C 
ENDROOT
BRANCH   1   2
ATOM      2  C   UNL     1      -1.170  -2.606   3.184  1.00  0.00     0.117 C 
BRANCH   2   3
ATOM      3  N   UNL     1      -1.486  -1.570   2.221  1.00  0.00    -0.355 N 
ATOM      4  C   UNL     1      -0.771  -0.906   1.283  1.00  0.00     0.230 C 
ATOM      5  O   UNL     1      -1.452  -0.147   0.578  1.00  0.00    -0.274 OA
ATOM      6  H   UNL     1      -2.428  -1.286   2.258  1.00  0.00     0.163 HD
BRANCH   4   7
ATOM      7  C   UNL     1       0.747  -1.060   1.031  1.00  0.00     0.092 C 
ATOM      8  C   UNL     1       1.079  -0.140  -0.174  1.00  0.00     0.026 C 
ATOM      9  C   UNL     1       1.089  -2.494   0.642  1.00  0.00     0.179 C 
ATOM     10  C   UNL     1       1.618  -0.773   2.265  1.00  0.00     0.125 C 
ATOM     11  O   UNL     1       1.840  -3.106   1.693  1.00  0.00    -0.378 OA
ATOM     12  C   UNL     1       2.175  -2.134   2.684  1.00  0.00     0.186 C 
BRANCH  10  13
ATOM     13  N   UNL     1       2.741   0.141   2.002  1.00  0.00    -0.350 N 
ATOM     14  C   UNL     1       3.012   1.373   2.512  1.00  0.00     0.223 C 
ATOM     15  H   UNL     1       3.401  -0.192   1.352  1.00  0.00     0.163 HD
ATOM     16  O   UNL     1       3.997   1.976   2.084  1.00  0.00    -0.275 OA
BRANCH  14  17
ATOM     17  C   UNL     1       2.120   1.984   3.566  1.00  0.00     0.138 C 
BRANCH  17  18
ATOM     18  C   UNL     1       0.840   2.541   2.943  1.00  0.00     0.182 C 
ATOM     19  C   UNL     1       0.567   3.984   3.428  1.00  0.00     0.293 C 
ATOM     20  O   UNL     1      -0.250   1.675   3.323  1.00  0.00    -0.366 OA
ATOM     21  N   UNL     1      -0.713   4.516   2.918  1.00  0.00    -0.342 N 
ATOM     22  C   UNL     1      -1.496   2.159   2.803  1.00  0.00     0.222 C 
ATOM     23  C   UNL     1      -1.788   3.580   3.295  1.00  0.00     0.289 C 
ATOM     24  H   UNL     1      -0.670   4.601   1.903  1.00  0.00     0.346 HD
ATOM     25  H   UNL     1      -0.893   5.437   3.317  1.00  0.00     0.346 HD
ENDBRANCH  17  18
ENDBRANCH  14  17
ENDBRANCH  10  13
ENDBRANCH   4   7
ENDBRANCH   2   3
ENDBRANCH   1   2
BRANCH   1  26
ATOM     26  C   UNL     1      -2.478  -1.631   5.164  1.00  0.00     0.118 C 
BRANCH  26  27
ATOM     27  N   UNL     1      -3.447  -2.717   5.211  1.00  0.00    -0.352 N 
ATOM     28  C   UNL     1      -4.027  -3.366   6.271  1.00  0.00     0.251 C 
ATOM     29  H   UNL     1      -3.736  -3.043   4.328  1.00  0.00     0.163 HD
ATOM     30  O   UNL     1      -4.632  -4.416   6.057  1.00  0.00    -0.269 OA
BRANCH  28  31
ATOM     31  C   UNL     1      -3.942  -2.836   7.652  1.00  0.00     0.039 A 
ATOM     32  C   UNL     1      -3.840  -3.745   8.712  1.00  0.00     0.014 A 
ATOM     33  C   UNL     1      -4.051  -1.470   7.924  1.00  0.00     0.014 A 
ATOM     34  C   UNL     1      -3.801  -3.283  10.031  1.00  0.00     0.010 A 
ATOM     35  C   UNL     1      -3.939  -1.005   9.235  1.00  0.00     0.010 A 
ATOM     36  C   UNL     1      -3.826  -1.907  10.304  1.00  0.00    -0.014 A 
BRANCH  36  37
ATOM     37  C   UNL     1      -3.748  -1.398  11.699  1.00  0.00     0.031 A 
ATOM     38  C   UNL     1      -4.905  -0.644  12.301  1.00  0.00     0.074 A 
ATOM     39  C   UNL     1      -2.614  -1.569  12.407  1.00  0.00     0.049 A 
ATOM     40  N   UNL     1      -4.998  -0.074  13.475  1.00  0.00    -0.248 NA
ATOM     41  C   UNL     1      -6.105  -0.489  11.463  1.00  0.00     0.031 C 
ATOM     42  C   UNL     1      -1.407  -2.241  11.920  1.00  0.00     0.029 A 
ATOM     43  N   UNL     1      -2.287  -1.184  13.683  1.00  0.00    -0.354 N 
ATOM     44  C   UNL     1      -6.254   0.521  13.511  1.00  0.00     0.074 A 
ATOM     45  C   UNL     1      -6.870   0.282  12.223  1.00  0.00     0.031 C 
ATOM     46  C   UNL     1      -0.479  -2.237  12.891  1.00  0.00     0.029 A 
ATOM     47  C   UNL     1      -1.011  -1.536  14.056  1.00  0.00     0.049 A 
ATOM     48  H   UNL     1      -2.907  -0.701  14.275  1.00  0.00     0.167 HD
ATOM     49  C   UNL     1      -6.850   1.187  14.530  1.00  0.00     0.037 A 
ATOM     50  C   UNL     1      -0.342  -1.315  15.204  1.00  0.00     0.037 A 
ATOM     51  C   UNL     1      -6.246   1.394  15.821  1.00  0.00     0.049 A 
ATOM     52  C   UNL     1      -1.029  -0.588  16.327  1.00  0.00     0.074 A 
ATOM     53  C   UNL     1      -6.792   2.000  16.940  1.00  0.00     0.029 A 
ATOM     54  N   UNL     1      -4.963   0.999  16.168  1.00  0.00    -0.354 N 
ATOM     55  N   UNL     1      -2.239  -0.084  16.363  1.00  0.00    -0.248 NA
ATOM     56  C   UNL     1      -0.263  -0.405  17.567  1.00  0.00     0.031 C 
ATOM     57  C   UNL     1      -5.825   2.003  17.952  1.00  0.00     0.029 A 
ATOM     58  C   UNL     1      -4.692   1.363  17.478  1.00  0.00     0.049 A 
ATOM     59  H   UNL     1      -4.336   0.529  15.572  1.00  0.00     0.167 HD
ATOM     60  C   UNL     1      -2.388   0.457  17.635  1.00  0.00     0.074 A 
ATOM     61  C   UNL     1      -1.149   0.205  18.343  1.00  0.00     0.031 C 
ATOM     62  C   UNL     1      -3.454   1.103  18.169  1.00  0.00     0.037 A 
BRANCH  49  63
ATOM     63  C   UNL     1      -8.230   1.736  14.292  1.00  0.00     0.058 A 
ATOM     64  C   UNL     1      -9.349   0.893  14.185  1.00  0.00     0.135 A 
ATOM     65  C   UNL     1      -8.444   3.121  14.201  1.00  0.00     0.135 A 
ATOM     66  F   UNL     1      -9.200  -0.439  14.250  1.00  0.00    -0.206 F 
ATOM     67  C   UNL     1     -10.625   1.402  13.963  1.00  0.00     0.059 A 
ATOM     68  C   UNL     1      -9.716   3.653  14.007  1.00  0.00     0.059 A 
ATOM     69  F   UNL     1      -7.412   3.972  14.299  1.00  0.00    -0.206 F 
ATOM     70  C   UNL     1     -10.798   2.784  13.872  1.00  0.00     0.060 A 
BRANCH  70  71
ATOM     71  S   UNL     1     -12.459   3.430  13.582  1.00  0.00     0.124 S 
ATOM     72  O   UNL     1     -12.649   3.114  12.169  1.00  0.00    -0.237 OA
ATOM     73  O   UNL     1     -13.266   2.650  14.518  1.00  0.00    -0.237 OA
ATOM     74  O   UNL     1     -12.334   4.846  13.898  1.00  0.00    -0.744 OA
ENDBRANCH  70  71
ENDBRANCH  49  63
BRANCH  50  75
ATOM     75  C   UNL     1       1.051  -1.812  15.356  1.00  0.00     0.058 A 
ATOM     76  C   UNL     1       1.340  -2.899  16.194  1.00  0.00     0.135 A 
ATOM     77  C   UNL     1       2.115  -1.226  14.654  1.00  0.00     0.135 A 
ATOM     78  F   UNL     1       0.356  -3.489  16.890  1.00  0.00    -0.206 F 
ATOM     79  C   UNL     1       2.636  -3.381  16.342  1.00  0.00     0.059 A 
ATOM     80  C   UNL     1       3.417  -1.704  14.767  1.00  0.00     0.059 A 
ATOM     81  F   UNL     1       1.888  -0.194  13.825  1.00  0.00    -0.206 F 
ATOM     82  C   UNL     1       3.669  -2.777  15.621  1.00  0.00     0.060 A 
BRANCH  82  83
ATOM     83  S   UNL     1       5.340  -3.445  15.776  1.00  0.00     0.124 S 
ATOM     84  O   UNL     1       5.733  -2.951  17.090  1.00  0.00    -0.237 OA
ATOM     85  O   UNL     1       5.107  -4.883  15.677  1.00  0.00    -0.237 OA
ATOM     86  O   UNL     1       6.042  -2.854  14.641  1.00  0.00    -0.744 OA
ENDBRANCH  82  83
ENDBRANCH  50  75
BRANCH  62  87
ATOM     87  C   UNL     1      -3.337   1.562  19.595  1.00  0.00     0.058 A 
ATOM     88  C   UNL     1      -2.546   2.666  19.950  1.00  0.00     0.135 A 
ATOM     89  C   UNL     1      -4.060   0.918  20.612  1.00  0.00     0.135 A 
ATOM     90  F   UNL     1      -1.831   3.312  19.016  1.00  0.00    -0.206 F 
ATOM     91  C   UNL     1      -2.457   3.100  21.268  1.00  0.00     0.059 A 
ATOM     92  C   UNL     1      -4.005   1.351  21.933  1.00  0.00     0.059 A 
ATOM     93  F   UNL     1      -4.839  -0.137  20.323  1.00  0.00    -0.206 F 
ATOM     94  C   UNL     1      -3.190   2.436  22.253  1.00  0.00     0.060 A 
BRANCH  94  95
ATOM     95  S   UNL     1      -3.088   3.026  23.956  1.00  0.00     0.124 S 
ATOM     96  O   UNL     1      -1.780   2.526  24.363  1.00  0.00    -0.237 OA
ATOM     97  O   UNL     1      -3.191   4.473  23.794  1.00  0.00    -0.237 OA
ATOM     98  O   UNL     1      -4.233   2.392  24.603  1.00  0.00    -0.744 OA
ENDBRANCH  94  95
ENDBRANCH  62  87
ENDBRANCH  36  37
ENDBRANCH  28  31
ENDBRANCH  26  27
ENDBRANCH   1  26
TORSDOF 16
