REMARK SMILES CC(C)(CC(=O)NCCCNC(=O)c1ccc(-c2c3nc(c(-c4c(F)cc(S(=O)(=O)[O-])cc4F)c4ccc([nH]4)c(-c4c(F)cc(S(=O)(=O)[O-])cc4F)c4nc(c(-c5c(F)cc(S(=O)(=O)[O-])cc5F)c5ccc2[nH]5)C=C4)C=C3)cc1)CC(=O)Nc1sc2c(c1C#N)CCCCCC2
REMARK SMILES IDX 5 1 6 2 7 3 4 5 2 6 1 7 3 8 80 9 81 10 82 11 83 12 84 14
REMARK SMILES IDX 85 15 88 16 86 17 87 18 89 19 90 20 96 21 95 22 94 23 91 25
REMARK SMILES IDX 92 26 93 27 8 29 9 30 10 31 11 32 12 33 13 35 14 36 15 37
REMARK SMILES IDX 79 38 16 39 78 40 17 41 18 42 19 43 72 44 20 45 77 46 71 47
REMARK SMILES IDX 73 48 21 49 76 50 70 51 69 52 22 54 56 55 35 56 55 57 36 58
REMARK SMILES IDX 39 59 54 60 74 61 37 62 38 63 53 65 75 66 40 67 23 68 24 69
REMARK SMILES IDX 33 70 25 71 26 72 32 73 34 74 27 75 28 76 29 77 30 78 31 79
REMARK SMILES IDX 57 80 58 81 67 82 59 83 60 84 66 85 68 86 61 87 62 88 63 89
REMARK SMILES IDX 64 90 65 91 41 92 42 93 51 94 43 95 44 96 50 97 52 98 45 99
REMARK SMILES IDX 46 100 47 101 48 102 49 103
REMARK H PARENT 7 4 83 13 11 34 73 53 39 64
REMARK Flexibility Score: 90.00
ROOT
ATOM      1  C   UNL     1      -0.864   0.999   0.607  1.00  0.00     0.220 C 
ATOM      2  O   UNL     1      -1.334   2.097   0.330  1.00  0.00    -0.275 OA
ATOM      3  N   UNL     1      -1.241   0.442   1.794  1.00  0.00    -0.356 N 
ATOM      4  H   UNL     1      -2.133   0.680   2.137  1.00  0.00     0.163 HD
ENDROOT
BRANCH   1   5
ATOM      5  C   UNL     1      -0.063   0.146  -0.365  1.00  0.00     0.107 C 
BRANCH   5   6
ATOM      6  C   UNL     1       1.198   0.673  -1.093  1.00  0.00    -0.018 C 
ATOM      7  C   UNL     1       2.312   0.880  -0.045  1.00  0.00     0.012 C 
ATOM      8  C   UNL     1       1.775  -0.444  -2.014  1.00  0.00     0.012 C 
BRANCH   6   9
ATOM      9  C   UNL     1       1.051   1.911  -2.010  1.00  0.00     0.107 C 
BRANCH   9  10
ATOM     10  C   UNL     1      -0.110   2.866  -1.964  1.00  0.00     0.225 C 
ATOM     11  O   UNL     1       0.096   4.013  -1.535  1.00  0.00    -0.275 OA
ATOM     12  N   UNL     1      -1.334   2.650  -2.499  1.00  0.00    -0.317 N 
ATOM     13  H   UNL     1      -1.809   3.504  -2.619  1.00  0.00     0.170 HD
BRANCH  12  14
ATOM     14  C   UNL     1      -2.117   1.606  -2.926  1.00  0.00     0.114 A 
ATOM     15  S   UNL     1      -3.616   2.274  -3.485  1.00  0.00    -0.121 S 
ATOM     16  C   UNL     1      -2.171   0.240  -3.126  1.00  0.00     0.090 A 
ATOM     17  C   UNL     1      -4.228   0.720  -3.866  1.00  0.00     0.011 A 
ATOM     18  C   UNL     1      -3.548  -0.214  -3.110  1.00  0.00    -0.014 A 
BRANCH  16  19
ATOM     19  C   UNL     1      -1.169  -0.758  -3.289  1.00  0.00     0.103 C 
ATOM     20  N   UNL     1      -0.549  -1.729  -3.466  1.00  0.00    -0.192 NA
ENDBRANCH  16  19
BRANCH  17  21
ATOM     21  C   UNL     1      -5.302   0.576  -4.894  1.00  0.00     0.047 C 
BRANCH  21  22
ATOM     22  C   UNL     1      -6.002  -0.777  -4.938  1.00  0.00     0.006 C 
BRANCH  22  23
ATOM     23  C   UNL     1      -6.997  -0.996  -3.804  1.00  0.00     0.000 CG0
ATOM     24  G   UNL     1      -6.469  -0.891  -2.376  1.00  0.00     0.000 G0
ENDBRANCH  22  23
ENDBRANCH  21  22
ENDBRANCH  17  21
BRANCH  18  25
ATOM     25  C   UNL     1      -3.959  -1.623  -2.753  1.00  0.00     0.038 C 
BRANCH  25  26
ATOM     26  C   UNL     1      -5.293  -1.796  -2.013  1.00  0.00     0.005 C 
BRANCH  26  27
ATOM     27  C   UNL     1      -6.469  -0.891  -2.376  1.00  0.00     0.000 CG0
ATOM     28  G   UNL     1      -6.997  -0.996  -3.804  1.00  0.00     0.000 G0
ENDBRANCH  26  27
ENDBRANCH  25  26
ENDBRANCH  18  25
ENDBRANCH  12  14
ENDBRANCH   9  10
ENDBRANCH   6   9
ENDBRANCH   5   6
ENDBRANCH   1   5
BRANCH   3  29
ATOM     29  C   UNL     1      -0.449  -0.467   2.594  1.00  0.00     0.117 C 
BRANCH  29  30
ATOM     30  C   UNL     1       0.757   0.268   3.159  1.00  0.00     0.042 C 
BRANCH  30  31
ATOM     31  C   UNL     1       0.356   1.512   3.938  1.00  0.00     0.118 C 
BRANCH  31  32
ATOM     32  N   UNL     1      -0.369   1.140   5.143  1.00  0.00    -0.352 N 
ATOM     33  C   UNL     1       0.164   0.884   6.381  1.00  0.00     0.251 C 
ATOM     34  H   UNL     1      -1.347   1.064   5.060  1.00  0.00     0.163 HD
ATOM     35  O   UNL     1      -0.432   0.168   7.177  1.00  0.00    -0.269 OA
BRANCH  33  36
ATOM     36  C   UNL     1       1.468   1.486   6.719  1.00  0.00     0.039 A 
ATOM     37  C   UNL     1       2.424   0.742   7.408  1.00  0.00     0.014 A 
ATOM     38  C   UNL     1       1.736   2.801   6.328  1.00  0.00     0.014 A 
ATOM     39  C   UNL     1       3.665   1.318   7.681  1.00  0.00     0.010 A 
ATOM     40  C   UNL     1       3.010   3.320   6.481  1.00  0.00     0.010 A 
ATOM     41  C   UNL     1       3.973   2.604   7.203  1.00  0.00    -0.014 A 
BRANCH  41  42
ATOM     42  C   UNL     1       5.265   3.260   7.509  1.00  0.00     0.031 A 
ATOM     43  C   UNL     1       5.272   4.546   8.295  1.00  0.00     0.074 A 
ATOM     44  C   UNL     1       6.413   2.731   7.045  1.00  0.00     0.049 A 
ATOM     45  N   UNL     1       6.283   5.304   8.633  1.00  0.00    -0.248 NA
ATOM     46  C   UNL     1       3.964   5.070   8.726  1.00  0.00     0.031 C 
ATOM     47  C   UNL     1       6.519   1.517   6.234  1.00  0.00     0.029 A 
ATOM     48  N   UNL     1       7.710   3.146   7.193  1.00  0.00    -0.354 N 
ATOM     49  C   UNL     1       5.730   6.391   9.301  1.00  0.00     0.074 A 
ATOM     50  C   UNL     1       4.295   6.243   9.240  1.00  0.00     0.031 C 
ATOM     51  C   UNL     1       7.815   1.257   6.000  1.00  0.00     0.029 A 
ATOM     52  C   UNL     1       8.627   2.309   6.604  1.00  0.00     0.049 A 
ATOM     53  H   UNL     1       7.962   3.967   7.675  1.00  0.00     0.167 HD
ATOM     54  C   UNL     1       6.361   7.402   9.944  1.00  0.00     0.037 A 
ATOM     55  C   UNL     1       9.971   2.382   6.565  1.00  0.00     0.037 A 
ATOM     56  C   UNL     1       7.792   7.526  10.011  1.00  0.00     0.049 A 
ATOM     57  C   UNL     1      10.653   3.529   7.260  1.00  0.00     0.074 A 
ATOM     58  C   UNL     1       8.545   8.484  10.663  1.00  0.00     0.029 A 
ATOM     59  N   UNL     1       8.687   6.662   9.395  1.00  0.00    -0.354 N 
ATOM     60  N   UNL     1      10.121   4.518   7.939  1.00  0.00    -0.248 NA
ATOM     61  C   UNL     1      12.119   3.567   7.189  1.00  0.00     0.031 C 
ATOM     62  C   UNL     1       9.895   8.230  10.397  1.00  0.00     0.029 A 
ATOM     63  C   UNL     1       9.986   7.077   9.632  1.00  0.00     0.049 A 
ATOM     64  H   UNL     1       8.435   5.870   8.866  1.00  0.00     0.167 HD
ATOM     65  C   UNL     1      11.188   5.277   8.407  1.00  0.00     0.074 A 
ATOM     66  C   UNL     1      12.395   4.626   7.938  1.00  0.00     0.031 C 
ATOM     67  C   UNL     1      11.173   6.407   9.159  1.00  0.00     0.037 A 
BRANCH  54  68
ATOM     68  C   UNL     1       5.497   8.436  10.619  1.00  0.00     0.058 A 
ATOM     69  C   UNL     1       4.682   8.117  11.719  1.00  0.00     0.135 A 
ATOM     70  C   UNL     1       5.466   9.760  10.151  1.00  0.00     0.135 A 
ATOM     71  F   UNL     1       4.657   6.864  12.202  1.00  0.00    -0.206 F 
ATOM     72  C   UNL     1       3.828   9.053  12.293  1.00  0.00     0.059 A 
ATOM     73  C   UNL     1       4.648  10.724  10.735  1.00  0.00     0.059 A 
ATOM     74  F   UNL     1       6.224  10.126   9.106  1.00  0.00    -0.206 F 
ATOM     75  C   UNL     1       3.814  10.354  11.789  1.00  0.00     0.060 A 
BRANCH  75  76
ATOM     76  S   UNL     1       2.680  11.549  12.526  1.00  0.00     0.124 S 
ATOM     77  O   UNL     1       1.392  11.072  12.030  1.00  0.00    -0.237 OA
ATOM     78  O   UNL     1       2.916  11.364  13.954  1.00  0.00    -0.237 OA
ATOM     79  O   UNL     1       3.128  12.826  11.979  1.00  0.00    -0.744 OA
ENDBRANCH  75  76
ENDBRANCH  54  68
BRANCH  55  80
ATOM     80  C   UNL     1      10.753   1.310   5.893  1.00  0.00     0.058 A 
ATOM     81  C   UNL     1      11.532   0.416   6.643  1.00  0.00     0.135 A 
ATOM     82  C   UNL     1      10.716   1.134   4.501  1.00  0.00     0.135 A 
ATOM     83  F   UNL     1      11.603   0.544   7.977  1.00  0.00    -0.206 F 
ATOM     84  C   UNL     1      12.255  -0.607   6.038  1.00  0.00     0.059 A 
ATOM     85  C   UNL     1      11.409   0.103   3.875  1.00  0.00     0.059 A 
ATOM     86  F   UNL     1       9.972   1.951   3.739  1.00  0.00    -0.206 F 
ATOM     87  C   UNL     1      12.183  -0.759   4.653  1.00  0.00     0.060 A 
BRANCH  87  88
ATOM     88  S   UNL     1      13.080  -2.126   3.887  1.00  0.00     0.124 S 
ATOM     89  O   UNL     1      14.464  -1.698   4.048  1.00  0.00    -0.237 OA
ATOM     90  O   UNL     1      12.662  -3.260   4.706  1.00  0.00    -0.237 OA
ATOM     91  O   UNL     1      12.576  -2.133   2.517  1.00  0.00    -0.744 OA
ENDBRANCH  87  88
ENDBRANCH  55  80
BRANCH  67  92
ATOM     92  C   UNL     1      12.502   6.987   9.560  1.00  0.00     0.058 A 
ATOM     93  C   UNL     1      13.346   7.619   8.633  1.00  0.00     0.135 A 
ATOM     94  C   UNL     1      12.909   6.957  10.904  1.00  0.00     0.135 A 
ATOM     95  F   UNL     1      13.008   7.670   7.335  1.00  0.00    -0.206 F 
ATOM     96  C   UNL     1      14.559   8.177   9.021  1.00  0.00     0.059 A 
ATOM     97  C   UNL     1      14.101   7.538  11.319  1.00  0.00     0.059 A 
ATOM     98  F   UNL     1      12.133   6.375  11.833  1.00  0.00    -0.206 F 
ATOM     99  C   UNL     1      14.926   8.136  10.368  1.00  0.00     0.060 A 
BRANCH  99 100
ATOM    100  S   UNL     1      16.486   8.896  10.862  1.00  0.00     0.124 S 
ATOM    101  O   UNL     1      17.458   7.956  10.313  1.00  0.00    -0.237 OA
ATOM    102  O   UNL     1      16.421  10.197  10.203  1.00  0.00    -0.237 OA
ATOM    103  O   UNL     1      16.401   8.933  12.319  1.00  0.00    -0.744 OA
ENDBRANCH  99 100
ENDBRANCH  67  92
ENDBRANCH  41  42
ENDBRANCH  33  36
ENDBRANCH  31  32
ENDBRANCH  30  31
ENDBRANCH  29  30
ENDBRANCH   3  29
TORSDOF 18
