REMARK SMILES CC1(C(=O)N[C@H](C(=O)NCCCNC(=O)c2ccc(-c3c4nc(c(-c5c(F)cc(S(=O)(=O)[O-])cc5F)c5ccc([nH]5)c(-c5c(F)cc(S(=O)(=O)[O-])cc5F)c5nc(c(-c6c(F)cc(S(=O)(=O)[O-])cc6F)c6ccc3[nH]6)C=C5)C=C4)cc2)C2CC2)CCCC1
REMARK SMILES IDX 11 1 10 2 9 3 7 4 8 5 6 7 5 8 3 9 4 10 2 12 1 13 85 14 88 15
REMARK SMILES IDX 86 16 87 17 82 18 83 19 84 20 12 21 13 22 14 23 15 25 16 26
REMARK SMILES IDX 17 27 81 28 18 29 80 30 19 31 20 32 21 33 74 34 22 35 79 36
REMARK SMILES IDX 73 37 75 38 23 39 78 40 72 41 71 42 24 44 58 45 37 46 57 47
REMARK SMILES IDX 38 48 41 49 56 50 76 51 39 52 40 53 55 55 77 56 42 57 25 58
REMARK SMILES IDX 26 59 35 60 27 61 28 62 34 63 36 64 29 65 30 66 31 67 32 68
REMARK SMILES IDX 33 69 59 70 60 71 69 72 61 73 62 74 68 75 70 76 63 77 64 78
REMARK SMILES IDX 65 79 66 80 67 81 43 82 44 83 53 84 45 85 46 86 52 87 54 88
REMARK SMILES IDX 47 89 48 90 49 91 50 92 51 93
REMARK H PARENT 9 6 5 11 13 24 75 43 41 54
REMARK Flexibility Score: inf
ROOT
ATOM      1  C   UNL     1       6.456  -1.168   2.134  1.00  0.00     0.042 C 
ENDROOT
BRANCH   1   2
ATOM      2  C   UNL     1       5.301  -2.015   2.651  1.00  0.00     0.117 C 
BRANCH   2   3
ATOM      3  N   UNL     1       4.077  -1.252   2.789  1.00  0.00    -0.354 N 
ATOM      4  C   UNL     1       2.932  -1.293   2.051  1.00  0.00     0.242 C 
ATOM      5  O   UNL     1       1.951  -0.689   2.497  1.00  0.00    -0.273 OA
ATOM      6  H   UNL     1       4.072  -0.604   3.530  1.00  0.00     0.163 HD
BRANCH   4   7
ATOM      7  C   UNL     1       2.800  -2.214   0.808  1.00  0.00     0.174 C 
BRANCH   7   8
ATOM      8  N   UNL     1       3.916  -2.084  -0.123  1.00  0.00    -0.344 N 
ATOM      9  C   UNL     1       4.167  -1.220  -1.138  1.00  0.00     0.226 C 
ATOM     10  O   UNL     1       5.243  -1.382  -1.722  1.00  0.00    -0.274 OA
ATOM     11  H   UNL     1       4.625  -2.754   0.013  1.00  0.00     0.164 HD
BRANCH   9  12
ATOM     12  C   UNL     1       3.164  -0.149  -1.593  1.00  0.00     0.046 C 
ATOM     13  C   UNL     1       1.976  -0.809  -2.308  1.00  0.00     0.022 C 
ATOM     14  C   UNL     1       3.862   0.842  -2.555  1.00  0.00     0.016 C 
ATOM     15  C   UNL     1       2.730   0.801  -0.471  1.00  0.00     0.016 C 
ATOM     16  C   UNL     1       3.001   2.096  -2.531  1.00  0.00     0.001 C 
ATOM     17  C   UNL     1       2.403   2.143  -1.131  1.00  0.00     0.001 C 
ENDBRANCH   9  12
ENDBRANCH   7   8
BRANCH   7  18
ATOM     18  C   UNL     1       2.619  -3.658   1.251  1.00  0.00     0.021 C 
ATOM     19  C   UNL     1       1.799  -4.604   0.404  1.00  0.00     0.006 C 
ATOM     20  C   UNL     1       3.266  -4.854   0.577  1.00  0.00     0.006 C 
ENDBRANCH   7  18
ENDBRANCH   4   7
ENDBRANCH   2   3
ENDBRANCH   1   2
BRANCH   1  21
ATOM     21  C   UNL     1       6.832  -0.010   3.054  1.00  0.00     0.118 C 
BRANCH  21  22
ATOM     22  N   UNL     1       7.193  -0.454   4.394  1.00  0.00    -0.352 N 
ATOM     23  C   UNL     1       8.329  -0.225   5.124  1.00  0.00     0.251 C 
ATOM     24  H   UNL     1       6.514  -1.006   4.845  1.00  0.00     0.163 HD
ATOM     25  O   UNL     1       8.512  -0.866   6.160  1.00  0.00    -0.269 OA
BRANCH  23  26
ATOM     26  C   UNL     1       9.326   0.772   4.683  1.00  0.00     0.039 A 
ATOM     27  C   UNL     1      10.684   0.495   4.869  1.00  0.00     0.014 A 
ATOM     28  C   UNL     1       8.932   1.999   4.141  1.00  0.00     0.014 A 
ATOM     29  C   UNL     1      11.643   1.432   4.482  1.00  0.00     0.010 A 
ATOM     30  C   UNL     1       9.890   2.897   3.682  1.00  0.00     0.010 A 
ATOM     31  C   UNL     1      11.255   2.634   3.869  1.00  0.00    -0.014 A 
BRANCH  31  32
ATOM     32  C   UNL     1      12.257   3.654   3.469  1.00  0.00     0.031 A 
ATOM     33  C   UNL     1      12.257   5.004   4.138  1.00  0.00     0.074 A 
ATOM     34  C   UNL     1      13.131   3.385   2.480  1.00  0.00     0.049 A 
ATOM     35  N   UNL     1      12.998   6.052   3.888  1.00  0.00    -0.248 NA
ATOM     36  C   UNL     1      11.271   5.213   5.213  1.00  0.00     0.031 C 
ATOM     37  C   UNL     1      13.200   2.129   1.729  1.00  0.00     0.029 A 
ATOM     38  N   UNL     1      14.124   4.155   1.931  1.00  0.00    -0.354 N 
ATOM     39  C   UNL     1      12.559   7.044   4.757  1.00  0.00     0.074 A 
ATOM     40  C   UNL     1      11.449   6.493   5.502  1.00  0.00     0.031 C 
ATOM     41  C   UNL     1      14.199   2.207   0.834  1.00  0.00     0.029 A 
ATOM     42  C   UNL     1      14.817   3.526   0.923  1.00  0.00     0.049 A 
ATOM     43  H   UNL     1      14.323   5.072   2.229  1.00  0.00     0.167 HD
ATOM     44  C   UNL     1      13.054   8.291   4.939  1.00  0.00     0.037 A 
ATOM     45  C   UNL     1      15.835   3.965   0.159  1.00  0.00     0.037 A 
ATOM     46  C   UNL     1      14.182   8.820   4.219  1.00  0.00     0.049 A 
ATOM     47  C   UNL     1      16.378   5.350   0.391  1.00  0.00     0.074 A 
ATOM     48  C   UNL     1      14.789  10.057   4.354  1.00  0.00     0.029 A 
ATOM     49  N   UNL     1      14.880   8.138   3.233  1.00  0.00    -0.354 N 
ATOM     50  N   UNL     1      15.979   6.260   1.248  1.00  0.00    -0.248 NA
ATOM     51  C   UNL     1      17.518   5.765  -0.439  1.00  0.00     0.031 C 
ATOM     52  C   UNL     1      15.835  10.134   3.429  1.00  0.00     0.029 A 
ATOM     53  C   UNL     1      15.909   8.928   2.749  1.00  0.00     0.049 A 
ATOM     54  H   UNL     1      14.675   7.226   2.923  1.00  0.00     0.167 HD
ATOM     55  C   UNL     1      16.842   7.338   1.088  1.00  0.00     0.074 A 
ATOM     56  C   UNL     1      17.788   6.965   0.056  1.00  0.00     0.031 C 
ATOM     57  C   UNL     1      16.855   8.528   1.738  1.00  0.00     0.037 A 
BRANCH  44  58
ATOM     58  C   UNL     1      12.386   9.163   5.968  1.00  0.00     0.058 A 
ATOM     59  C   UNL     1      12.496   8.895   7.342  1.00  0.00     0.135 A 
ATOM     60  C   UNL     1      11.653  10.297   5.580  1.00  0.00     0.135 A 
ATOM     61  F   UNL     1      13.170   7.815   7.769  1.00  0.00    -0.206 F 
ATOM     62  C   UNL     1      11.879   9.700   8.293  1.00  0.00     0.059 A 
ATOM     63  C   UNL     1      11.052  11.133   6.517  1.00  0.00     0.059 A 
ATOM     64  F   UNL     1      11.515  10.601   4.280  1.00  0.00    -0.206 F 
ATOM     65  C   UNL     1      11.158  10.818   7.871  1.00  0.00     0.060 A 
BRANCH  65  66
ATOM     66  S   UNL     1      10.369  11.857   9.118  1.00  0.00     0.124 S 
ATOM     67  O   UNL     1       9.247  11.018   9.528  1.00  0.00    -0.237 OA
ATOM     68  O   UNL     1      11.431  12.020  10.106  1.00  0.00    -0.237 OA
ATOM     69  O   UNL     1      10.013  13.065   8.380  1.00  0.00    -0.744 OA
ENDBRANCH  65  66
ENDBRANCH  44  58
BRANCH  45  70
ATOM     70  C   UNL     1      16.434   3.076  -0.872  1.00  0.00     0.058 A 
ATOM     71  C   UNL     1      17.723   2.548  -0.706  1.00  0.00     0.135 A 
ATOM     72  C   UNL     1      15.734   2.736  -2.040  1.00  0.00     0.135 A 
ATOM     73  F   UNL     1      18.433   2.846   0.393  1.00  0.00    -0.206 F 
ATOM     74  C   UNL     1      18.309   1.737  -1.673  1.00  0.00     0.059 A 
ATOM     75  C   UNL     1      16.289   1.906  -3.010  1.00  0.00     0.059 A 
ATOM     76  F   UNL     1      14.490   3.199  -2.238  1.00  0.00    -0.206 F 
ATOM     77  C   UNL     1      17.584   1.423  -2.823  1.00  0.00     0.060 A 
BRANCH  77  78
ATOM     78  S   UNL     1      18.343   0.346  -4.058  1.00  0.00     0.124 S 
ATOM     79  O   UNL     1      19.314   1.244  -4.673  1.00  0.00    -0.237 OA
ATOM     80  O   UNL     1      18.896  -0.725  -3.234  1.00  0.00    -0.237 OA
ATOM     81  O   UNL     1      17.217  -0.041  -4.902  1.00  0.00    -0.744 OA
ENDBRANCH  77  78
ENDBRANCH  45  70
BRANCH  57  82
ATOM     82  C   UNL     1      17.960   9.490   1.399  1.00  0.00     0.058 A 
ATOM     83  C   UNL     1      17.984  10.195   0.186  1.00  0.00     0.135 A 
ATOM     84  C   UNL     1      18.984   9.741   2.326  1.00  0.00     0.135 A 
ATOM     85  F   UNL     1      17.030   9.988  -0.735  1.00  0.00    -0.206 F 
ATOM     86  C   UNL     1      19.003  11.096  -0.108  1.00  0.00     0.059 A 
ATOM     87  C   UNL     1      19.997  10.657   2.065  1.00  0.00     0.059 A 
ATOM     88  F   UNL     1      19.000   9.101   3.507  1.00  0.00    -0.206 F 
ATOM     89  C   UNL     1      20.005  11.320   0.838  1.00  0.00     0.060 A 
BRANCH  89  90
ATOM     90  S   UNL     1      21.307  12.511   0.457  1.00  0.00     0.124 S 
ATOM     91  O   UNL     1      22.125  11.759  -0.489  1.00  0.00    -0.237 OA
ATOM     92  O   UNL     1      20.555  13.629  -0.104  1.00  0.00    -0.237 OA
ATOM     93  O   UNL     1      21.924  12.768   1.755  1.00  0.00    -0.744 OA
ENDBRANCH  89  90
ENDBRANCH  57  82
ENDBRANCH  31  32
ENDBRANCH  23  26
ENDBRANCH  21  22
ENDBRANCH   1  21
TORSDOF 16
