REMARK SMILES O=C(NCCCNC(=O)c1ccccc1-c1ccc(/C=C2/SC(=S)N(Cc3ccccc3)C2=O)o1)c1ccc(-c2c3nc(c(-c4c(F)cc(S(=O)(=O)[O-])cc4F)c4ccc([nH]4)c(-c4c(F)cc(S(=O)(=O)[O-])cc4F)c4nc(c(-c5c(F)cc(S(=O)(=O)[O-])cc5F)c5ccc2[nH]5)C=C4)C=C3)cc1
REMARK SMILES IDX 5 1 4 2 3 3 1 4 2 5 36 7 37 8 101 9 38 10 100 11 39 12 40 13
REMARK SMILES IDX 41 14 94 15 42 16 99 17 93 18 95 19 43 20 98 21 92 22 91 23
REMARK SMILES IDX 44 25 78 26 57 27 77 28 58 29 61 30 76 31 96 32 59 33 60 34
REMARK SMILES IDX 75 36 97 37 62 38 45 39 46 40 55 41 47 42 48 43 54 44 56 45
REMARK SMILES IDX 49 46 50 47 51 48 52 49 53 50 79 51 80 52 89 53 81 54 82 55
REMARK SMILES IDX 88 56 90 57 83 58 84 59 85 60 86 61 87 62 63 63 64 64 73 65
REMARK SMILES IDX 65 66 66 67 72 68 74 69 67 70 68 71 69 72 70 73 71 74 6 75
REMARK SMILES IDX 7 76 8 77 9 79 10 80 11 81 15 82 12 83 14 84 13 85 16 86
REMARK SMILES IDX 17 87 35 88 18 89 19 90 20 91 21 92 22 93 33 94 23 95 25 96
REMARK SMILES IDX 34 97 24 98 26 99 27 100 28 101 32 102 29 103 31 104 30 105
REMARK H PARENT 3 6 95 24 61 35 7 78
REMARK Flexibility Score: inf
ROOT
ATOM      1  C   UNL     1       5.394   1.922  -0.583  1.00  0.00     0.042 C 
ENDROOT
BRANCH   1   2
ATOM      2  C   UNL     1       4.796   1.026   0.486  1.00  0.00     0.118 C 
BRANCH   2   3
ATOM      3  N   UNL     1       3.337   0.941   0.426  1.00  0.00    -0.352 N 
ATOM      4  O   UNL     1       1.318   0.088  -0.107  1.00  0.00    -0.269 OA
ATOM      5  C   UNL     1       2.522  -0.101   0.041  1.00  0.00     0.251 C 
ATOM      6  H   UNL     1       2.862   1.756   0.705  1.00  0.00     0.163 HD
BRANCH   5   7
ATOM      7  C   UNL     1       3.117  -1.429  -0.226  1.00  0.00     0.039 A 
ATOM      8  C   UNL     1       4.133  -1.908   0.597  1.00  0.00     0.014 A 
ATOM      9  C   UNL     1       2.697  -2.183  -1.325  1.00  0.00     0.014 A 
ATOM     10  C   UNL     1       4.893  -2.990   0.189  1.00  0.00     0.010 A 
ATOM     11  C   UNL     1       3.364  -3.372  -1.643  1.00  0.00     0.010 A 
ATOM     12  C   UNL     1       4.497  -3.763  -0.913  1.00  0.00    -0.014 A 
BRANCH  12  13
ATOM     13  C   UNL     1       5.242  -5.017  -1.197  1.00  0.00     0.031 A 
ATOM     14  C   UNL     1       5.946  -5.240  -2.507  1.00  0.00     0.074 A 
ATOM     15  C   UNL     1       5.314  -5.941  -0.215  1.00  0.00     0.049 A 
ATOM     16  N   UNL     1       6.644  -6.278  -2.893  1.00  0.00    -0.248 NA
ATOM     17  C   UNL     1       5.856  -4.174  -3.517  1.00  0.00     0.031 C 
ATOM     18  C   UNL     1       4.661  -5.830   1.095  1.00  0.00     0.029 A 
ATOM     19  N   UNL     1       5.981  -7.135  -0.145  1.00  0.00    -0.354 N 
ATOM     20  C   UNL     1       7.051  -6.006  -4.194  1.00  0.00     0.074 A 
ATOM     21  C   UNL     1       6.511  -4.709  -4.540  1.00  0.00     0.031 C 
ATOM     22  C   UNL     1       5.010  -6.874   1.856  1.00  0.00     0.029 A 
ATOM     23  C   UNL     1       5.827  -7.778   1.061  1.00  0.00     0.049 A 
ATOM     24  H   UNL     1       6.519  -7.497  -0.885  1.00  0.00     0.167 HD
ATOM     25  C   UNL     1       7.807  -6.774  -5.017  1.00  0.00     0.037 A 
ATOM     26  C   UNL     1       6.260  -8.982   1.476  1.00  0.00     0.037 A 
ATOM     27  C   UNL     1       8.356  -8.055  -4.645  1.00  0.00     0.049 A 
ATOM     28  C   UNL     1       7.071  -9.817   0.530  1.00  0.00     0.074 A 
ATOM     29  C   UNL     1       9.168  -8.890  -5.393  1.00  0.00     0.029 A 
ATOM     30  N   UNL     1       8.149  -8.688  -3.427  1.00  0.00    -0.354 N 
ATOM     31  N   UNL     1       7.468  -9.529  -0.686  1.00  0.00    -0.248 NA
ATOM     32  C   UNL     1       7.486 -11.142   1.006  1.00  0.00     0.031 C 
ATOM     33  C   UNL     1       9.405 -10.052  -4.651  1.00  0.00     0.029 A 
ATOM     34  C   UNL     1       8.793  -9.915  -3.416  1.00  0.00     0.049 A 
ATOM     35  H   UNL     1       7.622  -8.320  -2.681  1.00  0.00     0.167 HD
ATOM     36  C   UNL     1       8.194 -10.632  -1.116  1.00  0.00     0.074 A 
ATOM     37  C   UNL     1       8.203 -11.579  -0.019  1.00  0.00     0.031 C 
ATOM     38  C   UNL     1       8.796 -10.843  -2.312  1.00  0.00     0.037 A 
BRANCH  25  39
ATOM     39  C   UNL     1       8.079  -6.276  -6.411  1.00  0.00     0.058 A 
ATOM     40  C   UNL     1       8.971  -5.222  -6.663  1.00  0.00     0.135 A 
ATOM     41  C   UNL     1       7.512  -6.929  -7.519  1.00  0.00     0.135 A 
ATOM     42  F   UNL     1       9.531  -4.551  -5.644  1.00  0.00    -0.206 F 
ATOM     43  C   UNL     1       9.287  -4.830  -7.962  1.00  0.00     0.059 A 
ATOM     44  C   UNL     1       7.832  -6.571  -8.826  1.00  0.00     0.059 A 
ATOM     45  F   UNL     1       6.651  -7.943  -7.337  1.00  0.00    -0.206 F 
ATOM     46  C   UNL     1       8.718  -5.517  -9.037  1.00  0.00     0.060 A 
BRANCH  46  47
ATOM     47  S   UNL     1       9.173  -5.023 -10.714  1.00  0.00     0.124 S 
ATOM     48  O   UNL     1       8.504  -3.731 -10.829  1.00  0.00    -0.237 OA
ATOM     49  O   UNL     1      10.630  -4.977 -10.640  1.00  0.00    -0.237 OA
ATOM     50  O   UNL     1       8.623  -6.089 -11.545  1.00  0.00    -0.744 OA
ENDBRANCH  46  47
ENDBRANCH  25  39
BRANCH  26  51
ATOM     51  C   UNL     1       5.894  -9.479   2.828  1.00  0.00     0.058 A 
ATOM     52  C   UNL     1       6.865  -9.676   3.819  1.00  0.00     0.135 A 
ATOM     53  C   UNL     1       4.558  -9.764   3.156  1.00  0.00     0.135 A 
ATOM     54  F   UNL     1       8.155  -9.417   3.556  1.00  0.00    -0.206 F 
ATOM     55  C   UNL     1       6.531 -10.167   5.077  1.00  0.00     0.059 A 
ATOM     56  C   UNL     1       4.194 -10.221   4.417  1.00  0.00     0.059 A 
ATOM     57  F   UNL     1       3.585  -9.570   2.251  1.00  0.00    -0.206 F 
ATOM     58  C   UNL     1       5.192 -10.439   5.365  1.00  0.00     0.060 A 
BRANCH  58  59
ATOM     59  S   UNL     1       4.765 -11.064   7.003  1.00  0.00     0.124 S 
ATOM     60  O   UNL     1       5.245 -12.439   6.923  1.00  0.00    -0.237 OA
ATOM     61  O   UNL     1       5.520 -10.173   7.878  1.00  0.00    -0.237 OA
ATOM     62  O   UNL     1       3.315 -10.902   7.056  1.00  0.00    -0.744 OA
ENDBRANCH  58  59
ENDBRANCH  26  51
BRANCH  38  63
ATOM     63  C   UNL     1       9.543 -12.136  -2.480  1.00  0.00     0.058 A 
ATOM     64  C   UNL     1       8.875 -13.364  -2.602  1.00  0.00     0.135 A 
ATOM     65  C   UNL     1      10.945 -12.140  -2.551  1.00  0.00     0.135 A 
ATOM     66  F   UNL     1       7.536 -13.416  -2.529  1.00  0.00    -0.206 F 
ATOM     67  C   UNL     1       9.573 -14.556  -2.759  1.00  0.00     0.059 A 
ATOM     68  C   UNL     1      11.662 -13.316  -2.740  1.00  0.00     0.059 A 
ATOM     69  F   UNL     1      11.632 -10.991  -2.448  1.00  0.00    -0.206 F 
ATOM     70  C   UNL     1      10.967 -14.521  -2.829  1.00  0.00     0.060 A 
BRANCH  70  71
ATOM     71  S   UNL     1      11.860 -16.073  -3.063  1.00  0.00     0.124 S 
ATOM     72  O   UNL     1      11.721 -16.692  -1.749  1.00  0.00    -0.237 OA
ATOM     73  O   UNL     1      11.110 -16.704  -4.144  1.00  0.00    -0.237 OA
ATOM     74  O   UNL     1      13.209 -15.639  -3.413  1.00  0.00    -0.744 OA
ENDBRANCH  70  71
ENDBRANCH  38  63
ENDBRANCH  12  13
ENDBRANCH   5   7
ENDBRANCH   2   3
ENDBRANCH   1   2
BRANCH   1  75
ATOM     75  C   UNL     1       5.007   3.371  -0.411  1.00  0.00     0.118 C 
BRANCH  75  76
ATOM     76  N   UNL     1       5.491   3.970   0.824  1.00  0.00    -0.352 N 
ATOM     77  C   UNL     1       5.952   5.249   1.013  1.00  0.00     0.252 C 
ATOM     78  H   UNL     1       5.487   3.389   1.618  1.00  0.00     0.163 HD
ATOM     79  O   UNL     1       6.278   5.643   2.128  1.00  0.00    -0.269 OA
BRANCH  77  80
ATOM     80  C   UNL     1       6.106   6.140  -0.154  1.00  0.00     0.050 A 
ATOM     81  C   UNL     1       7.417   6.497  -0.491  1.00  0.00     0.014 A 
ATOM     82  C   UNL     1       5.011   6.554  -0.938  1.00  0.00     0.030 A 
ATOM     83  C   UNL     1       7.655   7.231  -1.649  1.00  0.00     0.001 A 
ATOM     84  C   UNL     1       5.272   7.275  -2.110  1.00  0.00     0.013 A 
ATOM     85  C   UNL     1       6.585   7.607  -2.463  1.00  0.00     0.001 A 
BRANCH  82  86
ATOM     86  C   UNL     1       3.646   6.204  -0.578  1.00  0.00     0.135 A 
ATOM     87  C   UNL     1       2.908   6.323   0.577  1.00  0.00     0.051 A 
ATOM     88  O   UNL     1       2.966   5.450  -1.491  1.00  0.00    -0.457 OA
ATOM     89  C   UNL     1       1.740   5.554   0.374  1.00  0.00     0.051 A 
ATOM     90  C   UNL     1       1.803   5.011  -0.905  1.00  0.00     0.128 A 
BRANCH  90  91
ATOM     91  C   UNL     1       0.885   4.115  -1.518  1.00  0.00     0.068 C 
ATOM     92  C   UNL     1      -0.320   4.540  -1.914  1.00  0.00     0.084 C 
ATOM     93  S   UNL     1      -1.659   3.522  -2.267  1.00  0.00    -0.054 SA
ATOM     94  C   UNL     1      -0.763   5.952  -1.940  1.00  0.00     0.266 C 
ATOM     95  C   UNL     1      -2.812   4.832  -1.974  1.00  0.00     0.148 C 
ATOM     96  N   UNL     1      -2.132   6.016  -1.794  1.00  0.00    -0.288 N 
ATOM     97  O   UNL     1      -0.018   6.909  -2.114  1.00  0.00    -0.268 OA
ATOM     98  S   UNL     1      -4.460   4.576  -1.953  1.00  0.00    -0.052 S 
BRANCH  96  99
ATOM     99  C   UNL     1      -2.730   7.324  -1.547  1.00  0.00     0.163 C 
BRANCH  99 100
ATOM    100  C   UNL     1      -2.683   7.734  -0.085  1.00  0.00    -0.028 A 
ATOM    101  C   UNL     1      -3.869   7.979   0.620  1.00  0.00     0.005 A 
ATOM    102  C   UNL     1      -1.461   7.942   0.581  1.00  0.00     0.005 A 
ATOM    103  C   UNL     1      -3.833   8.424   1.945  1.00  0.00     0.000 A 
ATOM    104  C   UNL     1      -1.426   8.368   1.909  1.00  0.00     0.000 A 
ATOM    105  C   UNL     1      -2.613   8.617   2.590  1.00  0.00     0.000 A 
ENDBRANCH  99 100
ENDBRANCH  96  99
ENDBRANCH  90  91
ENDBRANCH  82  86
ENDBRANCH  77  80
ENDBRANCH  75  76
ENDBRANCH   1  75
TORSDOF 17
