REMARK SMILES CC(C)n1c2c(c3ccccc31)[C@@H](c1ccccc1)N(CC(=O)NCCCNC(=O)c1ccc(-c3c4nc(c(-c5c(F)cc(S(=O)(=O)[O-])cc5F)c5ccc([nH]5)c(-c5c(F)cc(S(=O)(=O)[O-])cc5F)c5nc(c(-c6c(F)cc(S(=O)(=O)[O-])cc6F)c6ccc3[nH]6)C=C5)C=C4)cc1)C2=O
REMARK SMILES IDX 26 1 25 2 24 3 22 4 23 5 21 7 20 8 4 9 5 10 12 11 6 12 97 13
REMARK SMILES IDX 7 14 11 15 13 16 98 17 8 18 10 19 9 20 2 21 1 22 3 23 14 24
REMARK SMILES IDX 15 25 19 26 16 27 18 28 17 29 27 30 28 31 29 32 30 34 31 35
REMARK SMILES IDX 32 36 96 37 33 38 95 39 34 40 35 41 36 42 89 43 37 44 94 45
REMARK SMILES IDX 88 46 90 47 38 48 93 49 87 50 86 51 39 53 73 54 52 55 72 56
REMARK SMILES IDX 53 57 56 58 71 59 91 60 54 61 55 62 70 64 92 65 57 66 40 67
REMARK SMILES IDX 41 68 50 69 42 70 43 71 49 72 51 73 44 74 45 75 46 76 47 77
REMARK SMILES IDX 48 78 74 79 75 80 84 81 76 82 77 83 83 84 85 85 78 86 79 87
REMARK SMILES IDX 80 88 81 89 82 90 58 91 59 92 68 93 60 94 61 95 67 96 69 97
REMARK SMILES IDX 62 98 63 99 64 100 65 101 66 102
REMARK H PARENT 24 6 28 33 90 52 56 63
REMARK Flexibility Score: inf
ROOT
ATOM      1  C   UNL     1      -2.316  -0.307   3.307  1.00  0.00     0.042 C 
ENDROOT
BRANCH   1   2
ATOM      2  C   UNL     1      -2.558  -1.812   3.148  1.00  0.00     0.117 C 
BRANCH   2   3
ATOM      3  N   UNL     1      -3.971  -2.129   3.006  1.00  0.00    -0.354 N 
ATOM      4  C   UNL     1      -4.667  -2.537   1.905  1.00  0.00     0.239 C 
ATOM      5  O   UNL     1      -5.887  -2.692   2.012  1.00  0.00    -0.273 OA
ATOM      6  H   UNL     1      -4.506  -2.036   3.827  1.00  0.00     0.163 HD
BRANCH   4   7
ATOM      7  C   UNL     1      -3.962  -2.758   0.562  1.00  0.00     0.220 C 
BRANCH   7   8
ATOM      8  N   UNL     1      -3.559  -1.504  -0.043  1.00  0.00    -0.317 N 
ATOM      9  N   UNL     1      -1.394   1.347  -0.256  1.00  0.00    -0.334 N 
ATOM     10  C   UNL     1      -2.239   0.278  -0.287  1.00  0.00     0.114 A 
ATOM     11  C   UNL     1      -2.192   2.506  -0.181  1.00  0.00     0.049 A 
ATOM     12  C   UNL     1      -3.539   0.724  -0.306  1.00  0.00     0.018 A 
ATOM     13  C   UNL     1      -2.216  -1.147  -0.175  1.00  0.00     0.272 C 
ATOM     14  C   UNL     1      -3.543   2.119  -0.207  1.00  0.00     0.006 A 
ATOM     15  C   UNL     1      -1.839   3.864  -0.085  1.00  0.00     0.027 A 
ATOM     16  C   UNL     1      -4.507  -0.402  -0.320  1.00  0.00     0.150 C 
ATOM     17  O   UNL     1      -1.270  -1.913  -0.069  1.00  0.00    -0.267 OA
ATOM     18  C   UNL     1      -4.554   3.095  -0.132  1.00  0.00     0.011 A 
ATOM     19  C   UNL     1      -2.861   4.819  -0.027  1.00  0.00     0.002 A 
ATOM     20  C   UNL     1      -4.200   4.442  -0.048  1.00  0.00     0.001 A 
BRANCH   9  21
ATOM     21  C   UNL     1       0.074   1.381  -0.234  1.00  0.00     0.082 C 
ATOM     22  C   UNL     1       0.785   0.081   0.140  1.00  0.00     0.031 C 
ATOM     23  C   UNL     1       0.636   1.895  -1.564  1.00  0.00     0.031 C 
ENDBRANCH   9  21
BRANCH  16  24
ATOM     24  C   UNL     1      -5.133  -0.532  -1.703  1.00  0.00    -0.021 A 
ATOM     25  C   UNL     1      -6.106  -1.532  -1.901  1.00  0.00     0.006 A 
ATOM     26  C   UNL     1      -4.777   0.246  -2.822  1.00  0.00     0.006 A 
ATOM     27  C   UNL     1      -6.654  -1.774  -3.165  1.00  0.00     0.000 A 
ATOM     28  C   UNL     1      -5.341   0.020  -4.080  1.00  0.00     0.000 A 
ATOM     29  C   UNL     1      -6.269  -1.000  -4.254  1.00  0.00     0.000 A 
ENDBRANCH  16  24
ENDBRANCH   7   8
ENDBRANCH   4   7
ENDBRANCH   2   3
ENDBRANCH   1   2
BRANCH   1  30
ATOM     30  C   UNL     1      -2.919   0.286   4.579  1.00  0.00     0.118 C 
BRANCH  30  31
ATOM     31  N   UNL     1      -2.469  -0.364   5.791  1.00  0.00    -0.352 N 
ATOM     32  C   UNL     1      -1.475  -0.147   6.698  1.00  0.00     0.251 C 
ATOM     33  H   UNL     1      -3.013  -1.154   6.014  1.00  0.00     0.163 HD
ATOM     34  O   UNL     1      -1.500  -0.882   7.691  1.00  0.00    -0.269 OA
BRANCH  32  35
ATOM     35  C   UNL     1      -0.355   0.819   6.548  1.00  0.00     0.039 A 
ATOM     36  C   UNL     1      -0.146   1.677   5.467  1.00  0.00     0.014 A 
ATOM     37  C   UNL     1       0.627   0.750   7.556  1.00  0.00     0.014 A 
ATOM     38  C   UNL     1       1.083   2.312   5.312  1.00  0.00     0.010 A 
ATOM     39  C   UNL     1       1.840   1.404   7.420  1.00  0.00     0.010 A 
ATOM     40  C   UNL     1       2.099   2.101   6.249  1.00  0.00    -0.014 A 
BRANCH  40  41
ATOM     41  C   UNL     1       3.431   2.629   5.975  1.00  0.00     0.031 A 
ATOM     42  C   UNL     1       3.500   4.111   5.834  1.00  0.00     0.074 A 
ATOM     43  C   UNL     1       4.523   1.833   5.939  1.00  0.00     0.049 A 
ATOM     44  N   UNL     1       3.787   4.803   4.780  1.00  0.00    -0.248 NA
ATOM     45  C   UNL     1       3.049   4.925   6.975  1.00  0.00     0.031 C 
ATOM     46  C   UNL     1       4.641   0.412   6.287  1.00  0.00     0.029 A 
ATOM     47  N   UNL     1       5.809   2.167   5.641  1.00  0.00    -0.354 N 
ATOM     48  C   UNL     1       3.755   6.140   5.175  1.00  0.00     0.074 A 
ATOM     49  C   UNL     1       3.153   6.161   6.484  1.00  0.00     0.031 C 
ATOM     50  C   UNL     1       5.948   0.080   6.412  1.00  0.00     0.029 A 
ATOM     51  C   UNL     1       6.757   1.210   5.997  1.00  0.00     0.049 A 
ATOM     52  H   UNL     1       6.049   3.017   5.208  1.00  0.00     0.167 HD
ATOM     53  C   UNL     1       4.404   7.117   4.481  1.00  0.00     0.037 A 
ATOM     54  C   UNL     1       8.107   1.372   5.986  1.00  0.00     0.037 A 
ATOM     55  C   UNL     1       4.761   6.680   3.159  1.00  0.00     0.049 A 
ATOM     56  C   UNL     1       8.388   2.503   5.061  1.00  0.00     0.074 A 
ATOM     57  C   UNL     1       4.056   6.329   2.025  1.00  0.00     0.029 A 
ATOM     58  N   UNL     1       6.033   6.198   2.969  1.00  0.00    -0.354 N 
ATOM     59  N   UNL     1       8.148   2.462   3.778  1.00  0.00    -0.248 NA
ATOM     60  C   UNL     1       8.466   3.835   5.641  1.00  0.00     0.031 C 
ATOM     61  C   UNL     1       4.788   5.244   1.458  1.00  0.00     0.029 A 
ATOM     62  C   UNL     1       5.926   5.040   2.240  1.00  0.00     0.049 A 
ATOM     63  H   UNL     1       6.867   6.607   3.296  1.00  0.00     0.167 HD
ATOM     64  C   UNL     1       7.639   3.715   3.468  1.00  0.00     0.074 A 
ATOM     65  C   UNL     1       7.904   4.534   4.651  1.00  0.00     0.031 C 
ATOM     66  C   UNL     1       6.805   3.903   2.402  1.00  0.00     0.037 A 
BRANCH  53  67
ATOM     67  C   UNL     1       5.006   8.348   5.110  1.00  0.00     0.058 A 
ATOM     68  C   UNL     1       5.432   9.418   4.298  1.00  0.00     0.135 A 
ATOM     69  C   UNL     1       5.435   8.392   6.455  1.00  0.00     0.135 A 
ATOM     70  F   UNL     1       5.090   9.469   3.001  1.00  0.00    -0.206 F 
ATOM     71  C   UNL     1       6.273  10.426   4.774  1.00  0.00     0.059 A 
ATOM     72  C   UNL     1       6.232   9.412   6.962  1.00  0.00     0.059 A 
ATOM     73  F   UNL     1       5.180   7.396   7.313  1.00  0.00    -0.206 F 
ATOM     74  C   UNL     1       6.678  10.406   6.106  1.00  0.00     0.060 A 
BRANCH  74  75
ATOM     75  S   UNL     1       7.848  11.645   6.691  1.00  0.00     0.124 S 
ATOM     76  O   UNL     1       9.038  11.315   5.915  1.00  0.00    -0.237 OA
ATOM     77  O   UNL     1       7.174  12.888   6.331  1.00  0.00    -0.237 OA
ATOM     78  O   UNL     1       7.934  11.378   8.124  1.00  0.00    -0.744 OA
ENDBRANCH  74  75
ENDBRANCH  53  67
BRANCH  54  79
ATOM     79  C   UNL     1       9.061   0.980   7.066  1.00  0.00     0.058 A 
ATOM     80  C   UNL     1      10.454   1.022   6.864  1.00  0.00     0.135 A 
ATOM     81  C   UNL     1       8.636   0.853   8.405  1.00  0.00     0.135 A 
ATOM     82  F   UNL     1      10.948   1.165   5.625  1.00  0.00    -0.206 F 
ATOM     83  C   UNL     1      11.367   0.991   7.927  1.00  0.00     0.059 A 
ATOM     84  C   UNL     1       9.527   0.818   9.478  1.00  0.00     0.059 A 
ATOM     85  F   UNL     1       7.332   0.856   8.717  1.00  0.00    -0.206 F 
ATOM     86  C   UNL     1      10.891   0.913   9.235  1.00  0.00     0.060 A 
BRANCH  86  87
ATOM     87  S   UNL     1      12.053   1.045  10.618  1.00  0.00     0.124 S 
ATOM     88  O   UNL     1      12.831  -0.181  10.479  1.00  0.00    -0.237 OA
ATOM     89  O   UNL     1      12.757   2.285  10.311  1.00  0.00    -0.237 OA
ATOM     90  O   UNL     1      11.181   1.099  11.790  1.00  0.00    -0.744 OA
ENDBRANCH  86  87
ENDBRANCH  54  79
BRANCH  66  91
ATOM     91  C   UNL     1       6.629   2.762   1.430  1.00  0.00     0.058 A 
ATOM     92  C   UNL     1       6.009   1.537   1.742  1.00  0.00     0.135 A 
ATOM     93  C   UNL     1       6.966   2.980   0.087  1.00  0.00     0.135 A 
ATOM     94  F   UNL     1       5.562   1.290   2.981  1.00  0.00    -0.206 F 
ATOM     95  C   UNL     1       5.772   0.561   0.771  1.00  0.00     0.059 A 
ATOM     96  C   UNL     1       6.713   2.034  -0.903  1.00  0.00     0.059 A 
ATOM     97  F   UNL     1       7.500   4.153  -0.289  1.00  0.00    -0.206 F 
ATOM     98  C   UNL     1       6.126   0.821  -0.552  1.00  0.00     0.060 A 
BRANCH  98  99
ATOM     99  S   UNL     1       5.755  -0.409  -1.822  1.00  0.00     0.124 S 
ATOM    100  O   UNL     1       6.635  -1.512  -1.450  1.00  0.00    -0.237 OA
ATOM    101  O   UNL     1       4.326  -0.637  -1.622  1.00  0.00    -0.237 OA
ATOM    102  O   UNL     1       6.099   0.271  -3.068  1.00  0.00    -0.744 OA
ENDBRANCH  98  99
ENDBRANCH  66  91
ENDBRANCH  40  41
ENDBRANCH  32  35
ENDBRANCH  30  31
ENDBRANCH   1  30
TORSDOF 16
