REMARK SMILES CCOc1ccc(-c2nn(-c3ccccc3)cc2/C=C2/SC(=S)N(CC(=O)NCCCNC(=O)c3ccc(-c4c5nc(c(-c6c(F)cc(S(=O)(=O)[O-])cc6F)c6ccc([nH]6)c(-c6c(F)cc(S(=O)(=O)[O-])cc6F)c6nc(c(-c7c(F)cc(S(=O)(=O)[O-])cc7F)c7ccc4[nH]7)C=C6)C=C5)cc3)C2=O)cc1F
REMARK SMILES IDX 29 1 28 2 26 3 27 4 25 6 24 7 19 8 20 9 21 10 101 11 22 12
REMARK SMILES IDX 102 13 23 14 18 15 8 16 9 17 10 18 17 19 7 20 4 21 5 22
REMARK SMILES IDX 104 23 6 24 103 25 105 26 3 27 2 28 1 29 11 30 12 31 16 32
REMARK SMILES IDX 13 33 15 34 14 35 30 36 31 37 32 38 33 39 34 41 35 42 36 43
REMARK SMILES IDX 100 44 37 45 99 46 38 47 39 48 40 49 93 50 41 51 98 52 92 53
REMARK SMILES IDX 94 54 42 55 97 56 91 57 90 58 43 60 77 61 56 62 76 63 57 64
REMARK SMILES IDX 60 65 75 66 95 67 58 68 59 69 74 71 96 72 61 73 44 74 45 75
REMARK SMILES IDX 54 76 46 77 47 78 53 79 55 80 48 81 49 82 50 83 51 84 52 85
REMARK SMILES IDX 78 86 79 87 88 88 80 89 81 90 87 91 89 92 82 93 83 94 84 95
REMARK SMILES IDX 85 96 86 97 62 98 63 99 72 100 64 101 65 102 71 103 73 104
REMARK SMILES IDX 66 105 67 106 68 107 69 108 70 109
REMARK H PARENT 28 5 32 40 94 59 60 70
REMARK Flexibility Score: inf
ROOT
ATOM      1  C   UNL     1      10.581   8.475   2.972  1.00  0.00     0.117 C 
ENDROOT
BRANCH   1   2
ATOM      2  N   UNL     1      10.617   8.381   1.524  1.00  0.00    -0.354 N 
ATOM      3  C   UNL     1       9.638   8.679   0.619  1.00  0.00     0.240 C 
ATOM      4  O   UNL     1       9.990   8.942  -0.533  1.00  0.00    -0.273 OA
ATOM      5  H   UNL     1      11.465   8.058   1.142  1.00  0.00     0.163 HD
BRANCH   3   6
ATOM      6  C   UNL     1       8.174   8.841   1.054  1.00  0.00     0.227 C 
BRANCH   6   7
ATOM      7  N   UNL     1       7.681   7.685   1.805  1.00  0.00    -0.283 N 
ATOM      8  C   UNL     1       7.127   4.086   1.696  1.00  0.00     0.033 C 
ATOM      9  C   UNL     1       7.177   5.387   2.018  1.00  0.00     0.081 C 
ATOM     10  S   UNL     1       6.741   6.036   3.550  1.00  0.00    -0.054 SA
ATOM     11  C   UNL     1       7.599   6.492   1.107  1.00  0.00     0.266 C 
ATOM     12  C   UNL     1       7.138   7.687   3.067  1.00  0.00     0.148 C 
ATOM     13  O   UNL     1       7.800   6.379  -0.085  1.00  0.00    -0.268 OA
ATOM     14  S   UNL     1       6.837   8.989   4.065  1.00  0.00    -0.052 S 
BRANCH   8  15
ATOM     15  C   UNL     1       7.451   3.584   0.406  1.00  0.00     0.022 A 
ATOM     16  C   UNL     1       6.582   3.208  -0.646  1.00  0.00     0.100 A 
ATOM     17  N   UNL     1       7.269   3.015  -1.778  1.00  0.00    -0.167 NA
ATOM     18  N   UNL     1       8.572   3.132  -1.428  1.00  0.00    -0.240 N 
ATOM     19  C   UNL     1       8.722   3.414  -0.088  1.00  0.00     0.123 A 
BRANCH  16  20
ATOM     20  C   UNL     1       5.146   2.980  -0.611  1.00  0.00     0.006 A 
ATOM     21  C   UNL     1       2.412   2.402  -0.472  1.00  0.00     0.154 A 
ATOM     22  C   UNL     1       2.873   3.672  -0.118  1.00  0.00     0.050 A 
ATOM     23  C   UNL     1       3.311   1.451  -0.950  1.00  0.00     0.165 A 
ATOM     24  C   UNL     1       4.242   3.961  -0.183  1.00  0.00     0.014 A 
ATOM     25  C   UNL     1       4.669   1.725  -1.005  1.00  0.00     0.053 A 
ATOM     26  F   UNL     1       2.883   0.257  -1.382  1.00  0.00    -0.203 F 
BRANCH  21  27
ATOM     27  O   UNL     1       1.063   2.168  -0.457  1.00  0.00    -0.491 OA
BRANCH  27  28
ATOM     28  C   UNL     1       0.652   1.346   0.644  1.00  0.00     0.226 C 
ATOM     29  C   UNL     1       0.707  -0.139   0.322  1.00  0.00     0.049 C 
ENDBRANCH  27  28
ENDBRANCH  21  27
ENDBRANCH  16  20
BRANCH  18  30
ATOM     30  C   UNL     1       9.595   2.904  -2.372  1.00  0.00     0.065 A 
ATOM     31  C   UNL     1       9.402   3.308  -3.699  1.00  0.00     0.028 A 
ATOM     32  C   UNL     1      10.763   2.233  -1.990  1.00  0.00     0.028 A 
ATOM     33  C   UNL     1      10.379   3.024  -4.650  1.00  0.00     0.002 A 
ATOM     34  C   UNL     1      11.711   1.910  -2.959  1.00  0.00     0.002 A 
ATOM     35  C   UNL     1      11.511   2.296  -4.284  1.00  0.00     0.000 A 
ENDBRANCH  18  30
ENDBRANCH   8  15
ENDBRANCH   6   7
ENDBRANCH   3   6
ENDBRANCH   1   2
BRANCH   1  36
ATOM     36  C   UNL     1      10.586   7.118   3.677  1.00  0.00     0.042 C 
BRANCH  36  37
ATOM     37  C   UNL     1      11.962   6.479   3.690  1.00  0.00     0.118 C 
BRANCH  37  38
ATOM     38  N   UNL     1      12.930   7.196   4.532  1.00  0.00    -0.352 N 
ATOM     39  C   UNL     1      14.257   6.875   4.781  1.00  0.00     0.251 C 
ATOM     40  H   UNL     1      12.594   8.008   4.975  1.00  0.00     0.163 HD
ATOM     41  O   UNL     1      14.842   7.344   5.750  1.00  0.00    -0.269 OA
BRANCH  39  42
ATOM     42  C   UNL     1      14.944   5.963   3.848  1.00  0.00     0.039 A 
ATOM     43  C   UNL     1      15.868   4.998   4.256  1.00  0.00     0.014 A 
ATOM     44  C   UNL     1      14.580   6.069   2.514  1.00  0.00     0.014 A 
ATOM     45  C   UNL     1      16.361   4.109   3.300  1.00  0.00     0.010 A 
ATOM     46  C   UNL     1      14.826   5.033   1.667  1.00  0.00     0.010 A 
ATOM     47  C   UNL     1      15.818   4.132   2.005  1.00  0.00    -0.014 A 
BRANCH  47  48
ATOM     48  C   UNL     1      16.181   3.178   0.969  1.00  0.00     0.031 A 
ATOM     49  C   UNL     1      15.939   1.767   1.353  1.00  0.00     0.074 A 
ATOM     50  C   UNL     1      16.446   3.564  -0.302  1.00  0.00     0.049 A 
ATOM     51  N   UNL     1      16.819   0.859   1.604  1.00  0.00    -0.248 NA
ATOM     52  C   UNL     1      14.559   1.365   1.680  1.00  0.00     0.031 C 
ATOM     53  C   UNL     1      16.392   4.911  -0.890  1.00  0.00     0.029 A 
ATOM     54  N   UNL     1      16.737   2.793  -1.384  1.00  0.00    -0.354 N 
ATOM     55  C   UNL     1      16.098  -0.297   1.877  1.00  0.00     0.074 A 
ATOM     56  C   UNL     1      14.744   0.122   2.130  1.00  0.00     0.031 C 
ATOM     57  C   UNL     1      16.422   4.827  -2.240  1.00  0.00     0.029 A 
ATOM     58  C   UNL     1      16.670   3.450  -2.615  1.00  0.00     0.049 A 
ATOM     59  H   UNL     1      16.978   1.842  -1.305  1.00  0.00     0.167 HD
ATOM     60  C   UNL     1      16.615  -1.530   1.621  1.00  0.00     0.037 A 
ATOM     61  C   UNL     1      16.801   2.877  -3.842  1.00  0.00     0.037 A 
ATOM     62  C   UNL     1      18.037  -1.460   1.393  1.00  0.00     0.049 A 
ATOM     63  C   UNL     1      17.497   1.579  -3.615  1.00  0.00     0.074 A 
ATOM     64  C   UNL     1      19.110  -1.038   2.157  1.00  0.00     0.029 A 
ATOM     65  N   UNL     1      18.473  -1.429   0.089  1.00  0.00    -0.354 N 
ATOM     66  N   UNL     1      18.725   1.486  -3.176  1.00  0.00    -0.248 NA
ATOM     67  C   UNL     1      16.664   0.408  -3.389  1.00  0.00     0.031 C 
ATOM     68  C   UNL     1      19.940  -0.310   1.255  1.00  0.00     0.029 A 
ATOM     69  C   UNL     1      19.386  -0.407  -0.023  1.00  0.00     0.049 A 
ATOM     70  H   UNL     1      18.184  -2.031  -0.635  1.00  0.00     0.167 HD
ATOM     71  C   UNL     1      18.703   0.439  -2.265  1.00  0.00     0.074 A 
ATOM     72  C   UNL     1      17.415  -0.221  -2.481  1.00  0.00     0.031 C 
ATOM     73  C   UNL     1      19.587   0.380  -1.224  1.00  0.00     0.037 A 
BRANCH  60  74
ATOM     74  C   UNL     1      15.784  -2.731   1.256  1.00  0.00     0.058 A 
ATOM     75  C   UNL     1      14.508  -2.644   0.654  1.00  0.00     0.135 A 
ATOM     76  C   UNL     1      16.354  -4.018   1.292  1.00  0.00     0.135 A 
ATOM     77  F   UNL     1      13.905  -1.470   0.425  1.00  0.00    -0.206 F 
ATOM     78  C   UNL     1      13.824  -3.751   0.173  1.00  0.00     0.059 A 
ATOM     79  C   UNL     1      15.709  -5.137   0.759  1.00  0.00     0.059 A 
ATOM     80  F   UNL     1      17.581  -4.206   1.802  1.00  0.00    -0.206 F 
ATOM     81  C   UNL     1      14.439  -4.993   0.211  1.00  0.00     0.060 A 
BRANCH  81  82
ATOM     82  S   UNL     1      13.569  -6.379  -0.539  1.00  0.00     0.124 S 
ATOM     83  O   UNL     1      12.432  -6.529   0.364  1.00  0.00    -0.237 OA
ATOM     84  O   UNL     1      13.263  -5.859  -1.867  1.00  0.00    -0.237 OA
ATOM     85  O   UNL     1      14.552  -7.456  -0.497  1.00  0.00    -0.744 OA
ENDBRANCH  81  82
ENDBRANCH  60  74
BRANCH  61  86
ATOM     86  C   UNL     1      16.078   3.184  -5.113  1.00  0.00     0.058 A 
ATOM     87  C   UNL     1      14.858   3.888  -5.123  1.00  0.00     0.135 A 
ATOM     88  C   UNL     1      16.412   2.522  -6.313  1.00  0.00     0.135 A 
ATOM     89  F   UNL     1      14.416   4.527  -4.031  1.00  0.00    -0.206 F 
ATOM     90  C   UNL     1      13.989   3.867  -6.216  1.00  0.00     0.059 A 
ATOM     91  C   UNL     1      15.544   2.467  -7.413  1.00  0.00     0.059 A 
ATOM     92  F   UNL     1      17.561   1.835  -6.405  1.00  0.00    -0.206 F 
ATOM     93  C   UNL     1      14.310   3.104  -7.332  1.00  0.00     0.060 A 
BRANCH  93  94
ATOM     94  S   UNL     1      13.036   2.856  -8.592  1.00  0.00     0.124 S 
ATOM     95  O   UNL     1      12.084   2.013  -7.877  1.00  0.00    -0.237 OA
ATOM     96  O   UNL     1      12.591   4.220  -8.859  1.00  0.00    -0.237 OA
ATOM     97  O   UNL     1      13.755   2.208  -9.684  1.00  0.00    -0.744 OA
ENDBRANCH  93  94
ENDBRANCH  61  86
BRANCH  73  98
ATOM     98  C   UNL     1      20.755   1.344  -1.210  1.00  0.00     0.058 A 
ATOM     99  C   UNL     1      22.047   0.806  -1.126  1.00  0.00     0.135 A 
ATOM    100  C   UNL     1      20.643   2.744  -1.094  1.00  0.00     0.135 A 
ATOM    101  F   UNL     1      22.225  -0.524  -1.177  1.00  0.00    -0.206 F 
ATOM    102  C   UNL     1      23.170   1.603  -0.925  1.00  0.00     0.059 A 
ATOM    103  C   UNL     1      21.761   3.569  -0.926  1.00  0.00     0.059 A 
ATOM    104  F   UNL     1      19.444   3.339  -1.074  1.00  0.00    -0.206 F 
ATOM    105  C   UNL     1      23.021   2.986  -0.827  1.00  0.00     0.060 A 
BRANCH 105 106
ATOM    106  S   UNL     1      24.500   3.981  -0.543  1.00  0.00     0.124 S 
ATOM    107  O   UNL     1      24.900   3.555   0.795  1.00  0.00    -0.237 OA
ATOM    108  O   UNL     1      25.376   3.550  -1.628  1.00  0.00    -0.237 OA
ATOM    109  O   UNL     1      24.021   5.357  -0.640  1.00  0.00    -0.744 OA
ENDBRANCH 105 106
ENDBRANCH  73  98
ENDBRANCH  47  48
ENDBRANCH  39  42
ENDBRANCH  37  38
ENDBRANCH  36  37
ENDBRANCH   1  36
TORSDOF 19
