REMARK SMILES O=C(NCCCNC(=O)c1ccc(-c2c3nc(c(-c4c(F)cc(S(=O)(=O)[O-])cc4F)c4ccc([nH]4)c(-c4c(F)cc(S(=O)(=O)[O-])cc4F)c4nc(c(-c5c(F)cc(S(=O)(=O)[O-])cc5F)c5ccc2[nH]5)C=C4)C=C3)cc1)C1=Cc2cc(Cl)c(Cl)c(Cl)c2O[C@@H]1C(F)(F)F
REMARK SMILES IDX 6 1 5 2 4 3 3 4 1 5 2 6 76 8 77 9 88 10 78 11 87 12 79 13
REMARK SMILES IDX 86 14 80 15 84 16 81 17 82 18 85 19 83 20 89 21 90 22 91 23
REMARK SMILES IDX 92 24 7 25 8 26 9 28 10 29 11 30 75 31 12 32 74 33 13 34
REMARK SMILES IDX 14 35 15 36 68 37 16 38 73 39 67 40 69 41 17 42 72 43 66 44
REMARK SMILES IDX 65 45 18 47 52 48 31 49 51 50 32 51 35 52 50 53 70 54 33 55
REMARK SMILES IDX 34 56 49 58 71 59 36 60 19 61 20 62 29 63 21 64 22 65 28 66
REMARK SMILES IDX 30 67 23 68 24 69 25 70 26 71 27 72 53 73 54 74 63 75 55 76
REMARK SMILES IDX 56 77 62 78 64 79 57 80 58 81 59 82 60 83 61 84 37 85 38 86
REMARK SMILES IDX 47 87 39 88 40 89 46 90 48 91 41 92 42 93 43 94 44 95 45 96
REMARK H PARENT 3 7 7 27 69 46 35 57
REMARK Flexibility Score: inf
ROOT
ATOM      1  C   UNL     1       3.869   3.371  -2.416  1.00  0.00     0.118 C 
ENDROOT
BRANCH   1   2
ATOM      2  C   UNL     1       4.068   1.882  -2.160  1.00  0.00     0.042 C 
BRANCH   2   3
ATOM      3  C   UNL     1       3.327   1.406  -0.917  1.00  0.00     0.118 C 
BRANCH   3   4
ATOM      4  N   UNL     1       2.340   0.358  -1.194  1.00  0.00    -0.352 N 
ATOM      5  O   UNL     1       1.181  -1.555  -0.793  1.00  0.00    -0.270 OA
ATOM      6  C   UNL     1       2.189  -0.885  -0.625  1.00  0.00     0.251 C 
ATOM      7  H   UNL     1       1.685   0.577  -1.895  1.00  0.00     0.163 HD
BRANCH   6   8
ATOM      8  C   UNL     1       3.275  -1.346   0.259  1.00  0.00     0.067 C 
ATOM      9  C   UNL     1       4.463  -1.572  -0.316  1.00  0.00     0.025 C 
ATOM     10  C   UNL     1       3.100  -1.125   1.726  1.00  0.00     0.314 C 
ATOM     11  C   UNL     1       5.588  -0.973   0.410  1.00  0.00     0.020 A 
ATOM     12  O   UNL     1       4.168  -0.327   2.290  1.00  0.00    -0.474 OA
ATOM     13  C   UNL     1       6.766  -0.767  -0.311  1.00  0.00     0.034 A 
ATOM     14  C   UNL     1       5.350  -0.238   1.588  1.00  0.00     0.148 A 
ATOM     15  C   UNL     1       7.641   0.257   0.058  1.00  0.00     0.062 A 
ATOM     16  C   UNL     1       6.250   0.772   1.975  1.00  0.00     0.103 A 
ATOM     17  Cl  UNL     1       8.964   0.568  -1.012  1.00  0.00    -0.083 Cl
ATOM     18  C   UNL     1       7.379   1.049   1.186  1.00  0.00     0.082 A 
ATOM     19  Cl  UNL     1       5.840   1.770   3.342  1.00  0.00    -0.079 Cl
ATOM     20  Cl  UNL     1       8.392   2.413   1.546  1.00  0.00    -0.081 Cl
BRANCH  10  21
ATOM     21  C   UNL     1       2.952  -2.451   2.488  1.00  0.00     0.429 C 
ATOM     22  F   UNL     1       2.643  -2.232   3.790  1.00  0.00    -0.167 F 
ATOM     23  F   UNL     1       1.966  -3.225   1.979  1.00  0.00    -0.167 F 
ATOM     24  F   UNL     1       4.092  -3.183   2.466  1.00  0.00    -0.167 F 
ENDBRANCH  10  21
ENDBRANCH   6   8
ENDBRANCH   3   4
ENDBRANCH   2   3
ENDBRANCH   1   2
BRANCH   1  25
ATOM     25  N   UNL     1       4.506   4.230  -1.421  1.00  0.00    -0.352 N 
ATOM     26  C   UNL     1       5.429   5.248  -1.570  1.00  0.00     0.251 C 
ATOM     27  H   UNL     1       4.233   4.054  -0.492  1.00  0.00     0.163 HD
ATOM     28  O   UNL     1       5.891   5.791  -0.581  1.00  0.00    -0.269 OA
BRANCH  26  29
ATOM     29  C   UNL     1       5.882   5.651  -2.924  1.00  0.00     0.039 A 
ATOM     30  C   UNL     1       7.240   5.906  -3.143  1.00  0.00     0.014 A 
ATOM     31  C   UNL     1       4.980   5.748  -3.980  1.00  0.00     0.014 A 
ATOM     32  C   UNL     1       7.700   6.147  -4.443  1.00  0.00     0.010 A 
ATOM     33  C   UNL     1       5.453   5.862  -5.281  1.00  0.00     0.010 A 
ATOM     34  C   UNL     1       6.819   6.065  -5.532  1.00  0.00    -0.014 A 
BRANCH  34  35
ATOM     35  C   UNL     1       7.271   6.198  -6.944  1.00  0.00     0.031 A 
ATOM     36  C   UNL     1       6.636   7.239  -7.832  1.00  0.00     0.074 A 
ATOM     37  C   UNL     1       8.151   5.317  -7.462  1.00  0.00     0.049 A 
ATOM     38  N   UNL     1       6.718   7.386  -9.128  1.00  0.00    -0.248 NA
ATOM     39  C   UNL     1       5.741   8.208  -7.177  1.00  0.00     0.031 C 
ATOM     40  C   UNL     1       8.795   4.223  -6.729  1.00  0.00     0.029 A 
ATOM     41  N   UNL     1       8.642   5.188  -8.738  1.00  0.00    -0.354 N 
ATOM     42  C   UNL     1       5.850   8.424  -9.447  1.00  0.00     0.074 A 
ATOM     43  C   UNL     1       5.209   8.832  -8.216  1.00  0.00     0.031 C 
ATOM     44  C   UNL     1       9.613   3.555  -7.559  1.00  0.00     0.029 A 
ATOM     45  C   UNL     1       9.518   4.138  -8.893  1.00  0.00     0.049 A 
ATOM     46  H   UNL     1       8.391   5.791  -9.475  1.00  0.00     0.167 HD
ATOM     47  C   UNL     1       5.626   9.006 -10.649  1.00  0.00     0.037 A 
ATOM     48  C   UNL     1      10.163   3.689  -9.987  1.00  0.00     0.037 A 
ATOM     49  C   UNL     1       6.328   8.649 -11.852  1.00  0.00     0.049 A 
ATOM     50  C   UNL     1       9.949   4.391 -11.300  1.00  0.00     0.074 A 
ATOM     51  C   UNL     1       6.243   9.231 -13.104  1.00  0.00     0.029 A 
ATOM     52  N   UNL     1       7.261   7.627 -11.948  1.00  0.00    -0.354 N 
ATOM     53  N   UNL     1       9.155   5.399 -11.575  1.00  0.00    -0.248 NA
ATOM     54  C   UNL     1      10.717   3.899 -12.453  1.00  0.00     0.031 C 
ATOM     55  C   UNL     1       7.108   8.545 -13.963  1.00  0.00     0.029 A 
ATOM     56  C   UNL     1       7.758   7.559 -13.238  1.00  0.00     0.049 A 
ATOM     57  H   UNL     1       7.531   7.037 -11.207  1.00  0.00     0.167 HD
ATOM     58  C   UNL     1       9.348   5.679 -12.923  1.00  0.00     0.074 A 
ATOM     59  C   UNL     1      10.340   4.740 -13.406  1.00  0.00     0.031 C 
ATOM     60  C   UNL     1       8.758   6.627 -13.692  1.00  0.00     0.037 A 
BRANCH  47  61
ATOM     61  C   UNL     1       4.599  10.103 -10.712  1.00  0.00     0.058 A 
ATOM     62  C   UNL     1       4.816  11.354 -10.111  1.00  0.00     0.135 A 
ATOM     63  C   UNL     1       3.386   9.909 -11.394  1.00  0.00     0.135 A 
ATOM     64  F   UNL     1       5.950  11.589  -9.432  1.00  0.00    -0.206 F 
ATOM     65  C   UNL     1       3.853  12.356 -10.146  1.00  0.00     0.059 A 
ATOM     66  C   UNL     1       2.421  10.909 -11.469  1.00  0.00     0.059 A 
ATOM     67  F   UNL     1       3.126   8.734 -11.989  1.00  0.00    -0.206 F 
ATOM     68  C   UNL     1       2.657  12.123 -10.825  1.00  0.00     0.060 A 
BRANCH  68  69
ATOM     69  S   UNL     1       1.415  13.432 -10.857  1.00  0.00     0.124 S 
ATOM     70  O   UNL     1       0.872  13.349  -9.505  1.00  0.00    -0.237 OA
ATOM     71  O   UNL     1       2.215  14.618 -11.146  1.00  0.00    -0.237 OA
ATOM     72  O   UNL     1       0.510  13.016 -11.924  1.00  0.00    -0.744 OA
ENDBRANCH  68  69
ENDBRANCH  47  61
BRANCH  48  73
ATOM     73  C   UNL     1      11.097   2.536  -9.881  1.00  0.00     0.058 A 
ATOM     74  C   UNL     1      12.484   2.728  -9.968  1.00  0.00     0.135 A 
ATOM     75  C   UNL     1      10.631   1.228  -9.675  1.00  0.00     0.135 A 
ATOM     76  F   UNL     1      12.978   3.959 -10.171  1.00  0.00    -0.206 F 
ATOM     77  C   UNL     1      13.377   1.665  -9.870  1.00  0.00     0.059 A 
ATOM     78  C   UNL     1      11.505   0.152  -9.550  1.00  0.00     0.059 A 
ATOM     79  F   UNL     1       9.314   0.993  -9.566  1.00  0.00    -0.206 F 
ATOM     80  C   UNL     1      12.877   0.379  -9.659  1.00  0.00     0.060 A 
BRANCH  80  81
ATOM     81  S   UNL     1      14.045  -0.987  -9.482  1.00  0.00     0.124 S 
ATOM     82  O   UNL     1      14.477  -1.184 -10.860  1.00  0.00    -0.237 OA
ATOM     83  O   UNL     1      15.041  -0.425  -8.575  1.00  0.00    -0.237 OA
ATOM     84  O   UNL     1      13.226  -2.055  -8.916  1.00  0.00    -0.744 OA
ENDBRANCH  80  81
ENDBRANCH  48  73
BRANCH  60  85
ATOM     85  C   UNL     1       9.194   6.724 -15.125  1.00  0.00     0.058 A 
ATOM     86  C   UNL     1       8.777   5.790 -16.085  1.00  0.00     0.135 A 
ATOM     87  C   UNL     1       9.980   7.805 -15.554  1.00  0.00     0.135 A 
ATOM     88  F   UNL     1       8.029   4.736 -15.723  1.00  0.00    -0.206 F 
ATOM     89  C   UNL     1       9.137   5.917 -17.422  1.00  0.00     0.059 A 
ATOM     90  C   UNL     1      10.333   7.965 -16.890  1.00  0.00     0.059 A 
ATOM     91  F   UNL     1      10.395   8.731 -14.674  1.00  0.00    -0.206 F 
ATOM     92  C   UNL     1       9.913   7.010 -17.816  1.00  0.00     0.060 A 
BRANCH  92  93
ATOM     93  S   UNL     1      10.333   7.190 -19.562  1.00  0.00     0.124 S 
ATOM     94  O   UNL     1      11.375   6.181 -19.718  1.00  0.00    -0.237 OA
ATOM     95  O   UNL     1       9.064   6.899 -20.221  1.00  0.00    -0.237 OA
ATOM     96  O   UNL     1      10.780   8.576 -19.662  1.00  0.00    -0.744 OA
ENDBRANCH  92  93
ENDBRANCH  60  85
ENDBRANCH  34  35
ENDBRANCH  26  29
ENDBRANCH   1  25
TORSDOF 14
