REMARK SMILES Cc1[nH]cnc1C[NH+]1CCC(Oc2cccc(F)c2)(C(=O)NCCCNC(=O)c2ccc(-c3c4nc(c(-c5c(F)cc(S(=O)(=O)[O-])cc5F)c5ccc([nH]5)c(-c5c(F)cc(S(=O)(=O)[O-])cc5F)c5nc(c(-c6c(F)cc(S(=O)(=O)[O-])cc6F)c6ccc3[nH]6)C=C5)C=C4)cc2)CC1
REMARK SMILES IDX 24 1 23 2 22 3 20 4 21 5 11 7 8 8 9 9 96 10 10 12 95 13 7 14
REMARK SMILES IDX 6 15 1 16 2 17 3 18 4 19 5 21 12 22 13 23 14 24 19 25 15 26
REMARK SMILES IDX 17 27 16 28 18 29 25 30 26 31 27 32 28 34 29 35 30 36 94 37
REMARK SMILES IDX 31 38 93 39 32 40 33 41 34 42 87 43 35 44 92 45 86 46 88 47
REMARK SMILES IDX 36 48 91 49 85 50 84 51 37 53 71 54 50 55 70 56 51 57 54 58
REMARK SMILES IDX 69 59 89 60 52 61 53 62 68 64 90 65 55 66 38 67 39 68 48 69
REMARK SMILES IDX 40 70 41 71 47 72 49 73 42 74 43 75 44 76 45 77 46 78 72 79
REMARK SMILES IDX 73 80 82 81 74 82 75 83 81 84 83 85 76 86 77 87 78 88 79 89
REMARK SMILES IDX 80 90 56 91 57 92 66 93 58 94 59 95 65 96 67 97 60 98 61 99
REMARK SMILES IDX 62 100 63 101 64 102
REMARK H PARENT 22 6 8 11 3 20 26 33 88 52 54 63
REMARK Flexibility Score: inf
ROOT
ATOM      1  C   UNL     1       0.067  -1.428   6.580  1.00  0.00     0.042 C 
ENDROOT
BRANCH   1   2
ATOM      2  C   UNL     1      -1.238  -2.188   6.375  1.00  0.00     0.118 C 
BRANCH   2   3
ATOM      3  N   UNL     1      -2.018  -1.656   5.272  1.00  0.00    -0.353 N 
ATOM      4  C   UNL     1      -2.387  -2.220   4.082  1.00  0.00     0.264 C 
ATOM      5  O   UNL     1      -3.209  -1.575   3.423  1.00  0.00    -0.270 OA
ATOM      6  H   UNL     1      -2.334  -0.733   5.402  1.00  0.00     0.163 HD
BRANCH   4   7
ATOM      7  C   UNL     1      -1.816  -3.590   3.607  1.00  0.00     0.197 C 
ATOM      8  N   UNL     1      -0.485  -3.129   1.037  1.00  0.00    -0.330 N 
ATOM      9  C   UNL     1       0.109  -2.612   2.270  1.00  0.00     0.267 C 
ATOM     10  C   UNL     1      -1.952  -3.116   1.095  1.00  0.00     0.267 C 
ATOM     11  H   UNL     1      -0.199  -4.105   0.963  1.00  0.00     0.348 HD
ATOM     12  C   UNL     1      -0.289  -3.518   3.432  1.00  0.00     0.120 C 
ATOM     13  C   UNL     1      -2.461  -3.978   2.258  1.00  0.00     0.120 C 
BRANCH   8  14
ATOM     14  C   UNL     1       0.040  -2.467  -0.176  1.00  0.00     0.321 C 
BRANCH  14  15
ATOM     15  C   UNL     1      -0.120  -0.973  -0.191  1.00  0.00     0.115 A 
ATOM     16  C   UNL     1       2.314  -0.015   0.083  1.00  0.00     0.066 C 
ATOM     17  C   UNL     1       0.842   0.018  -0.068  1.00  0.00     0.040 A 
ATOM     18  N   UNL     1       0.139   1.198  -0.103  1.00  0.00    -0.348 N 
ATOM     19  C   UNL     1      -1.178   0.895  -0.277  1.00  0.00     0.197 A 
ATOM     20  H   UNL     1       0.520   2.102  -0.017  1.00  0.00     0.167 HD
ATOM     21  N   UNL     1      -1.364  -0.399  -0.367  1.00  0.00    -0.236 NA
ENDBRANCH  14  15
ENDBRANCH   8  14
BRANCH   7  22
ATOM     22  O   UNL     1      -2.262  -4.454   4.688  1.00  0.00    -0.477 OA
BRANCH  22  23
ATOM     23  C   UNL     1      -2.035  -5.792   4.586  1.00  0.00     0.123 A 
ATOM     24  C   UNL     1      -0.783  -6.341   4.861  1.00  0.00     0.046 A 
ATOM     25  C   UNL     1      -3.127  -6.623   4.355  1.00  0.00     0.085 A 
ATOM     26  C   UNL     1      -0.597  -7.723   4.802  1.00  0.00     0.007 A 
ATOM     27  C   UNL     1      -2.937  -7.998   4.316  1.00  0.00     0.126 A 
ATOM     28  C   UNL     1      -1.679  -8.555   4.521  1.00  0.00     0.039 A 
ATOM     29  F   UNL     1      -3.983  -8.803   4.088  1.00  0.00    -0.207 F 
ENDBRANCH  22  23
ENDBRANCH   7  22
ENDBRANCH   4   7
ENDBRANCH   2   3
ENDBRANCH   1   2
BRANCH   1  30
ATOM     30  C   UNL     1      -0.116   0.033   6.971  1.00  0.00     0.118 C 
BRANCH  30  31
ATOM     31  N   UNL     1      -0.749   0.192   8.272  1.00  0.00    -0.352 N 
ATOM     32  C   UNL     1      -0.268   0.758   9.425  1.00  0.00     0.251 C 
ATOM     33  H   UNL     1      -1.665  -0.162   8.334  1.00  0.00     0.163 HD
ATOM     34  O   UNL     1      -0.900   0.617  10.474  1.00  0.00    -0.269 OA
BRANCH  32  35
ATOM     35  C   UNL     1       1.002   1.515   9.427  1.00  0.00     0.039 A 
ATOM     36  C   UNL     1       1.887   1.345  10.496  1.00  0.00     0.014 A 
ATOM     37  C   UNL     1       1.316   2.410   8.400  1.00  0.00     0.014 A 
ATOM     38  C   UNL     1       3.111   2.018  10.499  1.00  0.00     0.010 A 
ATOM     39  C   UNL     1       2.569   3.017   8.364  1.00  0.00     0.010 A 
ATOM     40  C   UNL     1       3.480   2.831   9.414  1.00  0.00    -0.014 A 
BRANCH  40  41
ATOM     41  C   UNL     1       4.812   3.488   9.358  1.00  0.00     0.031 A 
ATOM     42  C   UNL     1       4.917   4.990   9.348  1.00  0.00     0.074 A 
ATOM     43  C   UNL     1       5.924   2.733   9.260  1.00  0.00     0.049 A 
ATOM     44  N   UNL     1       5.981   5.740   9.226  1.00  0.00    -0.248 NA
ATOM     45  C   UNL     1       3.660   5.747   9.467  1.00  0.00     0.031 C 
ATOM     46  C   UNL     1       5.950   1.269   9.225  1.00  0.00     0.029 A 
ATOM     47  N   UNL     1       7.247   3.089   9.168  1.00  0.00    -0.354 N 
ATOM     48  C   UNL     1       5.524   7.053   9.246  1.00  0.00     0.074 A 
ATOM     49  C   UNL     1       4.082   6.997   9.336  1.00  0.00     0.031 C 
ATOM     50  C   UNL     1       7.224   0.853   9.150  1.00  0.00     0.029 A 
ATOM     51  C   UNL     1       8.104   2.016   9.087  1.00  0.00     0.049 A 
ATOM     52  H   UNL     1       7.553   4.024   9.161  1.00  0.00     0.167 HD
ATOM     53  C   UNL     1       6.244   8.200   9.220  1.00  0.00     0.037 A 
ATOM     54  C   UNL     1       9.446   1.972   8.968  1.00  0.00     0.037 A 
ATOM     55  C   UNL     1       7.682   8.249   9.159  1.00  0.00     0.049 A 
ATOM     56  C   UNL     1      10.222   3.259   8.922  1.00  0.00     0.074 A 
ATOM     57  C   UNL     1       8.503   9.363   9.174  1.00  0.00     0.029 A 
ATOM     58  N   UNL     1       8.512   7.141   9.077  1.00  0.00    -0.354 N 
ATOM     59  N   UNL     1       9.775   4.491   8.980  1.00  0.00    -0.248 NA
ATOM     60  C   UNL     1      11.682   3.154   8.794  1.00  0.00     0.031 C 
ATOM     61  C   UNL     1       9.827   8.931   9.056  1.00  0.00     0.029 A 
ATOM     62  C   UNL     1       9.835   7.545   9.019  1.00  0.00     0.049 A 
ATOM     63  H   UNL     1       8.206   6.205   9.062  1.00  0.00     0.167 HD
ATOM     64  C   UNL     1      10.899   5.306   8.918  1.00  0.00     0.074 A 
ATOM     65  C   UNL     1      12.048   4.429   8.829  1.00  0.00     0.031 C 
ATOM     66  C   UNL     1      10.971   6.660   8.934  1.00  0.00     0.037 A 
BRANCH  53  67
ATOM     67  C   UNL     1       5.494   9.502   9.273  1.00  0.00     0.058 A 
ATOM     68  C   UNL     1       5.468  10.360   8.162  1.00  0.00     0.135 A 
ATOM     69  C   UNL     1       4.853   9.933  10.447  1.00  0.00     0.135 A 
ATOM     70  F   UNL     1       6.059   9.997   7.012  1.00  0.00    -0.206 F 
ATOM     71  C   UNL     1       4.849  11.605   8.217  1.00  0.00     0.059 A 
ATOM     72  C   UNL     1       4.203  11.162  10.516  1.00  0.00     0.059 A 
ATOM     73  F   UNL     1       4.829   9.142  11.531  1.00  0.00    -0.206 F 
ATOM     74  C   UNL     1       4.219  11.997   9.399  1.00  0.00     0.060 A 
BRANCH  74  75
ATOM     75  S   UNL     1       3.393  13.601   9.445  1.00  0.00     0.124 S 
ATOM     76  O   UNL     1       4.523  14.523   9.414  1.00  0.00    -0.237 OA
ATOM     77  O   UNL     1       2.574  13.557   8.237  1.00  0.00    -0.237 OA
ATOM     78  O   UNL     1       2.645  13.561  10.698  1.00  0.00    -0.744 OA
ENDBRANCH  74  75
ENDBRANCH  53  67
BRANCH  54  79
ATOM     79  C   UNL     1      10.136   0.655   8.917  1.00  0.00     0.058 A 
ATOM     80  C   UNL     1      10.009  -0.194   7.807  1.00  0.00     0.135 A 
ATOM     81  C   UNL     1      10.903   0.204  10.001  1.00  0.00     0.135 A 
ATOM     82  F   UNL     1       9.278   0.186   6.748  1.00  0.00    -0.206 F 
ATOM     83  C   UNL     1      10.593  -1.455   7.785  1.00  0.00     0.059 A 
ATOM     84  C   UNL     1      11.519  -1.045   9.993  1.00  0.00     0.059 A 
ATOM     85  F   UNL     1      11.063   0.986  11.080  1.00  0.00    -0.206 F 
ATOM     86  C   UNL     1      11.342  -1.874   8.886  1.00  0.00     0.060 A 
BRANCH  86  87
ATOM     87  S   UNL     1      12.071  -3.526   8.847  1.00  0.00     0.124 S 
ATOM     88  O   UNL     1      10.883  -4.369   8.933  1.00  0.00    -0.237 OA
ATOM     89  O   UNL     1      12.758  -3.525   7.559  1.00  0.00    -0.237 OA
ATOM     90  O   UNL     1      12.939  -3.540  10.020  1.00  0.00    -0.744 OA
ENDBRANCH  86  87
ENDBRANCH  54  79
BRANCH  66  91
ATOM     91  C   UNL     1      12.335   7.290   8.871  1.00  0.00     0.058 A 
ATOM     92  C   UNL     1      12.865   7.951   9.991  1.00  0.00     0.135 A 
ATOM     93  C   UNL     1      13.076   7.318   7.680  1.00  0.00     0.135 A 
ATOM     94  F   UNL     1      12.193   7.958  11.154  1.00  0.00    -0.206 F 
ATOM     95  C   UNL     1      14.072   8.638   9.926  1.00  0.00     0.059 A 
ATOM     96  C   UNL     1      14.300   7.977   7.600  1.00  0.00     0.059 A 
ATOM     97  F   UNL     1      12.618   6.692   6.585  1.00  0.00    -0.206 F 
ATOM     98  C   UNL     1      14.780   8.650   8.723  1.00  0.00     0.060 A 
BRANCH  98  99
ATOM     99  S   UNL     1      16.345   9.548   8.656  1.00  0.00     0.124 S 
ATOM    100  O   UNL     1      15.896  10.934   8.726  1.00  0.00    -0.237 OA
ATOM    101  O   UNL     1      17.040   9.045   9.837  1.00  0.00    -0.237 OA
ATOM    102  O   UNL     1      16.917   9.136   7.378  1.00  0.00    -0.744 OA
ENDBRANCH  98  99
ENDBRANCH  66  91
ENDBRANCH  40  41
ENDBRANCH  32  35
ENDBRANCH  30  31
ENDBRANCH   1  30
TORSDOF 17
