REMARK SMILES CCCCc1ncc(C[N@H+]2C[C@@H]3c4ccccc4OC[C@]3(C(=O)NCCCNC(=O)c3ccc(-c4c5nc(c(-c6c(F)cc(S(=O)(=O)[O-])cc6F)c6ccc([nH]6)c(-c6c(F)cc(S(=O)(=O)[O-])cc6F)c6nc(c(-c7c(F)cc(S(=O)(=O)[O-])cc7F)c7ccc4[nH]7)C=C6)C=C5)cc3)C2)[nH]1
REMARK SMILES IDX 25 1 24 2 22 3 23 4 21 6 10 7 11 8 97 9 12 11 13 12 20 13
REMARK SMILES IDX 14 14 18 15 19 16 15 17 17 18 16 19 9 20 8 21 5 22 6 23
REMARK SMILES IDX 98 24 7 25 4 27 3 28 2 29 1 30 26 31 27 32 28 33 29 34 30 36
REMARK SMILES IDX 31 37 32 38 96 39 33 40 95 41 34 42 35 43 36 44 89 45 37 46
REMARK SMILES IDX 94 47 88 48 90 49 38 50 93 51 87 52 86 53 39 55 73 56 52 57
REMARK SMILES IDX 72 58 53 59 56 60 71 61 91 62 54 63 55 64 70 66 92 67 57 68
REMARK SMILES IDX 40 69 41 70 50 71 42 72 43 73 49 74 51 75 44 76 45 77 46 78
REMARK SMILES IDX 47 79 48 80 74 81 75 82 84 83 76 84 77 85 83 86 85 87 78 88
REMARK SMILES IDX 79 89 80 90 81 91 82 92 58 93 59 94 68 95 60 96 61 97 67 98
REMARK SMILES IDX 69 99 62 100 63 101 64 102 65 103 66 104
REMARK H PARENT 24 5 10 10 98 26 28 35 90 54 56 65
REMARK Flexibility Score: inf
ROOT
ATOM      1  C   UNL     1      -2.735  -3.936   2.331  1.00  0.00     0.117 C 
ENDROOT
BRANCH   1   2
ATOM      2  N   UNL     1      -1.812  -3.516   1.258  1.00  0.00    -0.355 N 
ATOM      3  C   UNL     1      -1.745  -2.494   0.334  1.00  0.00     0.236 C 
ATOM      4  O   UNL     1      -0.626  -2.330  -0.164  1.00  0.00    -0.274 OA
ATOM      5  H   UNL     1      -1.043  -4.125   1.181  1.00  0.00     0.163 HD
BRANCH   3   6
ATOM      6  C   UNL     1      -2.984  -1.799  -0.292  1.00  0.00     0.144 C 
ATOM      7  N   UNL     1      -4.518  -0.273   0.930  1.00  0.00    -0.328 N 
ATOM      8  C   UNL     1      -4.120   0.406  -0.273  1.00  0.00     0.272 C 
ATOM      9  C   UNL     1      -4.013  -1.632   0.829  1.00  0.00     0.284 C 
ATOM     10  H   UNL     1      -5.537  -0.296   0.983  1.00  0.00     0.348 HD
ATOM     11  C   UNL     1      -2.885  -0.340  -0.844  1.00  0.00     0.103 C 
ATOM     12  C   UNL     1      -3.039  -0.149  -2.340  1.00  0.00     0.004 A 
ATOM     13  C   UNL     1      -3.189  -2.790  -1.465  1.00  0.00     0.253 C 
ATOM     14  C   UNL     1      -3.008   1.145  -2.904  1.00  0.00     0.008 A 
ATOM     15  C   UNL     1      -3.488  -1.194  -3.139  1.00  0.00     0.123 A 
ATOM     16  O   UNL     1      -3.937  -2.364  -2.592  1.00  0.00    -0.492 OA
ATOM     17  C   UNL     1      -3.365   1.358  -4.239  1.00  0.00     0.001 A 
ATOM     18  C   UNL     1      -3.726  -1.007  -4.502  1.00  0.00     0.047 A 
ATOM     19  C   UNL     1      -3.670   0.272  -5.053  1.00  0.00     0.004 A 
BRANCH   7  20
ATOM     20  C   UNL     1      -4.319   0.430   2.202  1.00  0.00     0.319 C 
BRANCH  20  21
ATOM     21  C   UNL     1      -3.096   1.279   2.304  1.00  0.00     0.090 A 
ATOM     22  C   UNL     1      -0.963   1.904   2.465  1.00  0.00     0.106 A 
ATOM     23  N   UNL     1      -1.643   3.014   2.255  1.00  0.00    -0.241 NA
ATOM     24  N   UNL     1      -1.829   0.839   2.606  1.00  0.00    -0.341 N 
ATOM     25  C   UNL     1      -2.954   2.643   2.167  1.00  0.00     0.140 A 
ATOM     26  H   UNL     1      -1.583  -0.075   2.877  1.00  0.00     0.168 HD
BRANCH  22  27
ATOM     27  C   UNL     1       0.534   1.849   2.527  1.00  0.00     0.075 C 
BRANCH  27  28
ATOM     28  C   UNL     1       1.189   0.471   2.566  1.00  0.00     0.008 C 
BRANCH  28  29
ATOM     29  C   UNL     1       0.919  -0.413   1.353  1.00  0.00    -0.003 C 
ATOM     30  C   UNL     1       1.402   0.139   0.022  1.00  0.00     0.004 C 
ENDBRANCH  28  29
ENDBRANCH  27  28
ENDBRANCH  22  27
ENDBRANCH  20  21
ENDBRANCH   7  20
ENDBRANCH   3   6
ENDBRANCH   1   2
BRANCH   1  31
ATOM     31  C   UNL     1      -3.867  -4.880   1.936  1.00  0.00     0.042 C 
BRANCH  31  32
ATOM     32  C   UNL     1      -3.446  -6.346   1.907  1.00  0.00     0.118 C 
BRANCH  32  33
ATOM     33  N   UNL     1      -2.892  -6.798   3.186  1.00  0.00    -0.352 N 
ATOM     34  C   UNL     1      -3.440  -7.539   4.205  1.00  0.00     0.251 C 
ATOM     35  H   UNL     1      -1.960  -6.520   3.344  1.00  0.00     0.163 HD
ATOM     36  O   UNL     1      -2.886  -7.549   5.306  1.00  0.00    -0.269 OA
BRANCH  34  37
ATOM     37  C   UNL     1      -4.676  -8.313   3.987  1.00  0.00     0.039 A 
ATOM     38  C   UNL     1      -4.881  -8.958   2.770  1.00  0.00     0.014 A 
ATOM     39  C   UNL     1      -5.633  -8.418   5.002  1.00  0.00     0.014 A 
ATOM     40  C   UNL     1      -6.122  -9.503   2.482  1.00  0.00     0.010 A 
ATOM     41  C   UNL     1      -6.838  -9.083   4.752  1.00  0.00     0.010 A 
ATOM     42  C   UNL     1      -7.117  -9.580   3.469  1.00  0.00    -0.014 A 
BRANCH  42  43
ATOM     43  C   UNL     1      -8.431 -10.179   3.115  1.00  0.00     0.031 A 
ATOM     44  C   UNL     1      -9.695  -9.366   3.204  1.00  0.00     0.074 A 
ATOM     45  C   UNL     1      -8.466 -11.438   2.632  1.00  0.00     0.049 A 
ATOM     46  N   UNL     1     -10.923  -9.723   2.928  1.00  0.00    -0.248 NA
ATOM     47  C   UNL     1      -9.572  -7.973   3.668  1.00  0.00     0.031 C 
ATOM     48  C   UNL     1      -7.300 -12.316   2.485  1.00  0.00     0.029 A 
ATOM     49  N   UNL     1      -9.504 -12.190   2.146  1.00  0.00    -0.354 N 
ATOM     50  C   UNL     1     -11.718  -8.617   3.208  1.00  0.00     0.074 A 
ATOM     51  C   UNL     1     -10.839  -7.581   3.701  1.00  0.00     0.031 C 
ATOM     52  C   UNL     1      -7.676 -13.455   1.888  1.00  0.00     0.029 A 
ATOM     53  C   UNL     1      -9.121 -13.431   1.693  1.00  0.00     0.049 A 
ATOM     54  H   UNL     1     -10.436 -11.871   2.123  1.00  0.00     0.167 HD
ATOM     55  C   UNL     1     -13.056  -8.479   3.056  1.00  0.00     0.037 A 
ATOM     56  C   UNL     1      -9.850 -14.451   1.203  1.00  0.00     0.037 A 
ATOM     57  C   UNL     1     -13.915  -9.508   2.527  1.00  0.00     0.049 A 
ATOM     58  C   UNL     1     -11.336 -14.283   1.082  1.00  0.00     0.074 A 
ATOM     59  C   UNL     1     -15.280  -9.455   2.306  1.00  0.00     0.029 A 
ATOM     60  N   UNL     1     -13.495 -10.770   2.133  1.00  0.00    -0.354 N 
ATOM     61  N   UNL     1     -12.068 -13.229   1.354  1.00  0.00    -0.248 NA
ATOM     62  C   UNL     1     -12.099 -15.442   0.602  1.00  0.00     0.031 C 
ATOM     63  C   UNL     1     -15.694 -10.702   1.830  1.00  0.00     0.029 A 
ATOM     64  C   UNL     1     -14.579 -11.515   1.698  1.00  0.00     0.049 A 
ATOM     65  H   UNL     1     -12.565 -11.089   2.159  1.00  0.00     0.167 HD
ATOM     66  C   UNL     1     -13.379 -13.596   1.074  1.00  0.00     0.074 A 
ATOM     67  C   UNL     1     -13.334 -14.959   0.584  1.00  0.00     0.031 C 
ATOM     68  C   UNL     1     -14.516 -12.872   1.217  1.00  0.00     0.037 A 
BRANCH  55  69
ATOM     69  C   UNL     1     -13.690  -7.179   3.474  1.00  0.00     0.058 A 
ATOM     70  C   UNL     1     -13.523  -5.999   2.733  1.00  0.00     0.135 A 
ATOM     71  C   UNL     1     -14.544  -7.135   4.589  1.00  0.00     0.135 A 
ATOM     72  F   UNL     1     -12.704  -5.978   1.670  1.00  0.00    -0.206 F 
ATOM     73  C   UNL     1     -14.172  -4.820   3.088  1.00  0.00     0.059 A 
ATOM     74  C   UNL     1     -15.224  -5.974   4.946  1.00  0.00     0.059 A 
ATOM     75  F   UNL     1     -14.738  -8.233   5.336  1.00  0.00    -0.206 F 
ATOM     76  C   UNL     1     -15.027  -4.819   4.192  1.00  0.00     0.060 A 
BRANCH  76  77
ATOM     77  S   UNL     1     -15.884  -3.287   4.615  1.00  0.00     0.124 S 
ATOM     78  O   UNL     1     -14.778  -2.448   5.064  1.00  0.00    -0.237 OA
ATOM     79  O   UNL     1     -16.489  -2.910   3.341  1.00  0.00    -0.237 OA
ATOM     80  O   UNL     1     -16.822  -3.696   5.656  1.00  0.00    -0.744 OA
ENDBRANCH  76  77
ENDBRANCH  55  69
BRANCH  56  81
ATOM     81  C   UNL     1      -9.177 -15.723   0.826  1.00  0.00     0.058 A 
ATOM     82  C   UNL     1      -9.102 -16.138  -0.511  1.00  0.00     0.135 A 
ATOM     83  C   UNL     1      -8.562 -16.531   1.797  1.00  0.00     0.135 A 
ATOM     84  F   UNL     1      -9.679 -15.405  -1.475  1.00  0.00    -0.206 F 
ATOM     85  C   UNL     1      -8.446 -17.311  -0.872  1.00  0.00     0.059 A 
ATOM     86  C   UNL     1      -7.873 -17.690   1.457  1.00  0.00     0.059 A 
ATOM     87  F   UNL     1      -8.592 -16.171   3.090  1.00  0.00    -0.206 F 
ATOM     88  C   UNL     1      -7.828 -18.076   0.119  1.00  0.00     0.060 A 
BRANCH  88  89
ATOM     89  S   UNL     1      -6.932 -19.565  -0.369  1.00  0.00     0.124 S 
ATOM     90  O   UNL     1      -8.023 -20.448  -0.766  1.00  0.00    -0.237 OA
ATOM     91  O   UNL     1      -6.085 -19.069  -1.449  1.00  0.00    -0.237 OA
ATOM     92  O   UNL     1      -6.223 -19.946   0.849  1.00  0.00    -0.744 OA
ENDBRANCH  88  89
ENDBRANCH  56  81
BRANCH  68  93
ATOM     93  C   UNL     1     -15.808 -13.534   0.831  1.00  0.00     0.058 A 
ATOM     94  C   UNL     1     -16.377 -14.546   1.619  1.00  0.00     0.135 A 
ATOM     95  C   UNL     1     -16.517 -13.108  -0.304  1.00  0.00     0.135 A 
ATOM     96  F   UNL     1     -15.735 -14.996   2.709  1.00  0.00    -0.206 F 
ATOM     97  C   UNL     1     -17.596 -15.125   1.286  1.00  0.00     0.059 A 
ATOM     98  C   UNL     1     -17.753 -13.651  -0.639  1.00  0.00     0.059 A 
ATOM     99  F   UNL     1     -16.021 -12.136  -1.086  1.00  0.00    -0.206 F 
ATOM    100  C   UNL     1     -18.280 -14.666   0.158  1.00  0.00     0.060 A 
BRANCH 100 101
ATOM    101  S   UNL     1     -19.880 -15.401  -0.235  1.00  0.00     0.124 S 
ATOM    102  O   UNL     1     -19.492 -16.741  -0.663  1.00  0.00    -0.237 OA
ATOM    103  O   UNL     1     -20.580 -15.322   1.043  1.00  0.00    -0.237 OA
ATOM    104  O   UNL     1     -20.404 -14.535  -1.287  1.00  0.00    -0.744 OA
ENDBRANCH 100 101
ENDBRANCH  68  93
ENDBRANCH  42  43
ENDBRANCH  34  37
ENDBRANCH  32  33
ENDBRANCH  31  32
ENDBRANCH   1  31
TORSDOF 18
