REMARK SMILES C#CCN(CC(=O)NCCCNC(=O)c1ccc(-c2c3nc(c(-c4c(F)cc(S(=O)(=O)[O-])cc4F)c4ccc([nH]4)c(-c4c(F)cc(S(=O)(=O)[O-])cc4F)c4nc(c(-c5c(F)cc(S(=O)(=O)[O-])cc5F)c5ccc2[nH]5)C=C4)C=C3)cc1)C(=O)c1c[nH]c(=O)[nH]1
REMARK SMILES IDX 10 1 9 2 8 3 6 4 7 5 5 7 4 8 3 9 2 10 1 11 81 12 82 13 83 14
REMARK SMILES IDX 84 15 88 16 85 17 86 18 87 21 11 22 12 23 13 24 14 26 15 27
REMARK SMILES IDX 16 28 80 29 17 30 79 31 18 32 19 33 20 34 73 35 21 36 78 37
REMARK SMILES IDX 72 38 74 39 22 40 77 41 71 42 70 43 23 45 57 46 36 47 56 48
REMARK SMILES IDX 37 49 40 50 55 51 75 52 38 53 39 54 54 56 76 57 41 58 24 59
REMARK SMILES IDX 25 60 34 61 26 62 27 63 33 64 35 65 28 66 29 67 30 68 31 69
REMARK SMILES IDX 32 70 58 71 59 72 68 73 60 74 61 75 67 76 69 77 62 78 63 79
REMARK SMILES IDX 64 80 65 81 66 82 42 83 43 84 52 85 44 86 45 87 51 88 53 89
REMARK SMILES IDX 46 90 47 91 48 92 49 93 50 94
REMARK H PARENT 8 6 88 19 85 20 12 25 74 44 40 55
REMARK Flexibility Score: inf
ROOT
ATOM      1  C   UNL     1      -4.911   0.576   1.554  1.00  0.00     0.042 C 
ENDROOT
BRANCH   1   2
ATOM      2  C   UNL     1      -5.115  -0.162   0.234  1.00  0.00     0.117 C 
BRANCH   2   3
ATOM      3  N   UNL     1      -5.369   0.713  -0.890  1.00  0.00    -0.354 N 
ATOM      4  C   UNL     1      -4.560   1.047  -1.935  1.00  0.00     0.239 C 
ATOM      5  O   UNL     1      -5.106   1.519  -2.937  1.00  0.00    -0.273 OA
ATOM      6  H   UNL     1      -6.261   1.131  -0.902  1.00  0.00     0.163 HD
BRANCH   4   7
ATOM      7  C   UNL     1      -3.050   0.750  -1.938  1.00  0.00     0.220 C 
BRANCH   7   8
ATOM      8  N   UNL     1      -2.339   1.082  -0.700  1.00  0.00    -0.317 N 
BRANCH   8   9
ATOM      9  C   UNL     1      -1.796  -0.018   0.094  1.00  0.00     0.210 C 
BRANCH   9  10
ATOM     10  C   UNL     1      -0.276  -0.018   0.094  1.00  0.00    -0.085 C 
ATOM     11  C   UNL     1       1.028  -0.018   0.094  1.00  0.00     0.006 C 
ENDBRANCH   9  10
ENDBRANCH   8   9
BRANCH   8  12
ATOM     12  C   UNL     1      -2.056   2.381  -0.286  1.00  0.00     0.273 C 
ATOM     13  O   UNL     1      -1.474   2.639   0.765  1.00  0.00    -0.267 OA
BRANCH  12  14
ATOM     14  C   UNL     1      -2.408   3.507  -1.186  1.00  0.00     0.125 A 
ATOM     15  C   UNL     1      -3.613   4.013  -1.487  1.00  0.00     0.119 A 
ATOM     16  N   UNL     1      -1.447   4.285  -1.794  1.00  0.00    -0.302 N 
ATOM     17  N   UNL     1      -3.439   5.088  -2.324  1.00  0.00    -0.312 N 
ATOM     18  C   UNL     1      -2.070   5.294  -2.532  1.00  0.00     0.323 A 
ATOM     19  H   UNL     1      -0.475   4.151  -1.719  1.00  0.00     0.172 HD
ATOM     20  H   UNL     1      -4.163   5.629  -2.715  1.00  0.00     0.171 HD
ATOM     21  O   UNL     1      -1.543   6.161  -3.207  1.00  0.00    -0.248 OA
ENDBRANCH  12  14
ENDBRANCH   8  12
ENDBRANCH   7   8
ENDBRANCH   4   7
ENDBRANCH   2   3
ENDBRANCH   1   2
BRANCH   1  22
ATOM     22  C   UNL     1      -6.156   1.271   2.094  1.00  0.00     0.118 C 
BRANCH  22  23
ATOM     23  N   UNL     1      -7.266   0.352   2.290  1.00  0.00    -0.352 N 
ATOM     24  C   UNL     1      -7.958   0.003   3.420  1.00  0.00     0.251 C 
ATOM     25  H   UNL     1      -7.574  -0.096   1.469  1.00  0.00     0.163 HD
ATOM     26  O   UNL     1      -8.704  -0.974   3.370  1.00  0.00    -0.269 OA
BRANCH  24  27
ATOM     27  C   UNL     1      -7.827   0.769   4.681  1.00  0.00     0.039 A 
ATOM     28  C   UNL     1      -7.928   0.078   5.893  1.00  0.00     0.014 A 
ATOM     29  C   UNL     1      -7.685   2.159   4.688  1.00  0.00     0.014 A 
ATOM     30  C   UNL     1      -7.852   0.774   7.101  1.00  0.00     0.010 A 
ATOM     31  C   UNL     1      -7.522   2.840   5.894  1.00  0.00     0.010 A 
ATOM     32  C   UNL     1      -7.623   2.159   7.114  1.00  0.00    -0.014 A 
BRANCH  32  33
ATOM     33  C   UNL     1      -7.507   2.901   8.397  1.00  0.00     0.031 A 
ATOM     34  C   UNL     1      -8.508   3.970   8.754  1.00  0.00     0.074 A 
ATOM     35  C   UNL     1      -6.482   2.632   9.230  1.00  0.00     0.049 A 
ATOM     36  N   UNL     1      -8.562   4.729   9.818  1.00  0.00    -0.248 NA
ATOM     37  C   UNL     1      -9.576   4.238   7.776  1.00  0.00     0.031 C 
ATOM     38  C   UNL     1      -5.422   1.653   8.974  1.00  0.00     0.029 A 
ATOM     39  N   UNL     1      -6.160   3.154  10.457  1.00  0.00    -0.354 N 
ATOM     40  C   UNL     1      -9.658   5.565   9.636  1.00  0.00     0.074 A 
ATOM     41  C   UNL     1     -10.205   5.264   8.332  1.00  0.00     0.031 C 
ATOM     42  C   UNL     1      -4.588   1.622  10.025  1.00  0.00     0.029 A 
ATOM     43  C   UNL     1      -5.027   2.605  11.011  1.00  0.00     0.049 A 
ATOM     44  H   UNL     1      -6.690   3.856  10.900  1.00  0.00     0.167 HD
ATOM     45  C   UNL     1     -10.178   6.481  10.489  1.00  0.00     0.037 A 
ATOM     46  C   UNL     1      -4.408   2.866  12.179  1.00  0.00     0.037 A 
ATOM     47  C   UNL     1      -9.637   6.763  11.794  1.00  0.00     0.049 A 
ATOM     48  C   UNL     1      -4.997   3.899  13.102  1.00  0.00     0.074 A 
ATOM     49  C   UNL     1     -10.120   7.633  12.756  1.00  0.00     0.029 A 
ATOM     50  N   UNL     1      -8.490   6.185  12.320  1.00  0.00    -0.354 N 
ATOM     51  N   UNL     1      -6.076   4.628  12.944  1.00  0.00    -0.248 NA
ATOM     52  C   UNL     1      -4.289   4.138  14.367  1.00  0.00     0.031 C 
ATOM     53  C   UNL     1      -9.236   7.623  13.839  1.00  0.00     0.029 A 
ATOM     54  C   UNL     1      -8.234   6.701  13.580  1.00  0.00     0.049 A 
ATOM     55  H   UNL     1      -7.939   5.509  11.864  1.00  0.00     0.167 HD
ATOM     56  C   UNL     1      -6.190   5.394  14.099  1.00  0.00     0.074 A 
ATOM     57  C   UNL     1      -5.082   5.023  14.955  1.00  0.00     0.031 C 
ATOM     58  C   UNL     1      -7.127   6.321  14.423  1.00  0.00     0.037 A 
BRANCH  45  59
ATOM     59  C   UNL     1     -11.398   7.242  10.041  1.00  0.00     0.058 A 
ATOM     60  C   UNL     1     -12.647   6.616   9.891  1.00  0.00     0.135 A 
ATOM     61  C   UNL     1     -11.330   8.624   9.798  1.00  0.00     0.135 A 
ATOM     62  F   UNL     1     -12.770   5.295  10.096  1.00  0.00    -0.206 F 
ATOM     63  C   UNL     1     -13.774   7.324   9.487  1.00  0.00     0.059 A 
ATOM     64  C   UNL     1     -12.453   9.359   9.424  1.00  0.00     0.059 A 
ATOM     65  F   UNL     1     -10.164   9.277   9.926  1.00  0.00    -0.206 F 
ATOM     66  C   UNL     1     -13.668   8.696   9.257  1.00  0.00     0.060 A 
BRANCH  66  67
ATOM     67  S   UNL     1     -15.143   9.598   8.740  1.00  0.00     0.124 S 
ATOM     68  O   UNL     1     -15.322   9.107   7.377  1.00  0.00    -0.237 OA
ATOM     69  O   UNL     1     -16.137   9.150   9.709  1.00  0.00    -0.237 OA
ATOM     70  O   UNL     1     -14.745  10.998   8.854  1.00  0.00    -0.744 OA
ENDBRANCH  66  67
ENDBRANCH  45  59
BRANCH  46  71
ATOM     71  C   UNL     1      -3.172   2.124  12.550  1.00  0.00     0.058 A 
ATOM     72  C   UNL     1      -3.170   1.207  13.611  1.00  0.00     0.135 A 
ATOM     73  C   UNL     1      -1.971   2.312  11.848  1.00  0.00     0.135 A 
ATOM     74  F   UNL     1      -4.291   0.996  14.317  1.00  0.00    -0.206 F 
ATOM     75  C   UNL     1      -2.018   0.518  13.978  1.00  0.00     0.059 A 
ATOM     76  C   UNL     1      -0.814   1.612  12.176  1.00  0.00     0.059 A 
ATOM     77  F   UNL     1      -1.922   3.165  10.812  1.00  0.00    -0.206 F 
ATOM     78  C   UNL     1      -0.845   0.726  13.252  1.00  0.00     0.060 A 
BRANCH  78  79
ATOM     79  S   UNL     1       0.633  -0.205  13.711  1.00  0.00     0.124 S 
ATOM     80  O   UNL     1       1.000   0.430  14.971  1.00  0.00    -0.237 OA
ATOM     81  O   UNL     1       0.117  -1.567  13.809  1.00  0.00    -0.237 OA
ATOM     82  O   UNL     1       1.542   0.034  12.594  1.00  0.00    -0.744 OA
ENDBRANCH  78  79
ENDBRANCH  46  71
BRANCH  58  83
ATOM     83  C   UNL     1      -7.013   6.978  15.772  1.00  0.00     0.058 A 
ATOM     84  C   UNL     1      -5.992   7.895  16.064  1.00  0.00     0.135 A 
ATOM     85  C   UNL     1      -7.963   6.716  16.773  1.00  0.00     0.135 A 
ATOM     86  F   UNL     1      -5.053   8.178  15.147  1.00  0.00    -0.206 F 
ATOM     87  C   UNL     1      -5.898   8.506  17.311  1.00  0.00     0.059 A 
ATOM     88  C   UNL     1      -7.909   7.341  18.015  1.00  0.00     0.059 A 
ATOM     89  F   UNL     1      -8.968   5.856  16.543  1.00  0.00    -0.206 F 
ATOM     90  C   UNL     1      -6.863   8.223  18.279  1.00  0.00     0.060 A 
BRANCH  90  91
ATOM     91  S   UNL     1      -6.744   9.043  19.883  1.00  0.00     0.124 S 
ATOM     92  O   UNL     1      -5.601   8.358  20.479  1.00  0.00    -0.237 OA
ATOM     93  O   UNL     1      -6.523  10.435  19.506  1.00  0.00    -0.237 OA
ATOM     94  O   UNL     1      -8.035   8.765  20.505  1.00  0.00    -0.744 OA
ENDBRANCH  90  91
ENDBRANCH  58  83
ENDBRANCH  32  33
ENDBRANCH  24  27
ENDBRANCH  22  23
ENDBRANCH   1  22
TORSDOF 18
