REMARK SMILES O=C(NCCCNC(=O)c1ccn(-c2cc(-c3ccncc3)nc(-c3ccccc3F)n2)n1)c1ccc(-c2c3nc(c(-c4c(F)cc(S(=O)(=O)[O-])cc4F)c4ccc([nH]4)c(-c4c(F)cc(S(=O)(=O)[O-])cc4F)c4nc(c(-c5c(F)cc(S(=O)(=O)[O-])cc5F)c5ccc2[nH]5)C=C4)C=C3)cc1
REMARK SMILES IDX 4 1 3 2 1 3 2 4 34 6 35 7 99 8 36 9 98 10 37 11 38 12 39 13
REMARK SMILES IDX 92 14 40 15 97 16 91 17 93 18 41 19 96 20 90 21 89 22 42 24
REMARK SMILES IDX 76 25 55 26 75 27 56 28 59 29 74 30 94 31 57 32 58 33 73 35
REMARK SMILES IDX 95 36 60 37 43 38 44 39 53 40 45 41 46 42 52 43 54 44 47 45
REMARK SMILES IDX 48 46 49 47 50 48 51 49 77 50 78 51 87 52 79 53 80 54 86 55
REMARK SMILES IDX 88 56 81 57 82 58 83 59 84 60 85 61 61 62 62 63 71 64 63 65
REMARK SMILES IDX 64 66 70 67 72 68 65 69 66 70 67 71 68 72 69 73 5 74 6 75
REMARK SMILES IDX 7 76 8 77 9 79 10 80 11 81 33 82 12 83 13 84 14 85 15 86
REMARK SMILES IDX 32 87 16 88 24 89 23 90 17 91 18 92 22 93 19 94 21 95 20 96
REMARK SMILES IDX 25 97 26 98 30 99 27 100 29 101 31 102 28 103
REMARK H PARENT 3 5 93 23 59 34 7 78
REMARK Flexibility Score: inf
ROOT
ATOM      1  C   UNL     1       4.725  -1.045   0.532  1.00  0.00     0.118 C 
ENDROOT
BRANCH   1   2
ATOM      2  N   UNL     1       3.335  -1.116   0.127  1.00  0.00    -0.352 N 
ATOM      3  O   UNL     1       1.279  -0.618  -0.494  1.00  0.00    -0.269 OA
ATOM      4  C   UNL     1       2.294  -0.230   0.092  1.00  0.00     0.251 C 
ATOM      5  H   UNL     1       3.081  -2.010  -0.198  1.00  0.00     0.163 HD
BRANCH   4   6
ATOM      6  C   UNL     1       2.276   1.102   0.755  1.00  0.00     0.039 A 
ATOM      7  C   UNL     1       3.393   1.810   1.201  1.00  0.00     0.014 A 
ATOM      8  C   UNL     1       1.002   1.673   0.940  1.00  0.00     0.014 A 
ATOM      9  C   UNL     1       3.237   3.017   1.884  1.00  0.00     0.010 A 
ATOM     10  C   UNL     1       0.841   2.882   1.608  1.00  0.00     0.010 A 
ATOM     11  C   UNL     1       1.961   3.544   2.103  1.00  0.00    -0.014 A 
BRANCH  11  12
ATOM     12  C   UNL     1       1.845   4.882   2.684  1.00  0.00     0.031 A 
ATOM     13  C   UNL     1       2.343   5.983   1.808  1.00  0.00     0.074 A 
ATOM     14  C   UNL     1       1.177   5.160   3.823  1.00  0.00     0.049 A 
ATOM     15  N   UNL     1       3.301   6.823   2.033  1.00  0.00    -0.248 NA
ATOM     16  C   UNL     1       1.758   6.095   0.461  1.00  0.00     0.031 C 
ATOM     17  C   UNL     1       0.361   4.246   4.623  1.00  0.00     0.029 A 
ATOM     18  N   UNL     1       0.994   6.362   4.446  1.00  0.00    -0.354 N 
ATOM     19  C   UNL     1       3.300   7.703   0.951  1.00  0.00     0.074 A 
ATOM     20  C   UNL     1       2.450   7.113  -0.050  1.00  0.00     0.031 C 
ATOM     21  C   UNL     1      -0.394   4.962   5.487  1.00  0.00     0.029 A 
ATOM     22  C   UNL     1      -0.029   6.366   5.390  1.00  0.00     0.049 A 
ATOM     23  H   UNL     1       1.538   7.157   4.245  1.00  0.00     0.167 HD
ATOM     24  C   UNL     1       3.816   8.961   1.041  1.00  0.00     0.037 A 
ATOM     25  C   UNL     1      -0.578   7.452   5.996  1.00  0.00     0.037 A 
ATOM     26  C   UNL     1       4.691   9.095   2.175  1.00  0.00     0.049 A 
ATOM     27  C   UNL     1       0.396   8.565   5.879  1.00  0.00     0.074 A 
ATOM     28  C   UNL     1       5.853   8.477   2.592  1.00  0.00     0.029 A 
ATOM     29  N   UNL     1       4.217   9.777   3.267  1.00  0.00    -0.354 N 
ATOM     30  N   UNL     1       1.552   8.601   6.482  1.00  0.00    -0.248 NA
ATOM     31  C   UNL     1       0.243   9.493   4.769  1.00  0.00     0.031 C 
ATOM     32  C   UNL     1       5.755   8.426   4.013  1.00  0.00     0.029 A 
ATOM     33  C   UNL     1       4.565   9.056   4.379  1.00  0.00     0.049 A 
ATOM     34  H   UNL     1       3.720  10.626   3.255  1.00  0.00     0.167 HD
ATOM     35  C   UNL     1       2.400   9.224   5.580  1.00  0.00     0.074 A 
ATOM     36  C   UNL     1       1.518   9.849   4.600  1.00  0.00     0.031 C 
ATOM     37  C   UNL     1       3.735   8.942   5.558  1.00  0.00     0.037 A 
BRANCH  24  38
ATOM     38  C   UNL     1       3.251  10.166   0.318  1.00  0.00     0.058 A 
ATOM     39  C   UNL     1       1.920  10.245  -0.148  1.00  0.00     0.135 A 
ATOM     40  C   UNL     1       3.955  11.390   0.349  1.00  0.00     0.135 A 
ATOM     41  F   UNL     1       1.098   9.189  -0.146  1.00  0.00    -0.206 F 
ATOM     42  C   UNL     1       1.329  11.437  -0.545  1.00  0.00     0.059 A 
ATOM     43  C   UNL     1       3.361  12.608   0.010  1.00  0.00     0.059 A 
ATOM     44  F   UNL     1       5.222  11.438   0.792  1.00  0.00    -0.206 F 
ATOM     45  C   UNL     1       2.044  12.620  -0.431  1.00  0.00     0.060 A 
BRANCH  45  46
ATOM     46  S   UNL     1       1.173  14.161  -0.763  1.00  0.00     0.124 S 
ATOM     47  O   UNL     1       0.976  14.078  -2.207  1.00  0.00    -0.237 OA
ATOM     48  O   UNL     1      -0.027  14.010   0.053  1.00  0.00    -0.237 OA
ATOM     49  O   UNL     1       2.112  15.182  -0.311  1.00  0.00    -0.744 OA
ENDBRANCH  45  46
ENDBRANCH  24  38
BRANCH  25  50
ATOM     50  C   UNL     1      -1.999   7.693   6.377  1.00  0.00     0.058 A 
ATOM     51  C   UNL     1      -3.058   7.022   5.736  1.00  0.00     0.135 A 
ATOM     52  C   UNL     1      -2.359   8.806   7.163  1.00  0.00     0.135 A 
ATOM     53  F   UNL     1      -2.831   5.975   4.930  1.00  0.00    -0.206 F 
ATOM     54  C   UNL     1      -4.378   7.461   5.814  1.00  0.00     0.059 A 
ATOM     55  C   UNL     1      -3.677   9.272   7.249  1.00  0.00     0.059 A 
ATOM     56  F   UNL     1      -1.415   9.513   7.804  1.00  0.00    -0.206 F 
ATOM     57  C   UNL     1      -4.675   8.608   6.542  1.00  0.00     0.060 A 
BRANCH  57  58
ATOM     58  S   UNL     1      -6.361   9.253   6.453  1.00  0.00     0.124 S 
ATOM     59  O   UNL     1      -6.494   9.546   5.030  1.00  0.00    -0.237 OA
ATOM     60  O   UNL     1      -7.145   8.121   6.939  1.00  0.00    -0.237 OA
ATOM     61  O   UNL     1      -6.332  10.416   7.334  1.00  0.00    -0.744 OA
ENDBRANCH  57  58
ENDBRANCH  25  50
BRANCH  37  62
ATOM     62  C   UNL     1       4.343   8.242   6.745  1.00  0.00     0.058 A 
ATOM     63  C   UNL     1       5.429   8.863   7.381  1.00  0.00     0.135 A 
ATOM     64  C   UNL     1       4.007   6.943   7.167  1.00  0.00     0.135 A 
ATOM     65  F   UNL     1       5.832  10.084   6.990  1.00  0.00    -0.206 F 
ATOM     66  C   UNL     1       6.158   8.229   8.381  1.00  0.00     0.059 A 
ATOM     67  C   UNL     1       4.702   6.301   8.195  1.00  0.00     0.059 A 
ATOM     68  F   UNL     1       3.047   6.241   6.548  1.00  0.00    -0.206 F 
ATOM     69  C   UNL     1       5.789   6.946   8.782  1.00  0.00     0.060 A 
BRANCH  69  70
ATOM     70  S   UNL     1       6.779   6.135  10.054  1.00  0.00     0.124 S 
ATOM     71  O   UNL     1       8.045   5.920   9.358  1.00  0.00    -0.237 OA
ATOM     72  O   UNL     1       6.806   7.137  11.115  1.00  0.00    -0.237 OA
ATOM     73  O   UNL     1       6.026   4.922  10.362  1.00  0.00    -0.744 OA
ENDBRANCH  69  70
ENDBRANCH  37  62
ENDBRANCH  11  12
ENDBRANCH   4   6
ENDBRANCH   1   2
BRANCH   1  74
ATOM     74  C   UNL     1       4.978  -1.159   2.036  1.00  0.00     0.042 C 
BRANCH  74  75
ATOM     75  C   UNL     1       4.429  -2.430   2.684  1.00  0.00     0.118 C 
BRANCH  75  76
ATOM     76  N   UNL     1       5.026  -3.629   2.125  1.00  0.00    -0.351 N 
ATOM     77  C   UNL     1       5.929  -4.498   2.687  1.00  0.00     0.271 C 
ATOM     78  H   UNL     1       4.742  -3.852   1.209  1.00  0.00     0.163 HD
ATOM     79  O   UNL     1       6.452  -5.343   1.961  1.00  0.00    -0.267 OA
BRANCH  77  80
ATOM     80  C   UNL     1       6.187  -4.437   4.130  1.00  0.00     0.150 A 
ATOM     81  C   UNL     1       5.242  -4.619   5.173  1.00  0.00     0.056 A 
ATOM     82  N   UNL     1       7.429  -4.282   4.627  1.00  0.00    -0.161 NA
ATOM     83  C   UNL     1       5.988  -4.710   6.321  1.00  0.00     0.118 A 
ATOM     84  N   UNL     1       7.302  -4.534   5.955  1.00  0.00    -0.222 N 
BRANCH  84  85
ATOM     85  C   UNL     1       8.431  -4.649   6.814  1.00  0.00     0.158 A 
ATOM     86  C   UNL     1       9.588  -3.978   6.477  1.00  0.00     0.078 A 
ATOM     87  N   UNL     1       8.312  -5.413   7.924  1.00  0.00    -0.209 NA
ATOM     88  C   UNL     1      10.632  -4.089   7.372  1.00  0.00     0.077 A 
ATOM     89  C   UNL     1       9.412  -5.519   8.687  1.00  0.00     0.165 A 
ATOM     90  N   UNL     1      10.578  -4.895   8.453  1.00  0.00    -0.228 NA
BRANCH  88  91
ATOM     91  C   UNL     1      11.857  -3.297   7.232  1.00  0.00     0.003 A 
ATOM     92  C   UNL     1      11.811  -1.897   7.250  1.00  0.00     0.030 A 
ATOM     93  C   UNL     1      13.106  -3.910   7.104  1.00  0.00     0.030 A 
ATOM     94  C   UNL     1      12.992  -1.184   7.126  1.00  0.00     0.111 A 
ATOM     95  C   UNL     1      14.231  -3.111   6.975  1.00  0.00     0.111 A 
ATOM     96  N   UNL     1      14.202  -1.762   6.976  1.00  0.00    -0.265 NA
ENDBRANCH  88  91
BRANCH  89  97
ATOM     97  C   UNL     1       9.374  -6.483   9.779  1.00  0.00     0.055 A 
ATOM     98  C   UNL     1       9.240  -7.861   9.521  1.00  0.00     0.015 A 
ATOM     99  C   UNL     1       9.477  -6.075  11.111  1.00  0.00     0.134 A 
ATOM    100  C   UNL     1       9.221  -8.791  10.566  1.00  0.00     0.001 A 
ATOM    101  C   UNL     1       9.448  -6.996  12.159  1.00  0.00     0.040 A 
ATOM    102  F   UNL     1       9.585  -4.774  11.415  1.00  0.00    -0.206 F 
ATOM    103  C   UNL     1       9.324  -8.357  11.886  1.00  0.00     0.003 A 
ENDBRANCH  89  97
ENDBRANCH  84  85
ENDBRANCH  77  80
ENDBRANCH  75  76
ENDBRANCH  74  75
ENDBRANCH   1  74
TORSDOF 16
