REMARK SMILES CCC(CC)NC(=O)N[C@@H]1C=C[C@@H](C(=O)NCCCNC(=O)c2ccc(-c3c4nc(c(-c5c(F)cc(S(=O)(=O)[O-])cc5F)c5ccc([nH]5)c(-c5c(F)cc(S(=O)(=O)[O-])cc5F)c5nc(c(-c6c(F)cc(S(=O)(=O)[O-])cc6F)c6ccc3[nH]6)C=C5)C=C4)cc2)C1
REMARK SMILES IDX 18 1 17 2 16 3 14 4 15 5 13 7 10 8 11 9 89 10 12 11 9 12
REMARK SMILES IDX 6 13 7 14 8 16 3 18 2 19 1 20 4 21 5 22 19 23 20 24 21 25
REMARK SMILES IDX 22 27 23 28 24 29 88 30 25 31 87 32 26 33 27 34 28 35 81 36
REMARK SMILES IDX 29 37 86 38 80 39 82 40 30 41 85 42 79 43 78 44 31 46 65 47
REMARK SMILES IDX 44 48 64 49 45 50 48 51 63 52 83 53 46 54 47 55 62 57 84 58
REMARK SMILES IDX 49 59 32 60 33 61 42 62 34 63 35 64 41 65 43 66 36 67 37 68
REMARK SMILES IDX 38 69 39 70 40 71 66 72 67 73 76 74 68 75 69 76 75 77 77 78
REMARK SMILES IDX 70 79 71 80 72 81 73 82 74 83 50 84 51 85 60 86 52 87 53 88
REMARK SMILES IDX 59 89 61 90 54 91 55 92 56 93 57 94 58 95
REMARK H PARENT 16 6 6 15 9 17 20 26 82 45 48 56
REMARK Flexibility Score: inf
ROOT
ATOM      1  C   UNL     1       3.330   0.460   6.197  1.00  0.00     0.042 C 
ENDROOT
BRANCH   1   2
ATOM      2  C   UNL     1       4.419   0.565   5.161  1.00  0.00     0.117 C 
BRANCH   2   3
ATOM      3  N   UNL     1       4.364  -0.571   4.259  1.00  0.00    -0.356 N 
ATOM      4  C   UNL     1       4.036  -0.614   2.946  1.00  0.00     0.227 C 
ATOM      5  O   UNL     1       3.803  -1.715   2.442  1.00  0.00    -0.274 OA
ATOM      6  H   UNL     1       4.601  -1.438   4.661  1.00  0.00     0.163 HD
BRANCH   4   7
ATOM      7  C   UNL     1       4.021   0.646   2.103  1.00  0.00     0.103 C 
ATOM      8  C   UNL     1       3.146   2.882   1.794  1.00  0.00     0.107 C 
ATOM      9  C   UNL     1       4.507   2.943   2.380  1.00  0.00    -0.006 C 
ATOM     10  C   UNL     1       2.714   1.419   2.002  1.00  0.00     0.047 C 
ATOM     11  C   UNL     1       5.002   1.709   2.553  1.00  0.00    -0.016 C 
BRANCH   8  12
ATOM     12  N   UNL     1       3.080   3.409   0.427  1.00  0.00    -0.332 N 
ATOM     13  N   UNL     1       4.787   2.795  -1.153  1.00  0.00    -0.335 N 
ATOM     14  C   UNL     1       3.643   3.382  -0.783  1.00  0.00     0.315 C 
ATOM     15  H   UNL     1       4.970   2.877  -2.117  1.00  0.00     0.165 HD
ATOM     16  O   UNL     1       3.038   3.997  -1.670  1.00  0.00    -0.249 OA
ATOM     17  H   UNL     1       2.317   4.030   0.385  1.00  0.00     0.165 HD
BRANCH  13  18
ATOM     18  C   UNL     1       5.812   2.064  -0.440  1.00  0.00     0.083 C 
BRANCH  18  19
ATOM     19  C   UNL     1       6.180   0.716  -1.078  1.00  0.00     0.021 C 
ATOM     20  C   UNL     1       6.958  -0.190  -0.120  1.00  0.00     0.006 C 
ENDBRANCH  18  19
BRANCH  18  21
ATOM     21  C   UNL     1       6.975   2.946   0.036  1.00  0.00     0.021 C 
ATOM     22  C   UNL     1       8.103   3.117  -0.963  1.00  0.00     0.006 C 
ENDBRANCH  18  21
ENDBRANCH  13  18
ENDBRANCH   8  12
ENDBRANCH   4   7
ENDBRANCH   2   3
ENDBRANCH   1   2
BRANCH   1  23
ATOM     23  C   UNL     1       3.546  -0.745   7.082  1.00  0.00     0.118 C 
BRANCH  23  24
ATOM     24  N   UNL     1       4.790  -0.630   7.841  1.00  0.00    -0.352 N 
ATOM     25  C   UNL     1       4.963  -0.221   9.140  1.00  0.00     0.251 C 
ATOM     26  H   UNL     1       5.611  -0.878   7.358  1.00  0.00     0.163 HD
ATOM     27  O   UNL     1       6.066   0.145   9.539  1.00  0.00    -0.269 OA
BRANCH  25  28
ATOM     28  C   UNL     1       3.790  -0.219  10.029  1.00  0.00     0.039 A 
ATOM     29  C   UNL     1       3.563   0.848  10.896  1.00  0.00     0.014 A 
ATOM     30  C   UNL     1       2.872  -1.265   9.932  1.00  0.00     0.014 A 
ATOM     31  C   UNL     1       2.367   0.893  11.612  1.00  0.00     0.010 A 
ATOM     32  C   UNL     1       1.623  -1.129  10.504  1.00  0.00     0.010 A 
ATOM     33  C   UNL     1       1.371  -0.073  11.386  1.00  0.00    -0.014 A 
BRANCH  33  34
ATOM     34  C   UNL     1       0.072  -0.050  12.095  1.00  0.00     0.031 A 
ATOM     35  C   UNL     1      -0.331  -1.238  12.930  1.00  0.00     0.074 A 
ATOM     36  C   UNL     1      -0.767   0.989  11.922  1.00  0.00     0.049 A 
ATOM     37  N   UNL     1      -1.451  -1.459  13.565  1.00  0.00    -0.248 NA
ATOM     38  C   UNL     1       0.635  -2.347  13.024  1.00  0.00     0.031 C 
ATOM     39  C   UNL     1      -0.506   2.163  11.085  1.00  0.00     0.029 A 
ATOM     40  N   UNL     1      -2.013   1.224  12.442  1.00  0.00    -0.354 N 
ATOM     41  C   UNL     1      -1.329  -2.734  14.106  1.00  0.00     0.074 A 
ATOM     42  C   UNL     1      -0.069  -3.272  13.652  1.00  0.00     0.031 C 
ATOM     43  C   UNL     1      -1.535   3.019  11.194  1.00  0.00     0.029 A 
ATOM     44  C   UNL     1      -2.548   2.433  12.066  1.00  0.00     0.049 A 
ATOM     45  H   UNL     1      -2.480   0.588  13.029  1.00  0.00     0.167 HD
ATOM     46  C   UNL     1      -2.173  -3.384  14.941  1.00  0.00     0.037 A 
ATOM     47  C   UNL     1      -3.723   3.002  12.395  1.00  0.00     0.037 A 
ATOM     48  C   UNL     1      -3.408  -2.819  15.412  1.00  0.00     0.049 A 
ATOM     49  C   UNL     1      -4.651   2.261  13.318  1.00  0.00     0.074 A 
ATOM     50  C   UNL     1      -4.311  -3.352  16.312  1.00  0.00     0.029 A 
ATOM     51  N   UNL     1      -3.913  -1.588  15.014  1.00  0.00    -0.354 N 
ATOM     52  N   UNL     1      -4.488   1.089  13.886  1.00  0.00    -0.248 NA
ATOM     53  C   UNL     1      -5.920   2.920  13.648  1.00  0.00     0.031 C 
ATOM     54  C   UNL     1      -5.391  -2.470  16.415  1.00  0.00     0.029 A 
ATOM     55  C   UNL     1      -5.132  -1.358  15.628  1.00  0.00     0.049 A 
ATOM     56  H   UNL     1      -3.470  -0.971  14.388  1.00  0.00     0.167 HD
ATOM     57  C   UNL     1      -5.619   0.884  14.668  1.00  0.00     0.074 A 
ATOM     58  C   UNL     1      -6.453   2.059  14.505  1.00  0.00     0.031 C 
ATOM     59  C   UNL     1      -5.940  -0.175  15.453  1.00  0.00     0.037 A 
BRANCH  46  60
ATOM     60  C   UNL     1      -1.779  -4.767  15.386  1.00  0.00     0.058 A 
ATOM     61  C   UNL     1      -0.658  -4.994  16.203  1.00  0.00     0.135 A 
ATOM     62  C   UNL     1      -2.522  -5.885  14.976  1.00  0.00     0.135 A 
ATOM     63  F   UNL     1       0.102  -3.966  16.612  1.00  0.00    -0.206 F 
ATOM     64  C   UNL     1      -0.259  -6.280  16.553  1.00  0.00     0.059 A 
ATOM     65  C   UNL     1      -2.163  -7.179  15.345  1.00  0.00     0.059 A 
ATOM     66  F   UNL     1      -3.602  -5.731  14.194  1.00  0.00    -0.206 F 
ATOM     67  C   UNL     1      -1.016  -7.367  16.114  1.00  0.00     0.060 A 
BRANCH  67  68
ATOM     68  S   UNL     1      -0.470  -9.029  16.555  1.00  0.00     0.124 S 
ATOM     69  O   UNL     1       0.702  -9.187  15.698  1.00  0.00    -0.237 OA
ATOM     70  O   UNL     1      -0.197  -8.900  17.983  1.00  0.00    -0.237 OA
ATOM     71  O   UNL     1      -1.615  -9.866  16.212  1.00  0.00    -0.744 OA
ENDBRANCH  67  68
ENDBRANCH  46  60
BRANCH  47  72
ATOM     72  C   UNL     1      -4.056   4.363  11.896  1.00  0.00     0.058 A 
ATOM     73  C   UNL     1      -4.086   5.458  12.773  1.00  0.00     0.135 A 
ATOM     74  C   UNL     1      -4.322   4.606  10.540  1.00  0.00     0.135 A 
ATOM     75  F   UNL     1      -3.841   5.276  14.080  1.00  0.00    -0.206 F 
ATOM     76  C   UNL     1      -4.381   6.742  12.328  1.00  0.00     0.059 A 
ATOM     77  C   UNL     1      -4.594   5.886  10.066  1.00  0.00     0.059 A 
ATOM     78  F   UNL     1      -4.286   3.597   9.655  1.00  0.00    -0.206 F 
ATOM     79  C   UNL     1      -4.629   6.947  10.970  1.00  0.00     0.060 A 
BRANCH  79  80
ATOM     80  S   UNL     1      -4.955   8.628  10.397  1.00  0.00     0.124 S 
ATOM     81  O   UNL     1      -6.281   8.875  10.952  1.00  0.00    -0.237 OA
ATOM     82  O   UNL     1      -3.858   9.374  11.005  1.00  0.00    -0.237 OA
ATOM     83  O   UNL     1      -4.892   8.505   8.944  1.00  0.00    -0.744 OA
ENDBRANCH  79  80
ENDBRANCH  47  72
BRANCH  59  84
ATOM     84  C   UNL     1      -7.227  -0.097  16.226  1.00  0.00     0.058 A 
ATOM     85  C   UNL     1      -8.476  -0.197  15.595  1.00  0.00     0.135 A 
ATOM     86  C   UNL     1      -7.204   0.024  17.625  1.00  0.00     0.135 A 
ATOM     87  F   UNL     1      -8.553  -0.306  14.260  1.00  0.00    -0.206 F 
ATOM     88  C   UNL     1      -9.660  -0.155  16.323  1.00  0.00     0.059 A 
ATOM     89  C   UNL     1      -8.374   0.034  18.376  1.00  0.00     0.059 A 
ATOM     90  F   UNL     1      -6.034   0.111  18.278  1.00  0.00    -0.206 F 
ATOM     91  C   UNL     1      -9.598  -0.044  17.714  1.00  0.00     0.060 A 
BRANCH  91  92
ATOM     92  S   UNL     1     -11.142  -0.029  18.648  1.00  0.00     0.124 S 
ATOM     93  O   UNL     1     -11.666   1.295  18.329  1.00  0.00    -0.237 OA
ATOM     94  O   UNL     1     -11.867  -1.155  18.069  1.00  0.00    -0.237 OA
ATOM     95  O   UNL     1     -10.706  -0.215  20.029  1.00  0.00    -0.744 OA
ENDBRANCH  91  92
ENDBRANCH  59  84
ENDBRANCH  33  34
ENDBRANCH  25  28
ENDBRANCH  23  24
ENDBRANCH   1  23
TORSDOF 17
