REMARK SMILES C[C@H]1SCCC[C@@]1(C(=O)NCCCNC(=O)c1ccc(-c2c3nc(c(-c4c(F)cc(S(=O)(=O)[O-])cc4F)c4ccc([nH]4)c(-c4c(F)cc(S(=O)(=O)[O-])cc4F)c4nc(c(-c5c(F)cc(S(=O)(=O)[O-])cc5F)c5ccc2[nH]5)C=C4)C=C3)cc1)[NH+]1CCCC1
REMARK SMILES IDX 13 1 12 2 11 3 10 4 8 5 9 6 7 8 1 9 2 10 3 11 4 12 6 13 5 14
REMARK SMILES IDX 83 15 84 16 87 17 85 19 86 20 14 21 15 22 16 24 17 25 18 26
REMARK SMILES IDX 82 27 19 28 81 29 20 30 21 31 22 32 75 33 23 34 80 35 74 36
REMARK SMILES IDX 76 37 24 38 79 39 73 40 72 41 25 43 59 44 38 45 58 46 39 47
REMARK SMILES IDX 42 48 57 49 77 50 40 51 41 52 56 54 78 55 43 56 26 57 27 58
REMARK SMILES IDX 36 59 28 60 29 61 35 62 37 63 30 64 31 65 32 66 33 67 34 68
REMARK SMILES IDX 60 69 61 70 70 71 62 72 63 73 69 74 71 75 64 76 65 77 66 78
REMARK SMILES IDX 67 79 68 80 44 81 45 82 54 83 46 84 47 85 53 86 55 87 48 88
REMARK SMILES IDX 49 89 50 90 51 91 52 92
REMARK H PARENT 10 7 83 18 14 23 76 42 42 53
REMARK Flexibility Score: inf
ROOT
ATOM      1  C   UNL     1       4.995  -5.301  -1.967  1.00  0.00     0.118 C 
ENDROOT
BRANCH   1   2
ATOM      2  C   UNL     1       4.257  -4.868  -0.700  1.00  0.00     0.042 C 
BRANCH   2   3
ATOM      3  C   UNL     1       3.911  -3.381  -0.713  1.00  0.00     0.118 C 
BRANCH   3   4
ATOM      4  N   UNL     1       2.827  -3.108  -1.640  1.00  0.00    -0.351 N 
ATOM      5  C   UNL     1       1.475  -3.081  -1.609  1.00  0.00     0.282 C 
ATOM      6  O   UNL     1       0.993  -3.090  -2.756  1.00  0.00    -0.268 OA
ATOM      7  H   UNL     1       3.170  -2.881  -2.534  1.00  0.00     0.163 HD
BRANCH   5   8
ATOM      8  C   UNL     1       0.521  -2.921  -0.324  1.00  0.00     0.188 C 
ATOM      9  C   UNL     1      -0.290  -0.686  -1.460  1.00  0.00     0.027 C 
ATOM     10  C   UNL     1       0.373  -1.345  -0.239  1.00  0.00     0.115 C 
ATOM     11  S   UNL     1      -0.474  -0.680   1.256  1.00  0.00    -0.152 SA
ATOM     12  C   UNL     1       0.511  -1.503   2.525  1.00  0.00     0.070 C 
ATOM     13  C   UNL     1       1.136  -3.453   0.999  1.00  0.00     0.081 C 
ATOM     14  C   UNL     1       0.536  -3.012   2.340  1.00  0.00     0.018 C 
BRANCH   8  15
ATOM     15  N   UNL     1      -0.757  -3.644  -0.670  1.00  0.00    -0.321 N 
ATOM     16  C   UNL     1      -1.871  -3.713   0.269  1.00  0.00     0.263 C 
ATOM     17  C   UNL     1      -0.578  -5.005  -1.220  1.00  0.00     0.263 C 
ATOM     18  H   UNL     1      -1.043  -2.960  -1.371  1.00  0.00     0.349 HD
ATOM     19  C   UNL     1      -1.881  -5.145   0.775  1.00  0.00     0.067 C 
ATOM     20  C   UNL     1      -1.523  -5.929  -0.465  1.00  0.00     0.067 C 
ENDBRANCH   8  15
ENDBRANCH   5   8
ENDBRANCH   3   4
ENDBRANCH   2   3
ENDBRANCH   1   2
BRANCH   1  21
ATOM     21  N   UNL     1       6.286  -4.630  -2.090  1.00  0.00    -0.352 N 
ATOM     22  C   UNL     1       7.556  -5.124  -1.928  1.00  0.00     0.251 C 
ATOM     23  H   UNL     1       6.238  -3.676  -2.326  1.00  0.00     0.163 HD
ATOM     24  O   UNL     1       8.488  -4.346  -1.749  1.00  0.00    -0.269 OA
BRANCH  22  25
ATOM     25  C   UNL     1       7.797  -6.580  -1.980  1.00  0.00     0.039 A 
ATOM     26  C   UNL     1       8.730  -7.152  -1.112  1.00  0.00     0.014 A 
ATOM     27  C   UNL     1       7.136  -7.371  -2.922  1.00  0.00     0.014 A 
ATOM     28  C   UNL     1       8.957  -8.529  -1.153  1.00  0.00     0.010 A 
ATOM     29  C   UNL     1       7.299  -8.751  -2.904  1.00  0.00     0.010 A 
ATOM     30  C   UNL     1       8.220  -9.342  -2.029  1.00  0.00    -0.014 A 
BRANCH  30  31
ATOM     31  C   UNL     1       8.403 -10.815  -2.062  1.00  0.00     0.031 A 
ATOM     32  C   UNL     1       8.893 -11.481  -3.320  1.00  0.00     0.074 A 
ATOM     33  C   UNL     1       8.046 -11.552  -0.993  1.00  0.00     0.049 A 
ATOM     34  N   UNL     1       9.015 -12.755  -3.586  1.00  0.00    -0.248 NA
ATOM     35  C   UNL     1       9.260 -10.598  -4.441  1.00  0.00     0.031 C 
ATOM     36  C   UNL     1       7.501 -11.020   0.259  1.00  0.00     0.029 A 
ATOM     37  N   UNL     1       8.069 -12.909  -0.793  1.00  0.00    -0.354 N 
ATOM     38  C   UNL     1       9.445 -12.828  -4.906  1.00  0.00     0.074 A 
ATOM     39  C   UNL     1       9.515 -11.472  -5.403  1.00  0.00     0.031 C 
ATOM     40  C   UNL     1       7.259 -12.037   1.101  1.00  0.00     0.029 A 
ATOM     41  C   UNL     1       7.595 -13.293   0.439  1.00  0.00     0.049 A 
ATOM     42  H   UNL     1       8.395 -13.547  -1.468  1.00  0.00     0.167 HD
ATOM     43  C   UNL     1       9.775 -13.924  -5.629  1.00  0.00     0.037 A 
ATOM     44  C   UNL     1       7.440 -14.521   0.971  1.00  0.00     0.037 A 
ATOM     45  C   UNL     1       9.742 -15.266  -5.108  1.00  0.00     0.049 A 
ATOM     46  C   UNL     1       7.844 -15.721   0.160  1.00  0.00     0.074 A 
ATOM     47  C   UNL     1      10.127 -16.440  -5.731  1.00  0.00     0.029 A 
ATOM     48  N   UNL     1       9.302 -15.611  -3.838  1.00  0.00    -0.354 N 
ATOM     49  N   UNL     1       8.314 -15.767  -1.064  1.00  0.00    -0.248 NA
ATOM     50  C   UNL     1       7.706 -17.035   0.802  1.00  0.00     0.031 C 
ATOM     51  C   UNL     1       9.885 -17.500  -4.850  1.00  0.00     0.029 A 
ATOM     52  C   UNL     1       9.391 -16.981  -3.663  1.00  0.00     0.049 A 
ATOM     53  H   UNL     1       8.974 -14.975  -3.162  1.00  0.00     0.167 HD
ATOM     54  C   UNL     1       8.551 -17.111  -1.330  1.00  0.00     0.074 A 
ATOM     55  C   UNL     1       8.184 -17.843  -0.134  1.00  0.00     0.031 C 
ATOM     56  C   UNL     1       9.029 -17.688  -2.460  1.00  0.00     0.037 A 
BRANCH  43  57
ATOM     57  C   UNL     1      10.210 -13.719  -7.054  1.00  0.00     0.058 A 
ATOM     58  C   UNL     1      11.440 -13.121  -7.371  1.00  0.00     0.135 A 
ATOM     59  C   UNL     1       9.403 -14.155  -8.117  1.00  0.00     0.135 A 
ATOM     60  F   UNL     1      12.244 -12.670  -6.394  1.00  0.00    -0.206 F 
ATOM     61  C   UNL     1      11.842 -12.936  -8.689  1.00  0.00     0.059 A 
ATOM     62  C   UNL     1       9.798 -14.006  -9.444  1.00  0.00     0.059 A 
ATOM     63  F   UNL     1       8.216 -14.732  -7.873  1.00  0.00    -0.206 F 
ATOM     64  C   UNL     1      11.014 -13.382  -9.720  1.00  0.00     0.060 A 
BRANCH  64  65
ATOM     65  S   UNL     1      11.555 -13.144 -11.425  1.00  0.00     0.124 S 
ATOM     66  O   UNL     1      11.351 -11.709 -11.597  1.00  0.00    -0.237 OA
ATOM     67  O   UNL     1      12.945 -13.584 -11.377  1.00  0.00    -0.237 OA
ATOM     68  O   UNL     1      10.655 -14.001 -12.191  1.00  0.00    -0.744 OA
ENDBRANCH  64  65
ENDBRANCH  43  57
BRANCH  44  69
ATOM     69  C   UNL     1       6.900 -14.670   2.348  1.00  0.00     0.058 A 
ATOM     70  C   UNL     1       7.729 -15.070   3.406  1.00  0.00     0.135 A 
ATOM     71  C   UNL     1       5.555 -14.395   2.639  1.00  0.00     0.135 A 
ATOM     72  F   UNL     1       9.022 -15.347   3.177  1.00  0.00    -0.206 F 
ATOM     73  C   UNL     1       7.242 -15.210   4.702  1.00  0.00     0.059 A 
ATOM     74  C   UNL     1       5.050 -14.504   3.930  1.00  0.00     0.059 A 
ATOM     75  F   UNL     1       4.726 -13.988   1.665  1.00  0.00    -0.206 F 
ATOM     76  C   UNL     1       5.899 -14.922   4.954  1.00  0.00     0.060 A 
BRANCH  76  77
ATOM     77  S   UNL     1       5.287 -15.057   6.648  1.00  0.00     0.124 S 
ATOM     78  O   UNL     1       5.205 -16.503   6.816  1.00  0.00    -0.237 OA
ATOM     79  O   UNL     1       6.336 -14.383   7.408  1.00  0.00    -0.237 OA
ATOM     80  O   UNL     1       4.010 -14.352   6.599  1.00  0.00    -0.744 OA
ENDBRANCH  76  77
ENDBRANCH  44  69
BRANCH  56  81
ATOM     81  C   UNL     1       9.214 -19.179  -2.447  1.00  0.00     0.058 A 
ATOM     82  C   UNL     1       8.123 -20.057  -2.514  1.00  0.00     0.135 A 
ATOM     83  C   UNL     1      10.505 -19.732  -2.425  1.00  0.00     0.135 A 
ATOM     84  F   UNL     1       6.869 -19.578  -2.531  1.00  0.00    -0.206 F 
ATOM     85  C   UNL     1       8.303 -21.436  -2.537  1.00  0.00     0.059 A 
ATOM     86  C   UNL     1      10.709 -21.107  -2.473  1.00  0.00     0.059 A 
ATOM     87  F   UNL     1      11.583 -18.933  -2.372  1.00  0.00    -0.206 F 
ATOM     88  C   UNL     1       9.601 -21.951  -2.518  1.00  0.00     0.060 A 
BRANCH  88  89
ATOM     89  S   UNL     1       9.822 -23.741  -2.584  1.00  0.00     0.124 S 
ATOM     90  O   UNL     1       9.454 -24.133  -1.228  1.00  0.00    -0.237 OA
ATOM     91  O   UNL     1       8.888 -24.134  -3.634  1.00  0.00    -0.237 OA
ATOM     92  O   UNL     1      11.234 -23.896  -2.921  1.00  0.00    -0.744 OA
ENDBRANCH  88  89
ENDBRANCH  56  81
ENDBRANCH  30  31
ENDBRANCH  22  25
ENDBRANCH   1  21
TORSDOF 14
