REMARK SMILES C[C@@H](CC(=O)NCCCNC(=O)c1ccc(-c2c3nc(c(-c4c(F)cc(S(=O)(=O)[O-])cc4F)c4ccc([nH]4)c(-c4c(F)cc(S(=O)(=O)[O-])cc4F)c4nc(c(-c5c(F)cc(S(=O)(=O)[O-])cc5F)c5ccc2[nH]5)C=C4)C=C3)cc1)NC(=O)c1ccc2c(c1)NC(=O)CO2
REMARK SMILES IDX 8 1 7 2 6 3 4 4 5 5 3 7 2 8 1 9 79 10 80 11 81 13 82 14
REMARK SMILES IDX 83 15 87 16 84 17 86 18 85 19 88 20 92 21 89 22 91 24 90 25
REMARK SMILES IDX 9 26 10 27 11 28 12 30 13 31 14 32 78 33 15 34 77 35 16 36
REMARK SMILES IDX 17 37 18 38 71 39 19 40 76 41 70 42 72 43 20 44 75 45 69 46
REMARK SMILES IDX 68 47 21 49 55 50 34 51 54 52 35 53 38 54 53 55 73 56 36 57
REMARK SMILES IDX 37 58 52 60 74 61 39 62 22 63 23 64 32 65 24 66 25 67 31 68
REMARK SMILES IDX 33 69 26 70 27 71 28 72 29 73 30 74 56 75 57 76 66 77 58 78
REMARK SMILES IDX 59 79 65 80 67 81 60 82 61 83 62 84 63 85 64 86 40 87 41 88
REMARK SMILES IDX 50 89 42 90 43 91 49 92 51 93 44 94 45 95 46 96 47 97 48 98
REMARK H PARENT 6 6 79 12 88 23 10 29 72 48 38 59
REMARK Flexibility Score: inf
ROOT
ATOM      1  C   UNL     1       1.513  -2.677   0.426  1.00  0.00     0.042 C 
ENDROOT
BRANCH   1   2
ATOM      2  C   UNL     1       2.096  -2.284  -0.928  1.00  0.00     0.117 C 
BRANCH   2   3
ATOM      3  N   UNL     1       1.048  -2.078  -1.912  1.00  0.00    -0.356 N 
ATOM      4  C   UNL     1       0.528  -0.931  -2.420  1.00  0.00     0.222 C 
ATOM      5  O   UNL     1      -0.475  -1.011  -3.131  1.00  0.00    -0.275 OA
ATOM      6  H   UNL     1       0.650  -2.905  -2.270  1.00  0.00     0.163 HD
BRANCH   4   7
ATOM      7  C   UNL     1       1.179   0.403  -2.148  1.00  0.00     0.124 C 
BRANCH   7   8
ATOM      8  C   UNL     1       0.495   1.257  -1.077  1.00  0.00     0.088 C 
ATOM      9  C   UNL     1       0.693   0.769   0.352  1.00  0.00     0.031 C 
BRANCH   8  10
ATOM     10  N   UNL     1      -0.932   1.463  -1.342  1.00  0.00    -0.349 N 
ATOM     11  C   UNL     1      -1.706   2.559  -1.057  1.00  0.00     0.251 C 
ATOM     12  H   UNL     1      -1.396   0.715  -1.782  1.00  0.00     0.164 HD
ATOM     13  O   UNL     1      -2.936   2.485  -1.032  1.00  0.00    -0.269 OA
BRANCH  11  14
ATOM     14  C   UNL     1      -1.050   3.851  -0.793  1.00  0.00     0.042 A 
ATOM     15  C   UNL     1      -1.368   4.573   0.359  1.00  0.00     0.018 A 
ATOM     16  C   UNL     1      -0.107   4.337  -1.703  1.00  0.00     0.044 A 
ATOM     17  C   UNL     1      -0.685   5.760   0.635  1.00  0.00     0.049 A 
ATOM     18  C   UNL     1       0.608   5.486  -1.392  1.00  0.00     0.084 A 
ATOM     19  C   UNL     1       0.323   6.201  -0.225  1.00  0.00     0.143 A 
ATOM     20  N   UNL     1       1.625   5.901  -2.247  1.00  0.00    -0.320 N 
ATOM     21  O   UNL     1       0.961   7.360   0.118  1.00  0.00    -0.482 OA
ATOM     22  C   UNL     1       2.440   6.949  -1.931  1.00  0.00     0.262 C 
ATOM     23  H   UNL     1       1.759   5.428  -3.100  1.00  0.00     0.170 HD
ATOM     24  C   UNL     1       2.185   7.585  -0.563  1.00  0.00     0.329 C 
ATOM     25  O   UNL     1       3.352   7.295  -2.678  1.00  0.00    -0.271 OA
ENDBRANCH  11  14
ENDBRANCH   8  10
ENDBRANCH   7   8
ENDBRANCH   4   7
ENDBRANCH   2   3
ENDBRANCH   1   2
BRANCH   1  26
ATOM     26  C   UNL     1       0.867  -4.056   0.441  1.00  0.00     0.118 C 
BRANCH  26  27
ATOM     27  N   UNL     1       1.857  -5.117   0.487  1.00  0.00    -0.352 N 
ATOM     28  C   UNL     1       2.140  -6.008   1.493  1.00  0.00     0.251 C 
ATOM     29  H   UNL     1       2.408  -5.212  -0.324  1.00  0.00     0.163 HD
ATOM     30  O   UNL     1       3.174  -6.668   1.431  1.00  0.00    -0.269 OA
BRANCH  28  31
ATOM     31  C   UNL     1       1.226  -6.169   2.650  1.00  0.00     0.039 A 
ATOM     32  C   UNL     1       1.778  -6.368   3.920  1.00  0.00     0.014 A 
ATOM     33  C   UNL     1      -0.163  -6.178   2.492  1.00  0.00     0.014 A 
ATOM     34  C   UNL     1       0.941  -6.531   5.028  1.00  0.00     0.010 A 
ATOM     35  C   UNL     1      -0.995  -6.257   3.608  1.00  0.00     0.010 A 
ATOM     36  C   UNL     1      -0.454  -6.455   4.887  1.00  0.00    -0.014 A 
BRANCH  36  37
ATOM     37  C   UNL     1      -1.359  -6.615   6.056  1.00  0.00     0.031 A 
ATOM     38  C   UNL     1      -2.328  -7.770   6.108  1.00  0.00     0.074 A 
ATOM     39  C   UNL     1      -1.357  -5.694   7.040  1.00  0.00     0.049 A 
ATOM     40  N   UNL     1      -3.244  -8.040   7.002  1.00  0.00    -0.248 NA
ATOM     41  C   UNL     1      -2.283  -8.730   4.992  1.00  0.00     0.031 C 
ATOM     42  C   UNL     1      -0.515  -4.495   7.078  1.00  0.00     0.029 A 
ATOM     43  N   UNL     1      -2.100  -5.611   8.192  1.00  0.00    -0.354 N 
ATOM     44  C   UNL     1      -3.904  -9.174   6.542  1.00  0.00     0.074 A 
ATOM     45  C   UNL     1      -3.308  -9.523   5.271  1.00  0.00     0.031 C 
ATOM     46  C   UNL     1      -0.782  -3.804   8.198  1.00  0.00     0.029 A 
ATOM     47  C   UNL     1      -1.831  -4.492   8.945  1.00  0.00     0.049 A 
ATOM     48  H   UNL     1      -2.763  -6.289   8.454  1.00  0.00     0.167 HD
ATOM     49  C   UNL     1      -4.901  -9.874   7.133  1.00  0.00     0.037 A 
ATOM     50  C   UNL     1      -2.373  -4.063  10.102  1.00  0.00     0.037 A 
ATOM     51  C   UNL     1      -5.446  -9.564   8.428  1.00  0.00     0.049 A 
ATOM     52  C   UNL     1      -3.436  -4.894  10.769  1.00  0.00     0.074 A 
ATOM     53  C   UNL     1      -6.383 -10.274   9.158  1.00  0.00     0.029 A 
ATOM     54  N   UNL     1      -5.102  -8.457   9.188  1.00  0.00    -0.354 N 
ATOM     55  N   UNL     1      -3.984  -6.013  10.359  1.00  0.00    -0.248 NA
ATOM     56  C   UNL     1      -3.947  -4.412  12.060  1.00  0.00     0.031 C 
ATOM     57  C   UNL     1      -6.631  -9.579  10.346  1.00  0.00     0.029 A 
ATOM     58  C   UNL     1      -5.819  -8.456  10.372  1.00  0.00     0.049 A 
ATOM     59  H   UNL     1      -4.444  -7.774   8.926  1.00  0.00     0.167 HD
ATOM     60  C   UNL     1      -4.886  -6.380  11.352  1.00  0.00     0.074 A 
ATOM     61  C   UNL     1      -4.800  -5.373  12.389  1.00  0.00     0.031 C 
ATOM     62  C   UNL     1      -5.711  -7.454  11.400  1.00  0.00     0.037 A 
BRANCH  49  63
ATOM     63  C   UNL     1      -5.465 -11.058   6.398  1.00  0.00     0.058 A 
ATOM     64  C   UNL     1      -4.749 -12.258   6.273  1.00  0.00     0.135 A 
ATOM     65  C   UNL     1      -6.765 -11.012   5.869  1.00  0.00     0.135 A 
ATOM     66  F   UNL     1      -3.496 -12.351   6.746  1.00  0.00    -0.206 F 
ATOM     67  C   UNL     1      -5.296 -13.367   5.636  1.00  0.00     0.059 A 
ATOM     68  C   UNL     1      -7.341 -12.117   5.249  1.00  0.00     0.059 A 
ATOM     69  F   UNL     1      -7.492  -9.887   5.960  1.00  0.00    -0.206 F 
ATOM     70  C   UNL     1      -6.594 -13.288   5.129  1.00  0.00     0.060 A 
BRANCH  70  71
ATOM     71  S   UNL     1      -7.301 -14.746   4.333  1.00  0.00     0.124 S 
ATOM     72  O   UNL     1      -6.601 -14.746   3.053  1.00  0.00    -0.237 OA
ATOM     73  O   UNL     1      -6.933 -15.816   5.256  1.00  0.00    -0.237 OA
ATOM     74  O   UNL     1      -8.727 -14.441   4.270  1.00  0.00    -0.744 OA
ENDBRANCH  70  71
ENDBRANCH  49  63
BRANCH  50  75
ATOM     75  C   UNL     1      -1.913  -2.789  10.716  1.00  0.00     0.058 A 
ATOM     76  C   UNL     1      -1.143  -2.786  11.888  1.00  0.00     0.135 A 
ATOM     77  C   UNL     1      -2.242  -1.550  10.146  1.00  0.00     0.135 A 
ATOM     78  F   UNL     1      -0.808  -3.947  12.472  1.00  0.00    -0.206 F 
ATOM     79  C   UNL     1      -0.737  -1.600  12.491  1.00  0.00     0.059 A 
ATOM     80  C   UNL     1      -1.827  -0.350  10.716  1.00  0.00     0.059 A 
ATOM     81  F   UNL     1      -2.959  -1.499   9.013  1.00  0.00    -0.206 F 
ATOM     82  C   UNL     1      -1.087  -0.386  11.898  1.00  0.00     0.060 A 
BRANCH  82  83
ATOM     83  S   UNL     1      -0.530   1.151  12.666  1.00  0.00     0.124 S 
ATOM     84  O   UNL     1      -1.464   1.278  13.777  1.00  0.00    -0.237 OA
ATOM     85  O   UNL     1       0.850   0.836  13.024  1.00  0.00    -0.237 OA
ATOM     86  O   UNL     1      -0.681   2.132  11.595  1.00  0.00    -0.744 OA
ENDBRANCH  82  83
ENDBRANCH  50  75
BRANCH  62  87
ATOM     87  C   UNL     1      -6.563  -7.617  12.627  1.00  0.00     0.058 A 
ATOM     88  C   UNL     1      -7.692  -6.814  12.850  1.00  0.00     0.135 A 
ATOM     89  C   UNL     1      -6.274  -8.622  13.563  1.00  0.00     0.135 A 
ATOM     90  F   UNL     1      -8.007  -5.836  11.986  1.00  0.00    -0.206 F 
ATOM     91  C   UNL     1      -8.495  -6.989  13.972  1.00  0.00     0.059 A 
ATOM     92  C   UNL     1      -7.077  -8.830  14.680  1.00  0.00     0.059 A 
ATOM     93  F   UNL     1      -5.211  -9.423  13.389  1.00  0.00    -0.206 F 
ATOM     94  C   UNL     1      -8.179  -7.999  14.882  1.00  0.00     0.060 A 
BRANCH  94  95
ATOM     95  S   UNL     1      -9.245  -8.239  16.319  1.00  0.00     0.124 S 
ATOM     96  O   UNL     1      -8.823  -7.141  17.183  1.00  0.00    -0.237 OA
ATOM     97  O   UNL     1     -10.581  -8.116  15.745  1.00  0.00    -0.237 OA
ATOM     98  O   UNL     1      -8.890  -9.577  16.784  1.00  0.00    -0.744 OA
ENDBRANCH  94  95
ENDBRANCH  62  87
ENDBRANCH  36  37
ENDBRANCH  28  31
ENDBRANCH  26  27
ENDBRANCH   1  26
TORSDOF 16
