REMARK SMILES O=C(Cn1nc(C(=O)NCCCNC(=O)c2ccc(-c3c4nc(c(-c5c(F)cc(S(=O)(=O)[O-])cc5F)c5ccc([nH]5)c(-c5c(F)cc(S(=O)(=O)[O-])cc5F)c5nc(c(-c6c(F)cc(S(=O)(=O)[O-])cc6F)c6ccc3[nH]6)C=C5)C=C4)cc2)c2ccccc2c1=O)Nc1ccc2c(c1)C(=O)c1ccccc1C2=O
REMARK SMILES IDX 11 1 10 2 9 3 7 4 8 5 6 7 4 8 5 9 88 10 87 11 89 12 82 13
REMARK SMILES IDX 86 14 83 15 85 16 84 17 3 18 2 19 1 20 90 21 91 23 92 24
REMARK SMILES IDX 96 25 93 26 95 27 94 28 97 29 105 30 98 31 99 32 104 33
REMARK SMILES IDX 106 34 100 35 103 36 101 37 102 38 12 39 13 40 14 41 15 43
REMARK SMILES IDX 16 44 17 45 81 46 18 47 80 48 19 49 20 50 21 51 74 52 22 53
REMARK SMILES IDX 79 54 73 55 75 56 23 57 78 58 72 59 71 60 24 62 58 63 37 64
REMARK SMILES IDX 57 65 38 66 41 67 56 68 76 69 39 70 40 71 55 73 77 74 42 75
REMARK SMILES IDX 25 76 26 77 35 78 27 79 28 80 34 81 36 82 29 83 30 84 31 85
REMARK SMILES IDX 32 86 33 87 59 88 60 89 69 90 61 91 62 92 68 93 70 94 63 95
REMARK SMILES IDX 64 96 65 97 66 98 67 99 43 100 44 101 53 102 45 103 46 104
REMARK SMILES IDX 52 105 54 106 47 107 48 108 49 109 50 110 51 111
REMARK H PARENT 9 6 90 22 13 42 75 61 41 72
REMARK Flexibility Score: inf
ROOT
ATOM      1  C   UNL     1       4.904  -3.229   0.251  1.00  0.00     0.042 C 
ENDROOT
BRANCH   1   2
ATOM      2  C   UNL     1       4.086  -2.762   1.444  1.00  0.00     0.118 C 
BRANCH   2   3
ATOM      3  N   UNL     1       4.873  -2.565   2.642  1.00  0.00    -0.351 N 
ATOM      4  C   UNL     1       5.198  -1.425   3.341  1.00  0.00     0.272 C 
ATOM      5  O   UNL     1       5.689  -1.584   4.454  1.00  0.00    -0.267 OA
ATOM      6  H   UNL     1       5.242  -3.393   3.026  1.00  0.00     0.163 HD
BRANCH   4   7
ATOM      7  C   UNL     1       4.948  -0.005   2.780  1.00  0.00     0.156 A 
ATOM      8  N   UNL     1       3.830   1.324   1.229  1.00  0.00    -0.219 N 
ATOM      9  N   UNL     1       4.196   0.098   1.724  1.00  0.00    -0.163 NA
ATOM     10  C   UNL     1       4.213   2.527   1.804  1.00  0.00     0.275 A 
ATOM     11  C   UNL     1       5.132   2.437   2.958  1.00  0.00     0.051 A 
ATOM     12  O   UNL     1       3.868   3.631   1.392  1.00  0.00    -0.267 OA
ATOM     13  C   UNL     1       5.528   1.191   3.445  1.00  0.00     0.020 A 
ATOM     14  C   UNL     1       5.631   3.619   3.530  1.00  0.00     0.014 A 
ATOM     15  C   UNL     1       6.457   1.146   4.495  1.00  0.00     0.011 A 
ATOM     16  C   UNL     1       6.538   3.560   4.587  1.00  0.00     0.001 A 
ATOM     17  C   UNL     1       6.953   2.323   5.066  1.00  0.00     0.001 A 
BRANCH   8  18
ATOM     18  C   UNL     1       2.937   1.312   0.061  1.00  0.00     0.248 C 
BRANCH  18  19
ATOM     19  C   UNL     1       1.652   0.543   0.391  1.00  0.00     0.246 C 
ATOM     20  O   UNL     1       0.921   0.875   1.323  1.00  0.00    -0.273 OA
ATOM     21  N   UNL     1       1.467  -0.594  -0.393  1.00  0.00    -0.324 N 
ATOM     22  H   UNL     1       1.766  -0.553  -1.330  1.00  0.00     0.169 HD
BRANCH  21  23
ATOM     23  C   UNL     1       0.882  -1.804   0.054  1.00  0.00     0.042 A 
ATOM     24  C   UNL     1       0.783  -2.878  -0.849  1.00  0.00     0.027 A 
ATOM     25  C   UNL     1       0.616  -2.028   1.412  1.00  0.00     0.039 A 
ATOM     26  C   UNL     1       0.481  -4.174  -0.392  1.00  0.00     0.015 A 
ATOM     27  C   UNL     1       0.414  -3.329   1.857  1.00  0.00     0.036 A 
ATOM     28  C   UNL     1       0.344  -4.396   0.977  1.00  0.00     0.034 A 
ATOM     29  C   UNL     1       0.580  -3.593   3.313  1.00  0.00     0.194 C 
ATOM     30  C   UNL     1       0.319  -5.774   1.531  1.00  0.00     0.194 C 
ATOM     31  O   UNL     1       0.308  -2.790   4.159  1.00  0.00    -0.289 OA
ATOM     32  C   UNL     1       1.267  -4.873   3.633  1.00  0.00     0.034 A 
ATOM     33  C   UNL     1       1.107  -5.955   2.781  1.00  0.00     0.034 A 
ATOM     34  O   UNL     1      -0.269  -6.682   0.978  1.00  0.00    -0.289 OA
ATOM     35  C   UNL     1       2.162  -4.913   4.697  1.00  0.00     0.013 A 
ATOM     36  C   UNL     1       1.816  -7.132   3.017  1.00  0.00     0.013 A 
ATOM     37  C   UNL     1       2.928  -6.067   4.893  1.00  0.00     0.001 A 
ATOM     38  C   UNL     1       2.749  -7.176   4.061  1.00  0.00     0.001 A 
ENDBRANCH  21  23
ENDBRANCH  18  19
ENDBRANCH   8  18
ENDBRANCH   4   7
ENDBRANCH   2   3
ENDBRANCH   1   2
BRANCH   1  39
ATOM     39  C   UNL     1       5.455  -4.642   0.417  1.00  0.00     0.118 C 
BRANCH  39  40
ATOM     40  N   UNL     1       4.407  -5.621   0.686  1.00  0.00    -0.352 N 
ATOM     41  C   UNL     1       3.806  -6.542  -0.134  1.00  0.00     0.251 C 
ATOM     42  H   UNL     1       4.074  -5.621   1.612  1.00  0.00     0.163 HD
ATOM     43  O   UNL     1       2.755  -7.068   0.211  1.00  0.00    -0.269 OA
BRANCH  41  44
ATOM     44  C   UNL     1       4.394  -6.919  -1.424  1.00  0.00     0.039 A 
ATOM     45  C   UNL     1       5.771  -7.081  -1.544  1.00  0.00     0.014 A 
ATOM     46  C   UNL     1       3.544  -7.190  -2.504  1.00  0.00     0.014 A 
ATOM     47  C   UNL     1       6.315  -7.339  -2.789  1.00  0.00     0.010 A 
ATOM     48  C   UNL     1       4.087  -7.534  -3.740  1.00  0.00     0.010 A 
ATOM     49  C   UNL     1       5.477  -7.555  -3.895  1.00  0.00    -0.014 A 
BRANCH  49  50
ATOM     50  C   UNL     1       6.123  -7.787  -5.200  1.00  0.00     0.031 A 
ATOM     51  C   UNL     1       6.133  -6.698  -6.226  1.00  0.00     0.074 A 
ATOM     52  C   UNL     1       6.832  -8.920  -5.354  1.00  0.00     0.049 A 
ATOM     53  N   UNL     1       6.860  -6.597  -7.305  1.00  0.00    -0.248 NA
ATOM     54  C   UNL     1       5.213  -5.569  -6.011  1.00  0.00     0.031 C 
ATOM     55  C   UNL     1       6.858 -10.024  -4.390  1.00  0.00     0.029 A 
ATOM     56  N   UNL     1       7.722  -9.295  -6.321  1.00  0.00    -0.354 N 
ATOM     57  C   UNL     1       6.480  -5.403  -7.904  1.00  0.00     0.074 A 
ATOM     58  C   UNL     1       5.445  -4.821  -7.080  1.00  0.00     0.031 C 
ATOM     59  C   UNL     1       7.794 -10.907  -4.763  1.00  0.00     0.029 A 
ATOM     60  C   UNL     1       8.410 -10.443  -6.002  1.00  0.00     0.049 A 
ATOM     61  H   UNL     1       7.857  -8.796  -7.159  1.00  0.00     0.167 HD
ATOM     62  C   UNL     1       6.962  -4.848  -9.040  1.00  0.00     0.037 A 
ATOM     63  C   UNL     1       9.451 -11.028  -6.622  1.00  0.00     0.037 A 
ATOM     64  C   UNL     1       7.993  -5.452  -9.838  1.00  0.00     0.049 A 
ATOM     65  C   UNL     1      10.003 -10.372  -7.851  1.00  0.00     0.074 A 
ATOM     66  C   UNL     1       8.547  -5.007 -11.023  1.00  0.00     0.029 A 
ATOM     67  N   UNL     1       8.629  -6.647  -9.520  1.00  0.00    -0.354 N 
ATOM     68  N   UNL     1       9.640  -9.239  -8.406  1.00  0.00    -0.248 NA
ATOM     69  C   UNL     1      11.091 -11.068  -8.545  1.00  0.00     0.031 C 
ATOM     70  C   UNL     1       9.504  -5.945 -11.433  1.00  0.00     0.029 A 
ATOM     71  C   UNL     1       9.560  -6.963 -10.491  1.00  0.00     0.049 A 
ATOM     72  H   UNL     1       8.442  -7.189  -8.719  1.00  0.00     0.167 HD
ATOM     73  C   UNL     1      10.430  -9.100  -9.537  1.00  0.00     0.074 A 
ATOM     74  C   UNL     1      11.324 -10.244  -9.559  1.00  0.00     0.031 C 
ATOM     75  C   UNL     1      10.407  -8.130 -10.485  1.00  0.00     0.037 A 
BRANCH  62  76
ATOM     76  C   UNL     1       6.343  -3.554  -9.482  1.00  0.00     0.058 A 
ATOM     77  C   UNL     1       6.646  -2.340  -8.846  1.00  0.00     0.135 A 
ATOM     78  C   UNL     1       5.401  -3.533 -10.522  1.00  0.00     0.135 A 
ATOM     79  F   UNL     1       7.518  -2.310  -7.826  1.00  0.00    -0.206 F 
ATOM     80  C   UNL     1       6.010  -1.154  -9.204  1.00  0.00     0.059 A 
ATOM     81  C   UNL     1       4.764  -2.356 -10.906  1.00  0.00     0.059 A 
ATOM     82  F   UNL     1       5.067  -4.669 -11.154  1.00  0.00    -0.206 F 
ATOM     83  C   UNL     1       5.060  -1.176 -10.226  1.00  0.00     0.060 A 
BRANCH  83  84
ATOM     84  S   UNL     1       4.198   0.357 -10.638  1.00  0.00     0.124 S 
ATOM     85  O   UNL     1       3.267   0.472  -9.519  1.00  0.00    -0.237 OA
ATOM     86  O   UNL     1       5.284   1.332 -10.660  1.00  0.00    -0.237 OA
ATOM     87  O   UNL     1       3.592   0.067 -11.934  1.00  0.00    -0.744 OA
ENDBRANCH  83  84
ENDBRANCH  62  76
BRANCH  63  88
ATOM     88  C   UNL     1      10.034 -12.261  -6.037  1.00  0.00     0.058 A 
ATOM     89  C   UNL     1      11.237 -12.218  -5.318  1.00  0.00     0.135 A 
ATOM     90  C   UNL     1       9.329 -13.475  -6.064  1.00  0.00     0.135 A 
ATOM     91  F   UNL     1      11.945 -11.080  -5.262  1.00  0.00    -0.206 F 
ATOM     92  C   UNL     1      11.706 -13.327  -4.620  1.00  0.00     0.059 A 
ATOM     93  C   UNL     1       9.770 -14.591  -5.360  1.00  0.00     0.059 A 
ATOM     94  F   UNL     1       8.163 -13.559  -6.723  1.00  0.00    -0.206 F 
ATOM     95  C   UNL     1      10.956 -14.505  -4.633  1.00  0.00     0.060 A 
BRANCH  95  96
ATOM     96  S   UNL     1      11.485 -15.892  -3.602  1.00  0.00     0.124 S 
ATOM     97  O   UNL     1      12.514 -16.502  -4.435  1.00  0.00    -0.237 OA
ATOM     98  O   UNL     1      11.957 -15.221  -2.394  1.00  0.00    -0.237 OA
ATOM     99  O   UNL     1      10.259 -16.667  -3.436  1.00  0.00    -0.744 OA
ENDBRANCH  95  96
ENDBRANCH  63  88
BRANCH  75 100
ATOM    100  C   UNL     1      11.331  -8.310 -11.648  1.00  0.00     0.058 A 
ATOM    101  C   UNL     1      10.987  -9.169 -12.703  1.00  0.00     0.135 A 
ATOM    102  C   UNL     1      12.524  -7.581 -11.742  1.00  0.00     0.135 A 
ATOM    103  F   UNL     1       9.854  -9.886 -12.648  1.00  0.00    -0.206 F 
ATOM    104  C   UNL     1      11.806  -9.307 -13.815  1.00  0.00     0.059 A 
ATOM    105  C   UNL     1      13.352  -7.695 -12.853  1.00  0.00     0.059 A 
ATOM    106  F   UNL     1      12.885  -6.744 -10.758  1.00  0.00    -0.206 F 
ATOM    107  C   UNL     1      12.987  -8.566 -13.881  1.00  0.00     0.060 A 
BRANCH 107 108
ATOM    108  S   UNL     1      14.025  -8.721 -15.349  1.00  0.00     0.124 S 
ATOM    109  O   UNL     1      14.720  -9.976 -15.083  1.00  0.00    -0.237 OA
ATOM    110  O   UNL     1      13.043  -8.756 -16.428  1.00  0.00    -0.237 OA
ATOM    111  O   UNL     1      14.853  -7.520 -15.303  1.00  0.00    -0.744 OA
ENDBRANCH 107 108
ENDBRANCH  75 100
ENDBRANCH  49  50
ENDBRANCH  41  44
ENDBRANCH  39  40
ENDBRANCH   1  39
TORSDOF 16
