REMARK SMILES CC(=O)N[C@H](CC(=O)NCC(=O)NCCCNC(=O)c1ccc(-c2c3nc(c(-c4c(F)cc(S(=O)(=O)[O-])cc4F)c4ccc([nH]4)c(-c4c(F)cc(S(=O)(=O)[O-])cc4F)c4nc(c(-c5c(F)cc(S(=O)(=O)[O-])cc5F)c5ccc2[nH]5)C=C4)C=C3)cc1)c1cccs1
REMARK SMILES IDX 14 1 13 2 11 3 12 4 10 6 9 7 7 8 8 9 6 11 5 12 4 13 1 14
REMARK SMILES IDX 2 15 3 16 86 18 87 19 90 20 88 21 89 22 15 23 16 24 17 25
REMARK SMILES IDX 18 26 19 28 20 29 21 30 85 31 22 32 84 33 23 34 24 35 25 36
REMARK SMILES IDX 78 37 26 38 83 39 77 40 79 41 27 42 82 43 76 44 75 45 28 47
REMARK SMILES IDX 62 48 41 49 61 50 42 51 45 52 60 53 80 54 43 55 44 56 59 58
REMARK SMILES IDX 81 59 46 60 29 61 30 62 39 63 31 64 32 65 38 66 40 67 33 68
REMARK SMILES IDX 34 69 35 70 36 71 37 72 63 73 64 74 73 75 65 76 66 77 72 78
REMARK SMILES IDX 74 79 67 80 68 81 69 82 70 83 71 84 47 85 48 86 57 87 49 88
REMARK SMILES IDX 50 89 56 90 58 91 51 92 52 93 53 94 54 95 55 96
REMARK H PARENT 13 5 9 10 4 17 17 27 79 46 45 57
REMARK Flexibility Score: inf
ROOT
ATOM      1  C   UNL     1       3.721   0.797   0.969  1.00  0.00     0.117 C 
ENDROOT
BRANCH   1   2
ATOM      2  N   UNL     1       4.826   0.871   0.044  1.00  0.00    -0.355 N 
ATOM      3  C   UNL     1       4.891   1.447  -1.194  1.00  0.00     0.239 C 
ATOM      4  O   UNL     1       6.016   1.574  -1.689  1.00  0.00    -0.273 OA
ATOM      5  H   UNL     1       5.657   0.442   0.350  1.00  0.00     0.163 HD
BRANCH   3   6
ATOM      6  C   UNL     1       3.664   2.082  -1.893  1.00  0.00     0.216 C 
BRANCH   6   7
ATOM      7  N   UNL     1       2.393   1.381  -1.772  1.00  0.00    -0.347 N 
ATOM      8  C   UNL     1       1.169   1.800  -1.347  1.00  0.00     0.222 C 
ATOM      9  O   UNL     1       0.267   0.961  -1.311  1.00  0.00    -0.275 OA
ATOM     10  H   UNL     1       2.424   0.436  -2.047  1.00  0.00     0.164 HD
BRANCH   8  11
ATOM     11  C   UNL     1       0.915   3.225  -0.865  1.00  0.00     0.130 C 
BRANCH  11  12
ATOM     12  C   UNL     1       1.355   3.382   0.592  1.00  0.00     0.131 C 
BRANCH  12  13
ATOM     13  N   UNL     1       2.716   3.917   0.729  1.00  0.00    -0.348 N 
ATOM     14  C   UNL     1       2.442   6.354   0.352  1.00  0.00     0.114 C 
ATOM     15  C   UNL     1       3.279   5.128   0.510  1.00  0.00     0.217 C 
ATOM     16  O   UNL     1       4.509   5.184   0.471  1.00  0.00    -0.275 OA
ATOM     17  H   UNL     1       3.361   3.246   1.051  1.00  0.00     0.164 HD
ENDBRANCH  12  13
BRANCH  12  18
ATOM     18  C   UNL     1       0.432   4.017   1.600  1.00  0.00     0.027 A 
ATOM     19  C   UNL     1       0.294   3.611   2.920  1.00  0.00     0.017 A 
ATOM     20  S   UNL     1      -0.619   5.324   1.261  1.00  0.00    -0.147 S 
ATOM     21  C   UNL     1      -0.536   4.478   3.680  1.00  0.00     0.012 A 
ATOM     22  C   UNL     1      -1.045   5.496   2.909  1.00  0.00     0.065 A 
ENDBRANCH  12  18
ENDBRANCH  11  12
ENDBRANCH   8  11
ENDBRANCH   6   7
ENDBRANCH   3   6
ENDBRANCH   1   2
BRANCH   1  23
ATOM     23  C   UNL     1       3.382  -0.585   1.476  1.00  0.00     0.042 C 
BRANCH  23  24
ATOM     24  C   UNL     1       4.262  -1.035   2.627  1.00  0.00     0.118 C 
BRANCH  24  25
ATOM     25  N   UNL     1       4.123  -0.208   3.825  1.00  0.00    -0.352 N 
ATOM     26  C   UNL     1       3.770  -0.544   5.111  1.00  0.00     0.251 C 
ATOM     27  H   UNL     1       4.314   0.748   3.688  1.00  0.00     0.163 HD
ATOM     28  O   UNL     1       3.587   0.352   5.933  1.00  0.00    -0.269 OA
BRANCH  26  29
ATOM     29  C   UNL     1       3.575  -1.959   5.495  1.00  0.00     0.039 A 
ATOM     30  C   UNL     1       2.547  -2.288   6.383  1.00  0.00     0.014 A 
ATOM     31  C   UNL     1       4.384  -2.967   4.970  1.00  0.00     0.014 A 
ATOM     32  C   UNL     1       2.275  -3.631   6.659  1.00  0.00     0.010 A 
ATOM     33  C   UNL     1       4.032  -4.299   5.141  1.00  0.00     0.010 A 
ATOM     34  C   UNL     1       2.978  -4.649   5.994  1.00  0.00    -0.014 A 
BRANCH  34  35
ATOM     35  C   UNL     1       2.626  -6.081   6.173  1.00  0.00     0.031 A 
ATOM     36  C   UNL     1       3.650  -7.057   6.690  1.00  0.00     0.074 A 
ATOM     37  C   UNL     1       1.404  -6.514   5.800  1.00  0.00     0.049 A 
ATOM     38  N   UNL     1       3.544  -8.349   6.866  1.00  0.00    -0.248 NA
ATOM     39  C   UNL     1       4.982  -6.520   7.015  1.00  0.00     0.031 C 
ATOM     40  C   UNL     1       0.353  -5.682   5.207  1.00  0.00     0.029 A 
ATOM     41  N   UNL     1       0.839  -7.763   5.860  1.00  0.00    -0.354 N 
ATOM     42  C   UNL     1       4.792  -8.778   7.302  1.00  0.00     0.074 A 
ATOM     43  C   UNL     1       5.660  -7.622   7.299  1.00  0.00     0.031 C 
ATOM     44  C   UNL     1      -0.740  -6.432   4.999  1.00  0.00     0.029 A 
ATOM     45  C   UNL     1      -0.459  -7.804   5.406  1.00  0.00     0.049 A 
ATOM     46  H   UNL     1       1.317  -8.555   6.197  1.00  0.00     0.167 HD
ATOM     47  C   UNL     1       5.173 -10.014   7.702  1.00  0.00     0.037 A 
ATOM     48  C   UNL     1      -1.327  -8.832   5.332  1.00  0.00     0.037 A 
ATOM     49  C   UNL     1       4.293 -11.152   7.739  1.00  0.00     0.049 A 
ATOM     50  C   UNL     1      -0.894 -10.186   5.822  1.00  0.00     0.074 A 
ATOM     51  C   UNL     1       4.558 -12.433   8.189  1.00  0.00     0.029 A 
ATOM     52  N   UNL     1       2.973 -11.144   7.312  1.00  0.00    -0.354 N 
ATOM     53  N   UNL     1       0.270 -10.556   6.301  1.00  0.00    -0.248 NA
ATOM     54  C   UNL     1      -1.896 -11.258   5.775  1.00  0.00     0.031 C 
ATOM     55  C   UNL     1       3.410 -13.210   8.000  1.00  0.00     0.029 A 
ATOM     56  C   UNL     1       2.414 -12.401   7.476  1.00  0.00     0.049 A 
ATOM     57  H   UNL     1       2.502 -10.361   6.946  1.00  0.00     0.167 HD
ATOM     58  C   UNL     1       0.133 -11.898   6.636  1.00  0.00     0.074 A 
ATOM     59  C   UNL     1      -1.233 -12.268   6.322  1.00  0.00     0.031 C 
ATOM     60  C   UNL     1       1.052 -12.749   7.158  1.00  0.00     0.037 A 
BRANCH  47  61
ATOM     61  C   UNL     1       6.600 -10.193   8.148  1.00  0.00     0.058 A 
ATOM     62  C   UNL     1       7.078  -9.620   9.338  1.00  0.00     0.135 A 
ATOM     63  C   UNL     1       7.494 -10.968   7.392  1.00  0.00     0.135 A 
ATOM     64  F   UNL     1       6.272  -8.854  10.091  1.00  0.00    -0.206 F 
ATOM     65  C   UNL     1       8.397  -9.782   9.746  1.00  0.00     0.059 A 
ATOM     66  C   UNL     1       8.811 -11.169   7.797  1.00  0.00     0.059 A 
ATOM     67  F   UNL     1       7.093 -11.538   6.245  1.00  0.00    -0.206 F 
ATOM     68  C   UNL     1       9.257 -10.558   8.969  1.00  0.00     0.060 A 
BRANCH  68  69
ATOM     69  S   UNL     1      10.965 -10.764   9.517  1.00  0.00     0.124 S 
ATOM     70  O   UNL     1      11.525  -9.449   9.221  1.00  0.00    -0.237 OA
ATOM     71  O   UNL     1      10.802 -11.079  10.933  1.00  0.00    -0.237 OA
ATOM     72  O   UNL     1      11.459 -11.858   8.688  1.00  0.00    -0.744 OA
ENDBRANCH  68  69
ENDBRANCH  47  61
BRANCH  48  73
ATOM     73  C   UNL     1      -2.703  -8.607   4.815  1.00  0.00     0.058 A 
ATOM     74  C   UNL     1      -3.810  -8.641   5.677  1.00  0.00     0.135 A 
ATOM     75  C   UNL     1      -2.939  -8.335   3.459  1.00  0.00     0.135 A 
ATOM     76  F   UNL     1      -3.636  -8.899   6.982  1.00  0.00    -0.206 F 
ATOM     77  C   UNL     1      -5.104  -8.435   5.210  1.00  0.00     0.059 A 
ATOM     78  C   UNL     1      -4.222  -8.100   2.973  1.00  0.00     0.059 A 
ATOM     79  F   UNL     1      -1.913  -8.270   2.597  1.00  0.00    -0.206 F 
ATOM     80  C   UNL     1      -5.300  -8.163   3.855  1.00  0.00     0.060 A 
BRANCH  80  81
ATOM     81  S   UNL     1      -6.979  -7.850   3.269  1.00  0.00     0.124 S 
ATOM     82  O   UNL     1      -7.553  -9.190   3.291  1.00  0.00    -0.237 OA
ATOM     83  O   UNL     1      -7.487  -6.921   4.274  1.00  0.00    -0.237 OA
ATOM     84  O   UNL     1      -6.769  -7.274   1.944  1.00  0.00    -0.744 OA
ENDBRANCH  80  81
ENDBRANCH  48  73
BRANCH  60  85
ATOM     85  C   UNL     1       0.597 -14.151   7.453  1.00  0.00     0.058 A 
ATOM     86  C   UNL     1       0.329 -15.072   6.429  1.00  0.00     0.135 A 
ATOM     87  C   UNL     1       0.444 -14.582   8.781  1.00  0.00     0.135 A 
ATOM     88  F   UNL     1       0.456 -14.709   5.143  1.00  0.00    -0.206 F 
ATOM     89  C   UNL     1      -0.114 -16.360   6.709  1.00  0.00     0.059 A 
ATOM     90  C   UNL     1       0.031 -15.875   9.085  1.00  0.00     0.059 A 
ATOM     91  F   UNL     1       0.702 -13.745   9.798  1.00  0.00    -0.206 F 
ATOM     92  C   UNL     1      -0.265 -16.751   8.041  1.00  0.00     0.060 A 
BRANCH  92  93
ATOM     93  S   UNL     1      -0.842 -18.424   8.394  1.00  0.00     0.124 S 
ATOM     94  O   UNL     1      -2.263 -18.315   8.085  1.00  0.00    -0.237 OA
ATOM     95  O   UNL     1      -0.051 -19.230   7.469  1.00  0.00    -0.237 OA
ATOM     96  O   UNL     1      -0.517 -18.603   9.806  1.00  0.00    -0.744 OA
ENDBRANCH  92  93
ENDBRANCH  60  85
ENDBRANCH  34  35
ENDBRANCH  26  29
ENDBRANCH  24  25
ENDBRANCH  23  24
ENDBRANCH   1  23
TORSDOF 18
