REMARK SMILES Nc1ccc(C(=O)N2Cc3nc[nH]c3C[C@H]2C(=O)NCCCNC(=O)c2ccc(-c3c4nc(c(-c5c(F)cc(S(=O)(=O)[O-])cc5F)c5ccc([nH]5)c(-c5c(F)cc(S(=O)(=O)[O-])cc5F)c5nc(c(-c6c(F)cc(S(=O)(=O)[O-])cc6F)c6ccc3[nH]6)C=C5)C=C4)cc2)cc1
REMARK SMILES IDX 21 1 20 2 19 3 17 4 18 5 16 7 8 8 9 9 10 10 15 11 11 12
REMARK SMILES IDX 14 13 12 14 13 15 6 17 7 18 5 19 2 20 3 21 93 22 4 23 92 24
REMARK SMILES IDX 1 25 22 28 23 29 24 30 25 32 26 33 27 34 91 35 28 36 90 37
REMARK SMILES IDX 29 38 30 39 31 40 84 41 32 42 89 43 83 44 85 45 33 46 88 47
REMARK SMILES IDX 82 48 81 49 34 51 68 52 47 53 67 54 48 55 51 56 66 57 86 58
REMARK SMILES IDX 49 59 50 60 65 62 87 63 52 64 35 65 36 66 45 67 37 68 38 69
REMARK SMILES IDX 44 70 46 71 39 72 40 73 41 74 42 75 43 76 69 77 70 78 79 79
REMARK SMILES IDX 71 80 72 81 78 82 80 83 73 84 74 85 75 86 76 87 77 88 53 89
REMARK SMILES IDX 54 90 63 91 55 92 56 93 62 94 64 95 57 96 58 97 59 98 60 99
REMARK SMILES IDX 61 100
REMARK H PARENT 19 6 13 16 1 26 1 27 23 31 85 50 51 61
REMARK Flexibility Score: inf
ROOT
ATOM      1  C   UNL     1      -5.112   4.221   1.557  1.00  0.00     0.042 C 
ENDROOT
BRANCH   1   2
ATOM      2  C   UNL     1      -4.719   4.690   0.158  1.00  0.00     0.117 C 
BRANCH   2   3
ATOM      3  N   UNL     1      -3.414   4.242  -0.290  1.00  0.00    -0.354 N 
ATOM      4  C   UNL     1      -3.055   3.239  -1.134  1.00  0.00     0.243 C 
ATOM      5  O   UNL     1      -2.031   3.448  -1.799  1.00  0.00    -0.273 OA
ATOM      6  H   UNL     1      -2.658   4.753   0.081  1.00  0.00     0.163 HD
BRANCH   4   7
ATOM      7  C   UNL     1      -3.848   1.926  -1.371  1.00  0.00     0.181 C 
ATOM      8  N   UNL     1      -4.137   1.031  -0.194  1.00  0.00    -0.320 N 
ATOM      9  C   UNL     1      -5.457   1.046   0.477  1.00  0.00     0.178 C 
ATOM     10  C   UNL     1      -6.472   1.823  -0.274  1.00  0.00     0.081 A 
ATOM     11  C   UNL     1      -5.054   2.176  -2.327  1.00  0.00     0.091 C 
ATOM     12  N   UNL     1      -7.643   2.299   0.263  1.00  0.00    -0.240 NA
ATOM     13  C   UNL     1      -6.295   2.320  -1.539  1.00  0.00     0.042 A 
ATOM     14  C   UNL     1      -8.153   3.086  -0.660  1.00  0.00     0.197 A 
ATOM     15  N   UNL     1      -7.391   3.091  -1.800  1.00  0.00    -0.348 N 
ATOM     16  H   UNL     1      -7.595   3.559  -2.642  1.00  0.00     0.167 HD
BRANCH   8  17
ATOM     17  C   UNL     1      -3.289   0.004   0.254  1.00  0.00     0.254 C 
ATOM     18  O   UNL     1      -3.729  -0.963   0.880  1.00  0.00    -0.269 OA
BRANCH  17  19
ATOM     19  C   UNL     1      -1.817   0.030   0.046  1.00  0.00     0.040 A 
ATOM     20  C   UNL     1       1.008  -0.062  -0.023  1.00  0.00     0.031 A 
ATOM     21  C   UNL     1       0.256  -1.224  -0.201  1.00  0.00     0.026 A 
ATOM     22  C   UNL     1       0.333   1.145   0.162  1.00  0.00     0.026 A 
ATOM     23  C   UNL     1      -1.145  -1.183  -0.160  1.00  0.00     0.016 A 
ATOM     24  C   UNL     1      -1.064   1.185   0.247  1.00  0.00     0.016 A 
BRANCH  20  25
ATOM     25  N   UNL     1       2.387  -0.083  -0.131  1.00  0.00    -0.399 N 
ATOM     26  H   UNL     1       2.858  -0.937  -0.262  1.00  0.00     0.156 HD
ATOM     27  H   UNL     1       2.898   0.757  -0.077  1.00  0.00     0.156 HD
ENDBRANCH  20  25
ENDBRANCH  17  19
ENDBRANCH   8  17
ENDBRANCH   4   7
ENDBRANCH   2   3
ENDBRANCH   1   2
BRANCH   1  28
ATOM     28  C   UNL     1      -5.159   5.364   2.548  1.00  0.00     0.118 C 
BRANCH  28  29
ATOM     29  N   UNL     1      -6.240   6.341   2.290  1.00  0.00    -0.352 N 
ATOM     30  C   UNL     1      -6.470   7.575   2.913  1.00  0.00     0.251 C 
ATOM     31  H   UNL     1      -6.883   6.090   1.588  1.00  0.00     0.163 HD
ATOM     32  O   UNL     1      -7.542   8.135   2.846  1.00  0.00    -0.269 OA
BRANCH  30  33
ATOM     33  C   UNL     1      -5.330   8.177   3.634  1.00  0.00     0.039 A 
ATOM     34  C   UNL     1      -5.384   8.730   4.917  1.00  0.00     0.014 A 
ATOM     35  C   UNL     1      -4.120   7.965   3.016  1.00  0.00     0.014 A 
ATOM     36  C   UNL     1      -4.172   8.966   5.574  1.00  0.00     0.010 A 
ATOM     37  C   UNL     1      -3.077   7.711   3.840  1.00  0.00     0.010 A 
ATOM     38  C   UNL     1      -3.009   8.430   5.010  1.00  0.00    -0.014 A 
BRANCH  38  39
ATOM     39  C   UNL     1      -1.663   8.521   5.545  1.00  0.00     0.031 A 
ATOM     40  C   UNL     1      -1.484   7.925   6.886  1.00  0.00     0.074 A 
ATOM     41  C   UNL     1      -0.611   8.813   4.739  1.00  0.00     0.049 A 
ATOM     42  N   UNL     1      -1.332   8.544   8.007  1.00  0.00    -0.248 NA
ATOM     43  C   UNL     1      -1.672   6.473   7.031  1.00  0.00     0.031 C 
ATOM     44  C   UNL     1      -0.572   9.045   3.282  1.00  0.00     0.029 A 
ATOM     45  N   UNL     1       0.705   8.857   5.065  1.00  0.00    -0.354 N 
ATOM     46  C   UNL     1      -1.155   7.554   8.968  1.00  0.00     0.074 A 
ATOM     47  C   UNL     1      -1.612   6.333   8.358  1.00  0.00     0.031 C 
ATOM     48  C   UNL     1       0.701   8.973   2.835  1.00  0.00     0.029 A 
ATOM     49  C   UNL     1       1.580   8.884   3.981  1.00  0.00     0.049 A 
ATOM     50  H   UNL     1       1.018   8.869   5.998  1.00  0.00     0.167 HD
ATOM     51  C   UNL     1      -0.420   7.787  10.093  1.00  0.00     0.037 A 
ATOM     52  C   UNL     1       2.933   8.813   4.054  1.00  0.00     0.037 A 
ATOM     53  C   UNL     1      -0.123   9.197  10.221  1.00  0.00     0.049 A 
ATOM     54  C   UNL     1       3.291   9.201   5.451  1.00  0.00     0.074 A 
ATOM     55  C   UNL     1      -0.895  10.338  10.332  1.00  0.00     0.029 A 
ATOM     56  N   UNL     1       1.117   9.628   9.805  1.00  0.00    -0.354 N 
ATOM     57  N   UNL     1       3.067  10.394   5.945  1.00  0.00    -0.248 NA
ATOM     58  C   UNL     1       3.391   8.133   6.435  1.00  0.00     0.031 C 
ATOM     59  C   UNL     1      -0.251  11.297   9.493  1.00  0.00     0.029 A 
ATOM     60  C   UNL     1       0.921  10.722   8.995  1.00  0.00     0.049 A 
ATOM     61  H   UNL     1       1.985   9.228  10.043  1.00  0.00     0.167 HD
ATOM     62  C   UNL     1       2.600  10.174   7.237  1.00  0.00     0.074 A 
ATOM     63  C   UNL     1       2.873   8.759   7.497  1.00  0.00     0.031 C 
ATOM     64  C   UNL     1       1.764  11.059   7.864  1.00  0.00     0.037 A 
BRANCH  51  65
ATOM     65  C   UNL     1       0.328   6.742  10.891  1.00  0.00     0.058 A 
ATOM     66  C   UNL     1       0.927   7.121  12.112  1.00  0.00     0.135 A 
ATOM     67  C   UNL     1       0.704   5.471  10.404  1.00  0.00     0.135 A 
ATOM     68  F   UNL     1       0.634   8.300  12.683  1.00  0.00    -0.206 F 
ATOM     69  C   UNL     1       1.895   6.342  12.746  1.00  0.00     0.059 A 
ATOM     70  C   UNL     1       1.626   4.654  11.050  1.00  0.00     0.059 A 
ATOM     71  F   UNL     1       0.274   4.992   9.232  1.00  0.00    -0.206 F 
ATOM     72  C   UNL     1       2.253   5.118  12.193  1.00  0.00     0.060 A 
BRANCH  72  73
ATOM     73  S   UNL     1       3.593   4.173  12.936  1.00  0.00     0.124 S 
ATOM     74  O   UNL     1       4.743   5.020  12.641  1.00  0.00    -0.237 OA
ATOM     75  O   UNL     1       3.183   4.114  14.335  1.00  0.00    -0.237 OA
ATOM     76  O   UNL     1       3.545   2.902  12.219  1.00  0.00    -0.744 OA
ENDBRANCH  72  73
ENDBRANCH  51  65
BRANCH  52  77
ATOM     77  C   UNL     1       3.842   8.059   3.145  1.00  0.00     0.058 A 
ATOM     78  C   UNL     1       5.237   8.230   3.190  1.00  0.00     0.135 A 
ATOM     79  C   UNL     1       3.382   6.952   2.400  1.00  0.00     0.135 A 
ATOM     80  F   UNL     1       5.767   9.248   3.887  1.00  0.00    -0.206 F 
ATOM     81  C   UNL     1       6.123   7.330   2.580  1.00  0.00     0.059 A 
ATOM     82  C   UNL     1       4.243   6.048   1.777  1.00  0.00     0.059 A 
ATOM     83  F   UNL     1       2.075   6.659   2.328  1.00  0.00    -0.206 F 
ATOM     84  C   UNL     1       5.615   6.227   1.894  1.00  0.00     0.060 A 
BRANCH  84  85
ATOM     85  S   UNL     1       6.745   4.959   1.265  1.00  0.00     0.124 S 
ATOM     86  O   UNL     1       7.407   5.660   0.170  1.00  0.00    -0.237 OA
ATOM     87  O   UNL     1       7.571   4.675   2.433  1.00  0.00    -0.237 OA
ATOM     88  O   UNL     1       5.850   3.877   0.863  1.00  0.00    -0.744 OA
ENDBRANCH  84  85
ENDBRANCH  52  77
BRANCH  64  89
ATOM     89  C   UNL     1       1.514  12.408   7.223  1.00  0.00     0.058 A 
ATOM     90  C   UNL     1       0.875  12.597   5.982  1.00  0.00     0.135 A 
ATOM     91  C   UNL     1       1.756  13.561   7.984  1.00  0.00     0.135 A 
ATOM     92  F   UNL     1       0.510  11.552   5.231  1.00  0.00    -0.206 F 
ATOM     93  C   UNL     1       0.527  13.865   5.508  1.00  0.00     0.059 A 
ATOM     94  C   UNL     1       1.391  14.834   7.546  1.00  0.00     0.059 A 
ATOM     95  F   UNL     1       2.303  13.454   9.207  1.00  0.00    -0.206 F 
ATOM     96  C   UNL     1       0.787  14.980   6.301  1.00  0.00     0.060 A 
BRANCH  96  97
ATOM     97  S   UNL     1       0.273  16.612   5.720  1.00  0.00     0.124 S 
ATOM     98  O   UNL     1       1.197  16.849   4.616  1.00  0.00    -0.237 OA
ATOM     99  O   UNL     1      -1.120  16.392   5.344  1.00  0.00    -0.237 OA
ATOM    100  O   UNL     1       0.467  17.466   6.889  1.00  0.00    -0.744 OA
ENDBRANCH  96  97
ENDBRANCH  64  89
ENDBRANCH  38  39
ENDBRANCH  30  33
ENDBRANCH  28  29
ENDBRANCH   1  28
TORSDOF 16
