REMARK SMILES C[C@H]1[NH2+]CC[C@H]1C(=O)N1CCC(C(=O)NCCCNC(=O)c2ccc(-c3c4nc(c(-c5c(F)cc(S(=O)(=O)[O-])cc5F)c5ccc([nH]5)c(-c5c(F)cc(S(=O)(=O)[O-])cc5F)c5nc(c(-c6c(F)cc(S(=O)(=O)[O-])cc6F)c6ccc3[nH]6)C=C5)C=C4)cc2)CC1
REMARK SMILES IDX 18 1 17 2 16 3 15 4 13 5 14 6 12 8 7 9 8 10 9 11 10 12 89 13
REMARK SMILES IDX 11 14 88 15 6 16 1 17 2 18 3 19 4 20 5 23 19 24 20 25 21 27
REMARK SMILES IDX 22 28 23 29 87 30 24 31 86 32 25 33 26 34 27 35 80 36 28 37
REMARK SMILES IDX 85 38 79 39 81 40 29 41 84 42 78 43 77 44 30 46 64 47 43 48
REMARK SMILES IDX 63 49 44 50 47 51 62 52 82 53 45 54 46 55 61 57 83 58 48 59
REMARK SMILES IDX 31 60 32 61 41 62 33 63 34 64 40 65 42 66 35 67 36 68 37 69
REMARK SMILES IDX 38 70 39 71 65 72 66 73 75 74 67 75 68 76 74 77 76 78 69 79
REMARK SMILES IDX 70 80 71 81 72 82 73 83 49 84 50 85 59 86 51 87 52 88 58 89
REMARK SMILES IDX 60 90 53 91 54 92 55 93 56 94 57 95
REMARK H PARENT 15 7 3 21 3 22 19 26 81 45 47 56
REMARK Flexibility Score: inf
ROOT
ATOM      1  C   UNL     1       5.151   7.357  -0.601  1.00  0.00     0.118 C 
ENDROOT
BRANCH   1   2
ATOM      2  C   UNL     1       4.062   6.315  -0.397  1.00  0.00     0.042 C 
BRANCH   2   3
ATOM      3  C   UNL     1       4.580   4.999   0.166  1.00  0.00     0.117 C 
BRANCH   3   4
ATOM      4  N   UNL     1       5.120   5.160   1.510  1.00  0.00    -0.356 N 
ATOM      5  C   UNL     1       4.651   4.750   2.717  1.00  0.00     0.223 C 
ATOM      6  O   UNL     1       5.296   5.059   3.723  1.00  0.00    -0.275 OA
ATOM      7  H   UNL     1       5.972   5.652   1.550  1.00  0.00     0.163 HD
BRANCH   5   8
ATOM      8  C   UNL     1       3.412   3.876   2.842  1.00  0.00     0.082 C 
ATOM      9  C   UNL     1       1.108   2.218   0.150  1.00  0.00     0.231 C 
ATOM     10  O   UNL     1       1.568   3.027  -0.656  1.00  0.00    -0.274 OA
ATOM     11  N   UNL     1       1.343   2.349   1.513  1.00  0.00    -0.342 N 
ATOM     12  C   UNL     1       0.963   3.589   2.177  1.00  0.00     0.120 C 
ATOM     13  C   UNL     1       2.444   1.649   2.142  1.00  0.00     0.120 C 
ATOM     14  C   UNL     1       2.131   4.558   2.345  1.00  0.00     0.035 C 
ATOM     15  C   UNL     1       3.693   2.503   2.228  1.00  0.00     0.035 C 
BRANCH   9  16
ATOM     16  C   UNL     1       0.141   1.112  -0.293  1.00  0.00     0.142 C 
ATOM     17  C   UNL     1       1.790  -0.904   0.096  1.00  0.00     0.076 C 
ATOM     18  C   UNL     1       0.644  -0.281  -0.685  1.00  0.00     0.192 C 
ATOM     19  N   UNL     1      -0.534  -1.169  -0.561  1.00  0.00    -0.343 N 
ATOM     20  C   UNL     1      -1.569  -0.483   0.211  1.00  0.00     0.261 C 
ATOM     21  H   UNL     1      -0.265  -2.029  -0.083  1.00  0.00     0.346 HD
ATOM     22  H   UNL     1      -0.892  -1.399  -1.488  1.00  0.00     0.346 HD
ATOM     23  C   UNL     1      -0.993   0.838   0.679  1.00  0.00     0.081 C 
ENDBRANCH   9  16
ENDBRANCH   5   8
ENDBRANCH   3   4
ENDBRANCH   2   3
ENDBRANCH   1   2
BRANCH   1  24
ATOM     24  N   UNL     1       6.133   6.952  -1.597  1.00  0.00    -0.352 N 
ATOM     25  C   UNL     1       6.455   7.534  -2.797  1.00  0.00     0.251 C 
ATOM     26  H   UNL     1       6.643   6.139  -1.376  1.00  0.00     0.163 HD
ATOM     27  O   UNL     1       7.174   6.930  -3.593  1.00  0.00    -0.269 OA
BRANCH  25  28
ATOM     28  C   UNL     1       5.924   8.869  -3.140  1.00  0.00     0.039 A 
ATOM     29  C   UNL     1       5.447   9.098  -4.433  1.00  0.00     0.014 A 
ATOM     30  C   UNL     1       5.888   9.892  -2.189  1.00  0.00     0.014 A 
ATOM     31  C   UNL     1       4.867  10.328  -4.747  1.00  0.00     0.010 A 
ATOM     32  C   UNL     1       5.223  11.080  -2.474  1.00  0.00     0.010 A 
ATOM     33  C   UNL     1       4.708  11.313  -3.757  1.00  0.00    -0.014 A 
BRANCH  33  34
ATOM     34  C   UNL     1       3.997  12.586  -4.042  1.00  0.00     0.031 A 
ATOM     35  C   UNL     1       4.715  13.902  -3.910  1.00  0.00     0.074 A 
ATOM     36  C   UNL     1       2.686  12.557  -4.355  1.00  0.00     0.049 A 
ATOM     37  N   UNL     1       4.248  15.115  -4.056  1.00  0.00    -0.248 NA
ATOM     38  C   UNL     1       6.138  13.851  -3.537  1.00  0.00     0.031 C 
ATOM     39  C   UNL     1       1.867  11.346  -4.458  1.00  0.00     0.029 A 
ATOM     40  N   UNL     1       1.807  13.573  -4.634  1.00  0.00    -0.354 N 
ATOM     41  C   UNL     1       5.311  15.968  -3.782  1.00  0.00     0.074 A 
ATOM     42  C   UNL     1       6.432  15.136  -3.404  1.00  0.00     0.031 C 
ATOM     43  C   UNL     1       0.616  11.688  -4.804  1.00  0.00     0.029 A 
ATOM     44  C   UNL     1       0.529  13.141  -4.902  1.00  0.00     0.049 A 
ATOM     45  H   UNL     1       2.066  14.523  -4.641  1.00  0.00     0.167 HD
ATOM     46  C   UNL     1       5.355  17.319  -3.862  1.00  0.00     0.037 A 
ATOM     47  C   UNL     1      -0.591  13.836  -5.183  1.00  0.00     0.037 A 
ATOM     48  C   UNL     1       4.238  18.137  -4.258  1.00  0.00     0.049 A 
ATOM     49  C   UNL     1      -0.519  15.337  -5.257  1.00  0.00     0.074 A 
ATOM     50  C   UNL     1       4.197  19.509  -4.432  1.00  0.00     0.029 A 
ATOM     51  N   UNL     1       2.964  17.662  -4.535  1.00  0.00    -0.354 N 
ATOM     52  N   UNL     1       0.515  16.123  -5.068  1.00  0.00    -0.248 NA
ATOM     53  C   UNL     1      -1.762  16.047  -5.588  1.00  0.00     0.031 C 
ATOM     54  C   UNL     1       2.886  19.870  -4.758  1.00  0.00     0.029 A 
ATOM     55  C   UNL     1       2.123  18.716  -4.849  1.00  0.00     0.049 A 
ATOM     56  H   UNL     1       2.698  16.714  -4.512  1.00  0.00     0.167 HD
ATOM     57  C   UNL     1       0.053  17.417  -5.281  1.00  0.00     0.074 A 
ATOM     58  C   UNL     1      -1.349  17.306  -5.630  1.00  0.00     0.031 C 
ATOM     59  C   UNL     1       0.728  18.590  -5.196  1.00  0.00     0.037 A 
BRANCH  46  60
ATOM     60  C   UNL     1       6.653  18.000  -3.516  1.00  0.00     0.058 A 
ATOM     61  C   UNL     1       7.792  17.878  -4.328  1.00  0.00     0.135 A 
ATOM     62  C   UNL     1       6.749  18.818  -2.378  1.00  0.00     0.135 A 
ATOM     63  F   UNL     1       7.765  17.098  -5.420  1.00  0.00    -0.206 F 
ATOM     64  C   UNL     1       8.986  18.518  -4.011  1.00  0.00     0.059 A 
ATOM     65  C   UNL     1       7.923  19.493  -2.058  1.00  0.00     0.059 A 
ATOM     66  F   UNL     1       5.692  18.971  -1.564  1.00  0.00    -0.206 F 
ATOM     67  C   UNL     1       9.041  19.326  -2.873  1.00  0.00     0.060 A 
BRANCH  67  68
ATOM     68  S   UNL     1      10.595  20.157  -2.483  1.00  0.00     0.124 S 
ATOM     69  O   UNL     1      11.425  19.035  -2.054  1.00  0.00    -0.237 OA
ATOM     70  O   UNL     1      10.956  20.759  -3.762  1.00  0.00    -0.237 OA
ATOM     71  O   UNL     1      10.224  21.098  -1.432  1.00  0.00    -0.744 OA
ENDBRANCH  67  68
ENDBRANCH  46  60
BRANCH  47  72
ATOM     72  C   UNL     1      -1.870  13.116  -5.428  1.00  0.00     0.058 A 
ATOM     73  C   UNL     1      -2.450  13.085  -6.705  1.00  0.00     0.135 A 
ATOM     74  C   UNL     1      -2.532  12.433  -4.395  1.00  0.00     0.135 A 
ATOM     75  F   UNL     1      -1.861  13.729  -7.725  1.00  0.00    -0.206 F 
ATOM     76  C   UNL     1      -3.647  12.419  -6.947  1.00  0.00     0.059 A 
ATOM     77  C   UNL     1      -3.714  11.735  -4.619  1.00  0.00     0.059 A 
ATOM     78  F   UNL     1      -2.011  12.416  -3.158  1.00  0.00    -0.206 F 
ATOM     79  C   UNL     1      -4.270  11.743  -5.897  1.00  0.00     0.060 A 
BRANCH  79  80
ATOM     80  S   UNL     1      -5.800  10.844  -6.233  1.00  0.00     0.124 S 
ATOM     81  O   UNL     1      -6.747  11.936  -6.425  1.00  0.00    -0.237 OA
ATOM     82  O   UNL     1      -5.451  10.083  -7.428  1.00  0.00    -0.237 OA
ATOM     83  O   UNL     1      -5.993  10.046  -5.025  1.00  0.00    -0.744 OA
ENDBRANCH  79  80
ENDBRANCH  47  72
BRANCH  59  84
ATOM     84  C   UNL     1      -0.031  19.851  -5.512  1.00  0.00     0.058 A 
ATOM     85  C   UNL     1      -1.016  20.358  -4.650  1.00  0.00     0.135 A 
ATOM     86  C   UNL     1       0.268  20.588  -6.670  1.00  0.00     0.135 A 
ATOM     87  F   UNL     1      -1.346  19.690  -3.534  1.00  0.00    -0.206 F 
ATOM     88  C   UNL     1      -1.696  21.537  -4.938  1.00  0.00     0.059 A 
ATOM     89  C   UNL     1      -0.376  21.786  -6.961  1.00  0.00     0.059 A 
ATOM     90  F   UNL     1       1.210  20.155  -7.524  1.00  0.00    -0.206 F 
ATOM     91  C   UNL     1      -1.366  22.246  -6.094  1.00  0.00     0.060 A 
BRANCH  91  92
ATOM     92  S   UNL     1      -2.233  23.792  -6.437  1.00  0.00     0.124 S 
ATOM     93  O   UNL     1      -3.556  23.309  -6.820  1.00  0.00    -0.237 OA
ATOM     94  O   UNL     1      -2.158  24.482  -5.153  1.00  0.00    -0.237 OA
ATOM     95  O   UNL     1      -1.449  24.392  -7.512  1.00  0.00    -0.744 OA
ENDBRANCH  91  92
ENDBRANCH  59  84
ENDBRANCH  33  34
ENDBRANCH  25  28
ENDBRANCH   1  24
TORSDOF 14
