REMARK SMILES O=CN[C@@H](Cc1cc(Cl)ccc1[N+](=O)[O-])C(=O)NCCCNC(=O)c1ccc(-c2c3nc(c(-c4c(F)cc(S(=O)(=O)[O-])cc4F)c4ccc([nH]4)c(-c4c(F)cc(S(=O)(=O)[O-])cc4F)c4nc(c(-c5c(F)cc(S(=O)(=O)[O-])cc5F)c5ccc2[nH]5)C=C4)C=C3)cc1
REMARK SMILES IDX 20 1 19 2 18 3 16 4 17 5 4 7 3 8 1 9 2 10 5 12 6 13 7 14
REMARK SMILES IDX 12 15 8 16 11 17 9 18 10 19 13 20 14 21 15 22 21 23 22 24
REMARK SMILES IDX 23 25 24 27 25 28 26 29 90 30 27 31 89 32 28 33 29 34 30 35
REMARK SMILES IDX 83 36 31 37 88 38 82 39 84 40 32 41 87 42 81 43 80 44 33 46
REMARK SMILES IDX 67 47 46 48 66 49 47 50 50 51 65 52 85 53 48 54 49 55 64 57
REMARK SMILES IDX 86 58 51 59 34 60 35 61 44 62 36 63 37 64 43 65 45 66 38 67
REMARK SMILES IDX 39 68 40 69 41 70 42 71 68 72 69 73 78 74 70 75 71 76 77 77
REMARK SMILES IDX 79 78 72 79 73 80 74 81 75 82 76 83 52 84 53 85 62 86 54 87
REMARK SMILES IDX 55 88 61 89 63 90 56 91 57 92 58 93 59 94 60 95
REMARK H PARENT 18 6 3 11 22 26 84 45 50 56
REMARK Flexibility Score: inf
ROOT
ATOM      1  C   UNL     1       2.147   3.402  -3.317  1.00  0.00     0.042 C 
ENDROOT
BRANCH   1   2
ATOM      2  C   UNL     1       3.244   2.377  -3.115  1.00  0.00     0.117 C 
BRANCH   2   3
ATOM      3  N   UNL     1       4.127   2.642  -1.995  1.00  0.00    -0.354 N 
ATOM      4  C   UNL     1       4.870   1.771  -1.252  1.00  0.00     0.242 C 
ATOM      5  O   UNL     1       5.836   2.238  -0.638  1.00  0.00    -0.273 OA
ATOM      6  H   UNL     1       4.202   3.588  -1.732  1.00  0.00     0.163 HD
BRANCH   4   7
ATOM      7  C   UNL     1       4.637   0.241  -1.263  1.00  0.00     0.175 C 
BRANCH   7   8
ATOM      8  N   UNL     1       3.234  -0.129  -1.203  1.00  0.00    -0.347 N 
ATOM      9  O   UNL     1       1.319  -0.440  -0.020  1.00  0.00    -0.279 OA
ATOM     10  C   UNL     1       2.502  -0.136  -0.053  1.00  0.00     0.337 C 
ATOM     11  H   UNL     1       2.786  -0.390  -2.041  1.00  0.00     0.164 HD
ENDBRANCH   7   8
BRANCH   7  12
ATOM     12  C   UNL     1       5.463  -0.507  -2.343  1.00  0.00     0.078 C 
BRANCH  12  13
ATOM     13  C   UNL     1       5.257  -0.125  -3.799  1.00  0.00     0.034 A 
ATOM     14  C   UNL     1       6.052   0.938  -4.290  1.00  0.00     0.031 A 
ATOM     15  C   UNL     1       4.338  -0.714  -4.700  1.00  0.00     0.272 A 
ATOM     16  C   UNL     1       5.878   1.445  -5.582  1.00  0.00     0.041 A 
ATOM     17  C   UNL     1       4.163  -0.190  -5.998  1.00  0.00     0.087 A 
ATOM     18  Cl  UNL     1       6.800   2.802  -6.091  1.00  0.00    -0.084 Cl
ATOM     19  C   UNL     1       4.922   0.899  -6.430  1.00  0.00     0.027 A 
BRANCH  15  20
ATOM     20  N   UNL     1       3.528  -1.895  -4.364  1.00  0.00     0.062 N 
ATOM     21  O   UNL     1       3.221  -2.658  -5.289  1.00  0.00    -0.258 OA
ATOM     22  O   UNL     1       3.184  -2.045  -3.188  1.00  0.00    -0.258 OA
ENDBRANCH  15  20
ENDBRANCH  12  13
ENDBRANCH   7  12
ENDBRANCH   4   7
ENDBRANCH   2   3
ENDBRANCH   1   2
BRANCH   1  23
ATOM     23  C   UNL     1       2.647   4.773  -3.760  1.00  0.00     0.118 C 
BRANCH  23  24
ATOM     24  N   UNL     1       3.354   4.765  -5.041  1.00  0.00    -0.352 N 
ATOM     25  C   UNL     1       3.048   5.375  -6.238  1.00  0.00     0.251 C 
ATOM     26  H   UNL     1       4.186   4.238  -5.049  1.00  0.00     0.163 HD
ATOM     27  O   UNL     1       3.712   5.113  -7.238  1.00  0.00    -0.269 OA
BRANCH  25  28
ATOM     28  C   UNL     1       1.902   6.305  -6.328  1.00  0.00     0.039 A 
ATOM     29  C   UNL     1       1.043   6.230  -7.428  1.00  0.00     0.014 A 
ATOM     30  C   UNL     1       1.648   7.222  -5.309  1.00  0.00     0.014 A 
ATOM     31  C   UNL     1      -0.134   6.984  -7.439  1.00  0.00     0.010 A 
ATOM     32  C   UNL     1       0.426   7.880  -5.264  1.00  0.00     0.010 A 
ATOM     33  C   UNL     1      -0.485   7.761  -6.324  1.00  0.00    -0.014 A 
BRANCH  33  34
ATOM     34  C   UNL     1      -1.801   8.444  -6.223  1.00  0.00     0.031 A 
ATOM     35  C   UNL     1      -1.861   9.936  -6.030  1.00  0.00     0.074 A 
ATOM     36  C   UNL     1      -2.933   7.710  -6.194  1.00  0.00     0.049 A 
ATOM     37  N   UNL     1      -2.895  10.697  -5.781  1.00  0.00    -0.248 NA
ATOM     38  C   UNL     1      -0.581  10.663  -6.077  1.00  0.00     0.031 C 
ATOM     39  C   UNL     1      -3.001   6.249  -6.295  1.00  0.00     0.029 A 
ATOM     40  N   UNL     1      -4.244   8.089  -6.053  1.00  0.00    -0.354 N 
ATOM     41  C   UNL     1      -2.388  11.980  -5.610  1.00  0.00     0.074 A 
ATOM     42  C   UNL     1      -0.950  11.886  -5.727  1.00  0.00     0.031 C 
ATOM     43  C   UNL     1      -4.285   5.861  -6.245  1.00  0.00     0.029 A 
ATOM     44  C   UNL     1      -5.130   7.036  -6.067  1.00  0.00     0.049 A 
ATOM     45  H   UNL     1      -4.525   9.027  -5.952  1.00  0.00     0.167 HD
ATOM     46  C   UNL     1      -3.061  13.137  -5.404  1.00  0.00     0.037 A 
ATOM     47  C   UNL     1      -6.471   7.020  -5.946  1.00  0.00     0.037 A 
ATOM     48  C   UNL     1      -4.495  13.229  -5.343  1.00  0.00     0.049 A 
ATOM     49  C   UNL     1      -7.202   8.323  -5.768  1.00  0.00     0.074 A 
ATOM     50  C   UNL     1      -5.282  14.359  -5.210  1.00  0.00     0.029 A 
ATOM     51  N   UNL     1      -5.360  12.146  -5.422  1.00  0.00    -0.354 N 
ATOM     52  N   UNL     1      -6.709   9.535  -5.668  1.00  0.00    -0.248 NA
ATOM     53  C   UNL     1      -8.667   8.259  -5.692  1.00  0.00     0.031 C 
ATOM     54  C   UNL     1      -6.622  13.957  -5.183  1.00  0.00     0.029 A 
ATOM     55  C   UNL     1      -6.671  12.581  -5.336  1.00  0.00     0.049 A 
ATOM     56  H   UNL     1      -5.082  11.207  -5.525  1.00  0.00     0.167 HD
ATOM     57  C   UNL     1      -7.805  10.380  -5.543  1.00  0.00     0.074 A 
ATOM     58  C   UNL     1      -8.986   9.543  -5.591  1.00  0.00     0.031 C 
ATOM     59  C   UNL     1      -7.832  11.728  -5.400  1.00  0.00     0.037 A 
BRANCH  46  60
ATOM     60  C   UNL     1      -2.250  14.394  -5.251  1.00  0.00     0.058 A 
ATOM     61  C   UNL     1      -1.557  14.958  -6.334  1.00  0.00     0.135 A 
ATOM     62  C   UNL     1      -2.172  15.051  -4.012  1.00  0.00     0.135 A 
ATOM     63  F   UNL     1      -1.583  14.362  -7.537  1.00  0.00    -0.206 F 
ATOM     64  C   UNL     1      -0.786  16.106  -6.188  1.00  0.00     0.059 A 
ATOM     65  C   UNL     1      -1.429  16.217  -3.849  1.00  0.00     0.059 A 
ATOM     66  F   UNL     1      -2.814  14.556  -2.942  1.00  0.00    -0.206 F 
ATOM     67  C   UNL     1      -0.725  16.726  -4.939  1.00  0.00     0.060 A 
BRANCH  67  68
ATOM     68  S   UNL     1       0.287  18.211  -4.763  1.00  0.00     0.124 S 
ATOM     69  O   UNL     1       1.633  17.644  -4.750  1.00  0.00    -0.237 OA
ATOM     70  O   UNL     1      -0.066  18.975  -5.955  1.00  0.00    -0.237 OA
ATOM     71  O   UNL     1      -0.166  18.782  -3.499  1.00  0.00    -0.744 OA
ENDBRANCH  67  68
ENDBRANCH  46  60
BRANCH  47  72
ATOM     72  C   UNL     1      -7.212   5.733  -6.029  1.00  0.00     0.058 A 
ATOM     73  C   UNL     1      -7.981   5.422  -7.161  1.00  0.00     0.135 A 
ATOM     74  C   UNL     1      -7.152   4.783  -4.999  1.00  0.00     0.135 A 
ATOM     75  F   UNL     1      -8.071   6.300  -8.171  1.00  0.00    -0.206 F 
ATOM     76  C   UNL     1      -8.678   4.223  -7.262  1.00  0.00     0.059 A 
ATOM     77  C   UNL     1      -7.822   3.566  -5.087  1.00  0.00     0.059 A 
ATOM     78  F   UNL     1      -6.414   5.024  -3.904  1.00  0.00    -0.206 F 
ATOM     79  C   UNL     1      -8.591   3.299  -6.220  1.00  0.00     0.060 A 
BRANCH  79  80
ATOM     80  S   UNL     1      -9.459   1.723  -6.385  1.00  0.00     0.124 S 
ATOM     81  O   UNL     1     -10.841   2.125  -6.154  1.00  0.00    -0.237 OA
ATOM     82  O   UNL     1      -9.126   1.331  -7.751  1.00  0.00    -0.237 OA
ATOM     83  O   UNL     1      -8.856   0.899  -5.341  1.00  0.00    -0.744 OA
ENDBRANCH  79  80
ENDBRANCH  47  72
BRANCH  59  84
ATOM     84  C   UNL     1      -9.180  12.385  -5.321  1.00  0.00     0.058 A 
ATOM     85  C   UNL     1      -9.967  12.311  -4.163  1.00  0.00     0.135 A 
ATOM     86  C   UNL     1      -9.662  13.145  -6.399  1.00  0.00     0.135 A 
ATOM     87  F   UNL     1      -9.552  11.591  -3.108  1.00  0.00    -0.206 F 
ATOM     88  C   UNL     1     -11.197  12.955  -4.081  1.00  0.00     0.059 A 
ATOM     89  C   UNL     1     -10.877  13.816  -6.330  1.00  0.00     0.059 A 
ATOM     90  F   UNL     1      -8.940  13.254  -7.526  1.00  0.00    -0.206 F 
ATOM     91  C   UNL     1     -11.643  13.706  -5.170  1.00  0.00     0.060 A 
BRANCH  91  92
ATOM     92  S   UNL     1     -13.222  14.571  -5.037  1.00  0.00     0.124 S 
ATOM     93  O   UNL     1     -14.171  13.476  -5.206  1.00  0.00    -0.237 OA
ATOM     94  O   UNL     1     -13.152  15.149  -3.699  1.00  0.00    -0.237 OA
ATOM     95  O   UNL     1     -13.173  15.535  -6.133  1.00  0.00    -0.744 OA
ENDBRANCH  91  92
ENDBRANCH  59  84
ENDBRANCH  33  34
ENDBRANCH  25  28
ENDBRANCH  23  24
ENDBRANCH   1  23
TORSDOF 17
