REMARK SMILES C=CC[N@H+](CC(=O)NCCCNC(=O)c1ccc(-c2c3nc(c(-c4c(F)cc(S(=O)(=O)[O-])cc4F)c4ccc([nH]4)c(-c4c(F)cc(S(=O)(=O)[O-])cc4F)c4nc(c(-c5c(F)cc(S(=O)(=O)[O-])cc5F)c5ccc2[nH]5)C=C4)C=C3)cc1)[C@H](C)c1ccc(F)cc1O
REMARK SMILES IDX 9 1 8 2 6 3 7 4 5 6 4 7 3 9 2 10 1 11 81 12 82 13 83 14
REMARK SMILES IDX 84 15 89 16 85 17 88 18 86 19 87 20 90 21 10 23 11 24 12 25
REMARK SMILES IDX 13 26 14 28 15 29 16 30 80 31 17 32 79 33 18 34 19 35 20 36
REMARK SMILES IDX 73 37 21 38 78 39 72 40 74 41 22 42 77 43 71 44 70 45 23 47
REMARK SMILES IDX 57 48 36 49 56 50 37 51 40 52 55 53 75 54 38 55 39 56 54 58
REMARK SMILES IDX 76 59 41 60 24 61 25 62 34 63 26 64 27 65 33 66 35 67 28 68
REMARK SMILES IDX 29 69 30 70 31 71 32 72 58 73 59 74 68 75 60 76 61 77 67 78
REMARK SMILES IDX 69 79 62 80 63 81 64 82 65 83 66 84 42 85 43 86 52 87 44 88
REMARK SMILES IDX 45 89 51 90 53 91 46 92 47 93 48 94 49 95 50 96
REMARK H PARENT 8 5 4 8 90 22 12 27 74 46 40 57
REMARK Flexibility Score: inf
ROOT
ATOM      1  C   UNL     1      -3.308   1.121   1.975  1.00  0.00     0.118 C 
ENDROOT
BRANCH   1   2
ATOM      2  N   UNL     1      -3.518   2.462   1.434  1.00  0.00    -0.351 N 
ATOM      3  C   UNL     1      -3.351   2.978   0.172  1.00  0.00     0.275 C 
ATOM      4  O   UNL     1      -3.622   4.170   0.004  1.00  0.00    -0.269 OA
ATOM      5  H   UNL     1      -3.837   3.116   2.097  1.00  0.00     0.163 HD
BRANCH   3   6
ATOM      6  C   UNL     1      -2.862   2.102  -0.997  1.00  0.00     0.364 C 
BRANCH   6   7
ATOM      7  N   UNL     1      -1.375   2.162  -1.222  1.00  0.00    -0.318 N 
ATOM      8  H   UNL     1      -1.042   3.114  -1.375  1.00  0.00     0.349 HD
BRANCH   7   9
ATOM      9  C   UNL     1      -0.718   1.687   0.001  1.00  0.00     0.291 C 
BRANCH   9  10
ATOM     10  C   UNL     1       0.767   1.638   0.179  1.00  0.00     0.025 C 
ATOM     11  C   UNL     1       1.478   2.483   0.940  1.00  0.00     0.010 C 
ENDBRANCH   9  10
ENDBRANCH   7   9
BRANCH   7  12
ATOM     12  C   UNL     1      -1.001   1.466  -2.494  1.00  0.00     0.216 C 
ATOM     13  C   UNL     1      -1.601   0.057  -2.663  1.00  0.00     0.081 C 
BRANCH  12  14
ATOM     14  C   UNL     1       0.504   1.551  -2.770  1.00  0.00     0.051 A 
ATOM     15  C   UNL     1       1.310   0.401  -2.896  1.00  0.00     0.017 A 
ATOM     16  C   UNL     1       1.151   2.805  -2.779  1.00  0.00     0.127 A 
ATOM     17  C   UNL     1       2.703   0.506  -2.946  1.00  0.00     0.040 A 
ATOM     18  C   UNL     1       2.536   2.915  -2.851  1.00  0.00     0.085 A 
ATOM     19  C   UNL     1       3.301   1.760  -2.907  1.00  0.00     0.126 A 
ATOM     20  F   UNL     1       4.637   1.847  -2.895  1.00  0.00    -0.207 F 
BRANCH  16  21
ATOM     21  O   UNL     1       0.448   3.967  -2.607  1.00  0.00    -0.507 OA
ATOM     22  H   UNL     1      -0.487   3.945  -2.553  1.00  0.00     0.293 HD
ENDBRANCH  16  21
ENDBRANCH  12  14
ENDBRANCH   7  12
ENDBRANCH   6   7
ENDBRANCH   3   6
ENDBRANCH   1   2
BRANCH   1  23
ATOM     23  C   UNL     1      -2.089   1.009   2.901  1.00  0.00     0.042 C 
BRANCH  23  24
ATOM     24  C   UNL     1      -2.228   1.733   4.232  1.00  0.00     0.118 C 
BRANCH  24  25
ATOM     25  N   UNL     1      -2.666   0.825   5.276  1.00  0.00    -0.352 N 
ATOM     26  C   UNL     1      -1.960   0.261   6.312  1.00  0.00     0.251 C 
ATOM     27  H   UNL     1      -3.618   0.574   5.235  1.00  0.00     0.163 HD
ATOM     28  O   UNL     1      -2.449  -0.710   6.886  1.00  0.00    -0.269 OA
BRANCH  26  29
ATOM     29  C   UNL     1      -0.638   0.786   6.746  1.00  0.00     0.039 A 
ATOM     30  C   UNL     1       0.298  -0.114   7.271  1.00  0.00     0.014 A 
ATOM     31  C   UNL     1      -0.335   2.150   6.736  1.00  0.00     0.014 A 
ATOM     32  C   UNL     1       1.528   0.347   7.758  1.00  0.00     0.010 A 
ATOM     33  C   UNL     1       0.925   2.599   7.139  1.00  0.00     0.010 A 
ATOM     34  C   UNL     1       1.861   1.709   7.684  1.00  0.00    -0.014 A 
BRANCH  34  35
ATOM     35  C   UNL     1       3.151   2.220   8.225  1.00  0.00     0.031 A 
ATOM     36  C   UNL     1       3.159   3.188   9.383  1.00  0.00     0.074 A 
ATOM     37  C   UNL     1       4.317   1.845   7.664  1.00  0.00     0.049 A 
ATOM     38  N   UNL     1       4.173   3.771   9.971  1.00  0.00    -0.248 NA
ATOM     39  C   UNL     1       1.849   3.569   9.936  1.00  0.00     0.031 C 
ATOM     40  C   UNL     1       4.453   0.941   6.521  1.00  0.00     0.029 A 
ATOM     41  N   UNL     1       5.612   2.177   7.979  1.00  0.00    -0.354 N 
ATOM     42  C   UNL     1       3.625   4.597  10.947  1.00  0.00     0.074 A 
ATOM     43  C   UNL     1       2.187   4.484  10.831  1.00  0.00     0.031 C 
ATOM     44  C   UNL     1       5.757   0.761   6.255  1.00  0.00     0.029 A 
ATOM     45  C   UNL     1       6.550   1.564   7.182  1.00  0.00     0.049 A 
ATOM     46  H   UNL     1       5.847   2.796   8.708  1.00  0.00     0.167 HD
ATOM     47  C   UNL     1       4.256   5.359  11.874  1.00  0.00     0.037 A 
ATOM     48  C   UNL     1       7.895   1.636   7.197  1.00  0.00     0.037 A 
ATOM     49  C   UNL     1       5.687   5.453  12.004  1.00  0.00     0.049 A 
ATOM     50  C   UNL     1       8.578   2.496   8.225  1.00  0.00     0.074 A 
ATOM     51  C   UNL     1       6.424   6.161  12.937  1.00  0.00     0.029 A 
ATOM     52  N   UNL     1       6.600   4.818  11.175  1.00  0.00    -0.354 N 
ATOM     53  N   UNL     1       8.044   3.233   9.170  1.00  0.00    -0.248 NA
ATOM     54  C   UNL     1      10.047   2.530   8.193  1.00  0.00     0.031 C 
ATOM     55  C   UNL     1       7.782   5.985  12.649  1.00  0.00     0.029 A 
ATOM     56  C   UNL     1       7.893   5.130  11.563  1.00  0.00     0.049 A 
ATOM     57  H   UNL     1       6.364   4.231  10.420  1.00  0.00     0.167 HD
ATOM     58  C   UNL     1       9.111   3.796   9.863  1.00  0.00     0.074 A 
ATOM     59  C   UNL     1      10.321   3.308   9.231  1.00  0.00     0.031 C 
ATOM     60  C   UNL     1       9.089   4.635  10.928  1.00  0.00     0.037 A 
BRANCH  47  61
ATOM     61  C   UNL     1       3.390   6.152  12.817  1.00  0.00     0.058 A 
ATOM     62  C   UNL     1       2.603   5.526  13.799  1.00  0.00     0.135 A 
ATOM     63  C   UNL     1       3.331   7.552  12.730  1.00  0.00     0.135 A 
ATOM     64  F   UNL     1       2.611   4.189  13.921  1.00  0.00    -0.206 F 
ATOM     65  C   UNL     1       1.748   6.253  14.621  1.00  0.00     0.059 A 
ATOM     66  C   UNL     1       2.505   8.303  13.564  1.00  0.00     0.059 A 
ATOM     67  F   UNL     1       4.066   8.205  11.816  1.00  0.00    -0.206 F 
ATOM     68  C   UNL     1       1.698   7.641  14.488  1.00  0.00     0.060 A 
BRANCH  68  69
ATOM     69  S   UNL     1       0.551   8.571  15.527  1.00  0.00     0.124 S 
ATOM     70  O   UNL     1      -0.726   8.281  14.877  1.00  0.00    -0.237 OA
ATOM     71  O   UNL     1       0.744   7.954  16.838  1.00  0.00    -0.237 OA
ATOM     72  O   UNL     1       1.019   9.943  15.409  1.00  0.00    -0.744 OA
ENDBRANCH  68  69
ENDBRANCH  47  61
BRANCH  48  73
ATOM     73  C   UNL     1       8.686   0.825   6.234  1.00  0.00     0.058 A 
ATOM     74  C   UNL     1       9.397  -0.304   6.666  1.00  0.00     0.135 A 
ATOM     75  C   UNL     1       8.715   1.132   4.865  1.00  0.00     0.135 A 
ATOM     76  F   UNL     1       9.406  -0.633   7.967  1.00  0.00    -0.206 F 
ATOM     77  C   UNL     1      10.110  -1.102   5.777  1.00  0.00     0.059 A 
ATOM     78  C   UNL     1       9.403   0.337   3.952  1.00  0.00     0.059 A 
ATOM     79  F   UNL     1       8.040   2.195   4.400  1.00  0.00    -0.206 F 
ATOM     80  C   UNL     1      10.100  -0.777   4.419  1.00  0.00     0.060 A 
BRANCH  80  81
ATOM     81  S   UNL     1      10.962  -1.867   3.265  1.00  0.00     0.124 S 
ATOM     82  O   UNL     1      12.357  -1.555   3.552  1.00  0.00    -0.237 OA
ATOM     83  O   UNL     1      10.501  -3.186   3.688  1.00  0.00    -0.237 OA
ATOM     84  O   UNL     1      10.471  -1.430   1.961  1.00  0.00    -0.744 OA
ENDBRANCH  80  81
ENDBRANCH  48  73
BRANCH  60  85
ATOM     85  C   UNL     1      10.413   5.055  11.505  1.00  0.00     0.058 A 
ATOM     86  C   UNL     1      11.246   5.976  10.850  1.00  0.00     0.135 A 
ATOM     87  C   UNL     1      10.832   4.564  12.752  1.00  0.00     0.135 A 
ATOM     88  F   UNL     1      10.896   6.471   9.652  1.00  0.00    -0.206 F 
ATOM     89  C   UNL     1      12.458   6.379  11.402  1.00  0.00     0.059 A 
ATOM     90  C   UNL     1      12.028   4.973  13.334  1.00  0.00     0.059 A 
ATOM     91  F   UNL     1      10.068   3.689  13.425  1.00  0.00    -0.206 F 
ATOM     92  C   UNL     1      12.841   5.872  12.645  1.00  0.00     0.060 A 
BRANCH  92  93
ATOM     93  S   UNL     1      14.401   6.426  13.366  1.00  0.00     0.124 S 
ATOM     94  O   UNL     1      15.372   5.686  12.568  1.00  0.00    -0.237 OA
ATOM     95  O   UNL     1      14.358   7.867  13.136  1.00  0.00    -0.237 OA
ATOM     96  O   UNL     1      14.293   6.018  14.763  1.00  0.00    -0.744 OA
ENDBRANCH  92  93
ENDBRANCH  60  85
ENDBRANCH  34  35
ENDBRANCH  26  29
ENDBRANCH  24  25
ENDBRANCH  23  24
ENDBRANCH   1  23
TORSDOF 19
