REMARK SMILES O=C(NCCCNC(=O)[C@@H](Cc1cccc(F)c1)[C@H]1CCCCC[C@@H]1O)c1ccc(-c2c3nc(c(-c4c(F)cc(S(=O)(=O)[O-])cc4F)c4ccc([nH]4)c(-c4c(F)cc(S(=O)(=O)[O-])cc4F)c4nc(c(-c5c(F)cc(S(=O)(=O)[O-])cc5F)c5ccc2[nH]5)C=C4)C=C3)cc1
REMARK SMILES IDX 6 1 5 2 4 3 3 4 1 5 2 6 27 8 28 9 92 10 29 11 91 12 30 13
REMARK SMILES IDX 31 14 32 15 85 16 33 17 90 18 84 19 86 20 34 21 89 22 83 23
REMARK SMILES IDX 82 24 35 26 69 27 48 28 68 29 49 30 52 31 67 32 87 33 50 34
REMARK SMILES IDX 51 35 66 37 88 38 53 39 36 40 37 41 46 42 38 43 39 44 45 45
REMARK SMILES IDX 47 46 40 47 41 48 42 49 43 50 44 51 70 52 71 53 80 54 72 55
REMARK SMILES IDX 73 56 79 57 81 58 74 59 75 60 76 61 77 62 78 63 54 64 55 65
REMARK SMILES IDX 64 66 56 67 57 68 63 69 65 70 58 71 59 72 60 73 61 74 62 75
REMARK SMILES IDX 7 76 8 77 9 79 10 80 11 81 12 82 13 83 18 84 14 85 16 86
REMARK SMILES IDX 15 87 17 88 19 89 20 90 21 91 25 93 24 94 23 95 22 96 26 98
REMARK H PARENT 3 7 86 25 52 36 7 78 26 99
REMARK Flexibility Score: 90.00
ROOT
ATOM      1  C   UNL     1       4.776  -2.755  -0.884  1.00  0.00     0.117 C 
ENDROOT
BRANCH   1   2
ATOM      2  C   UNL     1       4.968  -1.288  -0.561  1.00  0.00     0.042 C 
BRANCH   2   3
ATOM      3  C   UNL     1       4.231  -0.462  -1.607  1.00  0.00     0.118 C 
BRANCH   3   4
ATOM      4  N   UNL     1       2.816  -0.292  -1.278  1.00  0.00    -0.352 N 
ATOM      5  O   UNL     1       0.983   0.284  -0.119  1.00  0.00    -0.269 OA
ATOM      6  C   UNL     1       2.180   0.483  -0.334  1.00  0.00     0.251 C 
ATOM      7  H   UNL     1       2.207  -0.831  -1.832  1.00  0.00     0.163 HD
BRANCH   6   8
ATOM      8  C   UNL     1       2.909   1.505   0.458  1.00  0.00     0.039 A 
ATOM      9  C   UNL     1       4.005   2.176  -0.065  1.00  0.00     0.014 A 
ATOM     10  C   UNL     1       2.471   1.836   1.746  1.00  0.00     0.014 A 
ATOM     11  C   UNL     1       4.795   2.976   0.743  1.00  0.00     0.010 A 
ATOM     12  C   UNL     1       3.166   2.791   2.504  1.00  0.00     0.010 A 
ATOM     13  C   UNL     1       4.361   3.344   2.022  1.00  0.00    -0.014 A 
BRANCH  13  14
ATOM     14  C   UNL     1       5.155   4.356   2.771  1.00  0.00     0.031 A 
ATOM     15  C   UNL     1       5.727   4.050   4.128  1.00  0.00     0.074 A 
ATOM     16  C   UNL     1       5.421   5.540   2.177  1.00  0.00     0.049 A 
ATOM     17  N   UNL     1       6.462   4.811   4.898  1.00  0.00    -0.248 NA
ATOM     18  C   UNL     1       5.428   2.730   4.703  1.00  0.00     0.031 C 
ATOM     19  C   UNL     1       4.921   5.953   0.860  1.00  0.00     0.029 A 
ATOM     20  N   UNL     1       6.208   6.593   2.568  1.00  0.00    -0.354 N 
ATOM     21  C   UNL     1       6.692   4.075   6.055  1.00  0.00     0.074 A 
ATOM     22  C   UNL     1       5.987   2.822   5.902  1.00  0.00     0.031 C 
ATOM     23  C   UNL     1       5.485   7.117   0.515  1.00  0.00     0.029 A 
ATOM     24  C   UNL     1       6.303   7.590   1.624  1.00  0.00     0.049 A 
ATOM     25  H   UNL     1       6.662   6.633   3.441  1.00  0.00     0.167 HD
ATOM     26  C   UNL     1       7.436   4.411   7.136  1.00  0.00     0.037 A 
ATOM     27  C   UNL     1       6.955   8.768   1.645  1.00  0.00     0.037 A 
ATOM     28  C   UNL     1       8.151   5.657   7.265  1.00  0.00     0.049 A 
ATOM     29  C   UNL     1       7.746   9.130   2.865  1.00  0.00     0.074 A 
ATOM     30  C   UNL     1       8.933   6.093   8.320  1.00  0.00     0.029 A 
ATOM     31  N   UNL     1       8.178   6.663   6.308  1.00  0.00    -0.354 N 
ATOM     32  N   UNL     1       7.934   8.429   3.958  1.00  0.00    -0.248 NA
ATOM     33  C   UNL     1       8.406  10.440   2.865  1.00  0.00     0.031 C 
ATOM     34  C   UNL     1       9.391   7.381   8.023  1.00  0.00     0.029 A 
ATOM     35  C   UNL     1       8.950   7.723   6.754  1.00  0.00     0.049 A 
ATOM     36  H   UNL     1       7.715   6.628   5.439  1.00  0.00     0.167 HD
ATOM     37  C   UNL     1       8.751   9.205   4.770  1.00  0.00     0.074 A 
ATOM     38  C   UNL     1       9.031  10.423   4.035  1.00  0.00     0.031 C 
ATOM     39  C   UNL     1       9.225   8.929   6.010  1.00  0.00     0.037 A 
BRANCH  26  40
ATOM     40  C   UNL     1       7.500   3.428   8.276  1.00  0.00     0.058 A 
ATOM     41  C   UNL     1       6.900   3.727   9.510  1.00  0.00     0.135 A 
ATOM     42  C   UNL     1       8.181   2.204   8.164  1.00  0.00     0.135 A 
ATOM     43  F   UNL     1       6.233   4.879   9.678  1.00  0.00    -0.206 F 
ATOM     44  C   UNL     1       6.976   2.853  10.590  1.00  0.00     0.059 A 
ATOM     45  C   UNL     1       8.243   1.300   9.222  1.00  0.00     0.059 A 
ATOM     46  F   UNL     1       8.757   1.856   7.002  1.00  0.00    -0.206 F 
ATOM     47  C   UNL     1       7.646   1.639  10.435  1.00  0.00     0.060 A 
BRANCH  47  48
ATOM     48  S   UNL     1       7.678   0.488  11.827  1.00  0.00     0.124 S 
ATOM     49  O   UNL     1       8.565   1.171  12.761  1.00  0.00    -0.237 OA
ATOM     50  O   UNL     1       6.270   0.432  12.209  1.00  0.00    -0.237 OA
ATOM     51  O   UNL     1       8.206  -0.740  11.238  1.00  0.00    -0.744 OA
ENDBRANCH  47  48
ENDBRANCH  26  40
BRANCH  27  52
ATOM     52  C   UNL     1       6.877   9.667   0.463  1.00  0.00     0.058 A 
ATOM     53  C   UNL     1       5.665  10.271   0.089  1.00  0.00     0.135 A 
ATOM     54  C   UNL     1       7.991   9.876  -0.364  1.00  0.00     0.135 A 
ATOM     55  F   UNL     1       4.565  10.092   0.837  1.00  0.00    -0.206 F 
ATOM     56  C   UNL     1       5.548  11.009  -1.082  1.00  0.00     0.059 A 
ATOM     57  C   UNL     1       7.907  10.639  -1.526  1.00  0.00     0.059 A 
ATOM     58  F   UNL     1       9.174   9.329  -0.044  1.00  0.00    -0.206 F 
ATOM     59  C   UNL     1       6.674  11.181  -1.888  1.00  0.00     0.060 A 
BRANCH  59  60
ATOM     60  S   UNL     1       6.488  12.110  -3.425  1.00  0.00     0.124 S 
ATOM     61  O   UNL     1       5.641  11.215  -4.206  1.00  0.00    -0.237 OA
ATOM     62  O   UNL     1       5.856  13.341  -2.962  1.00  0.00    -0.237 OA
ATOM     63  O   UNL     1       7.860  12.251  -3.902  1.00  0.00    -0.744 OA
ENDBRANCH  59  60
ENDBRANCH  27  52
BRANCH  39  64
ATOM     64  C   UNL     1      10.134   9.945   6.645  1.00  0.00     0.058 A 
ATOM     65  C   UNL     1      11.495   9.653   6.831  1.00  0.00     0.135 A 
ATOM     66  C   UNL     1       9.655  11.172   7.127  1.00  0.00     0.135 A 
ATOM     67  F   UNL     1      12.006   8.491   6.393  1.00  0.00    -0.206 F 
ATOM     68  C   UNL     1      12.345  10.535   7.489  1.00  0.00     0.059 A 
ATOM     69  C   UNL     1      10.494  12.084   7.761  1.00  0.00     0.059 A 
ATOM     70  F   UNL     1       8.364  11.505   6.962  1.00  0.00    -0.206 F 
ATOM     71  C   UNL     1      11.834  11.748   7.952  1.00  0.00     0.060 A 
BRANCH  71  72
ATOM     72  S   UNL     1      12.958  12.888   8.786  1.00  0.00     0.124 S 
ATOM     73  O   UNL     1      13.210  12.193  10.043  1.00  0.00    -0.237 OA
ATOM     74  O   UNL     1      14.082  12.947   7.856  1.00  0.00    -0.237 OA
ATOM     75  O   UNL     1      12.177  14.117   8.893  1.00  0.00    -0.744 OA
ENDBRANCH  71  72
ENDBRANCH  39  64
ENDBRANCH  13  14
ENDBRANCH   6   8
ENDBRANCH   3   4
ENDBRANCH   2   3
ENDBRANCH   1   2
BRANCH   1  76
ATOM     76  N   UNL     1       5.761  -3.248  -1.828  1.00  0.00    -0.356 N 
ATOM     77  C   UNL     1       6.228  -4.500  -2.046  1.00  0.00     0.223 C 
ATOM     78  H   UNL     1       6.157  -2.556  -2.407  1.00  0.00     0.163 HD
ATOM     79  O   UNL     1       6.868  -4.676  -3.090  1.00  0.00    -0.275 OA
BRANCH  77  80
ATOM     80  C   UNL     1       6.025  -5.670  -1.087  1.00  0.00     0.088 C 
BRANCH  80  81
ATOM     81  C   UNL     1       6.837  -5.527   0.240  1.00  0.00     0.049 C 
BRANCH  81  82
ATOM     82  C   UNL     1       6.395  -4.550   1.300  1.00  0.00    -0.044 A 
ATOM     83  C   UNL     1       5.283  -4.815   2.114  1.00  0.00     0.004 A 
ATOM     84  C   UNL     1       7.066  -3.325   1.458  1.00  0.00     0.043 A 
ATOM     85  C   UNL     1       4.800  -3.845   3.000  1.00  0.00     0.003 A 
ATOM     86  C   UNL     1       6.579  -2.370   2.348  1.00  0.00     0.123 A 
ATOM     87  C   UNL     1       5.441  -2.612   3.106  1.00  0.00     0.039 A 
ATOM     88  F   UNL     1       7.178  -1.175   2.423  1.00  0.00    -0.207 F 
ENDBRANCH  81  82
ENDBRANCH  80  81
BRANCH  80  89
ATOM     89  C   UNL     1       4.642  -6.414  -1.005  1.00  0.00     0.030 C 
BRANCH  89  90
ATOM     90  C   UNL     1       3.312  -5.636  -1.148  1.00  0.00     0.007 C 
BRANCH  90  91
ATOM     91  C   UNL     1       3.010  -4.960  -2.489  1.00  0.00     0.000 CG0
ATOM     92  G   UNL     1       2.392  -5.795  -3.595  1.00  0.00     0.000 G0
ENDBRANCH  90  91
ENDBRANCH  89  90
BRANCH  89  93
ATOM     93  C   UNL     1       4.629  -7.692  -1.888  1.00  0.00     0.118 C 
BRANCH  93  94
ATOM     94  C   UNL     1       4.309  -7.495  -3.376  1.00  0.00     0.032 C 
BRANCH  94  95
ATOM     95  C   UNL     1       2.832  -7.244  -3.687  1.00  0.00     0.003 C 
BRANCH  95  96
ATOM     96  C   UNL     1       2.392  -5.795  -3.595  1.00  0.00     0.000 CG0
ATOM     97  G   UNL     1       3.010  -4.960  -2.489  1.00  0.00     0.000 G0
ENDBRANCH  95  96
ENDBRANCH  94  95
ENDBRANCH  93  94
BRANCH  93  98
ATOM     98  O   UNL     1       3.694  -8.614  -1.312  1.00  0.00    -0.393 OA
ATOM     99  H   UNL     1       2.803  -8.230  -1.339  1.00  0.00     0.210 HD
ENDBRANCH  93  98
ENDBRANCH  89  93
ENDBRANCH  80  89
ENDBRANCH  77  80
ENDBRANCH   1  76
TORSDOF 17
