REMARK SMILES C[C@@H](Oc1ccc(F)cc1)C(=O)N[C@@H](CO)C(=O)NCCCNC(=O)c1ccc(-c2c3nc(c(-c4c(F)cc(S(=O)(=O)[O-])cc4F)c4ccc([nH]4)c(-c4c(F)cc(S(=O)(=O)[O-])cc4F)c4nc(c(-c5c(F)cc(S(=O)(=O)[O-])cc5F)c5ccc2[nH]5)C=C4)C=C3)cc1
REMARK SMILES IDX 20 1 19 2 17 3 18 4 14 6 13 7 11 8 12 9 2 11 1 12 3 13 4 14
REMARK SMILES IDX 5 15 10 16 6 17 9 18 7 19 8 20 15 21 16 22 21 24 22 25 23 26
REMARK SMILES IDX 24 27 25 29 26 30 27 31 91 32 28 33 90 34 29 35 30 36 31 37
REMARK SMILES IDX 84 38 32 39 89 40 83 41 85 42 33 43 88 44 82 45 81 46 34 48
REMARK SMILES IDX 68 49 47 50 67 51 48 52 51 53 66 54 86 55 49 56 50 57 65 59
REMARK SMILES IDX 87 60 52 61 35 62 36 63 45 64 37 65 38 66 44 67 46 68 39 69
REMARK SMILES IDX 40 70 41 71 42 72 43 73 69 74 70 75 79 76 71 77 72 78 78 79
REMARK SMILES IDX 80 80 73 81 74 82 75 83 76 84 77 85 53 86 54 87 63 88 55 89
REMARK SMILES IDX 56 90 62 91 64 92 57 93 58 94 59 95 60 96 61 97
REMARK H PARENT 19 5 13 10 16 23 23 28 85 47 51 58
REMARK Flexibility Score: inf
ROOT
ATOM      1  C   UNL     1      -4.051  -2.675  -1.756  1.00  0.00     0.117 C 
ENDROOT
BRANCH   1   2
ATOM      2  N   UNL     1      -2.869  -3.021  -2.522  1.00  0.00    -0.354 N 
ATOM      3  C   UNL     1      -1.548  -2.833  -2.259  1.00  0.00     0.244 C 
ATOM      4  O   UNL     1      -0.744  -3.447  -2.970  1.00  0.00    -0.273 OA
ATOM      5  H   UNL     1      -3.054  -3.469  -3.380  1.00  0.00     0.163 HD
BRANCH   3   6
ATOM      6  C   UNL     1      -1.048  -1.981  -1.079  1.00  0.00     0.197 C 
BRANCH   6   7
ATOM      7  N   UNL     1      -1.591  -0.616  -1.094  1.00  0.00    -0.339 N 
ATOM      8  C   UNL     1      -0.946   0.567  -1.336  1.00  0.00     0.261 C 
ATOM      9  O   UNL     1      -1.645   1.570  -1.500  1.00  0.00    -0.271 OA
ATOM     10  H   UNL     1      -2.554  -0.542  -0.903  1.00  0.00     0.164 HD
BRANCH   8  11
ATOM     11  C   UNL     1       0.589   0.669  -1.290  1.00  0.00     0.258 C 
ATOM     12  C   UNL     1       1.021   0.476   0.162  1.00  0.00     0.064 C 
BRANCH  11  13
ATOM     13  O   UNL     1       1.115  -0.291  -2.210  1.00  0.00    -0.481 OA
BRANCH  13  14
ATOM     14  C   UNL     1       2.444  -0.195  -2.494  1.00  0.00     0.120 A 
ATOM     15  C   UNL     1       3.407  -0.661  -1.598  1.00  0.00     0.049 A 
ATOM     16  C   UNL     1       2.812   0.183  -3.785  1.00  0.00     0.049 A 
ATOM     17  C   UNL     1       4.749  -0.694  -1.972  1.00  0.00     0.043 A 
ATOM     18  C   UNL     1       4.154   0.137  -4.166  1.00  0.00     0.043 A 
ATOM     19  C   UNL     1       5.111  -0.296  -3.253  1.00  0.00     0.123 A 
ATOM     20  F   UNL     1       6.397  -0.358  -3.621  1.00  0.00    -0.207 F 
ENDBRANCH  13  14
ENDBRANCH  11  13
ENDBRANCH   8  11
ENDBRANCH   6   7
BRANCH   6  21
ATOM     21  C   UNL     1      -1.177  -2.701   0.272  1.00  0.00     0.191 C 
BRANCH  21  22
ATOM     22  O   UNL     1      -2.469  -2.629   0.860  1.00  0.00    -0.394 OA
ATOM     23  H   UNL     1      -2.687  -1.703   1.051  1.00  0.00     0.210 HD
ENDBRANCH  21  22
ENDBRANCH   6  21
ENDBRANCH   3   6
ENDBRANCH   1   2
BRANCH   1  24
ATOM     24  C   UNL     1      -5.073  -1.900  -2.572  1.00  0.00     0.042 C 
BRANCH  24  25
ATOM     25  C   UNL     1      -5.642  -2.674  -3.753  1.00  0.00     0.118 C 
BRANCH  25  26
ATOM     26  N   UNL     1      -6.365  -3.874  -3.348  1.00  0.00    -0.352 N 
ATOM     27  C   UNL     1      -7.706  -4.168  -3.412  1.00  0.00     0.251 C 
ATOM     28  H   UNL     1      -5.803  -4.587  -2.969  1.00  0.00     0.163 HD
ATOM     29  O   UNL     1      -8.133  -5.171  -2.844  1.00  0.00    -0.269 OA
BRANCH  27  30
ATOM     30  C   UNL     1      -8.636  -3.270  -4.128  1.00  0.00     0.039 A 
ATOM     31  C   UNL     1      -9.862  -2.955  -3.537  1.00  0.00     0.014 A 
ATOM     32  C   UNL     1      -8.300  -2.727  -5.370  1.00  0.00     0.014 A 
ATOM     33  C   UNL     1     -10.700  -2.016  -4.143  1.00  0.00     0.010 A 
ATOM     34  C   UNL     1      -9.091  -1.724  -5.924  1.00  0.00     0.010 A 
ATOM     35  C   UNL     1     -10.292  -1.347  -5.309  1.00  0.00    -0.014 A 
BRANCH  35  36
ATOM     36  C   UNL     1     -11.082  -0.220  -5.871  1.00  0.00     0.031 A 
ATOM     37  C   UNL     1     -11.649  -0.306  -7.262  1.00  0.00     0.074 A 
ATOM     38  C   UNL     1     -11.222   0.912  -5.149  1.00  0.00     0.049 A 
ATOM     39  N   UNL     1     -12.281   0.610  -7.948  1.00  0.00    -0.248 NA
ATOM     40  C   UNL     1     -11.465  -1.575  -7.986  1.00  0.00     0.031 C 
ATOM     41  C   UNL     1     -10.673   1.132  -3.807  1.00  0.00     0.029 A 
ATOM     42  N   UNL     1     -11.855   2.095  -5.441  1.00  0.00    -0.354 N 
ATOM     43  C   UNL     1     -12.564   0.034  -9.181  1.00  0.00     0.074 A 
ATOM     44  C   UNL     1     -11.992  -1.294  -9.170  1.00  0.00     0.031 C 
ATOM     45  C   UNL     1     -11.015   2.359  -3.385  1.00  0.00     0.029 A 
ATOM     46  C   UNL     1     -11.762   3.035  -4.440  1.00  0.00     0.049 A 
ATOM     47  H   UNL     1     -12.332   2.255  -6.287  1.00  0.00     0.167 HD
ATOM     48  C   UNL     1     -13.261   0.558 -10.215  1.00  0.00     0.037 A 
ATOM     49  C   UNL     1     -12.210   4.306  -4.382  1.00  0.00     0.037 A 
ATOM     50  C   UNL     1     -13.857   1.869 -10.204  1.00  0.00     0.049 A 
ATOM     51  C   UNL     1     -12.959   4.870  -5.559  1.00  0.00     0.074 A 
ATOM     52  C   UNL     1     -14.639   2.460 -11.181  1.00  0.00     0.029 A 
ATOM     53  N   UNL     1     -13.741   2.789  -9.174  1.00  0.00    -0.354 N 
ATOM     54  N   UNL     1     -13.275   4.284  -6.689  1.00  0.00    -0.248 NA
ATOM     55  C   UNL     1     -13.409   6.266  -5.460  1.00  0.00     0.031 C 
ATOM     56  C   UNL     1     -14.953   3.756 -10.764  1.00  0.00     0.029 A 
ATOM     57  C   UNL     1     -14.410   3.954  -9.505  1.00  0.00     0.049 A 
ATOM     58  H   UNL     1     -13.255   2.636  -8.331  1.00  0.00     0.167 HD
ATOM     59  C   UNL     1     -13.970   5.234  -7.428  1.00  0.00     0.074 A 
ATOM     60  C   UNL     1     -14.050   6.425  -6.610  1.00  0.00     0.031 C 
ATOM     61  C   UNL     1     -14.486   5.131  -8.677  1.00  0.00     0.037 A 
BRANCH  48  62
ATOM     62  C   UNL     1     -13.459  -0.282 -11.445  1.00  0.00     0.058 A 
ATOM     63  C   UNL     1     -12.849   0.073 -12.659  1.00  0.00     0.135 A 
ATOM     64  C   UNL     1     -14.356  -1.362 -11.453  1.00  0.00     0.135 A 
ATOM     65  F   UNL     1     -11.977   1.093 -12.705  1.00  0.00    -0.206 F 
ATOM     66  C   UNL     1     -13.151  -0.588 -13.845  1.00  0.00     0.059 A 
ATOM     67  C   UNL     1     -14.654  -2.054 -12.623  1.00  0.00     0.059 A 
ATOM     68  F   UNL     1     -14.949  -1.756 -10.315  1.00  0.00    -0.206 F 
ATOM     69  C   UNL     1     -14.064  -1.643 -13.819  1.00  0.00     0.060 A 
BRANCH  69  70
ATOM     70  S   UNL     1     -14.470  -2.469 -15.372  1.00  0.00     0.124 S 
ATOM     71  O   UNL     1     -15.177  -1.418 -16.095  1.00  0.00    -0.237 OA
ATOM     72  O   UNL     1     -13.149  -2.818 -15.885  1.00  0.00    -0.237 OA
ATOM     73  O   UNL     1     -15.289  -3.601 -14.949  1.00  0.00    -0.744 OA
ENDBRANCH  69  70
ENDBRANCH  48  62
BRANCH  49  74
ATOM     74  C   UNL     1     -11.960   5.132  -3.169  1.00  0.00     0.058 A 
ATOM     75  C   UNL     1     -10.665   5.547  -2.823  1.00  0.00     0.135 A 
ATOM     76  C   UNL     1     -13.014   5.519  -2.328  1.00  0.00     0.135 A 
ATOM     77  F   UNL     1      -9.618   5.196  -3.586  1.00  0.00    -0.206 F 
ATOM     78  C   UNL     1     -10.421   6.301  -1.680  1.00  0.00     0.059 A 
ATOM     79  C   UNL     1     -12.800   6.298  -1.194  1.00  0.00     0.059 A 
ATOM     80  F   UNL     1     -14.273   5.157  -2.622  1.00  0.00    -0.206 F 
ATOM     81  C   UNL     1     -11.496   6.673  -0.872  1.00  0.00     0.060 A 
BRANCH  81  82
ATOM     82  S   UNL     1     -11.159   7.669   0.596  1.00  0.00     0.124 S 
ATOM     83  O   UNL     1     -10.477   6.704   1.452  1.00  0.00    -0.237 OA
ATOM     84  O   UNL     1     -10.328   8.739   0.056  1.00  0.00    -0.237 OA
ATOM     85  O   UNL     1     -12.489   8.075   1.041  1.00  0.00    -0.744 OA
ENDBRANCH  81  82
ENDBRANCH  49  74
BRANCH  61  86
ATOM     86  C   UNL     1     -15.190   6.330  -9.247  1.00  0.00     0.058 A 
ATOM     87  C   UNL     1     -16.580   6.316  -9.447  1.00  0.00     0.135 A 
ATOM     88  C   UNL     1     -14.473   7.453  -9.690  1.00  0.00     0.135 A 
ATOM     89  F   UNL     1     -17.311   5.264  -9.046  1.00  0.00    -0.206 F 
ATOM     90  C   UNL     1     -17.230   7.360 -10.095  1.00  0.00     0.059 A 
ATOM     91  C   UNL     1     -15.108   8.521 -10.316  1.00  0.00     0.059 A 
ATOM     92  F   UNL     1     -13.145   7.519  -9.510  1.00  0.00    -0.206 F 
ATOM     93  C   UNL     1     -16.484   8.456 -10.532  1.00  0.00     0.060 A 
BRANCH  93  94
ATOM     94  S   UNL     1     -17.343   9.794 -11.385  1.00  0.00     0.124 S 
ATOM     95  O   UNL     1     -17.726   9.154 -12.639  1.00  0.00    -0.237 OA
ATOM     96  O   UNL     1     -18.436  10.093 -10.465  1.00  0.00    -0.237 OA
ATOM     97  O   UNL     1     -16.325  10.835 -11.497  1.00  0.00    -0.744 OA
ENDBRANCH  93  94
ENDBRANCH  61  86
ENDBRANCH  35  36
ENDBRANCH  27  30
ENDBRANCH  25  26
ENDBRANCH  24  25
ENDBRANCH   1  24
TORSDOF 19
