REMARK SMILES CCc1ccc(CNC(=O)CCC(=O)NCCCNC(=O)c2ccc(-c3c4nc(c(-c5c(F)cc(S(=O)(=O)[O-])cc5F)c5ccc([nH]5)c(-c5c(F)cc(S(=O)(=O)[O-])cc5F)c5nc(c(-c6c(F)cc(S(=O)(=O)[O-])cc6F)c6ccc3[nH]6)C=C5)C=C4)cc2)cc1
REMARK SMILES IDX 16 1 15 2 13 3 14 4 12 6 11 7 9 8 8 9 10 11 7 12 6 13 3 14
REMARK SMILES IDX 4 15 89 16 5 17 88 18 2 19 1 20 17 21 18 22 19 23 20 24
REMARK SMILES IDX 21 26 22 27 23 28 87 29 24 30 86 31 25 32 26 33 27 34 80 35
REMARK SMILES IDX 28 36 85 37 79 38 81 39 29 40 84 41 78 42 77 43 30 45 64 46
REMARK SMILES IDX 43 47 63 48 44 49 47 50 62 51 82 52 45 53 46 54 61 56 83 57
REMARK SMILES IDX 48 58 31 59 32 60 41 61 33 62 34 63 40 64 42 65 35 66 36 67
REMARK SMILES IDX 37 68 38 69 39 70 65 71 66 72 75 73 67 74 68 75 74 76 76 77
REMARK SMILES IDX 69 78 70 79 71 80 72 81 73 82 49 83 50 84 59 85 51 86 52 87
REMARK SMILES IDX 58 88 60 89 53 90 54 91 55 92 56 93 57 94
REMARK H PARENT 15 5 8 10 19 25 81 44 47 55
REMARK Flexibility Score: inf
ROOT
ATOM      1  C   UNL     1       0.060   2.556   7.030  1.00  0.00     0.117 C 
ENDROOT
BRANCH   1   2
ATOM      2  N   UNL     1       1.318   2.504   6.316  1.00  0.00    -0.356 N 
ATOM      3  C   UNL     1       2.588   2.406   6.817  1.00  0.00     0.220 C 
ATOM      4  O   UNL     1       3.398   1.619   6.327  1.00  0.00    -0.275 OA
ATOM      5  H   UNL     1       1.251   2.544   5.334  1.00  0.00     0.163 HD
BRANCH   3   6
ATOM      6  C   UNL     1       3.058   3.442   7.798  1.00  0.00     0.110 C 
BRANCH   6   7
ATOM      7  C   UNL     1       3.498   4.677   7.004  1.00  0.00     0.110 C 
BRANCH   7   8
ATOM      8  C   UNL     1       2.329   5.311   6.276  1.00  0.00     0.220 C 
ATOM      9  N   UNL     1       2.067   5.079   4.955  1.00  0.00    -0.352 N 
ATOM     10  H   UNL     1       1.180   5.393   4.667  1.00  0.00     0.163 HD
ATOM     11  O   UNL     1       1.539   6.018   6.907  1.00  0.00    -0.275 OA
BRANCH   9  12
ATOM     12  C   UNL     1       2.846   4.455   3.885  1.00  0.00     0.151 C 
BRANCH  12  13
ATOM     13  C   UNL     1       2.126   3.393   3.058  1.00  0.00    -0.029 A 
ATOM     14  C   UNL     1       0.883   1.320   1.514  1.00  0.00    -0.048 A 
ATOM     15  C   UNL     1       1.631   1.019   2.648  1.00  0.00     0.004 A 
ATOM     16  C   UNL     1       0.755   2.669   1.155  1.00  0.00     0.004 A 
ATOM     17  C   UNL     1       2.287   2.032   3.354  1.00  0.00     0.006 A 
ATOM     18  C   UNL     1       1.345   3.693   1.931  1.00  0.00     0.006 A 
BRANCH  14  19
ATOM     19  C   UNL     1       0.298   0.193   0.693  1.00  0.00     0.032 C 
ATOM     20  C   UNL     1       1.012   0.002  -0.640  1.00  0.00     0.009 C 
ENDBRANCH  14  19
ENDBRANCH  12  13
ENDBRANCH   9  12
ENDBRANCH   7   8
ENDBRANCH   6   7
ENDBRANCH   3   6
ENDBRANCH   1   2
BRANCH   1  21
ATOM     21  C   UNL     1      -0.896   3.696   6.658  1.00  0.00     0.042 C 
BRANCH  21  22
ATOM     22  C   UNL     1      -1.144   4.022   5.178  1.00  0.00     0.118 C 
BRANCH  22  23
ATOM     23  N   UNL     1      -2.046   3.124   4.477  1.00  0.00    -0.352 N 
ATOM     24  C   UNL     1      -3.173   3.412   3.739  1.00  0.00     0.251 C 
ATOM     25  H   UNL     1      -1.817   2.169   4.539  1.00  0.00     0.163 HD
ATOM     26  O   UNL     1      -3.812   2.492   3.230  1.00  0.00    -0.269 OA
BRANCH  24  27
ATOM     27  C   UNL     1      -3.658   4.806   3.564  1.00  0.00     0.039 A 
ATOM     28  C   UNL     1      -4.968   5.108   3.947  1.00  0.00     0.014 A 
ATOM     29  C   UNL     1      -2.878   5.792   2.950  1.00  0.00     0.014 A 
ATOM     30  C   UNL     1      -5.477   6.404   3.772  1.00  0.00     0.010 A 
ATOM     31  C   UNL     1      -3.380   7.098   2.805  1.00  0.00     0.010 A 
ATOM     32  C   UNL     1      -4.681   7.426   3.224  1.00  0.00    -0.014 A 
BRANCH  32  33
ATOM     33  C   UNL     1      -5.196   8.830   3.142  1.00  0.00     0.031 A 
ATOM     34  C   UNL     1      -5.445   9.505   1.814  1.00  0.00     0.074 A 
ATOM     35  C   UNL     1      -5.422   9.525   4.277  1.00  0.00     0.049 A 
ATOM     36  N   UNL     1      -5.873  10.720   1.570  1.00  0.00    -0.248 NA
ATOM     37  C   UNL     1      -5.163   8.719   0.605  1.00  0.00     0.031 C 
ATOM     38  C   UNL     1      -5.198   9.018   5.632  1.00  0.00     0.029 A 
ATOM     39  N   UNL     1      -5.881  10.807   4.479  1.00  0.00    -0.354 N 
ATOM     40  C   UNL     1      -5.908  10.849   0.185  1.00  0.00     0.074 A 
ATOM     41  C   UNL     1      -5.415   9.598  -0.357  1.00  0.00     0.031 C 
ATOM     42  C   UNL     1      -5.535   9.967   6.520  1.00  0.00     0.029 A 
ATOM     43  C   UNL     1      -5.964  11.166   5.805  1.00  0.00     0.049 A 
ATOM     44  H   UNL     1      -6.129  11.411   3.742  1.00  0.00     0.167 HD
ATOM     45  C   UNL     1      -6.324  11.900  -0.567  1.00  0.00     0.037 A 
ATOM     46  C   UNL     1      -6.331  12.326   6.389  1.00  0.00     0.037 A 
ATOM     47  C   UNL     1      -6.826  13.143  -0.031  1.00  0.00     0.049 A 
ATOM     48  C   UNL     1      -6.770  13.485   5.533  1.00  0.00     0.074 A 
ATOM     49  C   UNL     1      -7.318  14.240  -0.721  1.00  0.00     0.029 A 
ATOM     50  N   UNL     1      -6.895  13.463   1.317  1.00  0.00    -0.354 N 
ATOM     51  N   UNL     1      -6.854  13.560   4.227  1.00  0.00    -0.248 NA
ATOM     52  C   UNL     1      -7.170  14.716   6.231  1.00  0.00     0.031 C 
ATOM     53  C   UNL     1      -7.631  15.241   0.205  1.00  0.00     0.029 A 
ATOM     54  C   UNL     1      -7.395  14.747   1.477  1.00  0.00     0.049 A 
ATOM     55  H   UNL     1      -6.628  12.865   2.052  1.00  0.00     0.167 HD
ATOM     56  C   UNL     1      -7.347  14.832   3.949  1.00  0.00     0.074 A 
ATOM     57  C   UNL     1      -7.552  15.489   5.223  1.00  0.00     0.031 C 
ATOM     58  C   UNL     1      -7.607  15.400   2.746  1.00  0.00     0.037 A 
BRANCH  45  59
ATOM     59  C   UNL     1      -6.256  11.762  -2.068  1.00  0.00     0.058 A 
ATOM     60  C   UNL     1      -7.115  10.902  -2.771  1.00  0.00     0.135 A 
ATOM     61  C   UNL     1      -5.362  12.545  -2.819  1.00  0.00     0.135 A 
ATOM     62  F   UNL     1      -7.987  10.127  -2.107  1.00  0.00    -0.206 F 
ATOM     63  C   UNL     1      -7.066  10.797  -4.158  1.00  0.00     0.059 A 
ATOM     64  C   UNL     1      -5.318  12.479  -4.210  1.00  0.00     0.059 A 
ATOM     65  F   UNL     1      -4.524  13.394  -2.203  1.00  0.00    -0.206 F 
ATOM     66  C   UNL     1      -6.164  11.588  -4.869  1.00  0.00     0.060 A 
BRANCH  66  67
ATOM     67  S   UNL     1      -6.109  11.440  -6.668  1.00  0.00     0.124 S 
ATOM     68  O   UNL     1      -5.493  10.122  -6.830  1.00  0.00    -0.237 OA
ATOM     69  O   UNL     1      -7.526  11.518  -7.029  1.00  0.00    -0.237 OA
ATOM     70  O   UNL     1      -5.296  12.567  -7.083  1.00  0.00    -0.744 OA
ENDBRANCH  66  67
ENDBRANCH  45  59
BRANCH  46  71
ATOM     71  C   UNL     1      -6.311  12.449   7.874  1.00  0.00     0.058 A 
ATOM     72  C   UNL     1      -7.501  12.559   8.609  1.00  0.00     0.135 A 
ATOM     73  C   UNL     1      -5.101  12.459   8.587  1.00  0.00     0.135 A 
ATOM     74  F   UNL     1      -8.683  12.567   7.974  1.00  0.00    -0.206 F 
ATOM     75  C   UNL     1      -7.494  12.689   9.994  1.00  0.00     0.059 A 
ATOM     76  C   UNL     1      -5.070  12.559   9.975  1.00  0.00     0.059 A 
ATOM     77  F   UNL     1      -3.934  12.347   7.934  1.00  0.00    -0.206 F 
ATOM     78  C   UNL     1      -6.272  12.684  10.669  1.00  0.00     0.060 A 
BRANCH  78  79
ATOM     79  S   UNL     1      -6.277  12.803  12.472  1.00  0.00     0.124 S 
ATOM     80  O   UNL     1      -6.657  14.198  12.673  1.00  0.00    -0.237 OA
ATOM     81  O   UNL     1      -7.282  11.810  12.841  1.00  0.00    -0.237 OA
ATOM     82  O   UNL     1      -4.907  12.463  12.835  1.00  0.00    -0.744 OA
ENDBRANCH  78  79
ENDBRANCH  46  71
BRANCH  58  83
ATOM     83  C   UNL     1      -8.185  16.791   2.736  1.00  0.00     0.058 A 
ATOM     84  C   UNL     1      -7.421  17.917   3.084  1.00  0.00     0.135 A 
ATOM     85  C   UNL     1      -9.511  17.007   2.322  1.00  0.00     0.135 A 
ATOM     86  F   UNL     1      -6.151  17.771   3.494  1.00  0.00    -0.206 F 
ATOM     87  C   UNL     1      -7.956  19.202   3.044  1.00  0.00     0.059 A 
ATOM     88  C   UNL     1     -10.057  18.285   2.246  1.00  0.00     0.059 A 
ATOM     89  F   UNL     1     -10.286  15.969   1.970  1.00  0.00    -0.206 F 
ATOM     90  C   UNL     1      -9.275  19.376   2.620  1.00  0.00     0.060 A 
BRANCH  90  91
ATOM     91  S   UNL     1      -9.944  21.052   2.537  1.00  0.00     0.124 S 
ATOM     92  O   UNL     1     -10.112  21.373   3.950  1.00  0.00    -0.237 OA
ATOM     93  O   UNL     1      -8.883  21.777   1.844  1.00  0.00    -0.237 OA
ATOM     94  O   UNL     1     -11.181  20.888   1.779  1.00  0.00    -0.744 OA
ENDBRANCH  90  91
ENDBRANCH  58  83
ENDBRANCH  32  33
ENDBRANCH  24  27
ENDBRANCH  22  23
ENDBRANCH  21  22
ENDBRANCH   1  21
TORSDOF 18
