REMARK SMILES Cc1ccccc1O[C@@H](C)C(=O)Oc1ccccc1C(=O)NCCCNC(=O)c1ccc(-c2c3nc(c(-c4c(F)cc(S(=O)(=O)[O-])cc4F)c4ccc([nH]4)c(-c4c(F)cc(S(=O)(=O)[O-])cc4F)c4nc(c(-c5c(F)cc(S(=O)(=O)[O-])cc5F)c5ccc2[nH]5)C=C4)C=C3)cc1
REMARK SMILES IDX 23 1 22 2 20 3 21 4 19 6 14 7 15 8 16 9 18 10 17 11 13 12
REMARK SMILES IDX 11 13 12 14 9 15 10 16 8 17 7 18 1 19 2 20 3 21 4 22 6 23
REMARK SMILES IDX 5 24 24 25 25 26 26 27 27 28 28 30 29 31 30 32 94 33 31 34
REMARK SMILES IDX 93 35 32 36 33 37 34 38 87 39 35 40 92 41 86 42 88 43 36 44
REMARK SMILES IDX 91 45 85 46 84 47 37 49 71 50 50 51 70 52 51 53 54 54 69 55
REMARK SMILES IDX 89 56 52 57 53 58 68 60 90 61 55 62 38 63 39 64 48 65 40 66
REMARK SMILES IDX 41 67 47 68 49 69 42 70 43 71 44 72 45 73 46 74 72 75 73 76
REMARK SMILES IDX 82 77 74 78 75 79 81 80 83 81 76 82 77 83 78 84 79 85 80 86
REMARK SMILES IDX 56 87 57 88 66 89 58 90 59 91 65 92 67 93 60 94 61 95 62 96
REMARK SMILES IDX 63 97 64 98
REMARK H PARENT 22 5 26 29 88 48 54 59
REMARK Flexibility Score: inf
ROOT
ATOM      1  C   UNL     1       7.682  -0.351  -3.364  1.00  0.00     0.118 C 
ENDROOT
BRANCH   1   2
ATOM      2  N   UNL     1       6.792   0.155  -2.321  1.00  0.00    -0.352 N 
ATOM      3  C   UNL     1       5.447   0.061  -2.050  1.00  0.00     0.255 C 
ATOM      4  O   UNL     1       5.094   0.456  -0.936  1.00  0.00    -0.269 OA
ATOM      5  H   UNL     1       7.271   0.692  -1.650  1.00  0.00     0.163 HD
BRANCH   3   6
ATOM      6  C   UNL     1       4.410  -0.475  -2.989  1.00  0.00     0.082 A 
ATOM      7  C   UNL     1       3.046  -0.163  -2.805  1.00  0.00     0.143 A 
ATOM      8  C   UNL     1       2.037  -0.728  -3.600  1.00  0.00     0.048 A 
ATOM      9  C   UNL     1       2.370  -1.619  -4.612  1.00  0.00     0.004 A 
ATOM     10  C   UNL     1       4.708  -1.387  -4.010  1.00  0.00     0.018 A 
ATOM     11  C   UNL     1       3.704  -1.948  -4.815  1.00  0.00     0.001 A 
BRANCH   7  12
ATOM     12  O   UNL     1       2.545   0.539  -1.688  1.00  0.00    -0.423 OA
BRANCH  12  13
ATOM     13  C   UNL     1       2.746   1.899  -1.534  1.00  0.00     0.352 C 
ATOM     14  O   UNL     1       3.283   2.625  -2.366  1.00  0.00    -0.247 OA
BRANCH  13  15
ATOM     15  C   UNL     1       2.187   2.395  -0.165  1.00  0.00     0.280 C 
ATOM     16  C   UNL     1       3.302   2.549   0.876  1.00  0.00     0.066 C 
BRANCH  15  17
ATOM     17  O   UNL     1       1.038   1.960   0.554  1.00  0.00    -0.479 OA
BRANCH  17  18
ATOM     18  C   UNL     1       0.360   0.823   0.244  1.00  0.00     0.123 A 
ATOM     19  C   UNL     1       2.238  -0.857   0.805  1.00  0.00     0.048 C 
ATOM     20  C   UNL     1       0.846  -0.487   0.377  1.00  0.00    -0.009 A 
ATOM     21  C   UNL     1      -0.049  -1.561   0.190  1.00  0.00     0.007 A 
ATOM     22  C   UNL     1      -1.399  -1.347  -0.081  1.00  0.00     0.001 A 
ATOM     23  C   UNL     1      -1.005   1.026  -0.014  1.00  0.00     0.047 A 
ATOM     24  C   UNL     1      -1.881  -0.049  -0.175  1.00  0.00     0.004 A 
ENDBRANCH  17  18
ENDBRANCH  15  17
ENDBRANCH  13  15
ENDBRANCH  12  13
ENDBRANCH   7  12
ENDBRANCH   3   6
ENDBRANCH   1   2
BRANCH   1  25
ATOM     25  C   UNL     1       7.513   0.342  -4.713  1.00  0.00     0.042 C 
BRANCH  25  26
ATOM     26  C   UNL     1       8.630   1.341  -4.995  1.00  0.00     0.118 C 
BRANCH  26  27
ATOM     27  N   UNL     1       9.709   0.797  -5.813  1.00  0.00    -0.352 N 
ATOM     28  C   UNL     1      10.785   1.485  -6.352  1.00  0.00     0.251 C 
ATOM     29  H   UNL     1       9.668  -0.168  -6.004  1.00  0.00     0.163 HD
ATOM     30  O   UNL     1      11.497   1.019  -7.222  1.00  0.00    -0.269 OA
BRANCH  28  31
ATOM     31  C   UNL     1      11.119   2.773  -5.711  1.00  0.00     0.039 A 
ATOM     32  C   UNL     1      12.233   2.777  -4.862  1.00  0.00     0.014 A 
ATOM     33  C   UNL     1      10.186   3.806  -5.694  1.00  0.00     0.014 A 
ATOM     34  C   UNL     1      12.314   3.729  -3.852  1.00  0.00     0.010 A 
ATOM     35  C   UNL     1      10.232   4.706  -4.646  1.00  0.00     0.010 A 
ATOM     36  C   UNL     1      11.262   4.627  -3.693  1.00  0.00    -0.014 A 
BRANCH  36  37
ATOM     37  C   UNL     1      11.091   5.459  -2.509  1.00  0.00     0.031 A 
ATOM     38  C   UNL     1      11.317   6.918  -2.593  1.00  0.00     0.074 A 
ATOM     39  C   UNL     1      10.611   4.908  -1.370  1.00  0.00     0.049 A 
ATOM     40  N   UNL     1      11.359   7.706  -1.573  1.00  0.00    -0.248 NA
ATOM     41  C   UNL     1      11.605   7.603  -3.853  1.00  0.00     0.031 C 
ATOM     42  C   UNL     1       9.996   5.604  -0.244  1.00  0.00     0.029 A 
ATOM     43  N   UNL     1      10.796   3.599  -0.911  1.00  0.00    -0.354 N 
ATOM     44  C   UNL     1      11.345   8.995  -2.047  1.00  0.00     0.074 A 
ATOM     45  C   UNL     1      11.654   8.876  -3.447  1.00  0.00     0.031 C 
ATOM     46  C   UNL     1      10.072   4.825   0.845  1.00  0.00     0.029 A 
ATOM     47  C   UNL     1      10.886   3.676   0.496  1.00  0.00     0.049 A 
ATOM     48  H   UNL     1      10.851   2.784  -1.460  1.00  0.00     0.167 HD
ATOM     49  C   UNL     1      10.910   9.988  -1.223  1.00  0.00     0.037 A 
ATOM     50  C   UNL     1      12.030   3.318   1.153  1.00  0.00     0.037 A 
ATOM     51  C   UNL     1      10.946   9.546   0.174  1.00  0.00     0.049 A 
ATOM     52  C   UNL     1      12.682   4.443   1.927  1.00  0.00     0.074 A 
ATOM     53  C   UNL     1       9.978   9.203   1.101  1.00  0.00     0.029 A 
ATOM     54  N   UNL     1      12.167   9.144   0.717  1.00  0.00    -0.354 N 
ATOM     55  N   UNL     1      12.374   5.703   1.784  1.00  0.00    -0.248 NA
ATOM     56  C   UNL     1      13.740   4.243   2.915  1.00  0.00     0.031 C 
ATOM     57  C   UNL     1      10.615   8.469   2.142  1.00  0.00     0.029 A 
ATOM     58  C   UNL     1      11.975   8.419   1.877  1.00  0.00     0.049 A 
ATOM     59  H   UNL     1      13.047   9.350   0.326  1.00  0.00     0.167 HD
ATOM     60  C   UNL     1      13.177   6.473   2.585  1.00  0.00     0.074 A 
ATOM     61  C   UNL     1      13.992   5.508   3.300  1.00  0.00     0.031 C 
ATOM     62  C   UNL     1      13.114   7.839   2.581  1.00  0.00     0.037 A 
BRANCH  49  63
ATOM     63  C   UNL     1      10.251  11.277  -1.696  1.00  0.00     0.058 A 
ATOM     64  C   UNL     1       9.800  12.237  -0.760  1.00  0.00     0.135 A 
ATOM     65  C   UNL     1       9.891  11.566  -3.034  1.00  0.00     0.135 A 
ATOM     66  F   UNL     1      10.047  12.092   0.551  1.00  0.00    -0.206 F 
ATOM     67  C   UNL     1       9.046  13.364  -1.119  1.00  0.00     0.059 A 
ATOM     68  C   UNL     1       9.182  12.705  -3.420  1.00  0.00     0.059 A 
ATOM     69  F   UNL     1      10.139  10.728  -4.045  1.00  0.00    -0.206 F 
ATOM     70  C   UNL     1       8.737  13.588  -2.455  1.00  0.00     0.060 A 
BRANCH  70  71
ATOM     71  S   UNL     1       7.731  15.007  -2.929  1.00  0.00     0.124 S 
ATOM     72  O   UNL     1       6.413  14.619  -2.437  1.00  0.00    -0.237 OA
ATOM     73  O   UNL     1       8.380  16.104  -2.219  1.00  0.00    -0.237 OA
ATOM     74  O   UNL     1       7.865  15.048  -4.383  1.00  0.00    -0.744 OA
ENDBRANCH  70  71
ENDBRANCH  49  63
BRANCH  50  75
ATOM     75  C   UNL     1      12.719   2.157   0.523  1.00  0.00     0.058 A 
ATOM     76  C   UNL     1      12.065   0.911   0.591  1.00  0.00     0.135 A 
ATOM     77  C   UNL     1      13.668   2.335  -0.493  1.00  0.00     0.135 A 
ATOM     78  F   UNL     1      11.165   0.679   1.562  1.00  0.00    -0.206 F 
ATOM     79  C   UNL     1      12.200  -0.042  -0.411  1.00  0.00     0.059 A 
ATOM     80  C   UNL     1      13.828   1.385  -1.506  1.00  0.00     0.059 A 
ATOM     81  F   UNL     1      14.332   3.496  -0.601  1.00  0.00    -0.206 F 
ATOM     82  C   UNL     1      13.027   0.241  -1.495  1.00  0.00     0.060 A 
BRANCH  82  83
ATOM     83  S   UNL     1      12.882  -0.811  -2.961  1.00  0.00     0.124 S 
ATOM     84  O   UNL     1      13.196  -2.130  -2.422  1.00  0.00    -0.237 OA
ATOM     85  O   UNL     1      11.483  -0.605  -3.338  1.00  0.00    -0.237 OA
ATOM     86  O   UNL     1      13.869  -0.251  -3.876  1.00  0.00    -0.744 OA
ENDBRANCH  82  83
ENDBRANCH  50  75
BRANCH  62  87
ATOM     87  C   UNL     1      14.082   8.764   3.287  1.00  0.00     0.058 A 
ATOM     88  C   UNL     1      15.444   8.478   3.488  1.00  0.00     0.135 A 
ATOM     89  C   UNL     1      13.672  10.065   3.665  1.00  0.00     0.135 A 
ATOM     90  F   UNL     1      15.983   7.323   3.071  1.00  0.00    -0.206 F 
ATOM     91  C   UNL     1      16.322   9.388   4.085  1.00  0.00     0.059 A 
ATOM     92  C   UNL     1      14.542  11.007   4.210  1.00  0.00     0.059 A 
ATOM     93  F   UNL     1      12.402  10.469   3.507  1.00  0.00    -0.206 F 
ATOM     94  C   UNL     1      15.862  10.652   4.442  1.00  0.00     0.060 A 
BRANCH  94  95
ATOM     95  S   UNL     1      16.995  11.862   5.152  1.00  0.00     0.124 S 
ATOM     96  O   UNL     1      16.773  11.667   6.581  1.00  0.00    -0.237 OA
ATOM     97  O   UNL     1      18.296  11.427   4.653  1.00  0.00    -0.237 OA
ATOM     98  O   UNL     1      16.514  13.125   4.602  1.00  0.00    -0.744 OA
ENDBRANCH  94  95
ENDBRANCH  62  87
ENDBRANCH  36  37
ENDBRANCH  28  31
ENDBRANCH  26  27
ENDBRANCH  25  26
ENDBRANCH   1  25
TORSDOF 18
