REMARK SMILES CC[C@H](C)[C@H]([NH3+])C(=O)N1CC[C@@H](C(=O)NCCCNC(=O)c2ccc(-c3c4nc(c(-c5c(F)cc(S(=O)(=O)[O-])cc5F)c5ccc([nH]5)c(-c5c(F)cc(S(=O)(=O)[O-])cc5F)c5nc(c(-c6c(F)cc(S(=O)(=O)[O-])cc6F)c6ccc3[nH]6)C=C5)C=C4)cc2)[C@@H]1C
REMARK SMILES IDX 16 1 15 2 13 3 14 4 12 6 9 7 10 8 88 9 11 10 89 11 7 12 8 13
REMARK SMILES IDX 5 14 3 15 4 16 2 17 1 18 6 19 17 23 18 24 19 25 20 26 21 28
REMARK SMILES IDX 22 29 23 30 87 31 24 32 86 33 25 34 26 35 27 36 80 37 28 38
REMARK SMILES IDX 85 39 79 40 81 41 29 42 84 43 78 44 77 45 30 47 64 48 43 49
REMARK SMILES IDX 63 50 44 51 47 52 62 53 82 54 45 55 46 56 61 58 83 59 48 60
REMARK SMILES IDX 31 61 32 62 41 63 33 64 34 65 40 66 42 67 35 68 36 69 37 70
REMARK SMILES IDX 38 71 39 72 65 73 66 74 75 75 67 76 68 77 74 78 76 79 69 80
REMARK SMILES IDX 70 81 71 82 72 83 73 84 49 85 50 86 59 87 51 88 52 89 58 90
REMARK SMILES IDX 60 91 53 92 54 93 55 94 56 95 57 96
REMARK H PARENT 15 5 6 20 6 21 6 22 19 27 81 46 47 57
REMARK Flexibility Score: inf
ROOT
ATOM      1  C   UNL     1       5.085   4.311  -0.405  1.00  0.00     0.117 C 
ENDROOT
BRANCH   1   2
ATOM      2  N   UNL     1       6.073   3.695  -1.269  1.00  0.00    -0.356 N 
ATOM      3  C   UNL     1       6.023   3.361  -2.583  1.00  0.00     0.225 C 
ATOM      4  O   UNL     1       7.019   2.797  -3.052  1.00  0.00    -0.275 OA
ATOM      5  H   UNL     1       6.927   3.483  -0.827  1.00  0.00     0.163 HD
BRANCH   3   6
ATOM      6  C   UNL     1       4.842   3.668  -3.492  1.00  0.00     0.102 C 
ATOM      7  N   UNL     1       2.486   4.064  -3.403  1.00  0.00    -0.334 N 
ATOM      8  C   UNL     1       3.096   5.140  -4.163  1.00  0.00     0.121 C 
ATOM      9  C   UNL     1       3.492   3.034  -3.086  1.00  0.00     0.094 C 
ATOM     10  C   UNL     1       4.548   5.148  -3.714  1.00  0.00     0.037 C 
ATOM     11  C   UNL     1       3.278   1.767  -3.927  1.00  0.00     0.032 C 
BRANCH   7  12
ATOM     12  C   UNL     1       1.124   4.110  -3.153  1.00  0.00     0.281 C 
ATOM     13  O   UNL     1       0.416   4.891  -3.808  1.00  0.00    -0.268 OA
BRANCH  12  14
ATOM     14  C   UNL     1       0.451   3.352  -1.963  1.00  0.00     0.273 C 
BRANCH  14  15
ATOM     15  C   UNL     1       0.137   4.355  -0.802  1.00  0.00     0.054 C 
ATOM     16  C   UNL     1      -0.528   3.659   0.395  1.00  0.00     0.014 C 
BRANCH  15  17
ATOM     17  C   UNL     1       1.367   5.202  -0.422  1.00  0.00     0.006 C 
ATOM     18  C   UNL     1       1.434   5.732   1.000  1.00  0.00     0.004 C 
ENDBRANCH  15  17
ENDBRANCH  14  15
BRANCH  14  19
ATOM     19  N   UNL     1       1.175   2.147  -1.513  1.00  0.00    -0.347 N 
ATOM     20  H   UNL     1       2.085   2.416  -1.140  1.00  0.00     0.345 HD
ATOM     21  H   UNL     1       1.305   1.514  -2.302  1.00  0.00     0.345 HD
ATOM     22  H   UNL     1       0.635   1.677  -0.786  1.00  0.00     0.345 HD
ENDBRANCH  14  19
ENDBRANCH  12  14
ENDBRANCH   7  12
ENDBRANCH   3   6
ENDBRANCH   1   2
BRANCH   1  23
ATOM     23  C   UNL     1       4.470   3.298   0.560  1.00  0.00     0.042 C 
BRANCH  23  24
ATOM     24  C   UNL     1       5.000   3.382   1.986  1.00  0.00     0.118 C 
BRANCH  24  25
ATOM     25  N   UNL     1       4.783   4.682   2.610  1.00  0.00    -0.352 N 
ATOM     26  C   UNL     1       3.962   5.138   3.610  1.00  0.00     0.251 C 
ATOM     27  H   UNL     1       5.352   5.389   2.228  1.00  0.00     0.163 HD
ATOM     28  O   UNL     1       3.931   6.356   3.798  1.00  0.00    -0.269 OA
BRANCH  26  29
ATOM     29  C   UNL     1       3.118   4.256   4.457  1.00  0.00     0.039 A 
ATOM     30  C   UNL     1       1.979   4.812   5.063  1.00  0.00     0.014 A 
ATOM     31  C   UNL     1       3.459   2.941   4.763  1.00  0.00     0.014 A 
ATOM     32  C   UNL     1       1.194   4.056   5.943  1.00  0.00     0.010 A 
ATOM     33  C   UNL     1       2.618   2.154   5.550  1.00  0.00     0.010 A 
ATOM     34  C   UNL     1       1.500   2.711   6.186  1.00  0.00    -0.014 A 
BRANCH  34  35
ATOM     35  C   UNL     1       0.754   1.887   7.176  1.00  0.00     0.031 A 
ATOM     36  C   UNL     1       1.494   1.300   8.355  1.00  0.00     0.074 A 
ATOM     37  C   UNL     1      -0.548   1.597   6.991  1.00  0.00     0.049 A 
ATOM     38  N   UNL     1       1.103   0.401   9.221  1.00  0.00    -0.248 NA
ATOM     39  C   UNL     1       2.881   1.756   8.555  1.00  0.00     0.031 C 
ATOM     40  C   UNL     1      -1.378   2.074   5.884  1.00  0.00     0.029 A 
ATOM     41  N   UNL     1      -1.399   0.810   7.728  1.00  0.00    -0.354 N 
ATOM     42  C   UNL     1       2.208   0.144  10.027  1.00  0.00     0.074 A 
ATOM     43  C   UNL     1       3.296   0.951   9.521  1.00  0.00     0.031 C 
ATOM     44  C   UNL     1      -2.621   1.581   6.022  1.00  0.00     0.029 A 
ATOM     45  C   UNL     1      -2.666   0.723   7.202  1.00  0.00     0.049 A 
ATOM     46  H   UNL     1      -1.126   0.351   8.555  1.00  0.00     0.167 HD
ATOM     47  C   UNL     1       2.304  -0.671  11.105  1.00  0.00     0.037 A 
ATOM     48  C   UNL     1      -3.738   0.023   7.620  1.00  0.00     0.037 A 
ATOM     49  C   UNL     1       1.199  -1.413  11.653  1.00  0.00     0.049 A 
ATOM     50  C   UNL     1      -3.629  -0.821   8.861  1.00  0.00     0.074 A 
ATOM     51  C   UNL     1       1.174  -2.226  12.772  1.00  0.00     0.029 A 
ATOM     52  N   UNL     1      -0.088  -1.406  11.135  1.00  0.00    -0.354 N 
ATOM     53  N   UNL     1      -2.579  -1.049   9.614  1.00  0.00    -0.248 NA
ATOM     54  C   UNL     1      -4.854  -1.492   9.318  1.00  0.00     0.031 C 
ATOM     55  C   UNL     1      -0.126  -2.723  12.923  1.00  0.00     0.029 A 
ATOM     56  C   UNL     1      -0.917  -2.191  11.918  1.00  0.00     0.049 A 
ATOM     57  H   UNL     1      -0.370  -0.915  10.329  1.00  0.00     0.167 HD
ATOM     58  C   UNL     1      -3.025  -1.860  10.652  1.00  0.00     0.074 A 
ATOM     59  C   UNL     1      -4.440  -2.078  10.433  1.00  0.00     0.031 C 
ATOM     60  C   UNL     1      -2.328  -2.376  11.695  1.00  0.00     0.037 A 
BRANCH  47  61
ATOM     61  C   UNL     1       3.651  -0.794  11.766  1.00  0.00     0.058 A 
ATOM     62  C   UNL     1       4.218   0.266  12.492  1.00  0.00     0.135 A 
ATOM     63  C   UNL     1       4.383  -1.990  11.679  1.00  0.00     0.135 A 
ATOM     64  F   UNL     1       3.571   1.438  12.594  1.00  0.00    -0.206 F 
ATOM     65  C   UNL     1       5.478   0.160  13.072  1.00  0.00     0.059 A 
ATOM     66  C   UNL     1       5.632  -2.129  12.277  1.00  0.00     0.059 A 
ATOM     67  F   UNL     1       3.889  -3.037  10.999  1.00  0.00    -0.206 F 
ATOM     68  C   UNL     1       6.180  -1.040  12.954  1.00  0.00     0.060 A 
BRANCH  68  69
ATOM     69  S   UNL     1       7.819  -1.161  13.701  1.00  0.00     0.124 S 
ATOM     70  O   UNL     1       8.629  -0.415  12.742  1.00  0.00    -0.237 OA
ATOM     71  O   UNL     1       7.623  -0.520  14.997  1.00  0.00    -0.237 OA
ATOM     72  O   UNL     1       8.065  -2.599  13.747  1.00  0.00    -0.744 OA
ENDBRANCH  68  69
ENDBRANCH  47  61
BRANCH  48  73
ATOM     73  C   UNL     1      -5.023   0.121   6.878  1.00  0.00     0.058 A 
ATOM     74  C   UNL     1      -6.106   0.833   7.415  1.00  0.00     0.135 A 
ATOM     75  C   UNL     1      -5.192  -0.479   5.622  1.00  0.00     0.135 A 
ATOM     76  F   UNL     1      -5.993   1.419   8.616  1.00  0.00    -0.206 F 
ATOM     77  C   UNL     1      -7.318   0.934   6.741  1.00  0.00     0.059 A 
ATOM     78  C   UNL     1      -6.388  -0.373   4.918  1.00  0.00     0.059 A 
ATOM     79  F   UNL     1      -4.179  -1.155   5.057  1.00  0.00    -0.206 F 
ATOM     80  C   UNL     1      -7.449   0.327   5.491  1.00  0.00     0.060 A 
BRANCH  80  81
ATOM     81  S   UNL     1      -9.011   0.504   4.601  1.00  0.00     0.124 S 
ATOM     82  O   UNL     1      -9.867  -0.427   5.320  1.00  0.00    -0.237 OA
ATOM     83  O   UNL     1      -9.309   1.923   4.783  1.00  0.00    -0.237 OA
ATOM     84  O   UNL     1      -8.660   0.119   3.235  1.00  0.00    -0.744 OA
ENDBRANCH  80  81
ENDBRANCH  48  73
BRANCH  60  85
ATOM     85  C   UNL     1      -3.099  -3.170  12.711  1.00  0.00     0.058 A 
ATOM     86  C   UNL     1      -3.558  -4.468  12.444  1.00  0.00     0.135 A 
ATOM     87  C   UNL     1      -3.357  -2.628  13.981  1.00  0.00     0.135 A 
ATOM     88  F   UNL     1      -3.338  -5.029  11.245  1.00  0.00    -0.206 F 
ATOM     89  C   UNL     1      -4.278  -5.191  13.390  1.00  0.00     0.059 A 
ATOM     90  C   UNL     1      -4.054  -3.341  14.950  1.00  0.00     0.059 A 
ATOM     91  F   UNL     1      -2.928  -1.394  14.290  1.00  0.00    -0.206 F 
ATOM     92  C   UNL     1      -4.526  -4.616  14.639  1.00  0.00     0.060 A 
BRANCH  92  93
ATOM     93  S   UNL     1      -5.456  -5.562  15.863  1.00  0.00     0.124 S 
ATOM     94  O   UNL     1      -6.824  -5.399  15.382  1.00  0.00    -0.237 OA
ATOM     95  O   UNL     1      -4.891  -6.901  15.724  1.00  0.00    -0.237 OA
ATOM     96  O   UNL     1      -5.146  -4.886  17.119  1.00  0.00    -0.744 OA
ENDBRANCH  92  93
ENDBRANCH  60  85
ENDBRANCH  34  35
ENDBRANCH  26  29
ENDBRANCH  24  25
ENDBRANCH  23  24
ENDBRANCH   1  23
TORSDOF 18
