REMARK SMILES C=CCN(CC(=O)NCCCNC(=O)c1ccc(-c2c3nc(c(-c4c(F)cc(S(=O)(=O)[O-])cc4F)c4ccc([nH]4)c(-c4c(F)cc(S(=O)(=O)[O-])cc4F)c4nc(c(-c5c(F)cc(S(=O)(=O)[O-])cc5F)c5ccc2[nH]5)C=C4)C=C3)cc1)S(=O)(=O)Cc1cc(C)on1
REMARK SMILES IDX 9 1 8 2 6 3 7 4 5 6 4 7 3 8 2 9 1 10 81 11 82 12 83 13 84 14
REMARK SMILES IDX 85 15 86 16 90 17 87 18 89 19 88 20 10 21 11 22 12 23 13 24
REMARK SMILES IDX 14 26 15 27 16 28 80 29 17 30 79 31 18 32 19 33 20 34 73 35
REMARK SMILES IDX 21 36 78 37 72 38 74 39 22 40 77 41 71 42 70 43 23 45 57 46
REMARK SMILES IDX 36 47 56 48 37 49 40 50 55 51 75 52 38 53 39 54 54 56 76 57
REMARK SMILES IDX 41 58 24 59 25 60 34 61 26 62 27 63 33 64 35 65 28 66 29 67
REMARK SMILES IDX 30 68 31 69 32 70 58 71 59 72 68 73 60 74 61 75 67 76 69 77
REMARK SMILES IDX 62 78 63 79 64 80 65 81 66 82 42 83 43 84 52 85 44 86 45 87
REMARK SMILES IDX 51 88 53 89 46 90 47 91 48 92 49 93 50 94
REMARK H PARENT 8 5 12 25 74 44 40 55
REMARK Flexibility Score: inf
ROOT
ATOM      1  C   UNL     1      -3.064  -0.910   0.617  1.00  0.00     0.117 C 
ENDROOT
BRANCH   1   2
ATOM      2  N   UNL     1      -3.653   0.330   0.142  1.00  0.00    -0.355 N 
ATOM      3  C   UNL     1      -3.565   0.936  -1.079  1.00  0.00     0.235 C 
ATOM      4  O   UNL     1      -4.180   1.994  -1.248  1.00  0.00    -0.274 OA
ATOM      5  H   UNL     1      -4.201   0.809   0.805  1.00  0.00     0.163 HD
BRANCH   3   6
ATOM      6  C   UNL     1      -2.788   0.304  -2.227  1.00  0.00     0.202 C 
BRANCH   6   7
ATOM      7  N   UNL     1      -1.328   0.597  -2.360  1.00  0.00    -0.188 NA
BRANCH   7   8
ATOM      8  C   UNL     1      -0.499  -0.521  -1.870  1.00  0.00     0.129 C 
BRANCH   8   9
ATOM      9  C   UNL     1       0.968  -0.288  -1.807  1.00  0.00    -0.018 C 
ATOM     10  C   UNL     1       1.641   0.008  -0.685  1.00  0.00     0.005 C 
ENDBRANCH   8   9
ENDBRANCH   7   8
BRANCH   7  11
ATOM     11  S   UNL     1      -0.843   2.213  -2.223  1.00  0.00     0.220 S 
ATOM     12  O   UNL     1      -1.284   2.687  -0.929  1.00  0.00    -0.212 OA
ATOM     13  O   UNL     1       0.554   2.352  -2.590  1.00  0.00    -0.212 OA
BRANCH  11  14
ATOM     14  C   UNL     1      -1.772   3.066  -3.511  1.00  0.00     0.214 C 
BRANCH  14  15
ATOM     15  C   UNL     1      -1.387   2.619  -4.878  1.00  0.00     0.100 A 
ATOM     16  C   UNL     1      -0.590   3.300  -5.833  1.00  0.00     0.073 A 
ATOM     17  N   UNL     1      -1.833   1.456  -5.375  1.00  0.00    -0.084 NA
ATOM     18  C   UNL     1      -0.536   2.446  -6.907  1.00  0.00     0.133 A 
ATOM     19  O   UNL     1      -1.269   1.335  -6.630  1.00  0.00    -0.361 OA
ATOM     20  C   UNL     1       0.119   2.483  -8.227  1.00  0.00     0.091 C 
ENDBRANCH  14  15
ENDBRANCH  11  14
ENDBRANCH   7  11
ENDBRANCH   6   7
ENDBRANCH   3   6
ENDBRANCH   1   2
BRANCH   1  21
ATOM     21  C   UNL     1      -1.786  -0.665   1.412  1.00  0.00     0.042 C 
BRANCH  21  22
ATOM     22  C   UNL     1      -2.012  -0.243   2.854  1.00  0.00     0.118 C 
BRANCH  22  23
ATOM     23  N   UNL     1      -2.469  -1.342   3.691  1.00  0.00    -0.352 N 
ATOM     24  C   UNL     1      -1.847  -2.009   4.720  1.00  0.00     0.251 C 
ATOM     25  H   UNL     1      -3.376  -1.663   3.485  1.00  0.00     0.163 HD
ATOM     26  O   UNL     1      -2.361  -3.042   5.144  1.00  0.00    -0.269 OA
BRANCH  24  27
ATOM     27  C   UNL     1      -0.573  -1.524   5.308  1.00  0.00     0.039 A 
ATOM     28  C   UNL     1       0.354  -2.464   5.771  1.00  0.00     0.014 A 
ATOM     29  C   UNL     1      -0.299  -0.164   5.462  1.00  0.00     0.014 A 
ATOM     30  C   UNL     1       1.562  -2.041   6.336  1.00  0.00     0.010 A 
ATOM     31  C   UNL     1       0.948   0.256   5.920  1.00  0.00     0.010 A 
ATOM     32  C   UNL     1       1.885  -0.675   6.388  1.00  0.00    -0.014 A 
BRANCH  32  33
ATOM     33  C   UNL     1       3.173  -0.203   6.964  1.00  0.00     0.031 A 
ATOM     34  C   UNL     1       3.178   0.695   8.175  1.00  0.00     0.074 A 
ATOM     35  C   UNL     1       4.337  -0.545   6.377  1.00  0.00     0.049 A 
ATOM     36  N   UNL     1       4.192   1.234   8.803  1.00  0.00    -0.248 NA
ATOM     37  C   UNL     1       1.867   1.056   8.740  1.00  0.00     0.031 C 
ATOM     38  C   UNL     1       4.466  -1.375   5.178  1.00  0.00     0.029 A 
ATOM     39  N   UNL     1       5.633  -0.238   6.708  1.00  0.00    -0.354 N 
ATOM     40  C   UNL     1       3.642   2.004   9.823  1.00  0.00     0.074 A 
ATOM     41  C   UNL     1       2.205   1.919   9.685  1.00  0.00     0.031 C 
ATOM     42  C   UNL     1       5.768  -1.546   4.900  1.00  0.00     0.029 A 
ATOM     43  C   UNL     1       6.566  -0.802   5.870  1.00  0.00     0.049 A 
ATOM     44  H   UNL     1       5.872   0.333   7.474  1.00  0.00     0.167 HD
ATOM     45  C   UNL     1       4.272   2.694  10.805  1.00  0.00     0.037 A 
ATOM     46  C   UNL     1       7.911  -0.729   5.881  1.00  0.00     0.037 A 
ATOM     47  C   UNL     1       5.704   2.768  10.941  1.00  0.00     0.049 A 
ATOM     48  C   UNL     1       8.593   0.069   6.960  1.00  0.00     0.074 A 
ATOM     49  C   UNL     1       6.445   3.404  11.920  1.00  0.00     0.029 A 
ATOM     50  N   UNL     1       6.614   2.192  10.064  1.00  0.00    -0.354 N 
ATOM     51  N   UNL     1       8.059   0.741   7.952  1.00  0.00    -0.248 NA
ATOM     52  C   UNL     1      10.061   0.112   6.924  1.00  0.00     0.031 C 
ATOM     53  C   UNL     1       7.801   3.261  11.605  1.00  0.00     0.029 A 
ATOM     54  C   UNL     1       7.909   2.480  10.465  1.00  0.00     0.049 A 
ATOM     55  H   UNL     1       6.374   1.657   9.273  1.00  0.00     0.167 HD
ATOM     56  C   UNL     1       9.126   1.261   8.678  1.00  0.00     0.074 A 
ATOM     57  C   UNL     1      10.335   0.816   8.013  1.00  0.00     0.031 C 
ATOM     58  C   UNL     1       9.106   2.030   9.795  1.00  0.00     0.037 A 
BRANCH  45  59
ATOM     59  C   UNL     1       3.408   3.428  11.798  1.00  0.00     0.058 A 
ATOM     60  C   UNL     1       2.573   2.747  12.701  1.00  0.00     0.135 A 
ATOM     61  C   UNL     1       3.404   4.832  11.845  1.00  0.00     0.135 A 
ATOM     62  F   UNL     1       2.525   1.405  12.697  1.00  0.00    -0.206 F 
ATOM     63  C   UNL     1       1.726   3.427  13.569  1.00  0.00     0.059 A 
ATOM     64  C   UNL     1       2.592   5.534  12.732  1.00  0.00     0.059 A 
ATOM     65  F   UNL     1       4.185   5.539  11.014  1.00  0.00    -0.206 F 
ATOM     66  C   UNL     1       1.737   4.822  13.572  1.00  0.00     0.060 A 
BRANCH  66  67
ATOM     67  S   UNL     1       0.605   5.691  14.678  1.00  0.00     0.124 S 
ATOM     68  O   UNL     1      -0.679   5.452  14.024  1.00  0.00    -0.237 OA
ATOM     69  O   UNL     1       0.809   4.994  15.944  1.00  0.00    -0.237 OA
ATOM     70  O   UNL     1       1.081   7.069  14.640  1.00  0.00    -0.744 OA
ENDBRANCH  66  67
ENDBRANCH  45  59
BRANCH  46  71
ATOM     71  C   UNL     1       8.699  -1.474   4.862  1.00  0.00     0.058 A 
ATOM     72  C   UNL     1       9.451  -2.602   5.221  1.00  0.00     0.135 A 
ATOM     73  C   UNL     1       8.685  -1.103   3.508  1.00  0.00     0.135 A 
ATOM     74  F   UNL     1       9.504  -2.992   6.503  1.00  0.00    -0.206 F 
ATOM     75  C   UNL     1      10.165  -3.334   4.277  1.00  0.00     0.059 A 
ATOM     76  C   UNL     1       9.368  -1.834   2.542  1.00  0.00     0.059 A 
ATOM     77  F   UNL     1       7.969  -0.039   3.110  1.00  0.00    -0.206 F 
ATOM     78  C   UNL     1      10.109  -2.947   2.937  1.00  0.00     0.060 A 
BRANCH  78  79
ATOM     79  S   UNL     1      10.978  -3.951   1.713  1.00  0.00     0.124 S 
ATOM     80  O   UNL     1      12.372  -3.658   2.026  1.00  0.00    -0.237 OA
ATOM     81  O   UNL     1      10.519  -5.297   2.043  1.00  0.00    -0.237 OA
ATOM     82  O   UNL     1      10.493  -3.426   0.441  1.00  0.00    -0.744 OA
ENDBRANCH  78  79
ENDBRANCH  46  71
BRANCH  58  83
ATOM     83  C   UNL     1      10.431   2.411  10.400  1.00  0.00     0.058 A 
ATOM     84  C   UNL     1      11.293   3.332   9.784  1.00  0.00     0.135 A 
ATOM     85  C   UNL     1      10.821   1.881  11.641  1.00  0.00     0.135 A 
ATOM     86  F   UNL     1      10.974   3.865   8.593  1.00  0.00    -0.206 F 
ATOM     87  C   UNL     1      12.506   3.692  10.363  1.00  0.00     0.059 A 
ATOM     88  C   UNL     1      12.013   2.252  12.254  1.00  0.00     0.059 A 
ATOM     89  F   UNL     1      10.030   1.004  12.281  1.00  0.00    -0.206 F 
ATOM     90  C   UNL     1      12.856   3.149  11.600  1.00  0.00     0.060 A 
BRANCH  90  91
ATOM     91  S   UNL     1      14.417   3.650  12.355  1.00  0.00     0.124 S 
ATOM     92  O   UNL     1      15.387   2.965  11.507  1.00  0.00    -0.237 OA
ATOM     93  O   UNL     1      14.375   5.103  12.222  1.00  0.00    -0.237 OA
ATOM     94  O   UNL     1      14.312   3.148  13.721  1.00  0.00    -0.744 OA
ENDBRANCH  90  91
ENDBRANCH  58  83
ENDBRANCH  32  33
ENDBRANCH  24  27
ENDBRANCH  22  23
ENDBRANCH  21  22
ENDBRANCH   1  21
TORSDOF 19
