REMARK SMILES CS(=O)(=O)CC[C@H](NC(=O)Cc1ccn[nH]1)C(=O)NCCCNC(=O)c1ccc(-c2c3nc(c(-c4c(F)cc(S(=O)(=O)[O-])cc4F)c4ccc([nH]4)c(-c4c(F)cc(S(=O)(=O)[O-])cc4F)c4nc(c(-c5c(F)cc(S(=O)(=O)[O-])cc5F)c5ccc2[nH]5)C=C4)C=C3)cc1
REMARK SMILES IDX 21 1 20 2 19 3 17 4 18 5 7 7 6 8 5 9 2 10 1 11 3 12 4 13
REMARK SMILES IDX 8 14 9 15 10 17 11 18 12 19 13 20 16 21 14 22 15 23 22 25
REMARK SMILES IDX 23 26 24 27 25 29 26 30 27 31 91 32 28 33 90 34 29 35 30 36
REMARK SMILES IDX 31 37 84 38 32 39 89 40 83 41 85 42 33 43 88 44 82 45 81 46
REMARK SMILES IDX 34 48 68 49 47 50 67 51 48 52 51 53 66 54 86 55 49 56 50 57
REMARK SMILES IDX 65 59 87 60 52 61 35 62 36 63 45 64 37 65 38 66 44 67 46 68
REMARK SMILES IDX 39 69 40 70 41 71 42 72 43 73 69 74 70 75 79 76 71 77 72 78
REMARK SMILES IDX 78 79 80 80 73 81 74 82 75 83 76 84 77 85 53 86 54 87 63 88
REMARK SMILES IDX 55 89 56 90 62 91 64 92 57 93 58 94 59 95 60 96 61 97
REMARK H PARENT 19 6 8 16 16 24 23 28 85 47 51 58
REMARK Flexibility Score: inf
ROOT
ATOM      1  C   UNL     1       0.974   5.534  -4.035  1.00  0.00     0.042 C 
ENDROOT
BRANCH   1   2
ATOM      2  C   UNL     1       1.547   4.980  -2.747  1.00  0.00     0.117 C 
BRANCH   2   3
ATOM      3  N   UNL     1       0.510   4.870  -1.729  1.00  0.00    -0.354 N 
ATOM      4  C   UNL     1       0.162   3.842  -0.914  1.00  0.00     0.242 C 
ATOM      5  O   UNL     1      -0.829   3.982  -0.197  1.00  0.00    -0.273 OA
ATOM      6  H   UNL     1      -0.033   5.683  -1.612  1.00  0.00     0.163 HD
BRANCH   4   7
ATOM      7  C   UNL     1       0.997   2.561  -0.863  1.00  0.00     0.172 C 
BRANCH   7   8
ATOM      8  C   UNL     1       2.491   2.756  -0.515  1.00  0.00     0.051 C 
BRANCH   8   9
ATOM      9  C   UNL     1       2.981   4.049   0.145  1.00  0.00     0.139 C 
BRANCH   9  10
ATOM     10  S   UNL     1       2.730   4.260   1.892  1.00  0.00     0.147 S 
ATOM     11  C   UNL     1       0.992   4.519   2.117  1.00  0.00     0.158 C 
ATOM     12  O   UNL     1       3.385   5.502   2.252  1.00  0.00    -0.229 OA
ATOM     13  O   UNL     1       3.086   3.018   2.554  1.00  0.00    -0.229 OA
ENDBRANCH   9  10
ENDBRANCH   8   9
ENDBRANCH   7   8
BRANCH   7  14
ATOM     14  N   UNL     1       0.785   1.912  -2.171  1.00  0.00    -0.344 N 
ATOM     15  C   UNL     1       0.385   0.654  -2.502  1.00  0.00     0.226 C 
ATOM     16  H   UNL     1       0.967   2.494  -2.944  1.00  0.00     0.164 HD
ATOM     17  O   UNL     1       0.105   0.442  -3.682  1.00  0.00    -0.275 OA
BRANCH  15  18
ATOM     18  C   UNL     1       0.373  -0.450  -1.469  1.00  0.00     0.155 C 
BRANCH  18  19
ATOM     19  C   UNL     1       1.741  -0.987  -1.212  1.00  0.00     0.044 A 
ATOM     20  C   UNL     1       2.155  -2.158  -0.611  1.00  0.00     0.045 A 
ATOM     21  N   UNL     1       2.897  -0.352  -1.586  1.00  0.00    -0.282 N 
ATOM     22  C   UNL     1       3.557  -2.064  -0.564  1.00  0.00     0.135 A 
ATOM     23  N   UNL     1       4.008  -0.943  -1.127  1.00  0.00    -0.184 NA
ATOM     24  H   UNL     1       2.908   0.461  -2.140  1.00  0.00     0.190 HD
ENDBRANCH  18  19
ENDBRANCH  15  18
ENDBRANCH   7  14
ENDBRANCH   4   7
ENDBRANCH   2   3
ENDBRANCH   1   2
BRANCH   1  25
ATOM     25  C   UNL     1       0.503   6.972  -3.883  1.00  0.00     0.118 C 
BRANCH  25  26
ATOM     26  N   UNL     1       1.590   7.888  -3.553  1.00  0.00    -0.352 N 
ATOM     27  C   UNL     1       1.995   9.010  -4.236  1.00  0.00     0.251 C 
ATOM     28  H   UNL     1       2.098   7.675  -2.737  1.00  0.00     0.163 HD
ATOM     29  O   UNL     1       3.045   9.571  -3.947  1.00  0.00    -0.269 OA
BRANCH  27  30
ATOM     30  C   UNL     1       1.146   9.496  -5.337  1.00  0.00     0.039 A 
ATOM     31  C   UNL     1       1.716   9.743  -6.585  1.00  0.00     0.014 A 
ATOM     32  C   UNL     1      -0.234   9.598  -5.144  1.00  0.00     0.014 A 
ATOM     33  C   UNL     1       0.881  10.015  -7.668  1.00  0.00     0.010 A 
ATOM     34  C   UNL     1      -1.064   9.752  -6.242  1.00  0.00     0.010 A 
ATOM     35  C   UNL     1      -0.516   9.972  -7.514  1.00  0.00    -0.014 A 
BRANCH  35  36
ATOM     36  C   UNL     1      -1.432  10.167  -8.664  1.00  0.00     0.031 A 
ATOM     37  C   UNL     1      -2.410  11.310  -8.649  1.00  0.00     0.074 A 
ATOM     38  C   UNL     1      -1.433   9.279  -9.677  1.00  0.00     0.049 A 
ATOM     39  N   UNL     1      -3.338  11.615  -9.517  1.00  0.00    -0.248 NA
ATOM     40  C   UNL     1      -2.361  12.208  -7.483  1.00  0.00     0.031 C 
ATOM     41  C   UNL     1      -0.565   8.104  -9.778  1.00  0.00     0.029 A 
ATOM     42  N   UNL     1      -2.193   9.226 -10.818  1.00  0.00    -0.354 N 
ATOM     43  C   UNL     1      -3.988  12.728  -8.997  1.00  0.00     0.074 A 
ATOM     44  C   UNL     1      -3.404  12.992  -7.702  1.00  0.00     0.031 C 
ATOM     45  C   UNL     1      -0.807   7.475 -10.939  1.00  0.00     0.029 A 
ATOM     46  C   UNL     1      -1.879   8.172 -11.642  1.00  0.00     0.049 A 
ATOM     47  H   UNL     1      -2.898   9.882 -11.026  1.00  0.00     0.167 HD
ATOM     48  C   UNL     1      -4.959  13.483  -9.562  1.00  0.00     0.037 A 
ATOM     49  C   UNL     1      -2.397   7.811 -12.832  1.00  0.00     0.037 A 
ATOM     50  C   UNL     1      -5.522  13.217 -10.859  1.00  0.00     0.049 A 
ATOM     51  C   UNL     1      -3.501   8.643 -13.427  1.00  0.00     0.074 A 
ATOM     52  C   UNL     1      -6.477  13.942 -11.548  1.00  0.00     0.029 A 
ATOM     53  N   UNL     1      -5.186  12.134 -11.659  1.00  0.00    -0.354 N 
ATOM     54  N   UNL     1      -4.061   9.731 -12.953  1.00  0.00    -0.248 NA
ATOM     55  C   UNL     1      -4.042   8.199 -14.718  1.00  0.00     0.031 C 
ATOM     56  C   UNL     1      -6.757  13.268 -12.742  1.00  0.00     0.029 A 
ATOM     57  C   UNL     1      -5.934  12.155 -12.825  1.00  0.00     0.049 A 
ATOM     58  H   UNL     1      -4.514  11.451 -11.432  1.00  0.00     0.167 HD
ATOM     59  C   UNL     1      -4.998  10.121 -13.904  1.00  0.00     0.074 A 
ATOM     60  C   UNL     1      -4.923   9.155 -14.982  1.00  0.00     0.031 C 
ATOM     61  C   UNL     1      -5.841  11.184 -13.889  1.00  0.00     0.037 A 
BRANCH  48  62
ATOM     62  C   UNL     1      -5.465  14.659  -8.769  1.00  0.00     0.058 A 
ATOM     63  C   UNL     1      -4.646  15.766  -8.485  1.00  0.00     0.135 A 
ATOM     64  C   UNL     1      -6.775  14.672  -8.265  1.00  0.00     0.135 A 
ATOM     65  F   UNL     1      -3.378  15.802  -8.927  1.00  0.00    -0.206 F 
ATOM     66  C   UNL     1      -5.088  16.813  -7.683  1.00  0.00     0.059 A 
ATOM     67  C   UNL     1      -7.250  15.727  -7.491  1.00  0.00     0.059 A 
ATOM     68  F   UNL     1      -7.603  13.644  -8.506  1.00  0.00    -0.206 F 
ATOM     69  C   UNL     1      -6.390  16.780  -7.184  1.00  0.00     0.060 A 
BRANCH  69  70
ATOM     70  S   UNL     1      -6.934  18.125  -6.111  1.00  0.00     0.124 S 
ATOM     71  O   UNL     1      -6.202  17.829  -4.883  1.00  0.00    -0.237 OA
ATOM     72  O   UNL     1      -6.492  19.307  -6.843  1.00  0.00    -0.237 OA
ATOM     73  O   UNL     1      -8.380  17.939  -6.038  1.00  0.00    -0.744 OA
ENDBRANCH  69  70
ENDBRANCH  48  62
BRANCH  49  74
ATOM     74  C   UNL     1      -1.840   6.640 -13.561  1.00  0.00     0.058 A 
ATOM     75  C   UNL     1      -1.088   6.821 -14.731  1.00  0.00     0.135 A 
ATOM     76  C   UNL     1      -2.016   5.329 -13.094  1.00  0.00     0.135 A 
ATOM     77  F   UNL     1      -0.897   8.056 -15.221  1.00  0.00    -0.206 F 
ATOM     78  C   UNL     1      -0.537   5.745 -15.418  1.00  0.00     0.059 A 
ATOM     79  C   UNL     1      -1.453   4.237 -13.749  1.00  0.00     0.059 A 
ATOM     80  F   UNL     1      -2.713   5.103 -11.969  1.00  0.00    -0.206 F 
ATOM     81  C   UNL     1      -0.720   4.456 -14.915  1.00  0.00     0.060 A 
BRANCH  81  82
ATOM     82  S   UNL     1       0.056   3.075 -15.782  1.00  0.00     0.124 S 
ATOM     83  O   UNL     1      -0.742   3.006 -17.001  1.00  0.00    -0.237 OA
ATOM     84  O   UNL     1       1.427   3.549 -15.941  1.00  0.00    -0.237 OA
ATOM     85  O   UNL     1      -0.110   1.960 -14.854  1.00  0.00    -0.744 OA
ENDBRANCH  81  82
ENDBRANCH  49  74
BRANCH  61  86
ATOM     86  C   UNL     1      -6.726  11.383 -15.089  1.00  0.00     0.058 A 
ATOM     87  C   UNL     1      -7.818  10.541 -15.351  1.00  0.00     0.135 A 
ATOM     88  C   UNL     1      -6.512  12.469 -15.954  1.00  0.00     0.135 A 
ATOM     89  F   UNL     1      -8.062   9.485 -14.561  1.00  0.00    -0.206 F 
ATOM     90  C   UNL     1      -8.654  10.757 -16.442  1.00  0.00     0.059 A 
ATOM     91  C   UNL     1      -7.354  12.721 -17.032  1.00  0.00     0.059 A 
ATOM     92  F   UNL     1      -5.488  13.311 -15.743  1.00  0.00    -0.206 F 
ATOM     93  C   UNL     1      -8.417  11.853 -17.274  1.00  0.00     0.060 A 
BRANCH  93  94
ATOM     94  S   UNL     1      -9.537  12.145 -18.659  1.00  0.00     0.124 S 
ATOM     95  O   UNL     1      -9.163  11.069 -19.571  1.00  0.00    -0.237 OA
ATOM     96  O   UNL     1     -10.848  12.016 -18.030  1.00  0.00    -0.237 OA
ATOM     97  O   UNL     1      -9.189  13.492 -19.100  1.00  0.00    -0.744 OA
ENDBRANCH  93  94
ENDBRANCH  61  86
ENDBRANCH  35  36
ENDBRANCH  27  30
ENDBRANCH  25  26
ENDBRANCH   1  25
TORSDOF 19
