REMARK SMILES C[C@@H](NC(=O)c1cc(C(=O)NCCCNC(=O)c2ccc(-c3c4nc(c(-c5c(F)cc(S(=O)(=O)[O-])cc5F)c5ccc([nH]5)c(-c5c(F)cc(S(=O)(=O)[O-])cc5F)c5nc(c(-c6c(F)cc(S(=O)(=O)[O-])cc6F)c6ccc3[nH]6)C=C5)C=C4)cc2)n(C)n1)c1ccccc1
REMARK SMILES IDX 13 1 12 2 11 3 9 4 10 5 8 7 6 8 7 9 86 10 84 11 85 12 4 13
REMARK SMILES IDX 3 14 5 16 2 17 1 18 87 19 88 20 92 21 89 22 91 23 90 24
REMARK SMILES IDX 14 25 15 26 16 27 17 29 18 30 19 31 83 32 20 33 82 34 21 35
REMARK SMILES IDX 22 36 23 37 76 38 24 39 81 40 75 41 77 42 25 43 80 44 74 45
REMARK SMILES IDX 73 46 26 48 60 49 39 50 59 51 40 52 43 53 58 54 78 55 41 56
REMARK SMILES IDX 42 57 57 59 79 60 44 61 27 62 28 63 37 64 29 65 30 66 36 67
REMARK SMILES IDX 38 68 31 69 32 70 33 71 34 72 35 73 61 74 62 75 71 76 63 77
REMARK SMILES IDX 64 78 70 79 72 80 65 81 66 82 67 83 68 84 69 85 45 86 46 87
REMARK SMILES IDX 55 88 47 89 48 90 54 91 56 92 49 93 50 94 51 95 52 96 53 97
REMARK H PARENT 11 6 3 15 15 28 77 47 43 58
REMARK Flexibility Score: inf
ROOT
ATOM      1  C   UNL     1      -7.175   1.169   1.736  1.00  0.00     0.042 C 
ENDROOT
BRANCH   1   2
ATOM      2  C   UNL     1      -6.717   0.749   3.134  1.00  0.00     0.118 C 
BRANCH   2   3
ATOM      3  N   UNL     1      -5.887  -0.432   3.106  1.00  0.00    -0.351 N 
ATOM      4  C   UNL     1      -4.571  -0.704   3.346  1.00  0.00     0.269 C 
ATOM      5  O   UNL     1      -4.357  -1.919   3.458  1.00  0.00    -0.268 OA
ATOM      6  H   UNL     1      -6.394  -1.237   2.853  1.00  0.00     0.163 HD
BRANCH   4   7
ATOM      7  C   UNL     1      -3.475   0.242   3.468  1.00  0.00     0.126 A 
ATOM      8  C   UNL     1      -1.315   0.890   3.559  1.00  0.00     0.151 A 
ATOM      9  C   UNL     1      -2.182  -0.189   3.789  1.00  0.00     0.069 A 
ATOM     10  N   UNL     1      -2.024   2.005   3.355  1.00  0.00    -0.167 NA
ATOM     11  N   UNL     1      -3.295   1.582   3.198  1.00  0.00    -0.262 N 
ATOM     12  C   UNL     1      -4.173   2.578   2.640  1.00  0.00     0.174 C 
BRANCH   8  13
ATOM     13  C   UNL     1       0.139   0.919   3.503  1.00  0.00     0.272 C 
ATOM     14  N   UNL     1       0.784   0.529   2.355  1.00  0.00    -0.344 N 
ATOM     15  H   UNL     1       1.658   0.967   2.235  1.00  0.00     0.164 HD
ATOM     16  O   UNL     1       0.828   1.371   4.423  1.00  0.00    -0.267 OA
BRANCH  14  17
ATOM     17  C   UNL     1       0.452  -0.399   1.269  1.00  0.00     0.109 C 
ATOM     18  C   UNL     1       1.361  -0.100   0.068  1.00  0.00     0.036 C 
BRANCH  17  19
ATOM     19  C   UNL     1      -0.982  -0.487   0.791  1.00  0.00    -0.026 A 
ATOM     20  C   UNL     1      -1.667   0.612   0.252  1.00  0.00     0.006 A 
ATOM     21  C   UNL     1      -1.641  -1.731   0.827  1.00  0.00     0.006 A 
ATOM     22  C   UNL     1      -2.979   0.475  -0.212  1.00  0.00     0.000 A 
ATOM     23  C   UNL     1      -2.952  -1.864   0.368  1.00  0.00     0.000 A 
ATOM     24  C   UNL     1      -3.623  -0.760  -0.148  1.00  0.00     0.000 A 
ENDBRANCH  17  19
ENDBRANCH  14  17
ENDBRANCH   8  13
ENDBRANCH   4   7
ENDBRANCH   2   3
ENDBRANCH   1   2
BRANCH   1  25
ATOM     25  C   UNL     1      -8.320   0.330   1.169  1.00  0.00     0.118 C 
BRANCH  25  26
ATOM     26  N   UNL     1      -9.544   0.479   1.942  1.00  0.00    -0.352 N 
ATOM     27  C   UNL     1     -10.720   1.121   1.645  1.00  0.00     0.251 C 
ATOM     28  H   UNL     1      -9.525   0.047   2.826  1.00  0.00     0.163 HD
ATOM     29  O   UNL     1     -11.509   1.357   2.557  1.00  0.00    -0.269 OA
BRANCH  27  30
ATOM     30  C   UNL     1     -11.052   1.528   0.261  1.00  0.00     0.039 A 
ATOM     31  C   UNL     1     -11.730   2.736   0.059  1.00  0.00     0.014 A 
ATOM     32  C   UNL     1     -10.781   0.698  -0.830  1.00  0.00     0.014 A 
ATOM     33  C   UNL     1     -12.084   3.134  -1.234  1.00  0.00     0.010 A 
ATOM     34  C   UNL     1     -11.078   1.124  -2.124  1.00  0.00     0.010 A 
ATOM     35  C   UNL     1     -11.734   2.345  -2.340  1.00  0.00    -0.014 A 
BRANCH  35  36
ATOM     36  C   UNL     1     -12.030   2.780  -3.731  1.00  0.00     0.031 A 
ATOM     37  C   UNL     1     -12.979   1.987  -4.589  1.00  0.00     0.074 A 
ATOM     38  C   UNL     1     -11.381   3.843  -4.245  1.00  0.00     0.049 A 
ATOM     39  N   UNL     1     -13.267   2.135  -5.856  1.00  0.00    -0.248 NA
ATOM     40  C   UNL     1     -13.678   0.865  -3.942  1.00  0.00     0.031 C 
ATOM     41  C   UNL     1     -10.415   4.673  -3.523  1.00  0.00     0.029 A 
ATOM     42  N   UNL     1     -11.418   4.395  -5.501  1.00  0.00    -0.354 N 
ATOM     43  C   UNL     1     -14.164   1.119  -6.165  1.00  0.00     0.074 A 
ATOM     44  C   UNL     1     -14.342   0.336  -4.960  1.00  0.00     0.031 C 
ATOM     45  C   UNL     1      -9.957   5.631  -4.344  1.00  0.00     0.029 A 
ATOM     46  C   UNL     1     -10.560   5.458  -5.662  1.00  0.00     0.049 A 
ATOM     47  H   UNL     1     -12.002   4.061  -6.220  1.00  0.00     0.167 HD
ATOM     48  C   UNL     1     -14.792   0.871  -7.340  1.00  0.00     0.037 A 
ATOM     49  C   UNL     1     -10.274   6.197  -6.751  1.00  0.00     0.037 A 
ATOM     50  C   UNL     1     -14.627   1.671  -8.527  1.00  0.00     0.049 A 
ATOM     51  C   UNL     1     -10.970   5.892  -8.049  1.00  0.00     0.074 A 
ATOM     52  C   UNL     1     -15.265   1.538  -9.748  1.00  0.00     0.029 A 
ATOM     53  N   UNL     1     -13.761   2.748  -8.644  1.00  0.00    -0.354 N 
ATOM     54  N   UNL     1     -11.855   4.960  -8.308  1.00  0.00    -0.248 NA
ATOM     55  C   UNL     1     -10.629   6.737  -9.203  1.00  0.00     0.031 C 
ATOM     56  C   UNL     1     -14.753   2.508 -10.617  1.00  0.00     0.029 A 
ATOM     57  C   UNL     1     -13.829   3.274  -9.923  1.00  0.00     0.049 A 
ATOM     58  H   UNL     1     -13.183   3.089  -7.923  1.00  0.00     0.167 HD
ATOM     59  C   UNL     1     -12.194   5.119  -9.647  1.00  0.00     0.074 A 
ATOM     60  C   UNL     1     -11.426   6.244 -10.141  1.00  0.00     0.031 C 
ATOM     61  C   UNL     1     -13.062   4.398 -10.399  1.00  0.00     0.037 A 
BRANCH  48  62
ATOM     62  C   UNL     1     -15.717  -0.313  -7.403  1.00  0.00     0.058 A 
ATOM     63  C   UNL     1     -16.956  -0.318  -6.741  1.00  0.00     0.135 A 
ATOM     64  C   UNL     1     -15.382  -1.443  -8.168  1.00  0.00     0.135 A 
ATOM     65  F   UNL     1     -17.323   0.730  -5.987  1.00  0.00    -0.206 F 
ATOM     66  C   UNL     1     -17.814  -1.410  -6.810  1.00  0.00     0.059 A 
ATOM     67  C   UNL     1     -16.237  -2.536  -8.273  1.00  0.00     0.059 A 
ATOM     68  F   UNL     1     -14.211  -1.492  -8.822  1.00  0.00    -0.206 F 
ATOM     69  C   UNL     1     -17.445  -2.516  -7.577  1.00  0.00     0.060 A 
BRANCH  69  70
ATOM     70  S   UNL     1     -18.570  -3.926  -7.655  1.00  0.00     0.124 S 
ATOM     71  O   UNL     1     -18.394  -4.511  -6.329  1.00  0.00    -0.237 OA
ATOM     72  O   UNL     1     -19.858  -3.286  -7.899  1.00  0.00    -0.237 OA
ATOM     73  O   UNL     1     -18.047  -4.719  -8.763  1.00  0.00    -0.744 OA
ENDBRANCH  69  70
ENDBRANCH  48  62
BRANCH  49  74
ATOM     74  C   UNL     1      -9.283   7.301  -6.656  1.00  0.00     0.058 A 
ATOM     75  C   UNL     1      -9.691   8.641  -6.714  1.00  0.00     0.135 A 
ATOM     76  C   UNL     1      -7.914   7.040  -6.484  1.00  0.00     0.135 A 
ATOM     77  F   UNL     1     -10.987   8.940  -6.885  1.00  0.00    -0.206 F 
ATOM     78  C   UNL     1      -8.777   9.686  -6.614  1.00  0.00     0.059 A 
ATOM     79  C   UNL     1      -6.985   8.068  -6.357  1.00  0.00     0.059 A 
ATOM     80  F   UNL     1      -7.475   5.774  -6.405  1.00  0.00    -0.206 F 
ATOM     81  C   UNL     1      -7.426   9.388  -6.433  1.00  0.00     0.060 A 
BRANCH  81  82
ATOM     82  S   UNL     1      -6.255  10.751  -6.248  1.00  0.00     0.124 S 
ATOM     83  O   UNL     1      -6.166  11.248  -7.615  1.00  0.00    -0.237 OA
ATOM     84  O   UNL     1      -6.943  11.618  -5.296  1.00  0.00    -0.237 OA
ATOM     85  O   UNL     1      -5.057  10.095  -5.733  1.00  0.00    -0.744 OA
ENDBRANCH  81  82
ENDBRANCH  49  74
BRANCH  61  86
ATOM     86  C   UNL     1     -13.251   4.814 -11.831  1.00  0.00     0.058 A 
ATOM     87  C   UNL     1     -12.279   4.549 -12.807  1.00  0.00     0.135 A 
ATOM     88  C   UNL     1     -14.448   5.422 -12.243  1.00  0.00     0.135 A 
ATOM     89  F   UNL     1     -11.113   3.979 -12.463  1.00  0.00    -0.206 F 
ATOM     90  C   UNL     1     -12.482   4.881 -14.143  1.00  0.00     0.059 A 
ATOM     91  C   UNL     1     -14.683   5.740 -13.577  1.00  0.00     0.059 A 
ATOM     92  F   UNL     1     -15.412   5.690 -11.349  1.00  0.00    -0.206 F 
ATOM     93  C   UNL     1     -13.691   5.471 -14.519  1.00  0.00     0.060 A 
BRANCH  93  94
ATOM     94  S   UNL     1     -13.964   5.846 -16.263  1.00  0.00     0.124 S 
ATOM     95  O   UNL     1     -13.107   7.012 -16.452  1.00  0.00    -0.237 OA
ATOM     96  O   UNL     1     -13.520   4.620 -16.919  1.00  0.00    -0.237 OA
ATOM     97  O   UNL     1     -15.400   6.103 -16.335  1.00  0.00    -0.744 OA
ENDBRANCH  93  94
ENDBRANCH  61  86
ENDBRANCH  35  36
ENDBRANCH  27  30
ENDBRANCH  25  26
ENDBRANCH   1  25
TORSDOF 16
