REMARK SMILES CC(=O)C1=C(NCCCNC(=O)c2ccc(-c3c4nc(c(-c5c(F)cc(S(=O)(=O)[O-])cc5F)c5ccc([nH]5)c(-c5c(F)cc(S(=O)(=O)[O-])cc5F)c5nc(c(-c6c(F)cc(S(=O)(=O)[O-])cc6F)c6ccc3[nH]6)C=C5)C=C4)cc2)C(=O)N(c2ccc(C(=O)[O-])cc2)[C@H]1c1ccc([N+](=O)[O-])cc1
REMARK SMILES IDX 8 1 7 2 6 3 5 5 4 6 91 7 79 8 81 9 80 10 2 11 1 12 3 13
REMARK SMILES IDX 92 14 93 15 100 16 94 17 99 18 95 19 96 20 97 21 98 22 82 23
REMARK SMILES IDX 83 24 90 25 84 26 89 27 85 28 86 29 87 30 88 31 9 32 10 33
REMARK SMILES IDX 11 34 12 36 13 37 14 38 78 39 15 40 77 41 16 42 17 43 18 44
REMARK SMILES IDX 71 45 19 46 76 47 70 48 72 49 20 50 75 51 69 52 68 53 21 55
REMARK SMILES IDX 55 56 34 57 54 58 35 59 38 60 53 61 73 62 36 63 37 64 52 66
REMARK SMILES IDX 74 67 39 68 22 69 23 70 32 71 24 72 25 73 31 74 33 75 26 76
REMARK SMILES IDX 27 77 28 78 29 79 30 80 56 81 57 82 66 83 58 84 59 85 65 86
REMARK SMILES IDX 67 87 60 88 61 89 62 90 63 91 64 92 40 93 41 94 50 95 42 96
REMARK SMILES IDX 43 97 49 98 51 99 44 100 45 101 46 102 47 103 48 104
REMARK H PARENT 6 4 10 35 72 54 38 65
REMARK Flexibility Score: inf
ROOT
ATOM      1  C   UNL     1      -3.062  -1.172  -1.728  1.00  0.00     0.042 C 
ENDROOT
BRANCH   1   2
ATOM      2  C   UNL     1      -1.945  -2.207  -1.683  1.00  0.00     0.115 C 
BRANCH   2   3
ATOM      3  N   UNL     1      -1.138  -2.143  -2.882  1.00  0.00    -0.380 N 
ATOM      4  H   UNL     1      -1.603  -2.380  -3.717  1.00  0.00     0.160 HD
BRANCH   3   5
ATOM      5  C   UNL     1       0.180  -1.802  -3.021  1.00  0.00     0.110 C 
ATOM      6  C   UNL     1       1.169  -1.454  -2.192  1.00  0.00     0.051 C 
ATOM      7  C   UNL     1       2.457  -1.134  -2.869  1.00  0.00     0.157 C 
ATOM      8  C   UNL     1       0.827  -1.830  -4.389  1.00  0.00     0.275 C 
ATOM      9  N   UNL     1       2.181  -1.592  -4.207  1.00  0.00    -0.295 N 
ATOM     10  O   UNL     1       0.219  -2.096  -5.414  1.00  0.00    -0.267 OA
BRANCH   6  11
ATOM     11  C   UNL     1       1.117  -1.453  -0.724  1.00  0.00     0.160 C 
ATOM     12  C   UNL     1       1.093  -0.130  -0.010  1.00  0.00     0.093 C 
ATOM     13  O   UNL     1       1.182  -2.518  -0.114  1.00  0.00    -0.295 OA
ENDBRANCH   6  11
BRANCH   7  14
ATOM     14  C   UNL     1       2.740   0.372  -2.847  1.00  0.00    -0.020 A 
ATOM     15  C   UNL     1       1.852   1.292  -3.450  1.00  0.00     0.013 A 
ATOM     16  C   UNL     1       3.873   0.870  -2.186  1.00  0.00     0.013 A 
ATOM     17  C   UNL     1       2.074   2.667  -3.379  1.00  0.00     0.086 A 
ATOM     18  C   UNL     1       4.103   2.249  -2.111  1.00  0.00     0.086 A 
ATOM     19  C   UNL     1       3.200   3.143  -2.705  1.00  0.00     0.269 A 
BRANCH  19  20
ATOM     20  N   UNL     1       3.435   4.589  -2.617  1.00  0.00     0.062 N 
ATOM     21  O   UNL     1       2.630   5.340  -3.185  1.00  0.00    -0.258 OA
ATOM     22  O   UNL     1       4.429   4.971  -1.982  1.00  0.00    -0.258 OA
ENDBRANCH  19  20
ENDBRANCH   7  14
BRANCH   9  23
ATOM     23  C   UNL     1       3.176  -1.703  -5.191  1.00  0.00     0.045 A 
ATOM     24  C   UNL     1       3.012  -1.114  -6.447  1.00  0.00     0.027 A 
ATOM     25  C   UNL     1       4.355  -2.405  -4.908  1.00  0.00     0.027 A 
ATOM     26  C   UNL     1       4.040  -1.184  -7.394  1.00  0.00     0.012 A 
ATOM     27  C   UNL     1       5.358  -2.524  -5.873  1.00  0.00     0.012 A 
ATOM     28  C   UNL     1       5.212  -1.899  -7.115  1.00  0.00    -0.003 A 
BRANCH  28  29
ATOM     29  C   UNL     1       6.267  -1.970  -8.153  1.00  0.00     0.071 C 
ATOM     30  O   UNL     1       6.267  -1.379  -9.219  1.00  0.00    -0.545 OA
ATOM     31  O   UNL     1       7.279  -2.788  -7.813  1.00  0.00    -0.545 OA
ENDBRANCH  28  29
ENDBRANCH   9  23
ENDBRANCH   3   5
ENDBRANCH   2   3
ENDBRANCH   1   2
BRANCH   1  32
ATOM     32  C   UNL     1      -4.119  -1.446  -2.792  1.00  0.00     0.118 C 
BRANCH  32  33
ATOM     33  N   UNL     1      -4.838  -2.693  -2.564  1.00  0.00    -0.352 N 
ATOM     34  C   UNL     1      -6.164  -2.921  -2.290  1.00  0.00     0.251 C 
ATOM     35  H   UNL     1      -4.282  -3.504  -2.613  1.00  0.00     0.163 HD
ATOM     36  O   UNL     1      -6.521  -4.042  -1.935  1.00  0.00    -0.269 OA
BRANCH  34  37
ATOM     37  C   UNL     1      -7.157  -1.829  -2.399  1.00  0.00     0.039 A 
ATOM     38  C   UNL     1      -8.164  -1.734  -1.434  1.00  0.00     0.014 A 
ATOM     39  C   UNL     1      -7.119  -0.917  -3.456  1.00  0.00     0.014 A 
ATOM     40  C   UNL     1      -9.083  -0.682  -1.491  1.00  0.00     0.010 A 
ATOM     41  C   UNL     1      -7.977   0.180  -3.460  1.00  0.00     0.010 A 
ATOM     42  C   UNL     1      -8.972   0.309  -2.480  1.00  0.00    -0.014 A 
BRANCH  42  43
ATOM     43  C   UNL     1      -9.880   1.486  -2.502  1.00  0.00     0.031 A 
ATOM     44  C   UNL     1     -10.778   1.730  -3.687  1.00  0.00     0.074 A 
ATOM     45  C   UNL     1      -9.848   2.372  -1.484  1.00  0.00     0.049 A 
ATOM     46  N   UNL     1     -11.575   2.740  -3.924  1.00  0.00    -0.248 NA
ATOM     47  C   UNL     1     -10.757   0.722  -4.760  1.00  0.00     0.031 C 
ATOM     48  C   UNL     1      -8.986   2.274  -0.303  1.00  0.00     0.029 A 
ATOM     49  N   UNL     1     -10.547   3.537  -1.284  1.00  0.00    -0.354 N 
ATOM     50  C   UNL     1     -12.136   2.498  -5.173  1.00  0.00     0.074 A 
ATOM     51  C   UNL     1     -11.551   1.272  -5.668  1.00  0.00     0.031 C 
ATOM     52  C   UNL     1      -9.221   3.320   0.504  1.00  0.00     0.029 A 
ATOM     53  C   UNL     1     -10.215   4.189  -0.118  1.00  0.00     0.049 A 
ATOM     54  H   UNL     1     -11.223   3.874  -1.915  1.00  0.00     0.167 HD
ATOM     55  C   UNL     1     -13.070   3.220  -5.836  1.00  0.00     0.037 A 
ATOM     56  C   UNL     1     -10.648   5.361   0.386  1.00  0.00     0.037 A 
ATOM     57  C   UNL     1     -13.672   4.423  -5.322  1.00  0.00     0.049 A 
ATOM     58  C   UNL     1     -11.685   6.146  -0.375  1.00  0.00     0.074 A 
ATOM     59  C   UNL     1     -14.676   5.190  -5.888  1.00  0.00     0.029 A 
ATOM     60  N   UNL     1     -13.328   5.037  -4.126  1.00  0.00    -0.354 N 
ATOM     61  N   UNL     1     -12.256   5.862  -1.521  1.00  0.00    -0.248 NA
ATOM     62  C   UNL     1     -12.142   7.405   0.228  1.00  0.00     0.031 C 
ATOM     63  C   UNL     1     -14.899   6.296  -5.064  1.00  0.00     0.029 A 
ATOM     64  C   UNL     1     -14.081   6.186  -3.951  1.00  0.00     0.049 A 
ATOM     65  H   UNL     1     -12.649   4.705  -3.495  1.00  0.00     0.167 HD
ATOM     66  C   UNL     1     -13.163   6.889  -1.758  1.00  0.00     0.074 A 
ATOM     67  C   UNL     1     -13.075   7.793  -0.631  1.00  0.00     0.031 C 
ATOM     68  C   UNL     1     -13.995   7.068  -2.814  1.00  0.00     0.037 A 
BRANCH  55  69
ATOM     69  C   UNL     1     -13.514   2.735  -7.189  1.00  0.00     0.058 A 
ATOM     70  C   UNL     1     -14.300   1.581  -7.339  1.00  0.00     0.135 A 
ATOM     71  C   UNL     1     -13.216   3.477  -8.344  1.00  0.00     0.135 A 
ATOM     72  F   UNL     1     -14.601   0.824  -6.272  1.00  0.00    -0.206 F 
ATOM     73  C   UNL     1     -14.765   1.174  -8.585  1.00  0.00     0.059 A 
ATOM     74  C   UNL     1     -13.696   3.105  -9.597  1.00  0.00     0.059 A 
ATOM     75  F   UNL     1     -12.466   4.586  -8.260  1.00  0.00    -0.206 F 
ATOM     76  C   UNL     1     -14.465   1.948  -9.708  1.00  0.00     0.060 A 
BRANCH  76  77
ATOM     77  S   UNL     1     -15.115   1.427 -11.309  1.00  0.00     0.124 S 
ATOM     78  O   UNL     1     -14.317   0.234 -11.574  1.00  0.00    -0.237 OA
ATOM     79  O   UNL     1     -16.524   1.194 -11.011  1.00  0.00    -0.237 OA
ATOM     80  O   UNL     1     -14.840   2.569 -12.176  1.00  0.00    -0.744 OA
ENDBRANCH  76  77
ENDBRANCH  55  69
BRANCH  56  81
ATOM     81  C   UNL     1     -10.108   5.871   1.677  1.00  0.00     0.058 A 
ATOM     82  C   UNL     1     -10.921   5.967   2.817  1.00  0.00     0.135 A 
ATOM     83  C   UNL     1      -8.773   6.291   1.793  1.00  0.00     0.135 A 
ATOM     84  F   UNL     1     -12.205   5.583   2.758  1.00  0.00    -0.206 F 
ATOM     85  C   UNL     1     -10.443   6.493   4.013  1.00  0.00     0.059 A 
ATOM     86  C   UNL     1      -8.263   6.790   2.987  1.00  0.00     0.059 A 
ATOM     87  F   UNL     1      -7.945   6.202   0.740  1.00  0.00    -0.206 F 
ATOM     88  C   UNL     1      -9.111   6.904   4.087  1.00  0.00     0.060 A 
BRANCH  88  89
ATOM     89  S   UNL     1      -8.495   7.570   5.648  1.00  0.00     0.124 S 
ATOM     90  O   UNL     1      -9.147   8.874   5.688  1.00  0.00    -0.237 OA
ATOM     91  O   UNL     1      -8.974   6.585   6.612  1.00  0.00    -0.237 OA
ATOM     92  O   UNL     1      -7.048   7.594   5.454  1.00  0.00    -0.744 OA
ENDBRANCH  88  89
ENDBRANCH  56  81
BRANCH  68  93
ATOM     93  C   UNL     1     -14.915   8.258  -2.783  1.00  0.00     0.058 A 
ATOM     94  C   UNL     1     -14.441   9.568  -2.948  1.00  0.00     0.135 A 
ATOM     95  C   UNL     1     -16.301   8.076  -2.641  1.00  0.00     0.135 A 
ATOM     96  F   UNL     1     -13.125   9.799  -3.082  1.00  0.00    -0.206 F 
ATOM     97  C   UNL     1     -15.305  10.659  -2.949  1.00  0.00     0.059 A 
ATOM     98  C   UNL     1     -17.187   9.148  -2.671  1.00  0.00     0.059 A 
ATOM     99  F   UNL     1     -16.810   6.843  -2.491  1.00  0.00    -0.206 F 
ATOM    100  C   UNL     1     -16.677  10.438  -2.813  1.00  0.00     0.060 A 
BRANCH 100 101
ATOM    101  S   UNL     1     -17.790  11.859  -2.851  1.00  0.00     0.124 S 
ATOM    102  O   UNL     1     -17.519  12.479  -1.558  1.00  0.00    -0.237 OA
ATOM    103  O   UNL     1     -17.315  12.595  -4.019  1.00  0.00    -0.237 OA
ATOM    104  O   UNL     1     -19.111  11.254  -2.993  1.00  0.00    -0.744 OA
ENDBRANCH 100 101
ENDBRANCH  68  93
ENDBRANCH  42  43
ENDBRANCH  34  37
ENDBRANCH  32  33
ENDBRANCH   1  32
TORSDOF 18
