REMARK SMILES COC(=O)c1ccc(C[N@@H+](CC(=O)NCCCNC(=O)c2ccc(-c3c4nc(c(-c5c(F)cc(S(=O)(=O)[O-])cc5F)c5ccc([nH]5)c(-c5c(F)cc(S(=O)(=O)[O-])cc5F)c5nc(c(-c6c(F)cc(S(=O)(=O)[O-])cc6F)c6ccc3[nH]6)C=C5)C=C4)cc2)C(C)(C)C)cc1
REMARK SMILES IDX 15 1 14 2 12 3 13 4 11 6 10 7 9 9 8 10 5 11 6 12 92 13 7 14
REMARK SMILES IDX 91 15 3 16 4 17 2 18 1 19 87 20 88 21 89 22 90 23 16 24
REMARK SMILES IDX 17 25 18 26 19 27 20 29 21 30 22 31 86 32 23 33 85 34 24 35
REMARK SMILES IDX 25 36 26 37 79 38 27 39 84 40 78 41 80 42 28 43 83 44 77 45
REMARK SMILES IDX 76 46 29 48 63 49 42 50 62 51 43 52 46 53 61 54 81 55 44 56
REMARK SMILES IDX 45 57 60 59 82 60 47 61 30 62 31 63 40 64 32 65 33 66 39 67
REMARK SMILES IDX 41 68 34 69 35 70 36 71 37 72 38 73 64 74 65 75 74 76 66 77
REMARK SMILES IDX 67 78 73 79 75 80 68 81 69 82 70 83 71 84 72 85 48 86 49 87
REMARK SMILES IDX 58 88 50 89 51 90 57 91 59 92 52 93 53 94 54 95 55 96 56 97
REMARK H PARENT 14 5 10 8 18 28 80 47 46 58
REMARK Flexibility Score: inf
ROOT
ATOM      1  C   UNL     1      -2.956  -8.801   2.528  1.00  0.00     0.118 C 
ENDROOT
BRANCH   1   2
ATOM      2  N   UNL     1      -3.631  -9.461   1.419  1.00  0.00    -0.351 N 
ATOM      3  C   UNL     1      -3.196  -9.971   0.229  1.00  0.00     0.275 C 
ATOM      4  O   UNL     1      -4.037 -10.610  -0.417  1.00  0.00    -0.269 OA
ATOM      5  H   UNL     1      -4.601  -9.561   1.554  1.00  0.00     0.163 HD
BRANCH   3   6
ATOM      6  C   UNL     1      -1.751  -9.858  -0.297  1.00  0.00     0.364 C 
BRANCH   6   7
ATOM      7  N   UNL     1      -1.321  -8.560  -0.918  1.00  0.00    -0.319 N 
ATOM      8  H   UNL     1      -0.499  -8.688  -1.509  1.00  0.00     0.349 HD
BRANCH   7   9
ATOM      9  C   UNL     1      -0.895  -7.674   0.165  1.00  0.00     0.299 C 
BRANCH   9  10
ATOM     10  C   UNL     1      -0.303  -6.321  -0.085  1.00  0.00     0.006 A 
ATOM     11  C   UNL     1       0.755  -3.770  -0.478  1.00  0.00     0.060 A 
ATOM     12  C   UNL     1       1.549  -4.900  -0.705  1.00  0.00     0.016 A 
ATOM     13  C   UNL     1      -0.562  -3.908  -0.031  1.00  0.00     0.016 A 
ATOM     14  C   UNL     1       1.023  -6.174  -0.503  1.00  0.00     0.010 A 
ATOM     15  C   UNL     1      -1.081  -5.177   0.173  1.00  0.00     0.010 A 
BRANCH  11  16
ATOM     16  C   UNL     1       1.324  -2.437  -0.749  1.00  0.00     0.337 C 
ATOM     17  O   UNL     1       2.224  -2.237  -1.551  1.00  0.00    -0.246 OA
BRANCH  16  18
ATOM     18  O   UNL     1       0.705  -1.541   0.045  1.00  0.00    -0.465 OA
ATOM     19  C   UNL     1       1.187  -0.206  -0.061  1.00  0.00     0.282 C 
ENDBRANCH  16  18
ENDBRANCH  11  16
ENDBRANCH   9  10
ENDBRANCH   7   9
BRANCH   7  20
ATOM     20  C   UNL     1      -2.147  -8.046  -2.053  1.00  0.00     0.090 C 
ATOM     21  C   UNL     1      -3.592  -7.643  -1.687  1.00  0.00     0.078 C 
ATOM     22  C   UNL     1      -1.521  -6.814  -2.761  1.00  0.00     0.078 C 
ATOM     23  C   UNL     1      -2.202  -9.127  -3.165  1.00  0.00     0.078 C 
ENDBRANCH   7  20
ENDBRANCH   6   7
ENDBRANCH   3   6
ENDBRANCH   1   2
BRANCH   1  24
ATOM     24  C   UNL     1      -3.280  -7.303   2.607  1.00  0.00     0.042 C 
BRANCH  24  25
ATOM     25  C   UNL     1      -4.642  -6.937   3.169  1.00  0.00     0.118 C 
BRANCH  25  26
ATOM     26  N   UNL     1      -4.686  -6.993   4.615  1.00  0.00    -0.352 N 
ATOM     27  C   UNL     1      -4.679  -5.993   5.560  1.00  0.00     0.251 C 
ATOM     28  H   UNL     1      -4.728  -7.904   4.987  1.00  0.00     0.163 HD
ATOM     29  O   UNL     1      -4.522  -6.314   6.737  1.00  0.00    -0.269 OA
BRANCH  27  30
ATOM     30  C   UNL     1      -4.829  -4.554   5.208  1.00  0.00     0.039 A 
ATOM     31  C   UNL     1      -4.147  -3.610   5.986  1.00  0.00     0.014 A 
ATOM     32  C   UNL     1      -5.676  -4.103   4.194  1.00  0.00     0.014 A 
ATOM     33  C   UNL     1      -4.274  -2.241   5.718  1.00  0.00     0.010 A 
ATOM     34  C   UNL     1      -5.731  -2.744   3.866  1.00  0.00     0.010 A 
ATOM     35  C   UNL     1      -5.044  -1.793   4.633  1.00  0.00    -0.014 A 
BRANCH  35  36
ATOM     36  C   UNL     1      -5.160  -0.340   4.317  1.00  0.00     0.031 A 
ATOM     37  C   UNL     1      -6.502   0.352   4.374  1.00  0.00     0.074 A 
ATOM     38  C   UNL     1      -4.065   0.357   3.946  1.00  0.00     0.049 A 
ATOM     39  N   UNL     1      -6.808   1.591   4.081  1.00  0.00    -0.248 NA
ATOM     40  C   UNL     1      -7.655  -0.462   4.791  1.00  0.00     0.031 C 
ATOM     41  C   UNL     1      -2.712  -0.190   3.808  1.00  0.00     0.029 A 
ATOM     42  N   UNL     1      -3.917   1.682   3.612  1.00  0.00    -0.354 N 
ATOM     43  C   UNL     1      -8.183   1.701   4.262  1.00  0.00     0.074 A 
ATOM     44  C   UNL     1      -8.661   0.390   4.643  1.00  0.00     0.031 C 
ATOM     45  C   UNL     1      -1.871   0.794   3.447  1.00  0.00     0.029 A 
ATOM     46  C   UNL     1      -2.626   2.033   3.293  1.00  0.00     0.049 A 
ATOM     47  H   UNL     1      -4.667   2.320   3.602  1.00  0.00     0.167 HD
ATOM     48  C   UNL     1      -8.975   2.796   4.144  1.00  0.00     0.037 A 
ATOM     49  C   UNL     1      -2.111   3.216   2.908  1.00  0.00     0.037 A 
ATOM     50  C   UNL     1      -8.493   4.107   3.788  1.00  0.00     0.049 A 
ATOM     51  C   UNL     1      -3.012   4.406   2.758  1.00  0.00     0.074 A 
ATOM     52  C   UNL     1      -9.207   5.291   3.703  1.00  0.00     0.029 A 
ATOM     53  N   UNL     1      -7.182   4.409   3.454  1.00  0.00    -0.354 N 
ATOM     54  N   UNL     1      -4.302   4.495   2.968  1.00  0.00    -0.248 NA
ATOM     55  C   UNL     1      -2.382   5.655   2.307  1.00  0.00     0.031 C 
ATOM     56  C   UNL     1      -8.340   6.296   3.261  1.00  0.00     0.029 A 
ATOM     57  C   UNL     1      -7.073   5.752   3.130  1.00  0.00     0.049 A 
ATOM     58  H   UNL     1      -6.438   3.764   3.446  1.00  0.00     0.167 HD
ATOM     59  C   UNL     1      -4.638   5.813   2.687  1.00  0.00     0.074 A 
ATOM     60  C   UNL     1      -3.413   6.488   2.308  1.00  0.00     0.031 C 
ATOM     61  C   UNL     1      -5.853   6.410   2.738  1.00  0.00     0.037 A 
BRANCH  48  62
ATOM     62  C   UNL     1     -10.451   2.631   4.398  1.00  0.00     0.058 A 
ATOM     63  C   UNL     1     -10.958   2.383   5.684  1.00  0.00     0.135 A 
ATOM     64  C   UNL     1     -11.376   2.780   3.351  1.00  0.00     0.135 A 
ATOM     65  F   UNL     1     -10.122   2.220   6.721  1.00  0.00    -0.206 F 
ATOM     66  C   UNL     1     -12.325   2.260   5.918  1.00  0.00     0.059 A 
ATOM     67  C   UNL     1     -12.749   2.693   3.567  1.00  0.00     0.059 A 
ATOM     68  F   UNL     1     -10.950   3.022   2.102  1.00  0.00    -0.206 F 
ATOM     69  C   UNL     1     -13.213   2.418   4.852  1.00  0.00     0.060 A 
BRANCH  69  70
ATOM     70  S   UNL     1     -14.982   2.265   5.176  1.00  0.00     0.124 S 
ATOM     71  O   UNL     1     -15.110   0.831   5.419  1.00  0.00    -0.237 OA
ATOM     72  O   UNL     1     -15.161   3.123   6.343  1.00  0.00    -0.237 OA
ATOM     73  O   UNL     1     -15.598   2.749   3.945  1.00  0.00    -0.744 OA
ENDBRANCH  69  70
ENDBRANCH  48  62
BRANCH  49  74
ATOM     74  C   UNL     1      -0.665   3.347   2.604  1.00  0.00     0.058 A 
ATOM     75  C   UNL     1       0.217   3.964   3.503  1.00  0.00     0.135 A 
ATOM     76  C   UNL     1      -0.147   2.889   1.387  1.00  0.00     0.135 A 
ATOM     77  F   UNL     1      -0.246   4.461   4.660  1.00  0.00    -0.206 F 
ATOM     78  C   UNL     1       1.574   4.094   3.220  1.00  0.00     0.059 A 
ATOM     79  C   UNL     1       1.202   3.015   1.079  1.00  0.00     0.059 A 
ATOM     80  F   UNL     1      -0.951   2.283   0.499  1.00  0.00    -0.206 F 
ATOM     81  C   UNL     1       2.059   3.602   2.008  1.00  0.00     0.060 A 
BRANCH  81  82
ATOM     82  S   UNL     1       3.835   3.619   1.685  1.00  0.00     0.124 S 
ATOM     83  O   UNL     1       4.022   4.959   1.143  1.00  0.00    -0.237 OA
ATOM     84  O   UNL     1       4.398   3.379   3.011  1.00  0.00    -0.237 OA
ATOM     85  O   UNL     1       3.999   2.520   0.739  1.00  0.00    -0.744 OA
ENDBRANCH  81  82
ENDBRANCH  49  74
BRANCH  61  86
ATOM     86  C   UNL     1      -5.912   7.872   2.395  1.00  0.00     0.058 A 
ATOM     87  C   UNL     1      -5.752   8.328   1.077  1.00  0.00     0.135 A 
ATOM     88  C   UNL     1      -6.160   8.826   3.395  1.00  0.00     0.135 A 
ATOM     89  F   UNL     1      -5.499   7.458   0.087  1.00  0.00    -0.206 F 
ATOM     90  C   UNL     1      -5.810   9.682   0.766  1.00  0.00     0.059 A 
ATOM     91  C   UNL     1      -6.253  10.182   3.102  1.00  0.00     0.059 A 
ATOM     92  F   UNL     1      -6.325   8.442   4.671  1.00  0.00    -0.206 F 
ATOM     93  C   UNL     1      -6.064  10.602   1.786  1.00  0.00     0.060 A 
BRANCH  93  94
ATOM     94  S   UNL     1      -6.165  12.354   1.364  1.00  0.00     0.124 S 
ATOM     95  O   UNL     1      -4.767  12.674   1.097  1.00  0.00    -0.237 OA
ATOM     96  O   UNL     1      -7.046  12.342   0.200  1.00  0.00    -0.237 OA
ATOM     97  O   UNL     1      -6.731  12.961   2.565  1.00  0.00    -0.744 OA
ENDBRANCH  93  94
ENDBRANCH  61  86
ENDBRANCH  35  36
ENDBRANCH  27  30
ENDBRANCH  25  26
ENDBRANCH  24  25
ENDBRANCH   1  24
TORSDOF 19
