REMARK SMILES Cc1oc2ccc(OCc3ccc(Br)cc3)cc2c1C(=O)NCCCNC(=O)c1ccc(-c2c3nc(c(-c4c(F)cc(S(=O)(=O)[O-])cc4F)c4ccc([nH]4)c(-c4c(F)cc(S(=O)(=O)[O-])cc4F)c4nc(c(-c5c(F)cc(S(=O)(=O)[O-])cc5F)c5ccc2[nH]5)C=C4)C=C3)cc1
REMARK SMILES IDX 24 1 23 2 22 3 20 4 21 5 19 7 1 8 2 9 3 10 4 11 18 12 5 13
REMARK SMILES IDX 17 14 6 15 7 16 8 17 9 18 10 19 11 20 16 21 12 22 15 23
REMARK SMILES IDX 13 24 14 25 25 26 26 27 27 28 28 30 29 31 30 32 94 33 31 34
REMARK SMILES IDX 93 35 32 36 33 37 34 38 87 39 35 40 92 41 86 42 88 43 36 44
REMARK SMILES IDX 91 45 85 46 84 47 37 49 71 50 50 51 70 52 51 53 54 54 69 55
REMARK SMILES IDX 89 56 52 57 53 58 68 60 90 61 55 62 38 63 39 64 48 65 40 66
REMARK SMILES IDX 41 67 47 68 49 69 42 70 43 71 44 72 45 73 46 74 72 75 73 76
REMARK SMILES IDX 82 77 74 78 75 79 81 80 83 81 76 82 77 83 78 84 79 85 80 86
REMARK SMILES IDX 56 87 57 88 66 89 58 90 59 91 65 92 67 93 60 94 61 95 62 96
REMARK SMILES IDX 63 97 64 98
REMARK H PARENT 22 6 26 29 88 48 54 59
REMARK Flexibility Score: inf
ROOT
ATOM      1  C   UNL     1       4.946  -2.493   1.578  1.00  0.00     0.042 C 
ENDROOT
BRANCH   1   2
ATOM      2  C   UNL     1       4.104  -1.997   0.420  1.00  0.00     0.118 C 
BRANCH   2   3
ATOM      3  N   UNL     1       2.885  -2.727   0.194  1.00  0.00    -0.352 N 
ATOM      4  C   UNL     1       1.602  -2.308  -0.051  1.00  0.00     0.255 C 
ATOM      5  O   UNL     1       0.777  -3.222  -0.155  1.00  0.00    -0.269 OA
ATOM      6  H   UNL     1       2.990  -3.706   0.219  1.00  0.00     0.163 HD
BRANCH   4   7
ATOM      7  C   UNL     1       1.183  -0.907  -0.198  1.00  0.00     0.088 A 
ATOM      8  C   UNL     1       3.264   0.742  -0.714  1.00  0.00     0.088 C 
ATOM      9  C   UNL     1       1.878   0.277  -0.473  1.00  0.00     0.115 A 
ATOM     10  O   UNL     1       1.012   1.316  -0.611  1.00  0.00    -0.461 OA
ATOM     11  C   UNL     1      -0.236   0.840  -0.499  1.00  0.00     0.135 A 
ATOM     12  C   UNL     1      -0.221  -0.504  -0.183  1.00  0.00     0.037 A 
ATOM     13  C   UNL     1      -1.371   1.600  -0.724  1.00  0.00     0.051 A 
ATOM     14  C   UNL     1      -1.478  -1.126   0.026  1.00  0.00     0.059 A 
ATOM     15  C   UNL     1      -2.587   0.934  -0.611  1.00  0.00     0.050 A 
ATOM     16  C   UNL     1      -2.662  -0.383  -0.158  1.00  0.00     0.120 A 
BRANCH  16  17
ATOM     17  O   UNL     1      -3.833  -1.038   0.131  1.00  0.00    -0.489 OA
BRANCH  17  18
ATOM     18  C   UNL     1      -5.048  -0.275   0.203  1.00  0.00     0.265 C 
BRANCH  18  19
ATOM     19  C   UNL     1      -5.173   0.565   1.462  1.00  0.00    -0.011 A 
ATOM     20  C   UNL     1      -4.918   1.946   1.451  1.00  0.00     0.008 A 
ATOM     21  C   UNL     1      -5.521  -0.037   2.679  1.00  0.00     0.008 A 
ATOM     22  C   UNL     1      -4.947   2.696   2.628  1.00  0.00     0.016 A 
ATOM     23  C   UNL     1      -5.591   0.720   3.854  1.00  0.00     0.016 A 
ATOM     24  C   UNL     1      -5.286   2.079   3.825  1.00  0.00     0.017 A 
ATOM     25  Br  UNL     1      -5.332   3.094   5.418  1.00  0.00    -0.051 Br
ENDBRANCH  18  19
ENDBRANCH  17  18
ENDBRANCH  16  17
ENDBRANCH   4   7
ENDBRANCH   2   3
ENDBRANCH   1   2
BRANCH   1  26
ATOM     26  C   UNL     1       5.577  -3.856   1.379  1.00  0.00     0.118 C 
BRANCH  26  27
ATOM     27  N   UNL     1       6.585  -3.880   0.325  1.00  0.00    -0.352 N 
ATOM     28  C   UNL     1       7.960  -3.899   0.383  1.00  0.00     0.251 C 
ATOM     29  H   UNL     1       6.218  -3.884  -0.588  1.00  0.00     0.163 HD
ATOM     30  O   UNL     1       8.603  -3.755  -0.656  1.00  0.00    -0.269 OA
BRANCH  28  31
ATOM     31  C   UNL     1       8.672  -4.050   1.674  1.00  0.00     0.039 A 
ATOM     32  C   UNL     1       9.851  -3.330   1.895  1.00  0.00     0.014 A 
ATOM     33  C   UNL     1       8.194  -4.902   2.668  1.00  0.00     0.014 A 
ATOM     34  C   UNL     1      10.485  -3.395   3.140  1.00  0.00     0.010 A 
ATOM     35  C   UNL     1       8.745  -4.863   3.943  1.00  0.00     0.010 A 
ATOM     36  C   UNL     1       9.906  -4.121   4.194  1.00  0.00    -0.014 A 
BRANCH  36  37
ATOM     37  C   UNL     1      10.501  -4.143   5.557  1.00  0.00     0.031 A 
ATOM     38  C   UNL     1      10.902  -5.455   6.182  1.00  0.00     0.074 A 
ATOM     39  C   UNL     1      10.599  -2.999   6.265  1.00  0.00     0.049 A 
ATOM     40  N   UNL     1      11.338  -5.696   7.392  1.00  0.00    -0.248 NA
ATOM     41  C   UNL     1      10.758  -6.662   5.351  1.00  0.00     0.031 C 
ATOM     42  C   UNL     1      10.186  -1.673   5.797  1.00  0.00     0.029 A 
ATOM     43  N   UNL     1      11.066  -2.767   7.535  1.00  0.00    -0.354 N 
ATOM     44  C   UNL     1      11.491  -7.075   7.473  1.00  0.00     0.074 A 
ATOM     45  C   UNL     1      11.042  -7.625   6.213  1.00  0.00     0.031 C 
ATOM     46  C   UNL     1      10.447  -0.766   6.752  1.00  0.00     0.029 A 
ATOM     47  C   UNL     1      11.004  -1.447   7.916  1.00  0.00     0.049 A 
ATOM     48  H   UNL     1      11.413  -3.480   8.119  1.00  0.00     0.167 HD
ATOM     49  C   UNL     1      11.988  -7.816   8.491  1.00  0.00     0.037 A 
ATOM     50  C   UNL     1      11.350  -0.852   9.075  1.00  0.00     0.037 A 
ATOM     51  C   UNL     1      12.475  -7.258   9.725  1.00  0.00     0.049 A 
ATOM     52  C   UNL     1      11.919  -1.693  10.185  1.00  0.00     0.074 A 
ATOM     53  C   UNL     1      13.069  -7.912  10.789  1.00  0.00     0.029 A 
ATOM     54  N   UNL     1      12.427  -5.912  10.057  1.00  0.00    -0.354 N 
ATOM     55  N   UNL     1      12.121  -2.989  10.217  1.00  0.00    -0.248 NA
ATOM     56  C   UNL     1      12.314  -0.992  11.415  1.00  0.00     0.031 C 
ATOM     57  C   UNL     1      13.337  -6.968  11.786  1.00  0.00     0.029 A 
ATOM     58  C   UNL     1      12.961  -5.718  11.320  1.00  0.00     0.049 A 
ATOM     59  H   UNL     1      12.066  -5.200   9.481  1.00  0.00     0.167 HD
ATOM     60  C   UNL     1      12.692  -3.254  11.457  1.00  0.00     0.074 A 
ATOM     61  C   UNL     1      12.814  -1.982  12.140  1.00  0.00     0.031 C 
ATOM     62  C   UNL     1      13.082  -4.442  11.982  1.00  0.00     0.037 A 
BRANCH  49  63
ATOM     63  C   UNL     1      12.042  -9.310   8.310  1.00  0.00     0.058 A 
ATOM     64  C   UNL     1      12.921  -9.913   7.396  1.00  0.00     0.135 A 
ATOM     65  C   UNL     1      11.227 -10.152   9.084  1.00  0.00     0.135 A 
ATOM     66  F   UNL     1      13.711  -9.157   6.617  1.00  0.00    -0.206 F 
ATOM     67  C   UNL     1      12.968 -11.294   7.233  1.00  0.00     0.059 A 
ATOM     68  C   UNL     1      11.280 -11.538   8.960  1.00  0.00     0.059 A 
ATOM     69  F   UNL     1      10.366  -9.631   9.972  1.00  0.00    -0.206 F 
ATOM     70  C   UNL     1      12.144 -12.098   8.021  1.00  0.00     0.060 A 
BRANCH  70  71
ATOM     71  S   UNL     1      12.226 -13.888   7.803  1.00  0.00     0.124 S 
ATOM     72  O   UNL     1      11.562 -14.054   6.513  1.00  0.00    -0.237 OA
ATOM     73  O   UNL     1      13.664 -14.138   7.811  1.00  0.00    -0.237 OA
ATOM     74  O   UNL     1      11.495 -14.405   8.955  1.00  0.00    -0.744 OA
ENDBRANCH  70  71
ENDBRANCH  49  63
BRANCH  50  75
ATOM     75  C   UNL     1      11.196   0.620   9.229  1.00  0.00     0.058 A 
ATOM     76  C   UNL     1      12.319   1.460   9.278  1.00  0.00     0.135 A 
ATOM     77  C   UNL     1       9.930   1.220   9.309  1.00  0.00     0.135 A 
ATOM     78  F   UNL     1      13.552   0.934   9.212  1.00  0.00    -0.206 F 
ATOM     79  C   UNL     1      12.195   2.838   9.415  1.00  0.00     0.059 A 
ATOM     80  C   UNL     1       9.779   2.599   9.419  1.00  0.00     0.059 A 
ATOM     81  F   UNL     1       8.822   0.464   9.249  1.00  0.00    -0.206 F 
ATOM     82  C   UNL     1      10.918   3.399   9.481  1.00  0.00     0.060 A 
BRANCH  82  83
ATOM     83  S   UNL     1      10.768   5.195   9.602  1.00  0.00     0.124 S 
ATOM     84  O   UNL     1      11.197   5.434  10.975  1.00  0.00    -0.237 OA
ATOM     85  O   UNL     1      11.683   5.649   8.559  1.00  0.00    -0.237 OA
ATOM     86  O   UNL     1       9.354   5.433   9.330  1.00  0.00    -0.744 OA
ENDBRANCH  82  83
ENDBRANCH  50  75
BRANCH  62  87
ATOM     87  C   UNL     1      13.711  -4.424  13.347  1.00  0.00     0.058 A 
ATOM     88  C   UNL     1      12.956  -4.189  14.506  1.00  0.00     0.135 A 
ATOM     89  C   UNL     1      15.079  -4.704  13.500  1.00  0.00     0.135 A 
ATOM     90  F   UNL     1      11.646  -3.911  14.415  1.00  0.00    -0.206 F 
ATOM     91  C   UNL     1      13.540  -4.208  15.768  1.00  0.00     0.059 A 
ATOM     92  C   UNL     1      15.677  -4.757  14.754  1.00  0.00     0.059 A 
ATOM     93  F   UNL     1      15.844  -4.948  12.424  1.00  0.00    -0.206 F 
ATOM     94  C   UNL     1      14.901  -4.496  15.882  1.00  0.00     0.060 A 
BRANCH  94  95
ATOM     95  S   UNL     1      15.639  -4.551  17.529  1.00  0.00     0.124 S 
ATOM     96  O   UNL     1      15.691  -3.135  17.875  1.00  0.00    -0.237 OA
ATOM     97  O   UNL     1      14.674  -5.352  18.276  1.00  0.00    -0.237 OA
ATOM     98  O   UNL     1      16.932  -5.190  17.301  1.00  0.00    -0.744 OA
ENDBRANCH  94  95
ENDBRANCH  62  87
ENDBRANCH  36  37
ENDBRANCH  28  31
ENDBRANCH  26  27
ENDBRANCH   1  26
TORSDOF 16
