REMARK SMILES O=C(NCCCNC(=O)[C@H]1CC[C@H]2CCCC[C@@H]2[N@H+]1[C@@H]1CCCSC1)c1ccc(-c2c3nc(c(-c4c(F)cc(S(=O)(=O)[O-])cc4F)c4ccc([nH]4)c(-c4c(F)cc(S(=O)(=O)[O-])cc4F)c4nc(c(-c5c(F)cc(S(=O)(=O)[O-])cc5F)c5ccc2[nH]5)C=C4)C=C3)cc1
REMARK SMILES IDX 4 1 3 2 1 3 2 4 26 6 27 7 91 8 28 9 90 10 29 11 30 12 31 13
REMARK SMILES IDX 84 14 32 15 89 16 83 17 85 18 33 19 88 20 82 21 81 22 34 24
REMARK SMILES IDX 68 25 47 26 67 27 48 28 51 29 66 30 86 31 49 32 50 33 65 35
REMARK SMILES IDX 87 36 52 37 35 38 36 39 45 40 37 41 38 42 44 43 46 44 39 45
REMARK SMILES IDX 40 46 41 47 42 48 43 49 69 50 70 51 79 52 71 53 72 54 78 55
REMARK SMILES IDX 80 56 73 57 74 58 75 59 76 60 77 61 53 62 54 63 63 64 55 65
REMARK SMILES IDX 56 66 62 67 64 68 57 69 58 70 59 71 60 72 61 73 5 74 6 75
REMARK SMILES IDX 7 76 8 77 9 79 10 80 11 81 19 82 12 83 18 84 13 86 17 87
REMARK SMILES IDX 14 88 16 89 15 90 20 91 21 92 25 93 22 94 24 95 23 96
REMARK H PARENT 3 5 85 23 51 34 7 78 19 85
REMARK Flexibility Score: inf
ROOT
ATOM      1  C   UNL     1       4.553  -0.548  -1.049  1.00  0.00     0.118 C 
ENDROOT
BRANCH   1   2
ATOM      2  N   UNL     1       3.102  -0.362  -0.972  1.00  0.00    -0.352 N 
ATOM      3  O   UNL     1       1.113   0.252  -0.119  1.00  0.00    -0.269 OA
ATOM      4  C   UNL     1       2.328   0.408  -0.132  1.00  0.00     0.251 C 
ATOM      5  H   UNL     1       2.591  -0.878  -1.636  1.00  0.00     0.163 HD
BRANCH   4   6
ATOM      6  C   UNL     1       2.961   1.396   0.769  1.00  0.00     0.039 A 
ATOM      7  C   UNL     1       4.066   2.126   0.345  1.00  0.00     0.014 A 
ATOM      8  C   UNL     1       2.453   1.593   2.057  1.00  0.00     0.014 A 
ATOM      9  C   UNL     1       4.807   2.848   1.266  1.00  0.00     0.010 A 
ATOM     10  C   UNL     1       3.120   2.445   2.945  1.00  0.00     0.010 A 
ATOM     11  C   UNL     1       4.338   3.033   2.576  1.00  0.00    -0.014 A 
BRANCH  11  12
ATOM     12  C   UNL     1       5.145   3.870   3.504  1.00  0.00     0.031 A 
ATOM     13  C   UNL     1       5.705   3.303   4.781  1.00  0.00     0.074 A 
ATOM     14  C   UNL     1       5.442   5.133   3.135  1.00  0.00     0.049 A 
ATOM     15  N   UNL     1       6.478   3.880   5.666  1.00  0.00    -0.248 NA
ATOM     16  C   UNL     1       5.345   1.917   5.122  1.00  0.00     0.031 C 
ATOM     17  C   UNL     1       4.946   5.794   1.923  1.00  0.00     0.029 A 
ATOM     18  N   UNL     1       6.266   6.069   3.703  1.00  0.00    -0.354 N 
ATOM     19  C   UNL     1       6.659   2.951   6.684  1.00  0.00     0.074 A 
ATOM     20  C   UNL     1       5.908   1.772   6.314  1.00  0.00     0.031 C 
ATOM     21  C   UNL     1       5.546   6.984   1.790  1.00  0.00     0.029 A 
ATOM     22  C   UNL     1       6.404   7.209   2.946  1.00  0.00     0.049 A 
ATOM     23  H   UNL     1       6.715   5.938   4.569  1.00  0.00     0.167 HD
ATOM     24  C   UNL     1       7.387   3.072   7.821  1.00  0.00     0.037 A 
ATOM     25  C   UNL     1       7.136   8.318   3.158  1.00  0.00     0.037 A 
ATOM     26  C   UNL     1       8.170   4.234   8.157  1.00  0.00     0.049 A 
ATOM     27  C   UNL     1       7.964   8.409   4.404  1.00  0.00     0.074 A 
ATOM     28  C   UNL     1       8.965   4.446   9.271  1.00  0.00     0.029 A 
ATOM     29  N   UNL     1       8.266   5.377   7.376  1.00  0.00    -0.354 N 
ATOM     30  N   UNL     1       8.116   7.520   5.356  1.00  0.00    -0.248 NA
ATOM     31  C   UNL     1       8.709   9.656   4.613  1.00  0.00     0.031 C 
ATOM     32  C   UNL     1       9.518   5.728   9.177  1.00  0.00     0.029 A 
ATOM     33  C   UNL     1       9.100   6.300   7.987  1.00  0.00     0.049 A 
ATOM     34  H   UNL     1       7.809   5.513   6.515  1.00  0.00     0.167 HD
ATOM     35  C   UNL     1       8.984   8.096   6.274  1.00  0.00     0.074 A 
ATOM     36  C   UNL     1       9.338   9.401   5.752  1.00  0.00     0.031 C 
ATOM     37  C   UNL     1       9.441   7.592   7.447  1.00  0.00     0.037 A 
BRANCH  24  38
ATOM     38  C   UNL     1       7.351   1.930   8.800  1.00  0.00     0.058 A 
ATOM     39  C   UNL     1       8.022   0.721   8.559  1.00  0.00     0.135 A 
ATOM     40  C   UNL     1       6.654   2.061  10.013  1.00  0.00     0.135 A 
ATOM     41  F   UNL     1       8.689   0.535   7.409  1.00  0.00    -0.206 F 
ATOM     42  C   UNL     1       7.982  -0.328   9.474  1.00  0.00     0.059 A 
ATOM     43  C   UNL     1       6.619   1.034  10.952  1.00  0.00     0.059 A 
ATOM     44  F   UNL     1       5.995   3.196  10.294  1.00  0.00    -0.206 F 
ATOM     45  C   UNL     1       7.273  -0.164  10.666  1.00  0.00     0.060 A 
BRANCH  45  46
ATOM     46  S   UNL     1       7.220  -1.535  11.840  1.00  0.00     0.124 S 
ATOM     47  O   UNL     1       6.262  -2.429  11.197  1.00  0.00    -0.237 OA
ATOM     48  O   UNL     1       8.605  -1.994  11.851  1.00  0.00    -0.237 OA
ATOM     49  O   UNL     1       6.762  -0.906  13.075  1.00  0.00    -0.744 OA
ENDBRANCH  45  46
ENDBRANCH  24  38
BRANCH  25  50
ATOM     50  C   UNL     1       7.113   9.418   2.159  1.00  0.00     0.058 A 
ATOM     51  C   UNL     1       8.230   9.689   1.357  1.00  0.00     0.135 A 
ATOM     52  C   UNL     1       5.957  10.189   1.957  1.00  0.00     0.135 A 
ATOM     53  F   UNL     1       9.358   8.979   1.515  1.00  0.00    -0.206 F 
ATOM     54  C   UNL     1       8.207  10.691   0.392  1.00  0.00     0.059 A 
ATOM     55  C   UNL     1       5.901  11.177   0.981  1.00  0.00     0.059 A 
ATOM     56  F   UNL     1       4.855   9.953   2.686  1.00  0.00    -0.206 F 
ATOM     57  C   UNL     1       7.035  11.427   0.210  1.00  0.00     0.060 A 
BRANCH  57  58
ATOM     58  S   UNL     1       6.986  12.682  -1.088  1.00  0.00     0.124 S 
ATOM     59  O   UNL     1       7.712  13.779  -0.460  1.00  0.00    -0.237 OA
ATOM     60  O   UNL     1       7.669  12.013  -2.192  1.00  0.00    -0.237 OA
ATOM     61  O   UNL     1       5.556  12.899  -1.288  1.00  0.00    -0.744 OA
ENDBRANCH  57  58
ENDBRANCH  25  50
BRANCH  37  62
ATOM     62  C   UNL     1      10.399   8.448   8.222  1.00  0.00     0.058 A 
ATOM     63  C   UNL     1       9.964   9.576   8.935  1.00  0.00     0.135 A 
ATOM     64  C   UNL     1      11.764   8.127   8.261  1.00  0.00     0.135 A 
ATOM     65  F   UNL     1       8.669   9.928   8.920  1.00  0.00    -0.206 F 
ATOM     66  C   UNL     1      10.858  10.377   9.637  1.00  0.00     0.059 A 
ATOM     67  C   UNL     1      12.672   8.901   8.976  1.00  0.00     0.059 A 
ATOM     68  F   UNL     1      12.226   7.053   7.602  1.00  0.00    -0.206 F 
ATOM     69  C   UNL     1      12.212  10.033   9.647  1.00  0.00     0.060 A 
BRANCH  69  70
ATOM     70  S   UNL     1      13.366  11.072  10.568  1.00  0.00     0.124 S 
ATOM     71  O   UNL     1      13.545  12.192   9.652  1.00  0.00    -0.237 OA
ATOM     72  O   UNL     1      12.622  11.364  11.790  1.00  0.00    -0.237 OA
ATOM     73  O   UNL     1      14.530  10.208  10.743  1.00  0.00    -0.744 OA
ENDBRANCH  69  70
ENDBRANCH  37  62
ENDBRANCH  11  12
ENDBRANCH   4   6
ENDBRANCH   1   2
BRANCH   1  74
ATOM     74  C   UNL     1       4.996  -1.898  -0.518  1.00  0.00     0.042 C 
BRANCH  74  75
ATOM     75  C   UNL     1       4.524  -3.034  -1.395  1.00  0.00     0.118 C 
BRANCH  75  76
ATOM     76  N   UNL     1       5.389  -3.324  -2.513  1.00  0.00    -0.351 N 
ATOM     77  C   UNL     1       5.916  -4.521  -2.902  1.00  0.00     0.278 C 
ATOM     78  H   UNL     1       5.634  -2.551  -3.071  1.00  0.00     0.163 HD
ATOM     79  O   UNL     1       6.396  -4.561  -4.042  1.00  0.00    -0.268 OA
BRANCH  77  80
ATOM     80  C   UNL     1       5.957  -5.771  -1.984  1.00  0.00     0.274 C 
ATOM     81  C   UNL     1       6.554  -5.552  -0.581  1.00  0.00     0.076 C 
ATOM     82  N   UNL     1       4.770  -6.668  -2.070  1.00  0.00    -0.319 N 
ATOM     83  C   UNL     1       6.432  -6.790   0.316  1.00  0.00     0.016 C 
ATOM     84  C   UNL     1       5.004  -7.967  -1.411  1.00  0.00     0.188 C 
ATOM     85  H   UNL     1       4.698  -6.835  -3.073  1.00  0.00     0.349 HD
ATOM     86  C   UNL     1       6.282  -8.044  -0.538  1.00  0.00     0.048 C 
ATOM     87  C   UNL     1       5.080  -9.103  -2.444  1.00  0.00     0.065 C 
ATOM     88  C   UNL     1       6.229  -9.333   0.286  1.00  0.00     0.010 C 
ATOM     89  C   UNL     1       5.112 -10.457  -1.726  1.00  0.00     0.006 C 
ATOM     90  C   UNL     1       6.193 -10.549  -0.644  1.00  0.00     0.001 C 
BRANCH  82  91
ATOM     91  C   UNL     1       3.425  -6.090  -1.833  1.00  0.00     0.194 C 
ATOM     92  C   UNL     1       3.011  -5.945  -0.345  1.00  0.00     0.067 C 
ATOM     93  C   UNL     1       2.334  -6.887  -2.588  1.00  0.00     0.134 C 
ATOM     94  C   UNL     1       1.740  -5.112  -0.169  1.00  0.00     0.017 C 
ATOM     95  S   UNL     1       0.715  -6.033  -2.580  1.00  0.00    -0.156 SA
ATOM     96  C   UNL     1       0.521  -5.772  -0.792  1.00  0.00     0.070 C 
ENDBRANCH  82  91
ENDBRANCH  77  80
ENDBRANCH  75  76
ENDBRANCH  74  75
ENDBRANCH   1  74
TORSDOF 14
