REMARK SMILES C[C@@H]1CC[C@H](C)[N@H+]1Cc1cc2c(cc1Cl)C=C(C(=O)NCCCNC(=O)c1ccc(-c3c4nc(c(-c5c(F)cc(S(=O)(=O)[O-])cc5F)c5ccc([nH]5)c(-c5c(F)cc(S(=O)(=O)[O-])cc5F)c5nc(c(-c6c(F)cc(S(=O)(=O)[O-])cc6F)c6ccc3[nH]6)C=C5)C=C4)cc1)[C@@H](C(F)(F)F)O2
REMARK SMILES IDX 22 1 21 2 20 3 18 4 19 5 17 7 9 8 10 9 14 10 11 11 13 12
REMARK SMILES IDX 15 13 12 14 98 15 16 16 93 17 8 18 7 19 6 20 5 21 4 22 3 23
REMARK SMILES IDX 2 24 1 26 94 27 95 28 96 29 97 30 23 31 24 32 25 33 26 35
REMARK SMILES IDX 27 36 28 37 92 38 29 39 91 40 30 41 31 42 32 43 85 44 33 45
REMARK SMILES IDX 90 46 84 47 86 48 34 49 89 50 83 51 82 52 35 54 69 55 48 56
REMARK SMILES IDX 68 57 49 58 52 59 67 60 87 61 50 62 51 63 66 65 88 66 53 67
REMARK SMILES IDX 36 68 37 69 46 70 38 71 39 72 45 73 47 74 40 75 41 76 42 77
REMARK SMILES IDX 43 78 44 79 70 80 71 81 80 82 72 83 73 84 79 85 81 86 74 87
REMARK SMILES IDX 75 88 76 89 77 90 78 91 54 92 55 93 64 94 56 95 57 96 63 97
REMARK SMILES IDX 65 98 58 99 59 100 60 101 61 102 62 103
REMARK H PARENT 20 6 7 25 24 34 86 53 52 64
REMARK Flexibility Score: inf
ROOT
ATOM      1  C   UNL     1       6.884  -2.864  -8.372  1.00  0.00     0.042 C 
ENDROOT
BRANCH   1   2
ATOM      2  C   UNL     1       6.547  -1.421  -8.711  1.00  0.00     0.118 C 
BRANCH   2   3
ATOM      3  N   UNL     1       5.228  -1.311  -9.315  1.00  0.00    -0.352 N 
ATOM      4  C   UNL     1       4.001  -0.888  -8.941  1.00  0.00     0.251 C 
ATOM      5  O   UNL     1       3.120  -1.008  -9.799  1.00  0.00    -0.270 OA
ATOM      6  H   UNL     1       5.231  -1.630 -10.246  1.00  0.00     0.163 HD
BRANCH   4   7
ATOM      7  C   UNL     1       3.669  -0.290  -7.621  1.00  0.00     0.067 C 
ATOM      8  C   UNL     1       1.366   2.027  -3.783  1.00  0.00     0.029 A 
ATOM      9  C   UNL     1       2.464   1.150  -3.886  1.00  0.00     0.058 A 
ATOM     10  C   UNL     1       0.697   2.379  -4.971  1.00  0.00     0.050 A 
ATOM     11  C   UNL     1       2.828   0.608  -5.115  1.00  0.00     0.128 A 
ATOM     12  C   UNL     1       1.001   1.746  -6.182  1.00  0.00     0.033 A 
ATOM     13  Cl  UNL     1      -0.445   3.675  -5.062  1.00  0.00    -0.084 Cl
ATOM     14  C   UNL     1       2.061   0.849  -6.252  1.00  0.00     0.019 A 
ATOM     15  O   UNL     1       3.963  -0.154  -5.166  1.00  0.00    -0.475 OA
ATOM     16  C   UNL     1       2.415   0.184  -7.498  1.00  0.00     0.025 C 
ATOM     17  C   UNL     1       4.625  -0.136  -6.470  1.00  0.00     0.314 C 
BRANCH   8  18
ATOM     18  C   UNL     1       0.980   2.537  -2.406  1.00  0.00     0.301 C 
BRANCH  18  19
ATOM     19  N   UNL     1      -0.030   1.764  -1.666  1.00  0.00    -0.327 N 
ATOM     20  C   UNL     1       0.979   0.181  -0.051  1.00  0.00     0.075 C 
ATOM     21  C   UNL     1       0.281   0.352  -1.393  1.00  0.00     0.181 C 
ATOM     22  C   UNL     1      -1.069  -0.362  -1.417  1.00  0.00     0.071 C 
ATOM     23  C   UNL     1      -1.852   0.441  -2.433  1.00  0.00     0.071 C 
ATOM     24  C   UNL     1      -1.405   1.871  -2.166  1.00  0.00     0.181 C 
ATOM     25  H   UNL     1       0.022   2.255  -0.774  1.00  0.00     0.348 HD
ATOM     26  C   UNL     1      -2.263   2.563  -1.108  1.00  0.00     0.075 C 
ENDBRANCH  18  19
ENDBRANCH   8  18
BRANCH  17  27
ATOM     27  C   UNL     1       5.503   1.129  -6.615  1.00  0.00     0.429 C 
ATOM     28  F   UNL     1       6.592   1.053  -5.812  1.00  0.00    -0.167 F 
ATOM     29  F   UNL     1       5.966   1.293  -7.879  1.00  0.00    -0.167 F 
ATOM     30  F   UNL     1       4.848   2.271  -6.301  1.00  0.00    -0.167 F 
ENDBRANCH  17  27
ENDBRANCH   4   7
ENDBRANCH   2   3
ENDBRANCH   1   2
BRANCH   1  31
ATOM     31  C   UNL     1       7.185  -3.693  -9.613  1.00  0.00     0.118 C 
BRANCH  31  32
ATOM     32  N   UNL     1       8.403  -3.250 -10.287  1.00  0.00    -0.352 N 
ATOM     33  C   UNL     1       9.647  -3.837 -10.352  1.00  0.00     0.251 C 
ATOM     34  H   UNL     1       8.322  -2.397 -10.771  1.00  0.00     0.163 HD
ATOM     35  O   UNL     1      10.604  -3.191 -10.751  1.00  0.00    -0.269 OA
BRANCH  33  36
ATOM     36  C   UNL     1       9.815  -5.242  -9.924  1.00  0.00     0.039 A 
ATOM     37  C   UNL     1       8.855  -6.194 -10.262  1.00  0.00     0.014 A 
ATOM     38  C   UNL     1      10.935  -5.610  -9.174  1.00  0.00     0.014 A 
ATOM     39  C   UNL     1       8.903  -7.453  -9.683  1.00  0.00     0.010 A 
ATOM     40  C   UNL     1      11.041  -6.917  -8.687  1.00  0.00     0.010 A 
ATOM     41  C   UNL     1       9.999  -7.834  -8.894  1.00  0.00    -0.014 A 
BRANCH  41  42
ATOM     42  C   UNL     1      10.018  -9.197  -8.301  1.00  0.00     0.031 A 
ATOM     43  C   UNL     1      10.019  -9.385  -6.807  1.00  0.00     0.074 A 
ATOM     44  C   UNL     1       9.953 -10.265  -9.121  1.00  0.00     0.049 A 
ATOM     45  N   UNL     1      10.029 -10.498  -6.119  1.00  0.00    -0.248 NA
ATOM     46  C   UNL     1      10.013  -8.171  -5.973  1.00  0.00     0.031 C 
ATOM     47  C   UNL     1       9.926 -10.203 -10.586  1.00  0.00     0.029 A 
ATOM     48  N   UNL     1       9.857 -11.605  -8.849  1.00  0.00    -0.354 N 
ATOM     49  C   UNL     1      10.051 -10.123  -4.781  1.00  0.00     0.074 A 
ATOM     50  C   UNL     1      10.080  -8.678  -4.749  1.00  0.00     0.031 C 
ATOM     51  C   UNL     1       9.749 -11.437 -11.078  1.00  0.00     0.029 A 
ATOM     52  C   UNL     1       9.732 -12.387  -9.973  1.00  0.00     0.049 A 
ATOM     53  H   UNL     1       9.876 -11.973  -7.936  1.00  0.00     0.167 HD
ATOM     54  C   UNL     1      10.036 -10.913  -3.681  1.00  0.00     0.037 A 
ATOM     55  C   UNL     1       9.634 -13.724 -10.105  1.00  0.00     0.037 A 
ATOM     56  C   UNL     1       9.971 -12.351  -3.724  1.00  0.00     0.049 A 
ATOM     57  C   UNL     1       9.662 -14.576  -8.870  1.00  0.00     0.074 A 
ATOM     58  C   UNL     1       9.945 -13.243  -2.665  1.00  0.00     0.029 A 
ATOM     59  N   UNL     1       9.912 -13.109  -4.885  1.00  0.00    -0.354 N 
ATOM     60  N   UNL     1       9.710 -14.202  -7.614  1.00  0.00    -0.248 NA
ATOM     61  C   UNL     1       9.643 -16.031  -9.067  1.00  0.00     0.031 C 
ATOM     62  C   UNL     1       9.904 -14.540  -3.186  1.00  0.00     0.029 A 
ATOM     63  C   UNL     1       9.863 -14.456  -4.569  1.00  0.00     0.049 A 
ATOM     64  H   UNL     1       9.905 -12.742  -5.799  1.00  0.00     0.167 HD
ATOM     65  C   UNL     1       9.721 -15.374  -6.870  1.00  0.00     0.074 A 
ATOM     66  C   UNL     1       9.651 -16.470  -7.816  1.00  0.00     0.031 C 
ATOM     67  C   UNL     1       9.792 -15.530  -5.526  1.00  0.00     0.037 A 
BRANCH  54  68
ATOM     68  C   UNL     1      10.090 -10.251  -2.332  1.00  0.00     0.058 A 
ATOM     69  C   UNL     1       8.978  -9.587  -1.793  1.00  0.00     0.135 A 
ATOM     70  C   UNL     1      11.245 -10.347  -1.537  1.00  0.00     0.135 A 
ATOM     71  F   UNL     1       7.856  -9.449  -2.517  1.00  0.00    -0.206 F 
ATOM     72  C   UNL     1       9.010  -9.036  -0.516  1.00  0.00     0.059 A 
ATOM     73  C   UNL     1      11.292  -9.822  -0.249  1.00  0.00     0.059 A 
ATOM     74  F   UNL     1      12.338 -10.969  -2.007  1.00  0.00    -0.206 F 
ATOM     75  C   UNL     1      10.170  -9.163   0.251  1.00  0.00     0.060 A 
BRANCH  75  76
ATOM     76  S   UNL     1      10.180  -8.467   1.917  1.00  0.00     0.124 S 
ATOM     77  O   UNL     1      10.187  -7.035   1.634  1.00  0.00    -0.237 OA
ATOM     78  O   UNL     1       8.943  -8.995   2.482  1.00  0.00    -0.237 OA
ATOM     79  O   UNL     1      11.409  -8.995   2.501  1.00  0.00    -0.744 OA
ENDBRANCH  75  76
ENDBRANCH  54  68
BRANCH  55  80
ATOM     80  C   UNL     1       9.523 -14.330 -11.458  1.00  0.00     0.058 A 
ATOM     81  C   UNL     1       8.338 -14.950 -11.876  1.00  0.00     0.135 A 
ATOM     82  C   UNL     1      10.592 -14.280 -12.367  1.00  0.00     0.135 A 
ATOM     83  F   UNL     1       7.290 -15.029 -11.041  1.00  0.00    -0.206 F 
ATOM     84  C   UNL     1       8.217 -15.509 -13.145  1.00  0.00     0.059 A 
ATOM     85  C   UNL     1      10.486 -14.805 -13.650  1.00  0.00     0.059 A 
ATOM     86  F   UNL     1      11.743 -13.682 -12.020  1.00  0.00    -0.206 F 
ATOM     87  C   UNL     1       9.297 -15.428 -14.026  1.00  0.00     0.060 A 
BRANCH  87  88
ATOM     88  S   UNL     1       9.115 -16.113 -15.686  1.00  0.00     0.124 S 
ATOM     89  O   UNL     1       9.165 -17.545 -15.419  1.00  0.00    -0.237 OA
ATOM     90  O   UNL     1       7.818 -15.583 -16.096  1.00  0.00    -0.237 OA
ATOM     91  O   UNL     1      10.262 -15.563 -16.403  1.00  0.00    -0.744 OA
ENDBRANCH  87  88
ENDBRANCH  55  80
BRANCH  67  92
ATOM     92  C   UNL     1       9.786 -16.934  -4.995  1.00  0.00     0.058 A 
ATOM     93  C   UNL     1      10.921 -17.754  -5.086  1.00  0.00     0.135 A 
ATOM     94  C   UNL     1       8.657 -17.441  -4.332  1.00  0.00     0.135 A 
ATOM     95  F   UNL     1      12.021 -17.317  -5.719  1.00  0.00    -0.206 F 
ATOM     96  C   UNL     1      10.933 -19.035  -4.547  1.00  0.00     0.059 A 
ATOM     97  C   UNL     1       8.655 -18.710  -3.764  1.00  0.00     0.059 A 
ATOM     98  F   UNL     1       7.549 -16.691  -4.213  1.00  0.00    -0.206 F 
ATOM     99  C   UNL     1       9.797 -19.502  -3.883  1.00  0.00     0.060 A 
BRANCH  99 100
ATOM    100  S   UNL     1       9.846 -21.149  -3.146  1.00  0.00     0.124 S 
ATOM    101  O   UNL     1       9.789 -22.002  -4.329  1.00  0.00    -0.237 OA
ATOM    102  O   UNL     1      11.121 -21.134  -2.436  1.00  0.00    -0.237 OA
ATOM    103  O   UNL     1       8.661 -21.176  -2.294  1.00  0.00    -0.744 OA
ENDBRANCH  99 100
ENDBRANCH  67  92
ENDBRANCH  41  42
ENDBRANCH  33  36
ENDBRANCH  31  32
ENDBRANCH   1  31
TORSDOF 16
