REMARK SMILES Cc1ccc(S(=O)(=O)N2CCCC2)cc1C(=O)N[C@H](CC1=c2ccccc2=NC1)C(=O)NCCCNC(=O)c1ccc(-c2c3nc(c(-c4c(F)cc(S(=O)(=O)[O-])cc4F)c4ccc([nH]4)c(-c4c(F)cc(S(=O)(=O)[O-])cc4F)c4nc(c(-c5c(F)cc(S(=O)(=O)[O-])cc5F)c5ccc2[nH]5)C=C4)C=C3)cc1
REMARK SMILES IDX 33 1 32 2 30 3 31 4 19 6 18 7 16 8 17 9 15 11 1 12 2 13 3 14
REMARK SMILES IDX 4 15 14 16 5 17 6 18 7 19 8 20 9 21 10 22 13 23 11 24 12 25
REMARK SMILES IDX 20 26 21 27 22 28 29 29 23 30 27 31 28 32 24 33 26 34 25 35
REMARK SMILES IDX 34 36 35 37 36 38 37 39 38 41 39 42 40 43 104 44 41 45
REMARK SMILES IDX 103 46 42 47 43 48 44 49 97 50 45 51 102 52 96 53 98 54
REMARK SMILES IDX 46 55 101 56 95 57 94 58 47 60 81 61 60 62 80 63 61 64 64 65
REMARK SMILES IDX 79 66 99 67 62 68 63 69 78 71 100 72 65 73 48 74 49 75 58 76
REMARK SMILES IDX 50 77 51 78 57 79 59 80 52 81 53 82 54 83 55 84 56 85 82 86
REMARK SMILES IDX 83 87 92 88 84 89 85 90 91 91 93 92 86 93 87 94 88 95 89 96
REMARK SMILES IDX 90 97 66 98 67 99 76 100 68 101 69 102 75 103 77 104 70 105
REMARK SMILES IDX 71 106 72 107 73 108 74 109
REMARK H PARENT 32 5 18 10 36 40 98 59 64 70
REMARK Flexibility Score: inf
ROOT
ATOM      1  C   UNL     1       6.325   2.418   0.429  1.00  0.00     0.117 C 
ENDROOT
BRANCH   1   2
ATOM      2  N   UNL     1       5.486   1.612   1.292  1.00  0.00    -0.354 N 
ATOM      3  C   UNL     1       4.225   1.131   1.180  1.00  0.00     0.242 C 
ATOM      4  O   UNL     1       3.885   0.394   2.113  1.00  0.00    -0.273 OA
ATOM      5  H   UNL     1       5.925   1.362   2.137  1.00  0.00     0.163 HD
BRANCH   3   6
ATOM      6  C   UNL     1       3.277   1.334  -0.049  1.00  0.00     0.175 C 
BRANCH   6   7
ATOM      7  N   UNL     1       3.697   2.048  -1.299  1.00  0.00    -0.340 N 
ATOM      8  C   UNL     1       3.906   3.240  -1.935  1.00  0.00     0.252 C 
ATOM      9  O   UNL     1       4.272   3.071  -3.111  1.00  0.00    -0.269 OA
ATOM     10  H   UNL     1       3.922   1.346  -1.952  1.00  0.00     0.164 HD
BRANCH   8  11
ATOM     11  C   UNL     1       3.814   4.676  -1.482  1.00  0.00     0.044 A 
ATOM     12  C   UNL     1       2.436   4.412   0.643  1.00  0.00     0.045 C 
ATOM     13  C   UNL     1       3.157   5.207  -0.367  1.00  0.00    -0.038 A 
ATOM     14  C   UNL     1       3.107   6.601  -0.146  1.00  0.00     0.005 A 
ATOM     15  C   UNL     1       3.717   7.491  -1.007  1.00  0.00     0.022 A 
ATOM     16  C   UNL     1       4.462   5.616  -2.336  1.00  0.00     0.035 A 
ATOM     17  C   UNL     1       4.393   7.000  -2.115  1.00  0.00     0.083 A 
BRANCH  17  18
ATOM     18  S   UNL     1       5.009   8.238  -3.236  1.00  0.00     0.243 S 
ATOM     19  O   UNL     1       3.867   8.582  -4.083  1.00  0.00    -0.207 OA
ATOM     20  O   UNL     1       5.661   9.241  -2.446  1.00  0.00    -0.207 OA
BRANCH  18  21
ATOM     21  N   UNL     1       6.149   7.539  -4.221  1.00  0.00    -0.198 NA
ATOM     22  C   UNL     1       5.793   6.658  -5.337  1.00  0.00     0.102 C 
ATOM     23  C   UNL     1       7.517   7.280  -3.750  1.00  0.00     0.102 C 
ATOM     24  C   UNL     1       6.972   5.699  -5.438  1.00  0.00     0.018 C 
ATOM     25  C   UNL     1       8.136   6.535  -4.930  1.00  0.00     0.018 C 
ENDBRANCH  18  21
ENDBRANCH  17  18
ENDBRANCH   8  11
ENDBRANCH   6   7
BRANCH   6  26
ATOM     26  C   UNL     1       1.714   1.333   0.216  1.00  0.00     0.068 C 
BRANCH  26  27
ATOM     27  C   UNL     1       1.115   1.370   1.612  1.00  0.00    -0.037 C 
ATOM     28  C   UNL     1       0.978   0.378   2.495  1.00  0.00     0.001 A 
ATOM     29  C   UNL     1       0.447   2.599   2.172  1.00  0.00     0.174 C 
ATOM     30  C   UNL     1       1.312  -1.009   2.531  1.00  0.00     0.010 A 
ATOM     31  C   UNL     1       0.341   1.029   3.655  1.00  0.00     0.065 A 
ATOM     32  N   UNL     1      -0.065   2.251   3.513  1.00  0.00    -0.280 NA
ATOM     33  C   UNL     1       1.137  -1.687   3.679  1.00  0.00     0.001 A 
ATOM     34  C   UNL     1       0.227   0.239   4.894  1.00  0.00     0.028 A 
ATOM     35  C   UNL     1       0.632  -1.040   4.878  1.00  0.00     0.002 A 
ENDBRANCH  26  27
ENDBRANCH   6  26
ENDBRANCH   3   6
ENDBRANCH   1   2
BRANCH   1  36
ATOM     36  C   UNL     1       6.135   3.902   0.683  1.00  0.00     0.042 C 
BRANCH  36  37
ATOM     37  C   UNL     1       7.096   4.529   1.685  1.00  0.00     0.118 C 
BRANCH  37  38
ATOM     38  N   UNL     1       7.729   5.697   1.067  1.00  0.00    -0.352 N 
ATOM     39  C   UNL     1       7.939   6.968   1.556  1.00  0.00     0.251 C 
ATOM     40  H   UNL     1       8.059   5.549   0.152  1.00  0.00     0.163 HD
ATOM     41  O   UNL     1       8.207   7.927   0.845  1.00  0.00    -0.269 OA
BRANCH  39  42
ATOM     42  C   UNL     1       8.005   7.079   3.018  1.00  0.00     0.039 A 
ATOM     43  C   UNL     1       9.287   6.930   3.564  1.00  0.00     0.014 A 
ATOM     44  C   UNL     1       6.850   6.831   3.750  1.00  0.00     0.014 A 
ATOM     45  C   UNL     1       9.428   6.279   4.777  1.00  0.00     0.010 A 
ATOM     46  C   UNL     1       6.997   6.119   4.921  1.00  0.00     0.010 A 
ATOM     47  C   UNL     1       8.282   5.779   5.383  1.00  0.00    -0.014 A 
BRANCH  47  48
ATOM     48  C   UNL     1       8.308   4.839   6.490  1.00  0.00     0.031 A 
ATOM     49  C   UNL     1       7.947   5.340   7.830  1.00  0.00     0.074 A 
ATOM     50  C   UNL     1       8.540   3.526   6.264  1.00  0.00     0.049 A 
ATOM     51  N   UNL     1       8.088   4.666   8.914  1.00  0.00    -0.248 NA
ATOM     52  C   UNL     1       7.464   6.702   8.062  1.00  0.00     0.031 C 
ATOM     53  C   UNL     1       8.225   2.409   7.150  1.00  0.00     0.029 A 
ATOM     54  N   UNL     1       9.305   2.949   5.244  1.00  0.00    -0.354 N 
ATOM     55  C   UNL     1       7.472   5.364   9.925  1.00  0.00     0.074 A 
ATOM     56  C   UNL     1       7.211   6.667   9.373  1.00  0.00     0.031 C 
ATOM     57  C   UNL     1       8.961   1.344   6.798  1.00  0.00     0.029 A 
ATOM     58  C   UNL     1       9.897   1.786   5.780  1.00  0.00     0.049 A 
ATOM     59  H   UNL     1       9.410   3.289   4.327  1.00  0.00     0.167 HD
ATOM     60  C   UNL     1       7.149   4.692  11.062  1.00  0.00     0.037 A 
ATOM     61  C   UNL     1      11.255   1.675   5.895  1.00  0.00     0.037 A 
ATOM     62  C   UNL     1       7.881   3.425  11.114  1.00  0.00     0.049 A 
ATOM     63  C   UNL     1      11.735   1.569   7.327  1.00  0.00     0.074 A 
ATOM     64  C   UNL     1       7.530   2.110  10.869  1.00  0.00     0.029 A 
ATOM     65  N   UNL     1       9.273   3.464  11.156  1.00  0.00    -0.354 N 
ATOM     66  N   UNL     1      11.022   1.919   8.363  1.00  0.00    -0.248 NA
ATOM     67  C   UNL     1      13.045   1.048   7.707  1.00  0.00     0.031 C 
ATOM     68  C   UNL     1       8.731   1.380  10.645  1.00  0.00     0.029 A 
ATOM     69  C   UNL     1       9.807   2.239  10.807  1.00  0.00     0.049 A 
ATOM     70  H   UNL     1       9.804   4.256  11.400  1.00  0.00     0.167 HD
ATOM     71  C   UNL     1      11.743   1.719   9.512  1.00  0.00     0.074 A 
ATOM     72  C   UNL     1      12.995   1.149   9.047  1.00  0.00     0.031 C 
ATOM     73  C   UNL     1      11.253   2.047  10.747  1.00  0.00     0.037 A 
BRANCH  60  74
ATOM     74  C   UNL     1       6.040   5.067  12.027  1.00  0.00     0.058 A 
ATOM     75  C   UNL     1       5.764   4.238  13.139  1.00  0.00     0.135 A 
ATOM     76  C   UNL     1       5.118   6.125  11.850  1.00  0.00     0.135 A 
ATOM     77  F   UNL     1       6.545   3.188  13.431  1.00  0.00    -0.206 F 
ATOM     78  C   UNL     1       4.657   4.423  13.975  1.00  0.00     0.059 A 
ATOM     79  C   UNL     1       4.031   6.353  12.696  1.00  0.00     0.059 A 
ATOM     80  F   UNL     1       5.174   6.964  10.812  1.00  0.00    -0.206 F 
ATOM     81  C   UNL     1       3.789   5.481  13.742  1.00  0.00     0.060 A 
BRANCH  81  82
ATOM     82  S   UNL     1       2.333   5.689  14.781  1.00  0.00     0.124 S 
ATOM     83  O   UNL     1       1.528   4.532  14.405  1.00  0.00    -0.237 OA
ATOM     84  O   UNL     1       2.902   5.661  16.124  1.00  0.00    -0.237 OA
ATOM     85  O   UNL     1       1.797   6.982  14.363  1.00  0.00    -0.744 OA
ENDBRANCH  81  82
ENDBRANCH  60  74
BRANCH  61  86
ATOM     86  C   UNL     1      11.984   2.307   4.759  1.00  0.00     0.058 A 
ATOM     87  C   UNL     1      11.877   1.677   3.504  1.00  0.00     0.135 A 
ATOM     88  C   UNL     1      12.305   3.671   4.772  1.00  0.00     0.135 A 
ATOM     89  F   UNL     1      11.600   0.364   3.434  1.00  0.00    -0.206 F 
ATOM     90  C   UNL     1      11.889   2.402   2.317  1.00  0.00     0.059 A 
ATOM     91  C   UNL     1      12.327   4.419   3.591  1.00  0.00     0.059 A 
ATOM     92  F   UNL     1      12.435   4.324   5.937  1.00  0.00    -0.206 F 
ATOM     93  C   UNL     1      12.038   3.786   2.380  1.00  0.00     0.060 A 
BRANCH  93  94
ATOM     94  S   UNL     1      11.648   4.742   0.892  1.00  0.00     0.124 S 
ATOM     95  O   UNL     1      12.671   4.284  -0.041  1.00  0.00    -0.237 OA
ATOM     96  O   UNL     1      10.284   4.301   0.591  1.00  0.00    -0.237 OA
ATOM     97  O   UNL     1      11.771   6.123   1.339  1.00  0.00    -0.744 OA
ENDBRANCH  93  94
ENDBRANCH  61  86
BRANCH  73  98
ATOM     98  C   UNL     1      12.060   2.134  12.029  1.00  0.00     0.058 A 
ATOM     99  C   UNL     1      13.445   2.368  12.081  1.00  0.00     0.135 A 
ATOM    100  C   UNL     1      11.408   2.118  13.289  1.00  0.00     0.135 A 
ATOM    101  F   UNL     1      14.169   2.544  10.967  1.00  0.00    -0.206 F 
ATOM    102  C   UNL     1      14.146   2.483  13.285  1.00  0.00     0.059 A 
ATOM    103  C   UNL     1      12.077   2.295  14.499  1.00  0.00     0.059 A 
ATOM    104  F   UNL     1      10.082   1.944  13.392  1.00  0.00    -0.206 F 
ATOM    105  C   UNL     1      13.454   2.439  14.490  1.00  0.00     0.060 A 
BRANCH 105 106
ATOM    106  S   UNL     1      14.349   2.620  16.043  1.00  0.00     0.124 S 
ATOM    107  O   UNL     1      14.714   1.237  16.329  1.00  0.00    -0.237 OA
ATOM    108  O   UNL     1      15.455   3.502  15.679  1.00  0.00    -0.237 OA
ATOM    109  O   UNL     1      13.356   3.211  16.934  1.00  0.00    -0.744 OA
ENDBRANCH 105 106
ENDBRANCH  73  98
ENDBRANCH  47  48
ENDBRANCH  39  42
ENDBRANCH  37  38
ENDBRANCH  36  37
ENDBRANCH   1  36
TORSDOF 19
