REMARK SMILES CC(C)[C@H]1CC[C@@H](C)/C(=C/c2ccc(NC(=O)CCC(=O)NCCCNC(=O)c3ccc(-c4c5nc(c(-c6c(F)cc(S(=O)(=O)[O-])cc6F)c6ccc([nH]6)c(-c6c(F)cc(S(=O)(=O)[O-])cc6F)c6nc(c(-c7c(F)cc(S(=O)(=O)[O-])cc7F)c7ccc4[nH]7)C=C6)C=C5)cc3)cc2)C1=O
REMARK SMILES IDX 23 1 22 2 20 3 21 4 19 6 18 7 16 8 15 9 17 11 14 12 11 13
REMARK SMILES IDX 12 14 96 15 13 16 95 17 10 18 4 19 5 20 97 21 6 22 9 23
REMARK SMILES IDX 98 24 7 25 8 26 2 27 1 28 3 29 24 30 25 31 26 32 27 33 28 35
REMARK SMILES IDX 29 36 30 37 94 38 31 39 93 40 32 41 33 42 34 43 87 44 35 45
REMARK SMILES IDX 92 46 86 47 88 48 36 49 91 50 85 51 84 52 37 54 71 55 50 56
REMARK SMILES IDX 70 57 51 58 54 59 69 60 89 61 52 62 53 63 68 65 90 66 55 67
REMARK SMILES IDX 38 68 39 69 48 70 40 71 41 72 47 73 49 74 42 75 43 76 44 77
REMARK SMILES IDX 45 78 46 79 72 80 73 81 82 82 74 83 75 84 81 85 83 86 76 87
REMARK SMILES IDX 77 88 78 89 79 90 80 91 56 92 57 93 66 94 58 95 59 96 65 97
REMARK SMILES IDX 67 98 60 99 61 100 62 101 63 102 64 103
REMARK H PARENT 22 5 15 10 26 34 88 53 54 64
REMARK Flexibility Score: inf
ROOT
ATOM      1  C   UNL     1       4.185   5.828  -0.543  1.00  0.00     0.117 C 
ENDROOT
BRANCH   1   2
ATOM      2  N   UNL     1       3.364   4.928  -1.337  1.00  0.00    -0.356 N 
ATOM      3  C   UNL     1       2.708   5.137  -2.514  1.00  0.00     0.220 C 
ATOM      4  O   UNL     1       2.276   4.160  -3.127  1.00  0.00    -0.275 OA
ATOM      5  H   UNL     1       3.266   4.021  -0.966  1.00  0.00     0.163 HD
BRANCH   3   6
ATOM      6  C   UNL     1       2.507   6.536  -3.054  1.00  0.00     0.110 C 
BRANCH   6   7
ATOM      7  C   UNL     1       1.110   7.094  -2.806  1.00  0.00     0.110 C 
BRANCH   7   8
ATOM      8  C   UNL     1       0.795   7.291  -1.339  1.00  0.00     0.224 C 
ATOM      9  N   UNL     1       0.261   6.300  -0.568  1.00  0.00    -0.326 N 
ATOM     10  H   UNL     1       0.113   6.541   0.375  1.00  0.00     0.169 HD
ATOM     11  O   UNL     1       1.137   8.340  -0.782  1.00  0.00    -0.275 OA
BRANCH   9  12
ATOM     12  C   UNL     1      -0.111   4.993  -0.907  1.00  0.00     0.041 A 
ATOM     13  C   UNL     1      -0.563   2.304  -1.556  1.00  0.00    -0.025 A 
ATOM     14  C   UNL     1      -1.022   3.321  -2.395  1.00  0.00     0.010 A 
ATOM     15  C   UNL     1       0.106   2.645  -0.376  1.00  0.00     0.010 A 
ATOM     16  C   UNL     1      -0.801   4.660  -2.069  1.00  0.00     0.027 A 
ATOM     17  C   UNL     1       0.268   3.983  -0.024  1.00  0.00     0.027 A 
BRANCH  13  18
ATOM     18  C   UNL     1      -0.852   0.911  -1.912  1.00  0.00     0.015 C 
ATOM     19  C   UNL     1      -1.312  -0.553   1.365  1.00  0.00     0.063 C 
ATOM     20  C   UNL     1      -1.686  -2.000   1.007  1.00  0.00     0.013 C 
ATOM     21  C   UNL     1      -1.866   0.380   0.292  1.00  0.00     0.162 C 
ATOM     22  C   UNL     1      -1.272  -2.365  -0.427  1.00  0.00     0.009 C 
ATOM     23  C   UNL     1      -1.466   0.026  -1.107  1.00  0.00    -0.001 C 
ATOM     24  O   UNL     1      -2.562   1.363   0.517  1.00  0.00    -0.294 OA
ATOM     25  C   UNL     1      -1.805  -1.388  -1.489  1.00  0.00     0.020 C 
ATOM     26  C   UNL     1      -3.318  -1.520  -1.692  1.00  0.00     0.013 C 
BRANCH  19  27
ATOM     27  C   UNL     1      -1.706  -0.101   2.792  1.00  0.00    -0.007 C 
ATOM     28  C   UNL     1      -3.203  -0.219   3.094  1.00  0.00     0.008 C 
ATOM     29  C   UNL     1      -0.911  -0.859   3.859  1.00  0.00     0.008 C 
ENDBRANCH  19  27
ENDBRANCH  13  18
ENDBRANCH   9  12
ENDBRANCH   7   8
ENDBRANCH   6   7
ENDBRANCH   3   6
ENDBRANCH   1   2
BRANCH   1  30
ATOM     30  C   UNL     1       3.629   6.127   0.846  1.00  0.00     0.042 C 
BRANCH  30  31
ATOM     31  C   UNL     1       3.445   4.917   1.756  1.00  0.00     0.118 C 
BRANCH  31  32
ATOM     32  N   UNL     1       4.690   4.345   2.230  1.00  0.00    -0.352 N 
ATOM     33  C   UNL     1       5.068   4.015   3.512  1.00  0.00     0.251 C 
ATOM     34  H   UNL     1       5.362   4.166   1.534  1.00  0.00     0.163 HD
ATOM     35  O   UNL     1       6.198   3.591   3.715  1.00  0.00    -0.269 OA
BRANCH  33  36
ATOM     36  C   UNL     1       4.134   4.205   4.649  1.00  0.00     0.039 A 
ATOM     37  C   UNL     1       4.610   4.862   5.787  1.00  0.00     0.014 A 
ATOM     38  C   UNL     1       2.821   3.722   4.622  1.00  0.00     0.014 A 
ATOM     39  C   UNL     1       3.761   5.078   6.876  1.00  0.00     0.010 A 
ATOM     40  C   UNL     1       1.958   3.986   5.691  1.00  0.00     0.010 A 
ATOM     41  C   UNL     1       2.420   4.662   6.832  1.00  0.00    -0.014 A 
BRANCH  41  42
ATOM     42  C   UNL     1       1.514   4.925   7.984  1.00  0.00     0.031 A 
ATOM     43  C   UNL     1       0.990   3.788   8.821  1.00  0.00     0.074 A 
ATOM     44  C   UNL     1       1.153   6.190   8.278  1.00  0.00     0.049 A 
ATOM     45  N   UNL     1       0.215   3.827   9.876  1.00  0.00    -0.248 NA
ATOM     46  C   UNL     1       1.371   2.428   8.409  1.00  0.00     0.031 C 
ATOM     47  C   UNL     1       1.551   7.379   7.523  1.00  0.00     0.029 A 
ATOM     48  N   UNL     1       0.369   6.688   9.290  1.00  0.00    -0.354 N 
ATOM     49  C   UNL     1       0.016   2.504  10.253  1.00  0.00     0.074 A 
ATOM     50  C   UNL     1       0.707   1.683   9.281  1.00  0.00     0.031 C 
ATOM     51  C   UNL     1       1.028   8.468   8.109  1.00  0.00     0.029 A 
ATOM     52  C   UNL     1       0.238   8.057   9.267  1.00  0.00     0.049 A 
ATOM     53  H   UNL     1      -0.059   6.118   9.969  1.00  0.00     0.167 HD
ATOM     54  C   UNL     1      -0.658   2.016  11.323  1.00  0.00     0.037 A 
ATOM     55  C   UNL     1      -0.438   8.889  10.084  1.00  0.00     0.037 A 
ATOM     56  C   UNL     1      -1.334   2.832  12.299  1.00  0.00     0.049 A 
ATOM     57  C   UNL     1      -1.177   8.326  11.269  1.00  0.00     0.074 A 
ATOM     58  C   UNL     1      -2.002   2.429  13.443  1.00  0.00     0.029 A 
ATOM     59  N   UNL     1      -1.432   4.214  12.247  1.00  0.00    -0.354 N 
ATOM     60  N   UNL     1      -1.293   7.076  11.649  1.00  0.00    -0.248 NA
ATOM     61  C   UNL     1      -1.865   9.286  12.143  1.00  0.00     0.031 C 
ATOM     62  C   UNL     1      -2.536   3.565  14.062  1.00  0.00     0.029 A 
ATOM     63  C   UNL     1      -2.163   4.679  13.329  1.00  0.00     0.049 A 
ATOM     64  H   UNL     1      -1.039   4.782  11.545  1.00  0.00     0.167 HD
ATOM     65  C   UNL     1      -2.047   7.102  12.817  1.00  0.00     0.074 A 
ATOM     66  C   UNL     1      -2.347   8.492  13.090  1.00  0.00     0.031 C 
ATOM     67  C   UNL     1      -2.453   6.067  13.594  1.00  0.00     0.037 A 
BRANCH  54  68
ATOM     68  C   UNL     1      -0.693   0.522  11.497  1.00  0.00     0.058 A 
ATOM     69  C   UNL     1       0.451  -0.200  11.876  1.00  0.00     0.135 A 
ATOM     70  C   UNL     1      -1.886  -0.195  11.312  1.00  0.00     0.135 A 
ATOM     71  F   UNL     1       1.621   0.434  12.055  1.00  0.00    -0.206 F 
ATOM     72  C   UNL     1       0.423  -1.582  12.029  1.00  0.00     0.059 A 
ATOM     73  C   UNL     1      -1.944  -1.575  11.486  1.00  0.00     0.059 A 
ATOM     74  F   UNL     1      -3.010   0.444  10.953  1.00  0.00    -0.206 F 
ATOM     75  C   UNL     1      -0.779  -2.262  11.828  1.00  0.00     0.060 A 
BRANCH  75  76
ATOM     76  S   UNL     1      -0.797  -4.057  12.019  1.00  0.00     0.124 S 
ATOM     77  O   UNL     1      -0.115  -4.484  10.801  1.00  0.00    -0.237 OA
ATOM     78  O   UNL     1      -0.055  -4.248  13.260  1.00  0.00    -0.237 OA
ATOM     79  O   UNL     1      -2.220  -4.378  12.086  1.00  0.00    -0.744 OA
ENDBRANCH  75  76
ENDBRANCH  54  68
BRANCH  55  80
ATOM     80  C   UNL     1      -0.424  10.354   9.825  1.00  0.00     0.058 A 
ATOM     81  C   UNL     1       0.284  11.231  10.660  1.00  0.00     0.135 A 
ATOM     82  C   UNL     1      -1.111  10.905   8.732  1.00  0.00     0.135 A 
ATOM     83  F   UNL     1       0.950  10.753  11.723  1.00  0.00    -0.206 F 
ATOM     84  C   UNL     1       0.301  12.603  10.430  1.00  0.00     0.059 A 
ATOM     85  C   UNL     1      -1.090  12.270   8.467  1.00  0.00     0.059 A 
ATOM     86  F   UNL     1      -1.793  10.106   7.896  1.00  0.00    -0.206 F 
ATOM     87  C   UNL     1      -0.388  13.113   9.329  1.00  0.00     0.060 A 
BRANCH  87  88
ATOM     88  S   UNL     1      -0.317  14.889   9.008  1.00  0.00     0.124 S 
ATOM     89  O   UNL     1      -1.204  15.410  10.042  1.00  0.00    -0.237 OA
ATOM     90  O   UNL     1       1.104  15.176   9.182  1.00  0.00    -0.237 OA
ATOM     91  O   UNL     1      -0.807  15.002   7.638  1.00  0.00    -0.744 OA
ENDBRANCH  87  88
ENDBRANCH  55  80
BRANCH  67  92
ATOM     92  C   UNL     1      -3.243   6.395  14.831  1.00  0.00     0.058 A 
ATOM     93  C   UNL     1      -4.579   6.818  14.763  1.00  0.00     0.135 A 
ATOM     94  C   UNL     1      -2.670   6.239  16.104  1.00  0.00     0.135 A 
ATOM     95  F   UNL     1      -5.173   6.989  13.571  1.00  0.00    -0.206 F 
ATOM     96  C   UNL     1      -5.314   7.096  15.912  1.00  0.00     0.059 A 
ATOM     97  C   UNL     1      -3.393   6.487  17.267  1.00  0.00     0.059 A 
ATOM     98  F   UNL     1      -1.398   5.827  16.227  1.00  0.00    -0.206 F 
ATOM     99  C   UNL     1      -4.712   6.927  17.160  1.00  0.00     0.060 A 
BRANCH  99 100
ATOM    100  S   UNL     1      -5.684   7.261  18.645  1.00  0.00     0.124 S 
ATOM    101  O   UNL     1      -5.705   8.720  18.660  1.00  0.00    -0.237 OA
ATOM    102  O   UNL     1      -6.955   6.612  18.341  1.00  0.00    -0.237 OA
ATOM    103  O   UNL     1      -4.905   6.633  19.709  1.00  0.00    -0.744 OA
ENDBRANCH  99 100
ENDBRANCH  67  92
ENDBRANCH  41  42
ENDBRANCH  33  36
ENDBRANCH  31  32
ENDBRANCH  30  31
ENDBRANCH   1  30
TORSDOF 18
