REMARK SMILES O=C(NCCCNC(=O)[C@@H]1CN(C(=O)C[NH+]2CCOCC2)C[C@H]1c1ccc2c(c1)OCO2)c1ccc(-c2c3nc(c(-c4c(F)cc(S(=O)(=O)[O-])cc4F)c4ccc([nH]4)c(-c4c(F)cc(S(=O)(=O)[O-])cc4F)c4nc(c(-c5c(F)cc(S(=O)(=O)[O-])cc5F)c5ccc2[nH]5)C=C4)C=C3)cc1
REMARK SMILES IDX 5 1 4 2 3 3 1 4 2 5 33 7 34 8 98 9 35 10 97 11 36 12 37 13
REMARK SMILES IDX 38 14 91 15 39 16 96 17 90 18 92 19 40 20 95 21 89 22 88 23
REMARK SMILES IDX 41 25 75 26 54 27 74 28 55 29 58 30 73 31 93 32 56 33 57 34
REMARK SMILES IDX 72 36 94 37 59 38 42 39 43 40 52 41 44 42 45 43 51 44 53 45
REMARK SMILES IDX 46 46 47 47 48 48 49 49 50 50 76 51 77 52 86 53 78 54 79 55
REMARK SMILES IDX 85 56 87 57 80 58 81 59 82 60 83 61 84 62 60 63 61 64 70 65
REMARK SMILES IDX 62 66 63 67 69 68 71 69 64 70 65 71 66 72 67 73 68 74 6 75
REMARK SMILES IDX 7 76 8 77 9 79 10 80 11 81 23 82 12 83 22 84 24 85 25 86
REMARK SMILES IDX 29 87 26 88 28 89 27 90 30 91 32 92 31 93 13 94 14 95 15 96
REMARK SMILES IDX 16 97 17 98 21 99 18 101 20 102 19 103
REMARK H PARENT 3 6 92 24 58 35 7 78 16 100
REMARK Flexibility Score: inf
ROOT
ATOM      1  C   UNL     1       4.679  -2.385  -0.158  1.00  0.00     0.042 C 
ENDROOT
BRANCH   1   2
ATOM      2  C   UNL     1       4.496  -1.014  -0.797  1.00  0.00     0.118 C 
BRANCH   2   3
ATOM      3  N   UNL     1       3.091  -0.631  -0.893  1.00  0.00    -0.352 N 
ATOM      4  O   UNL     1       1.126   0.206  -0.183  1.00  0.00    -0.269 OA
ATOM      5  C   UNL     1       2.346   0.216  -0.104  1.00  0.00     0.251 C 
ATOM      6  H   UNL     1       2.599  -1.044  -1.639  1.00  0.00     0.163 HD
BRANCH   5   7
ATOM      7  C   UNL     1       3.033   1.117   0.845  1.00  0.00     0.039 A 
ATOM      8  C   UNL     1       4.197   1.777   0.459  1.00  0.00     0.014 A 
ATOM      9  C   UNL     1       2.513   1.302   2.128  1.00  0.00     0.014 A 
ATOM     10  C   UNL     1       4.952   2.448   1.407  1.00  0.00     0.010 A 
ATOM     11  C   UNL     1       3.213   2.087   3.050  1.00  0.00     0.010 A 
ATOM     12  C   UNL     1       4.464   2.627   2.712  1.00  0.00    -0.014 A 
BRANCH  12  13
ATOM     13  C   UNL     1       5.279   3.413   3.674  1.00  0.00     0.031 A 
ATOM     14  C   UNL     1       5.812   2.789   4.936  1.00  0.00     0.074 A 
ATOM     15  C   UNL     1       5.594   4.686   3.358  1.00  0.00     0.049 A 
ATOM     16  N   UNL     1       6.587   3.317   5.848  1.00  0.00    -0.248 NA
ATOM     17  C   UNL     1       5.418   1.400   5.220  1.00  0.00     0.031 C 
ATOM     18  C   UNL     1       5.124   5.398   2.165  1.00  0.00     0.029 A 
ATOM     19  N   UNL     1       6.407   5.594   3.983  1.00  0.00    -0.354 N 
ATOM     20  C   UNL     1       6.747   2.344   6.828  1.00  0.00     0.074 A 
ATOM     21  C   UNL     1       5.972   1.196   6.408  1.00  0.00     0.031 C 
ATOM     22  C   UNL     1       5.715   6.599   2.106  1.00  0.00     0.029 A 
ATOM     23  C   UNL     1       6.545   6.774   3.291  1.00  0.00     0.049 A 
ATOM     24  H   UNL     1       6.851   5.419   4.845  1.00  0.00     0.167 HD
ATOM     25  C   UNL     1       7.477   2.402   7.968  1.00  0.00     0.037 A 
ATOM     26  C   UNL     1       7.253   7.882   3.579  1.00  0.00     0.037 A 
ATOM     27  C   UNL     1       8.270   3.540   8.360  1.00  0.00     0.049 A 
ATOM     28  C   UNL     1       8.062   7.914   4.842  1.00  0.00     0.074 A 
ATOM     29  C   UNL     1       9.073   3.687   9.478  1.00  0.00     0.029 A 
ATOM     30  N   UNL     1       8.363   4.727   7.645  1.00  0.00    -0.354 N 
ATOM     31  N   UNL     1       8.214   6.975   5.746  1.00  0.00    -0.248 NA
ATOM     32  C   UNL     1       8.792   9.154   5.128  1.00  0.00     0.031 C 
ATOM     33  C   UNL     1       9.620   4.975   9.460  1.00  0.00     0.029 A 
ATOM     34  C   UNL     1       9.197   5.614   8.306  1.00  0.00     0.049 A 
ATOM     35  H   UNL     1       7.904   4.910   6.794  1.00  0.00     0.167 HD
ATOM     36  C   UNL     1       9.075   7.504   6.699  1.00  0.00     0.074 A 
ATOM     37  C   UNL     1       9.421   8.838   6.251  1.00  0.00     0.031 C 
ATOM     38  C   UNL     1       9.535   6.937   7.841  1.00  0.00     0.037 A 
BRANCH  25  39
ATOM     39  C   UNL     1       7.435   1.213   8.889  1.00  0.00     0.058 A 
ATOM     40  C   UNL     1       8.071   0.002   8.573  1.00  0.00     0.135 A 
ATOM     41  C   UNL     1       6.775   1.299  10.127  1.00  0.00     0.135 A 
ATOM     42  F   UNL     1       8.702  -0.143   7.397  1.00  0.00    -0.206 F 
ATOM     43  C   UNL     1       8.030  -1.089   9.436  1.00  0.00     0.059 A 
ATOM     44  C   UNL     1       6.743   0.229  11.017  1.00  0.00     0.059 A 
ATOM     45  F   UNL     1       6.151   2.433  10.482  1.00  0.00    -0.206 F 
ATOM     46  C   UNL     1       7.361  -0.967  10.655  1.00  0.00     0.060 A 
BRANCH  46  47
ATOM     47  S   UNL     1       7.310  -2.394  11.761  1.00  0.00     0.124 S 
ATOM     48  O   UNL     1       6.349  -3.255  11.078  1.00  0.00    -0.237 OA
ATOM     49  O   UNL     1       8.695  -2.853  11.743  1.00  0.00    -0.237 OA
ATOM     50  O   UNL     1       6.857  -1.827  13.027  1.00  0.00    -0.744 OA
ENDBRANCH  46  47
ENDBRANCH  25  39
BRANCH  26  51
ATOM     51  C   UNL     1       7.226   9.039   2.648  1.00  0.00     0.058 A 
ATOM     52  C   UNL     1       8.357   9.391   1.898  1.00  0.00     0.135 A 
ATOM     53  C   UNL     1       6.057   9.796   2.465  1.00  0.00     0.135 A 
ATOM     54  F   UNL     1       9.497   8.698   2.039  1.00  0.00    -0.206 F 
ATOM     55  C   UNL     1       8.337  10.460   1.009  1.00  0.00     0.059 A 
ATOM     56  C   UNL     1       6.004  10.851   1.561  1.00  0.00     0.059 A 
ATOM     57  F   UNL     1       4.941   9.485   3.143  1.00  0.00    -0.206 F 
ATOM     58  C   UNL     1       7.153  11.183   0.846  1.00  0.00     0.060 A 
BRANCH  58  59
ATOM     59  S   UNL     1       7.119  12.536  -0.349  1.00  0.00     0.124 S 
ATOM     60  O   UNL     1       7.857  13.573   0.364  1.00  0.00    -0.237 OA
ATOM     61  O   UNL     1       7.795  11.947  -1.501  1.00  0.00    -0.237 OA
ATOM     62  O   UNL     1       5.692  12.786  -0.530  1.00  0.00    -0.744 OA
ENDBRANCH  58  59
ENDBRANCH  26  51
BRANCH  38  63
ATOM     63  C   UNL     1      10.499   7.746   8.661  1.00  0.00     0.058 A 
ATOM     64  C   UNL     1      10.082   8.858   9.409  1.00  0.00     0.135 A 
ATOM     65  C   UNL     1      11.856   7.391   8.711  1.00  0.00     0.135 A 
ATOM     66  F   UNL     1       8.796   9.243   9.388  1.00  0.00    -0.206 F 
ATOM     67  C   UNL     1      10.984   9.611  10.153  1.00  0.00     0.059 A 
ATOM     68  C   UNL     1      12.771   8.113   9.470  1.00  0.00     0.059 A 
ATOM     69  F   UNL     1      12.304   6.329   8.022  1.00  0.00    -0.206 F 
ATOM     70  C   UNL     1      12.328   9.232  10.174  1.00  0.00     0.060 A 
BRANCH  70  71
ATOM     71  S   UNL     1      13.490  10.209  11.150  1.00  0.00     0.124 S 
ATOM     72  O   UNL     1      13.674  11.380  10.300  1.00  0.00    -0.237 OA
ATOM     73  O   UNL     1      12.750  10.434  12.388  1.00  0.00    -0.237 OA
ATOM     74  O   UNL     1      14.650   9.332  11.272  1.00  0.00    -0.744 OA
ENDBRANCH  70  71
ENDBRANCH  38  63
ENDBRANCH  12  13
ENDBRANCH   5   7
ENDBRANCH   2   3
ENDBRANCH   1   2
BRANCH   1  75
ATOM     75  C   UNL     1       4.026  -3.493  -0.967  1.00  0.00     0.117 C 
BRANCH  75  76
ATOM     76  N   UNL     1       4.639  -3.606  -2.280  1.00  0.00    -0.356 N 
ATOM     77  C   UNL     1       5.421  -4.585  -2.800  1.00  0.00     0.225 C 
ATOM     78  H   UNL     1       4.459  -2.853  -2.888  1.00  0.00     0.163 HD
ATOM     79  O   UNL     1       5.844  -4.438  -3.947  1.00  0.00    -0.275 OA
BRANCH  77  80
ATOM     80  C   UNL     1       5.695  -5.840  -2.001  1.00  0.00     0.107 C 
ATOM     81  C   UNL     1       7.177  -6.149  -2.048  1.00  0.00     0.133 C 
ATOM     82  C   UNL     1       4.992  -7.051  -2.656  1.00  0.00     0.053 C 
ATOM     83  N   UNL     1       7.295  -7.575  -2.249  1.00  0.00    -0.336 N 
ATOM     84  C   UNL     1       6.002  -8.197  -2.486  1.00  0.00     0.129 C 
BRANCH  82  85
ATOM     85  C   UNL     1       3.597  -7.196  -2.058  1.00  0.00    -0.038 A 
ATOM     86  C   UNL     1       2.605  -6.250  -2.435  1.00  0.00     0.008 A 
ATOM     87  C   UNL     1       3.287  -8.122  -1.051  1.00  0.00     0.054 A 
ATOM     88  C   UNL     1       1.380  -6.160  -1.767  1.00  0.00     0.051 A 
ATOM     89  C   UNL     1       2.061  -8.023  -0.423  1.00  0.00     0.166 A 
ATOM     90  C   UNL     1       1.143  -7.057  -0.754  1.00  0.00     0.165 A 
ATOM     91  O   UNL     1       1.636  -8.813   0.600  1.00  0.00    -0.454 OA
ATOM     92  O   UNL     1       0.035  -7.101   0.030  1.00  0.00    -0.454 OA
ATOM     93  C   UNL     1       0.369  -8.195   0.909  1.00  0.00     0.468 C 
ENDBRANCH  82  85
BRANCH  83  94
ATOM     94  C   UNL     1       8.459  -8.322  -2.210  1.00  0.00     0.277 C 
ATOM     95  O   UNL     1       8.437  -9.542  -2.387  1.00  0.00    -0.268 OA
BRANCH  94  96
ATOM     96  C   UNL     1       9.773  -7.569  -1.939  1.00  0.00     0.363 C 
BRANCH  96  97
ATOM     97  N   UNL     1      10.693  -7.419  -3.088  1.00  0.00    -0.323 N 
ATOM     98  C   UNL     1      11.340  -6.090  -3.104  1.00  0.00     0.291 C 
ATOM     99  C   UNL     1      10.177  -7.715  -4.433  1.00  0.00     0.291 C 
ATOM    100  H   UNL     1      11.362  -8.165  -2.901  1.00  0.00     0.348 HD
ATOM    101  C   UNL     1      10.465  -4.989  -3.726  1.00  0.00     0.221 C 
ATOM    102  C   UNL     1       9.360  -6.589  -5.085  1.00  0.00     0.221 C 
ATOM    103  O   UNL     1      10.052  -5.335  -5.052  1.00  0.00    -0.370 OA
ENDBRANCH  96  97
ENDBRANCH  94  96
ENDBRANCH  83  94
ENDBRANCH  77  80
ENDBRANCH  75  76
ENDBRANCH   1  75
TORSDOF 17
