REMARK SMILES CC(C)Oc1ccc(-c2ccc(/C(=C\c3ccc(S(C)(=O)=O)cc3)C(=O)NCCCNC(=O)c3ccc(-c4c5nc(c(-c6c(F)cc(S(=O)(=O)[O-])cc6F)c6ccc([nH]6)c(-c6c(F)cc(S(=O)(=O)[O-])cc6F)c6nc(c(-c7c(F)cc(S(=O)(=O)[O-])cc7F)c7ccc4[nH]7)C=C6)C=C5)cc3)cc2)cc1
REMARK SMILES IDX 28 1 27 2 25 3 26 4 13 6 14 7 12 8 9 9 10 10 101 11 11 12
REMARK SMILES IDX 100 13 8 14 5 15 6 16 103 17 7 18 102 19 4 20 2 21 1 22 3 23
REMARK SMILES IDX 15 24 16 25 24 26 17 27 23 28 18 29 19 30 20 31 21 32 22 33
REMARK SMILES IDX 29 34 30 35 31 36 32 37 33 39 34 40 35 41 99 42 36 43 98 44
REMARK SMILES IDX 37 45 38 46 39 47 92 48 40 49 97 50 91 51 93 52 41 53 96 54
REMARK SMILES IDX 90 55 89 56 42 58 76 59 55 60 75 61 56 62 59 63 74 64 94 65
REMARK SMILES IDX 57 66 58 67 73 69 95 70 60 71 43 72 44 73 53 74 45 75 46 76
REMARK SMILES IDX 52 77 54 78 47 79 48 80 49 81 50 82 51 83 77 84 78 85 87 86
REMARK SMILES IDX 79 87 80 88 86 89 88 90 81 91 82 92 83 93 84 94 85 95 61 96
REMARK SMILES IDX 62 97 71 98 63 99 64 100 70 101 72 102 65 103 66 104 67 105
REMARK SMILES IDX 68 106 69 107
REMARK H PARENT 27 5 31 38 93 57 59 68
REMARK Flexibility Score: inf
ROOT
ATOM      1  C   UNL     1      -9.075   7.782   5.470  1.00  0.00     0.118 C 
ENDROOT
BRANCH   1   2
ATOM      2  N   UNL     1      -8.391   7.666   4.196  1.00  0.00    -0.352 N 
ATOM      3  C   UNL     1      -7.387   6.886   3.712  1.00  0.00     0.251 C 
ATOM      4  O   UNL     1      -7.097   7.119   2.536  1.00  0.00    -0.269 OA
ATOM      5  H   UNL     1      -8.733   8.300   3.525  1.00  0.00     0.163 HD
BRANCH   3   6
ATOM      6  C   UNL     1      -6.710   5.769   4.498  1.00  0.00     0.047 C 
ATOM      7  C   UNL     1      -6.621   5.894   5.846  1.00  0.00     0.022 C 
BRANCH   6   8
ATOM      8  C   UNL     1      -6.006   4.657   3.760  1.00  0.00    -0.013 A 
ATOM      9  C   UNL     1      -4.282   2.680   2.564  1.00  0.00    -0.018 A 
ATOM     10  C   UNL     1      -5.021   2.414   3.724  1.00  0.00     0.009 A 
ATOM     11  C   UNL     1      -4.502   3.923   1.961  1.00  0.00     0.009 A 
ATOM     12  C   UNL     1      -5.907   3.356   4.269  1.00  0.00     0.009 A 
ATOM     13  C   UNL     1      -5.318   4.896   2.562  1.00  0.00     0.009 A 
BRANCH   9  14
ATOM     14  C   UNL     1      -3.312   1.704   2.018  1.00  0.00    -0.018 A 
ATOM     15  C   UNL     1      -1.449  -0.167   0.971  1.00  0.00     0.119 A 
ATOM     16  C   UNL     1      -2.585  -0.602   1.647  1.00  0.00     0.047 A 
ATOM     17  C   UNL     1      -1.245   1.195   0.797  1.00  0.00     0.047 A 
ATOM     18  C   UNL     1      -3.502   0.320   2.164  1.00  0.00     0.012 A 
ATOM     19  C   UNL     1      -2.155   2.118   1.331  1.00  0.00     0.012 A 
BRANCH  15  20
ATOM     20  O   UNL     1      -0.678  -1.137   0.406  1.00  0.00    -0.491 OA
BRANCH  20  21
ATOM     21  C   UNL     1       0.731  -1.165   0.678  1.00  0.00     0.167 C 
ATOM     22  C   UNL     1       1.529  -0.167  -0.154  1.00  0.00     0.052 C 
ATOM     23  C   UNL     1       1.083  -1.122   2.163  1.00  0.00     0.052 C 
ENDBRANCH  20  21
ENDBRANCH  15  20
ENDBRANCH   9  14
ENDBRANCH   6   8
BRANCH   7  24
ATOM     24  C   UNL     1      -6.155   4.927   6.851  1.00  0.00    -0.025 A 
ATOM     25  C   UNL     1      -7.123   4.239   7.602  1.00  0.00     0.009 A 
ATOM     26  C   UNL     1      -4.801   4.622   7.020  1.00  0.00     0.009 A 
ATOM     27  C   UNL     1      -6.748   3.213   8.471  1.00  0.00     0.021 A 
ATOM     28  C   UNL     1      -4.420   3.593   7.887  1.00  0.00     0.021 A 
ATOM     29  C   UNL     1      -5.396   2.892   8.601  1.00  0.00     0.067 A 
BRANCH  29  30
ATOM     30  S   UNL     1      -4.936   1.506   9.616  1.00  0.00     0.175 S 
ATOM     31  C   UNL     1      -5.053   2.137  11.268  1.00  0.00     0.163 C 
ATOM     32  O   UNL     1      -5.957   0.491   9.442  1.00  0.00    -0.224 OA
ATOM     33  O   UNL     1      -3.541   1.204   9.348  1.00  0.00    -0.224 OA
ENDBRANCH  29  30
ENDBRANCH   7  24
ENDBRANCH   3   6
ENDBRANCH   1   2
BRANCH   1  34
ATOM     34  C   UNL     1      -8.510   8.946   6.287  1.00  0.00     0.042 C 
BRANCH  34  35
ATOM     35  C   UNL     1      -8.865  10.316   5.716  1.00  0.00     0.118 C 
BRANCH  35  36
ATOM     36  N   UNL     1     -10.297  10.566   5.771  1.00  0.00    -0.352 N 
ATOM     37  C   UNL     1     -10.996  11.517   6.469  1.00  0.00     0.251 C 
ATOM     38  H   UNL     1     -10.848   9.960   5.225  1.00  0.00     0.163 HD
ATOM     39  O   UNL     1     -12.207  11.377   6.621  1.00  0.00    -0.269 OA
BRANCH  37  40
ATOM     40  C   UNL     1     -10.307  12.702   7.024  1.00  0.00     0.039 A 
ATOM     41  C   UNL     1     -10.738  13.224   8.246  1.00  0.00     0.014 A 
ATOM     42  C   UNL     1      -9.289  13.343   6.311  1.00  0.00     0.014 A 
ATOM     43  C   UNL     1     -10.130  14.370   8.764  1.00  0.00     0.010 A 
ATOM     44  C   UNL     1      -8.627  14.432   6.869  1.00  0.00     0.010 A 
ATOM     45  C   UNL     1      -9.058  14.974   8.088  1.00  0.00    -0.014 A 
BRANCH  45  46
ATOM     46  C   UNL     1      -8.414  16.207   8.608  1.00  0.00     0.031 A 
ATOM     47  C   UNL     1      -8.479  17.479   7.801  1.00  0.00     0.074 A 
ATOM     48  C   UNL     1      -7.742  16.172   9.775  1.00  0.00     0.049 A 
ATOM     49  N   UNL     1      -7.912  18.635   8.034  1.00  0.00    -0.248 NA
ATOM     50  C   UNL     1      -9.262  17.439   6.554  1.00  0.00     0.031 C 
ATOM     51  C   UNL     1      -7.581  14.990  10.626  1.00  0.00     0.029 A 
ATOM     52  N   UNL     1      -7.060  17.156  10.446  1.00  0.00    -0.354 N 
ATOM     53  C   UNL     1      -8.266  19.452   6.966  1.00  0.00     0.074 A 
ATOM     54  C   UNL     1      -9.037  18.643   6.049  1.00  0.00     0.031 C 
ATOM     55  C   UNL     1      -6.866  15.324  11.713  1.00  0.00     0.029 A 
ATOM     56  C   UNL     1      -6.481  16.728  11.619  1.00  0.00     0.049 A 
ATOM     57  H   UNL     1      -6.991  18.082  10.119  1.00  0.00     0.167 HD
ATOM     58  C   UNL     1      -8.002  20.767   6.782  1.00  0.00     0.037 A 
ATOM     59  C   UNL     1      -5.718  17.392  12.508  1.00  0.00     0.037 A 
ATOM     60  C   UNL     1      -7.256  21.573   7.713  1.00  0.00     0.049 A 
ATOM     61  C   UNL     1      -5.423  18.851  12.267  1.00  0.00     0.074 A 
ATOM     62  C   UNL     1      -6.950  22.920   7.633  1.00  0.00     0.029 A 
ATOM     63  N   UNL     1      -6.712  21.109   8.901  1.00  0.00    -0.354 N 
ATOM     64  N   UNL     1      -5.797  19.615  11.268  1.00  0.00    -0.248 NA
ATOM     65  C   UNL     1      -4.613  19.541  13.280  1.00  0.00     0.031 C 
ATOM     66  C   UNL     1      -6.188  23.263   8.753  1.00  0.00     0.029 A 
ATOM     67  C   UNL     1      -6.069  22.143   9.560  1.00  0.00     0.049 A 
ATOM     68  H   UNL     1      -6.773  20.182   9.227  1.00  0.00     0.167 HD
ATOM     69  C   UNL     1      -5.309  20.886  11.559  1.00  0.00     0.074 A 
ATOM     70  C   UNL     1      -4.622  20.787  12.829  1.00  0.00     0.031 C 
ATOM     71  C   UNL     1      -5.420  22.031  10.842  1.00  0.00     0.037 A 
BRANCH  58  72
ATOM     72  C   UNL     1      -8.544  21.430   5.544  1.00  0.00     0.058 A 
ATOM     73  C   UNL     1      -9.919  21.666   5.384  1.00  0.00     0.135 A 
ATOM     74  C   UNL     1      -7.680  21.898   4.541  1.00  0.00     0.135 A 
ATOM     75  F   UNL     1     -10.793  21.221   6.301  1.00  0.00    -0.206 F 
ATOM     76  C   UNL     1     -10.419  22.332   4.270  1.00  0.00     0.059 A 
ATOM     77  C   UNL     1      -8.155  22.593   3.433  1.00  0.00     0.059 A 
ATOM     78  F   UNL     1      -6.356  21.695   4.640  1.00  0.00    -0.206 F 
ATOM     79  C   UNL     1      -9.528  22.800   3.304  1.00  0.00     0.060 A 
BRANCH  79  80
ATOM     80  S   UNL     1     -10.193  23.705   1.891  1.00  0.00     0.124 S 
ATOM     81  O   UNL     1     -10.873  22.642   1.158  1.00  0.00    -0.237 OA
ATOM     82  O   UNL     1     -11.061  24.687   2.533  1.00  0.00    -0.237 OA
ATOM     83  O   UNL     1      -9.004  24.250   1.244  1.00  0.00    -0.744 OA
ENDBRANCH  79  80
ENDBRANCH  58  72
BRANCH  59  84
ATOM     84  C   UNL     1      -5.182  16.701  13.714  1.00  0.00     0.058 A 
ATOM     85  C   UNL     1      -5.600  17.063  15.004  1.00  0.00     0.135 A 
ATOM     86  C   UNL     1      -4.207  15.697  13.604  1.00  0.00     0.135 A 
ATOM     87  F   UNL     1      -6.531  18.017  15.164  1.00  0.00    -0.206 F 
ATOM     88  C   UNL     1      -5.036  16.495  16.142  1.00  0.00     0.059 A 
ATOM     89  C   UNL     1      -3.653  15.089  14.726  1.00  0.00     0.059 A 
ATOM     90  F   UNL     1      -3.788  15.294  12.395  1.00  0.00    -0.206 F 
ATOM     91  C   UNL     1      -4.056  15.513  15.992  1.00  0.00     0.060 A 
BRANCH  91  92
ATOM     92  S   UNL     1      -3.319  14.790  17.473  1.00  0.00     0.124 S 
ATOM     93  O   UNL     1      -2.476  15.883  17.943  1.00  0.00    -0.237 OA
ATOM     94  O   UNL     1      -4.494  14.492  18.286  1.00  0.00    -0.237 OA
ATOM     95  O   UNL     1      -2.610  13.622  16.957  1.00  0.00    -0.744 OA
ENDBRANCH  91  92
ENDBRANCH  59  84
BRANCH  71  96
ATOM     96  C   UNL     1      -4.855  23.287  11.448  1.00  0.00     0.058 A 
ATOM     97  C   UNL     1      -3.474  23.502  11.569  1.00  0.00     0.135 A 
ATOM     98  C   UNL     1      -5.718  24.310  11.877  1.00  0.00     0.135 A 
ATOM     99  F   UNL     1      -2.605  22.555  11.178  1.00  0.00    -0.206 F 
ATOM    100  C   UNL     1      -2.968  24.671  12.127  1.00  0.00     0.059 A 
ATOM    101  C   UNL     1      -5.233  25.501  12.405  1.00  0.00     0.059 A 
ATOM    102  F   UNL     1      -7.048  24.162  11.771  1.00  0.00    -0.206 F 
ATOM    103  C   UNL     1      -3.856  25.665  12.542  1.00  0.00     0.060 A 
BRANCH 103 104
ATOM    104  S   UNL     1      -3.186  27.186  13.245  1.00  0.00     0.124 S 
ATOM    105  O   UNL     1      -2.731  26.729  14.553  1.00  0.00    -0.237 OA
ATOM    106  O   UNL     1      -2.134  27.532  12.293  1.00  0.00    -0.237 OA
ATOM    107  O   UNL     1      -4.332  28.090  13.259  1.00  0.00    -0.744 OA
ENDBRANCH 103 104
ENDBRANCH  71  96
ENDBRANCH  45  46
ENDBRANCH  37  40
ENDBRANCH  35  36
ENDBRANCH  34  35
ENDBRANCH   1  34
TORSDOF 19
