REMARK SMILES CC1(C)CCC[C@H]1NC(=O)N[C@@H]1COC[C@@]1(C)C(=O)NCCCNC(=O)c1ccc(-c2c3nc(c(-c4c(F)cc(S(=O)(=O)[O-])cc4F)c4ccc([nH]4)c(-c4c(F)cc(S(=O)(=O)[O-])cc4F)c4nc(c(-c5c(F)cc(S(=O)(=O)[O-])cc5F)c5ccc2[nH]5)C=C4)C=C3)cc1
REMARK SMILES IDX 22 1 21 2 20 3 18 4 19 5 16 7 12 8 13 9 14 10 15 11 17 12
REMARK SMILES IDX 11 13 8 14 9 15 10 17 7 19 1 20 2 21 3 22 4 23 5 24 6 25
REMARK SMILES IDX 23 26 24 27 25 28 26 30 27 31 28 32 92 33 29 34 91 35 30 36
REMARK SMILES IDX 31 37 32 38 85 39 33 40 90 41 84 42 86 43 34 44 89 45 83 46
REMARK SMILES IDX 82 47 35 49 69 50 48 51 68 52 49 53 52 54 67 55 87 56 50 57
REMARK SMILES IDX 51 58 66 60 88 61 53 62 36 63 37 64 46 65 38 66 39 67 45 68
REMARK SMILES IDX 47 69 40 70 41 71 42 72 43 73 44 74 70 75 71 76 80 77 72 78
REMARK SMILES IDX 73 79 79 80 81 81 74 82 75 83 76 84 77 85 78 86 54 87 55 88
REMARK SMILES IDX 64 89 56 90 57 91 63 92 65 93 58 94 59 95 60 96 61 97 62 98
REMARK H PARENT 20 6 8 16 11 18 24 29 86 48 52 59
REMARK Flexibility Score: inf
ROOT
ATOM      1  C   UNL     1       3.774   2.342   2.575  1.00  0.00     0.042 C 
ENDROOT
BRANCH   1   2
ATOM      2  C   UNL     1       3.437   3.677   1.909  1.00  0.00     0.117 C 
BRANCH   2   3
ATOM      3  N   UNL     1       3.852   3.851   0.525  1.00  0.00    -0.355 N 
ATOM      4  C   UNL     1       3.163   3.768  -0.651  1.00  0.00     0.230 C 
ATOM      5  O   UNL     1       3.701   4.291  -1.632  1.00  0.00    -0.274 OA
ATOM      6  H   UNL     1       4.806   4.068   0.417  1.00  0.00     0.163 HD
BRANCH   4   7
ATOM      7  C   UNL     1       1.851   2.982  -0.787  1.00  0.00     0.092 C 
ATOM      8  C   UNL     1       0.603   3.656  -0.184  1.00  0.00     0.127 C 
ATOM      9  C   UNL     1      -0.495   3.589  -1.243  1.00  0.00     0.186 C 
ATOM     10  O   UNL     1       0.015   2.803  -2.320  1.00  0.00    -0.378 OA
ATOM     11  C   UNL     1       1.444   2.942  -2.279  1.00  0.00     0.179 C 
ATOM     12  C   UNL     1       2.146   1.562  -0.349  1.00  0.00     0.026 C 
BRANCH   8  13
ATOM     13  N   UNL     1       0.135   3.317   1.165  1.00  0.00    -0.332 N 
ATOM     14  N   UNL     1      -0.624   1.079   1.490  1.00  0.00    -0.335 N 
ATOM     15  C   UNL     1      -0.339   2.312   1.892  1.00  0.00     0.315 C 
ATOM     16  H   UNL     1      -0.727   0.468   2.254  1.00  0.00     0.165 HD
ATOM     17  O   UNL     1      -0.509   2.562   3.090  1.00  0.00    -0.249 OA
ATOM     18  H   UNL     1       0.194   4.120   1.732  1.00  0.00     0.165 HD
BRANCH  14  19
ATOM     19  C   UNL     1      -0.825   0.382   0.221  1.00  0.00     0.089 C 
ATOM     20  C   UNL     1       1.034  -1.289   1.090  1.00  0.00     0.013 C 
ATOM     21  C   UNL     1      -0.191  -1.055   0.190  1.00  0.00    -0.015 C 
ATOM     22  C   UNL     1       0.181  -1.459  -1.258  1.00  0.00     0.013 C 
ATOM     23  C   UNL     1      -1.347  -1.942   0.682  1.00  0.00     0.008 C 
ATOM     24  C   UNL     1      -2.571  -1.360   0.003  1.00  0.00     0.003 C 
ATOM     25  C   UNL     1      -2.344   0.150   0.022  1.00  0.00     0.025 C 
ENDBRANCH  14  19
ENDBRANCH   8  13
ENDBRANCH   4   7
ENDBRANCH   2   3
ENDBRANCH   1   2
BRANCH   1  26
ATOM     26  C   UNL     1       5.255   2.018   2.728  1.00  0.00     0.118 C 
BRANCH  26  27
ATOM     27  N   UNL     1       5.946   2.972   3.574  1.00  0.00    -0.352 N 
ATOM     28  C   UNL     1       6.466   2.867   4.838  1.00  0.00     0.251 C 
ATOM     29  H   UNL     1       6.063   3.860   3.164  1.00  0.00     0.163 HD
ATOM     30  O   UNL     1       6.759   3.912   5.420  1.00  0.00    -0.269 OA
BRANCH  28  31
ATOM     31  C   UNL     1       6.699   1.566   5.520  1.00  0.00     0.039 A 
ATOM     32  C   UNL     1       6.641   1.546   6.920  1.00  0.00     0.014 A 
ATOM     33  C   UNL     1       7.097   0.409   4.844  1.00  0.00     0.014 A 
ATOM     34  C   UNL     1       6.970   0.386   7.629  1.00  0.00     0.010 A 
ATOM     35  C   UNL     1       7.356  -0.773   5.550  1.00  0.00     0.010 A 
ATOM     36  C   UNL     1       7.322  -0.791   6.951  1.00  0.00    -0.014 A 
BRANCH  36  37
ATOM     37  C   UNL     1       7.666  -2.022   7.716  1.00  0.00     0.031 A 
ATOM     38  C   UNL     1       9.060  -2.595   7.683  1.00  0.00     0.074 A 
ATOM     39  C   UNL     1       6.711  -2.641   8.436  1.00  0.00     0.049 A 
ATOM     40  N   UNL     1       9.546  -3.627   8.327  1.00  0.00    -0.248 NA
ATOM     41  C   UNL     1      10.027  -1.940   6.790  1.00  0.00     0.031 C 
ATOM     42  C   UNL     1       5.306  -2.234   8.495  1.00  0.00     0.029 A 
ATOM     43  N   UNL     1       6.774  -3.743   9.252  1.00  0.00    -0.354 N 
ATOM     44  C   UNL     1      10.867  -3.753   7.911  1.00  0.00     0.074 A 
ATOM     45  C   UNL     1      11.090  -2.721   6.920  1.00  0.00     0.031 C 
ATOM     46  C   UNL     1       4.644  -3.062   9.319  1.00  0.00     0.029 A 
ATOM     47  C   UNL     1       5.571  -4.067   9.832  1.00  0.00     0.049 A 
ATOM     48  H   UNL     1       7.602  -4.252   9.408  1.00  0.00     0.167 HD
ATOM     49  C   UNL     1      11.812  -4.632   8.326  1.00  0.00     0.037 A 
ATOM     50  C   UNL     1       5.245  -5.057  10.686  1.00  0.00     0.037 A 
ATOM     51  C   UNL     1      11.591  -5.648   9.325  1.00  0.00     0.049 A 
ATOM     52  C   UNL     1       6.318  -5.983  11.182  1.00  0.00     0.074 A 
ATOM     53  C   UNL     1      12.503  -6.534   9.873  1.00  0.00     0.029 A 
ATOM     54  N   UNL     1      10.367  -5.921   9.920  1.00  0.00    -0.354 N 
ATOM     55  N   UNL     1       7.586  -6.028  10.848  1.00  0.00    -0.248 NA
ATOM     56  C   UNL     1       5.923  -6.978  12.187  1.00  0.00     0.031 C 
ATOM     57  C   UNL     1      11.821  -7.370  10.768  1.00  0.00     0.029 A 
ATOM     58  C   UNL     1      10.493  -6.976  10.811  1.00  0.00     0.049 A 
ATOM     59  H   UNL     1       9.530  -5.436   9.736  1.00  0.00     0.167 HD
ATOM     60  C   UNL     1       8.143  -7.053  11.604  1.00  0.00     0.074 A 
ATOM     61  C   UNL     1       7.077  -7.582  12.433  1.00  0.00     0.031 C 
ATOM     62  C   UNL     1       9.419  -7.515  11.609  1.00  0.00     0.037 A 
BRANCH  49  63
ATOM     63  C   UNL     1      13.173  -4.535   7.686  1.00  0.00     0.058 A 
ATOM     64  C   UNL     1      14.028  -3.445   7.924  1.00  0.00     0.135 A 
ATOM     65  C   UNL     1      13.627  -5.540   6.816  1.00  0.00     0.135 A 
ATOM     66  F   UNL     1      13.645  -2.451   8.740  1.00  0.00    -0.206 F 
ATOM     67  C   UNL     1      15.257  -3.328   7.281  1.00  0.00     0.059 A 
ATOM     68  C   UNL     1      14.866  -5.457   6.184  1.00  0.00     0.059 A 
ATOM     69  F   UNL     1      12.858  -6.609   6.557  1.00  0.00    -0.206 F 
ATOM     70  C   UNL     1      15.662  -4.334   6.402  1.00  0.00     0.060 A 
BRANCH  70  71
ATOM     71  S   UNL     1      17.237  -4.148   5.539  1.00  0.00     0.124 S 
ATOM     72  O   UNL     1      16.893  -3.164   4.518  1.00  0.00    -0.237 OA
ATOM     73  O   UNL     1      18.124  -3.679   6.598  1.00  0.00    -0.237 OA
ATOM     74  O   UNL     1      17.514  -5.494   5.045  1.00  0.00    -0.744 OA
ENDBRANCH  70  71
ENDBRANCH  49  63
BRANCH  50  75
ATOM     75  C   UNL     1       3.837  -5.183  11.143  1.00  0.00     0.058 A 
ATOM     76  C   UNL     1       3.454  -4.783  12.431  1.00  0.00     0.135 A 
ATOM     77  C   UNL     1       2.834  -5.630  10.269  1.00  0.00     0.135 A 
ATOM     78  F   UNL     1       4.380  -4.354  13.303  1.00  0.00    -0.206 F 
ATOM     79  C   UNL     1       2.124  -4.813  12.836  1.00  0.00     0.059 A 
ATOM     80  C   UNL     1       1.495  -5.649  10.644  1.00  0.00     0.059 A 
ATOM     81  F   UNL     1       3.150  -6.008   9.020  1.00  0.00    -0.206 F 
ATOM     82  C   UNL     1       1.149  -5.237  11.930  1.00  0.00     0.060 A 
BRANCH  82  83
ATOM     83  S   UNL     1      -0.586  -5.168  12.427  1.00  0.00     0.124 S 
ATOM     84  O   UNL     1      -0.683  -6.317  13.319  1.00  0.00    -0.237 OA
ATOM     85  O   UNL     1      -0.672  -3.856  13.062  1.00  0.00    -0.237 OA
ATOM     86  O   UNL     1      -1.302  -5.288  11.160  1.00  0.00    -0.744 OA
ENDBRANCH  82  83
ENDBRANCH  50  75
BRANCH  62  87
ATOM     87  C   UNL     1       9.723  -8.658  12.539  1.00  0.00     0.058 A 
ATOM     88  C   UNL     1       9.248  -9.955  12.289  1.00  0.00     0.135 A 
ATOM     89  C   UNL     1      10.496  -8.456  13.694  1.00  0.00     0.135 A 
ATOM     90  F   UNL     1       8.502 -10.203  11.200  1.00  0.00    -0.206 F 
ATOM     91  C   UNL     1       9.489 -11.002  13.173  1.00  0.00     0.059 A 
ATOM     92  C   UNL     1      10.772  -9.494  14.579  1.00  0.00     0.059 A 
ATOM     93  F   UNL     1      10.987  -7.238  13.975  1.00  0.00    -0.206 F 
ATOM     94  C   UNL     1      10.245 -10.759  14.321  1.00  0.00     0.060 A 
BRANCH  94  95
ATOM     95  S   UNL     1      10.539 -12.119  15.472  1.00  0.00     0.124 S 
ATOM     96  O   UNL     1       9.258 -12.195  16.167  1.00  0.00    -0.237 OA
ATOM     97  O   UNL     1      10.841 -13.231  14.577  1.00  0.00    -0.237 OA
ATOM     98  O   UNL     1      11.662 -11.645  16.274  1.00  0.00    -0.744 OA
ENDBRANCH  94  95
ENDBRANCH  62  87
ENDBRANCH  36  37
ENDBRANCH  28  31
ENDBRANCH  26  27
ENDBRANCH   1  26
TORSDOF 15
