REMARK SMILES Cc1occc1C(=O)N[C@@H]1CCCCC[C@@H]1C(=O)NCCCNC(=O)c1ccc(-c2c3nc(c(-c4c(F)cc(S(=O)(=O)[O-])cc4F)c4ccc([nH]4)c(-c4c(F)cc(S(=O)(=O)[O-])cc4F)c4nc(c(-c5c(F)cc(S(=O)(=O)[O-])cc5F)c5ccc2[nH]5)C=C4)C=C3)cc1
REMARK SMILES IDX 21 1 20 2 19 3 17 4 18 5 16 7 10 8 9 9 7 10 8 11 6 13 1 14
REMARK SMILES IDX 2 15 3 16 4 17 5 18 11 19 12 20 15 22 14 23 13 24 22 26
REMARK SMILES IDX 23 27 24 28 25 30 26 31 27 32 91 33 28 34 90 35 29 36 30 37
REMARK SMILES IDX 31 38 84 39 32 40 89 41 83 42 85 43 33 44 88 45 82 46 81 47
REMARK SMILES IDX 34 49 68 50 47 51 67 52 48 53 51 54 66 55 86 56 49 57 50 58
REMARK SMILES IDX 65 60 87 61 52 62 35 63 36 64 45 65 37 66 38 67 44 68 46 69
REMARK SMILES IDX 39 70 40 71 41 72 42 73 43 74 69 75 70 76 79 77 71 78 72 79
REMARK SMILES IDX 78 80 80 81 73 82 74 83 75 84 76 85 77 86 53 87 54 88 63 89
REMARK SMILES IDX 55 90 56 91 62 92 64 93 57 94 58 95 59 96 60 97 61 98
REMARK H PARENT 19 6 9 12 23 29 85 48 51 59
REMARK Flexibility Score: 100.00
ROOT
ATOM      1  C   UNL     1      -1.824  -2.323  -0.403  1.00  0.00     0.042 C 
ENDROOT
BRANCH   1   2
ATOM      2  C   UNL     1      -0.649  -2.808  -1.274  1.00  0.00     0.117 C 
BRANCH   2   3
ATOM      3  N   UNL     1       0.034  -1.789  -2.080  1.00  0.00    -0.356 N 
ATOM      4  C   UNL     1       1.304  -1.349  -2.270  1.00  0.00     0.225 C 
ATOM      5  O   UNL     1       1.498  -0.983  -3.446  1.00  0.00    -0.275 OA
ATOM      6  H   UNL     1      -0.605  -1.286  -2.636  1.00  0.00     0.163 HD
BRANCH   4   7
ATOM      7  C   UNL     1       2.471  -1.087  -1.263  1.00  0.00     0.101 C 
BRANCH   7   8
ATOM      8  C   UNL     1       2.655  -1.971  -0.016  1.00  0.00     0.094 C 
BRANCH   8   9
ATOM      9  N   UNL     1       1.494  -2.323   0.790  1.00  0.00    -0.348 N 
ATOM     10  C   UNL     1       0.655  -1.610   1.596  1.00  0.00     0.255 C 
ATOM     11  O   UNL     1       0.019  -2.248   2.433  1.00  0.00    -0.269 OA
ATOM     12  H   UNL     1       1.266  -3.279   0.743  1.00  0.00     0.164 HD
BRANCH  10  13
ATOM     13  C   UNL     1       0.487  -0.184   1.441  1.00  0.00     0.080 A 
ATOM     14  C   UNL     1       1.425   0.615   3.747  1.00  0.00     0.088 C 
ATOM     15  C   UNL     1       0.798   0.739   2.419  1.00  0.00     0.113 A 
ATOM     16  O   UNL     1       0.424   1.992   2.040  1.00  0.00    -0.469 OA
ATOM     17  C   UNL     1      -0.189   1.879   0.838  1.00  0.00     0.196 A 
ATOM     18  C   UNL     1      -0.175   0.570   0.423  1.00  0.00     0.056 A 
ENDBRANCH  10  13
ENDBRANCH   8   9
BRANCH   8  19
ATOM     19  C   UNL     1       3.815  -1.735   0.983  1.00  0.00     0.026 C 
BRANCH  19  20
ATOM     20  C   UNL     1       4.978  -0.833   0.625  1.00  0.00     0.002 CG0
ATOM     21  G   UNL     1       4.570   0.627   0.564  1.00  0.00     0.000 G0
ENDBRANCH  19  20
ENDBRANCH   8  19
ENDBRANCH   7   8
BRANCH   7  22
ATOM     22  C   UNL     1       2.680   0.447  -1.155  1.00  0.00     0.015 C 
BRANCH  22  23
ATOM     23  C   UNL     1       4.062   0.998  -0.815  1.00  0.00     0.001 C 
BRANCH  23  24
ATOM     24  C   UNL     1       4.570   0.627   0.564  1.00  0.00     0.000 CG0
ATOM     25  G   UNL     1       4.978  -0.833   0.625  1.00  0.00     0.000 G0
ENDBRANCH  23  24
ENDBRANCH  22  23
ENDBRANCH   7  22
ENDBRANCH   4   7
ENDBRANCH   2   3
ENDBRANCH   1   2
BRANCH   1  26
ATOM     26  C   UNL     1      -2.995  -1.653  -1.130  1.00  0.00     0.118 C 
BRANCH  26  27
ATOM     27  N   UNL     1      -4.096  -2.588  -1.280  1.00  0.00    -0.352 N 
ATOM     28  C   UNL     1      -5.326  -2.576  -0.662  1.00  0.00     0.251 C 
ATOM     29  H   UNL     1      -3.942  -3.330  -1.908  1.00  0.00     0.163 HD
ATOM     30  O   UNL     1      -5.919  -3.643  -0.517  1.00  0.00    -0.269 OA
BRANCH  28  31
ATOM     31  C   UNL     1      -5.972  -1.311  -0.221  1.00  0.00     0.039 A 
ATOM     32  C   UNL     1      -6.826  -1.340   0.889  1.00  0.00     0.014 A 
ATOM     33  C   UNL     1      -5.877  -0.140  -0.981  1.00  0.00     0.014 A 
ATOM     34  C   UNL     1      -7.589  -0.214   1.226  1.00  0.00     0.010 A 
ATOM     35  C   UNL     1      -6.609   0.998  -0.619  1.00  0.00     0.010 A 
ATOM     36  C   UNL     1      -7.497   0.964   0.467  1.00  0.00    -0.014 A 
BRANCH  36  37
ATOM     37  C   UNL     1      -8.365   2.137   0.769  1.00  0.00     0.031 A 
ATOM     38  C   UNL     1      -9.447   2.553  -0.198  1.00  0.00     0.074 A 
ATOM     39  C   UNL     1      -8.166   2.847   1.898  1.00  0.00     0.049 A 
ATOM     40  N   UNL     1     -10.288   3.554  -0.124  1.00  0.00    -0.248 NA
ATOM     41  C   UNL     1      -9.585   1.750  -1.423  1.00  0.00     0.031 C 
ATOM     42  C   UNL     1      -7.124   2.577   2.890  1.00  0.00     0.029 A 
ATOM     43  N   UNL     1      -8.825   3.943   2.399  1.00  0.00    -0.354 N 
ATOM     44  C   UNL     1     -11.040   3.512  -1.295  1.00  0.00     0.074 A 
ATOM     45  C   UNL     1     -10.524   2.414  -2.083  1.00  0.00     0.031 C 
ATOM     46  C   UNL     1      -7.224   3.471   3.887  1.00  0.00     0.029 A 
ATOM     47  C   UNL     1      -8.321   4.390   3.598  1.00  0.00     0.049 A 
ATOM     48  H   UNL     1      -9.586   4.369   1.942  1.00  0.00     0.167 HD
ATOM     49  C   UNL     1     -12.078   4.300  -1.670  1.00  0.00     0.037 A 
ATOM     50  C   UNL     1      -8.703   5.420   4.379  1.00  0.00     0.037 A 
ATOM     51  C   UNL     1     -12.609   5.371  -0.864  1.00  0.00     0.049 A 
ATOM     52  C   UNL     1      -9.882   6.258   3.960  1.00  0.00     0.074 A 
ATOM     53  C   UNL     1     -13.696   6.188  -1.121  1.00  0.00     0.029 A 
ATOM     54  N   UNL     1     -12.091   5.771   0.360  1.00  0.00    -0.354 N 
ATOM     55  N   UNL     1     -10.619   6.163   2.879  1.00  0.00    -0.248 NA
ATOM     56  C   UNL     1     -10.290   7.334   4.874  1.00  0.00     0.031 C 
ATOM     57  C   UNL     1     -13.815   7.104  -0.069  1.00  0.00     0.029 A 
ATOM     58  C   UNL     1     -12.827   6.831   0.864  1.00  0.00     0.049 A 
ATOM     59  H   UNL     1     -11.315   5.361   0.805  1.00  0.00     0.167 HD
ATOM     60  C   UNL     1     -11.587   7.155   2.990  1.00  0.00     0.074 A 
ATOM     61  C   UNL     1     -11.356   7.822   4.255  1.00  0.00     0.031 C 
ATOM     62  C   UNL     1     -12.576   7.487   2.123  1.00  0.00     0.037 A 
BRANCH  49  63
ATOM     63  C   UNL     1     -12.717   4.028  -3.007  1.00  0.00     0.058 A 
ATOM     64  C   UNL     1     -13.489   2.877  -3.236  1.00  0.00     0.135 A 
ATOM     65  C   UNL     1     -12.585   4.943  -4.066  1.00  0.00     0.135 A 
ATOM     66  F   UNL     1     -13.641   1.962  -2.266  1.00  0.00    -0.206 F 
ATOM     67  C   UNL     1     -14.077   2.626  -4.473  1.00  0.00     0.059 A 
ATOM     68  C   UNL     1     -13.188   4.726  -5.303  1.00  0.00     0.059 A 
ATOM     69  F   UNL     1     -11.863   6.064  -3.905  1.00  0.00    -0.206 F 
ATOM     70  C   UNL     1     -13.918   3.555  -5.502  1.00  0.00     0.060 A 
BRANCH  70  71
ATOM     71  S   UNL     1     -14.687   3.212  -7.099  1.00  0.00     0.124 S 
ATOM     72  O   UNL     1     -13.813   2.170  -7.626  1.00  0.00    -0.237 OA
ATOM     73  O   UNL     1     -16.027   2.783  -6.718  1.00  0.00    -0.237 OA
ATOM     74  O   UNL     1     -14.618   4.497  -7.793  1.00  0.00    -0.744 OA
ENDBRANCH  70  71
ENDBRANCH  49  63
BRANCH  50  75
ATOM     75  C   UNL     1      -7.985   5.694   5.653  1.00  0.00     0.058 A 
ATOM     76  C   UNL     1      -8.588   5.432   6.892  1.00  0.00     0.135 A 
ATOM     77  C   UNL     1      -6.678   6.205   5.659  1.00  0.00     0.135 A 
ATOM     78  F   UNL     1      -9.839   4.950   6.939  1.00  0.00    -0.206 F 
ATOM     79  C   UNL     1      -7.929   5.680   8.092  1.00  0.00     0.059 A 
ATOM     80  C   UNL     1      -5.988   6.438   6.846  1.00  0.00     0.059 A 
ATOM     81  F   UNL     1      -6.050   6.459   4.500  1.00  0.00    -0.206 F 
ATOM     82  C   UNL     1      -6.627   6.181   8.059  1.00  0.00     0.060 A 
BRANCH  82  83
ATOM     83  S   UNL     1      -5.760   6.449   9.621  1.00  0.00     0.124 S 
ATOM     84  O   UNL     1      -6.408   7.659  10.113  1.00  0.00    -0.237 OA
ATOM     85  O   UNL     1      -6.059   5.222  10.354  1.00  0.00    -0.237 OA
ATOM     86  O   UNL     1      -4.367   6.600   9.210  1.00  0.00    -0.744 OA
ENDBRANCH  82  83
ENDBRANCH  50  75
BRANCH  62  87
ATOM     87  C   UNL     1     -13.487   8.614   2.525  1.00  0.00     0.058 A 
ATOM     88  C   UNL     1     -13.051   9.949   2.515  1.00  0.00     0.135 A 
ATOM     89  C   UNL     1     -14.814   8.360   2.905  1.00  0.00     0.135 A 
ATOM     90  F   UNL     1     -11.790  10.245   2.164  1.00  0.00    -0.206 F 
ATOM     91  C   UNL     1     -13.888  10.989   2.905  1.00  0.00     0.059 A 
ATOM     92  C   UNL     1     -15.677   9.387   3.273  1.00  0.00     0.059 A 
ATOM     93  F   UNL     1     -15.285   7.103   2.919  1.00  0.00    -0.206 F 
ATOM     94  C   UNL     1     -15.199  10.697   3.287  1.00  0.00     0.060 A 
BRANCH  94  95
ATOM     95  S   UNL     1     -16.279  12.054   3.787  1.00  0.00     0.124 S 
ATOM     96  O   UNL     1     -15.788  12.339   5.131  1.00  0.00    -0.237 OA
ATOM     97  O   UNL     1     -15.994  13.071   2.779  1.00  0.00    -0.237 OA
ATOM     98  O   UNL     1     -17.614  11.469   3.716  1.00  0.00    -0.744 OA
ENDBRANCH  94  95
ENDBRANCH  62  87
ENDBRANCH  36  37
ENDBRANCH  28  31
ENDBRANCH  26  27
ENDBRANCH   1  26
TORSDOF 15
