REMARK SMILES O=C(Cn1c(=O)c2c3c(sc2n(Cc2ccc(Cl)cc2Cl)c1=O)CCCC3)NCCCNC(=O)c1ccc(-c2c3nc(c(-c4c(F)cc(S(=O)(=O)[O-])cc4F)c4ccc([nH]4)c(-c4c(F)cc(S(=O)(=O)[O-])cc4F)c4nc(c(-c5c(F)cc(S(=O)(=O)[O-])cc5F)c5ccc2[nH]5)C=C4)C=C3)cc1
REMARK SMILES IDX 30 1 29 2 28 3 1 4 2 5 3 7 4 8 5 9 22 10 6 11 7 12 12 13
REMARK SMILES IDX 23 14 8 15 11 16 9 17 27 18 10 19 24 20 26 21 25 22 13 23
REMARK SMILES IDX 14 24 15 25 20 26 16 27 19 28 21 29 17 30 18 31 31 32 32 33
REMARK SMILES IDX 33 34 34 36 35 37 36 38 100 39 37 40 99 41 38 42 39 43 40 44
REMARK SMILES IDX 93 45 41 46 98 47 92 48 94 49 42 50 97 51 91 52 90 53 43 55
REMARK SMILES IDX 77 56 56 57 76 58 57 59 60 60 75 61 95 62 58 63 59 64 74 66
REMARK SMILES IDX 96 67 61 68 44 69 45 70 54 71 46 72 47 73 53 74 55 75 48 76
REMARK SMILES IDX 49 77 50 78 51 79 52 80 78 81 79 82 88 83 80 84 81 85 87 86
REMARK SMILES IDX 89 87 82 88 83 89 84 90 85 91 86 92 62 93 63 94 72 95 64 96
REMARK SMILES IDX 65 97 71 98 73 99 66 100 67 101 68 102 69 103 70 104
REMARK H PARENT 28 6 32 35 94 54 60 65
REMARK Flexibility Score: inf
ROOT
ATOM      1  C   UNL     1       3.299   2.188  -3.153  1.00  0.00     0.042 C 
ENDROOT
BRANCH   1   2
ATOM      2  C   UNL     1       2.991   0.774  -2.631  1.00  0.00     0.117 C 
BRANCH   2   3
ATOM      3  N   UNL     1       3.494   0.503  -1.292  1.00  0.00    -0.354 N 
ATOM      4  O   UNL     1       1.426   0.306  -0.310  1.00  0.00    -0.273 OA
ATOM      5  C   UNL     1       2.651   0.223  -0.230  1.00  0.00     0.240 C 
ATOM      6  H   UNL     1       4.466   0.518  -1.136  1.00  0.00     0.163 HD
BRANCH   5   7
ATOM      7  C   UNL     1       3.344  -0.154   1.086  1.00  0.00     0.230 C 
BRANCH   7   8
ATOM      8  N   UNL     1       4.069  -1.418   0.943  1.00  0.00    -0.250 N 
ATOM      9  C   UNL     1       3.337  -2.585   1.162  1.00  0.00     0.265 A 
ATOM     10  C   UNL     1       5.437  -1.354   0.631  1.00  0.00     0.332 A 
ATOM     11  O   UNL     1       2.171  -2.602   1.576  1.00  0.00    -0.268 OA
ATOM     12  C   UNL     1       4.048  -3.805   0.872  1.00  0.00     0.079 A 
ATOM     13  N   UNL     1       6.129  -2.558   0.459  1.00  0.00    -0.280 N 
ATOM     14  O   UNL     1       5.992  -0.261   0.494  1.00  0.00    -0.247 OA
ATOM     15  C   UNL     1       3.613  -5.179   0.941  1.00  0.00    -0.019 A 
ATOM     16  C   UNL     1       5.369  -3.719   0.508  1.00  0.00     0.113 A 
ATOM     17  C   UNL     1       4.641  -6.037   0.598  1.00  0.00     0.011 A 
ATOM     18  C   UNL     1       2.277  -5.710   1.375  1.00  0.00     0.037 C 
ATOM     19  S   UNL     1       6.005  -5.211   0.054  1.00  0.00    -0.122 S 
ATOM     20  C   UNL     1       4.605  -7.529   0.634  1.00  0.00     0.047 C 
ATOM     21  C   UNL     1       2.125  -7.208   1.038  1.00  0.00     0.005 C 
ATOM     22  C   UNL     1       3.379  -8.010   1.417  1.00  0.00     0.006 C 
BRANCH  13  23
ATOM     23  C   UNL     1       7.599  -2.522   0.221  1.00  0.00     0.165 C 
BRANCH  23  24
ATOM     24  C   UNL     1       8.417  -3.018   1.410  1.00  0.00    -0.009 A 
ATOM     25  C   UNL     1       8.553  -2.179   2.533  1.00  0.00     0.008 A 
ATOM     26  C   UNL     1       9.035  -4.284   1.469  1.00  0.00     0.047 A 
ATOM     27  C   UNL     1       9.190  -2.627   3.696  1.00  0.00     0.021 A 
ATOM     28  C   UNL     1       9.581  -4.766   2.664  1.00  0.00     0.041 A 
ATOM     29  Cl  UNL     1       9.288  -5.276   0.073  1.00  0.00    -0.084 Cl
ATOM     30  C   UNL     1       9.652  -3.936   3.774  1.00  0.00     0.042 A 
ATOM     31  Cl  UNL     1      10.348  -4.522   5.234  1.00  0.00    -0.084 Cl
ENDBRANCH  23  24
ENDBRANCH  13  23
ENDBRANCH   7   8
ENDBRANCH   5   7
ENDBRANCH   2   3
ENDBRANCH   1   2
BRANCH   1  32
ATOM     32  C   UNL     1       4.733   2.418  -3.679  1.00  0.00     0.118 C 
BRANCH  32  33
ATOM     33  N   UNL     1       4.995   1.626  -4.873  1.00  0.00    -0.352 N 
ATOM     34  C   UNL     1       5.642   1.847  -6.061  1.00  0.00     0.251 C 
ATOM     35  H   UNL     1       4.618   0.718  -4.813  1.00  0.00     0.163 HD
ATOM     36  O   UNL     1       5.471   0.987  -6.930  1.00  0.00    -0.269 OA
BRANCH  34  37
ATOM     37  C   UNL     1       6.515   3.009  -6.389  1.00  0.00     0.039 A 
ATOM     38  C   UNL     1       6.594   3.375  -7.748  1.00  0.00     0.014 A 
ATOM     39  C   UNL     1       7.367   3.643  -5.487  1.00  0.00     0.014 A 
ATOM     40  C   UNL     1       7.468   4.376  -8.199  1.00  0.00     0.010 A 
ATOM     41  C   UNL     1       8.250   4.647  -5.944  1.00  0.00     0.010 A 
ATOM     42  C   UNL     1       8.295   5.047  -7.299  1.00  0.00    -0.014 A 
BRANCH  42  43
ATOM     43  C   UNL     1       8.995   6.285  -7.762  1.00  0.00     0.031 A 
ATOM     44  C   UNL     1       8.798   7.444  -6.854  1.00  0.00     0.074 A 
ATOM     45  C   UNL     1      10.101   6.368  -8.544  1.00  0.00     0.049 A 
ATOM     46  N   UNL     1       9.519   7.532  -5.781  1.00  0.00    -0.248 NA
ATOM     47  C   UNL     1       7.694   8.394  -6.896  1.00  0.00     0.031 C 
ATOM     48  C   UNL     1      11.063   5.279  -8.737  1.00  0.00     0.029 A 
ATOM     49  N   UNL     1      10.716   7.463  -9.140  1.00  0.00    -0.354 N 
ATOM     50  C   UNL     1       8.960   8.491  -4.968  1.00  0.00     0.074 A 
ATOM     51  C   UNL     1       7.834   9.017  -5.710  1.00  0.00     0.031 C 
ATOM     52  C   UNL     1      12.193   5.785  -9.276  1.00  0.00     0.029 A 
ATOM     53  C   UNL     1      12.000   7.197  -9.620  1.00  0.00     0.049 A 
ATOM     54  H   UNL     1      10.286   8.345  -9.217  1.00  0.00     0.167 HD
ATOM     55  C   UNL     1       9.511   8.769  -3.756  1.00  0.00     0.037 A 
ATOM     56  C   UNL     1      13.034   8.079  -9.742  1.00  0.00     0.037 A 
ATOM     57  C   UNL     1      10.741   8.075  -3.424  1.00  0.00     0.049 A 
ATOM     58  C   UNL     1      13.383   8.412  -8.320  1.00  0.00     0.074 A 
ATOM     59  C   UNL     1      11.364   7.494  -2.338  1.00  0.00     0.029 A 
ATOM     60  N   UNL     1      11.612   7.905  -4.461  1.00  0.00    -0.354 N 
ATOM     61  N   UNL     1      14.114   7.683  -7.519  1.00  0.00    -0.248 NA
ATOM     62  C   UNL     1      12.690   9.536  -7.670  1.00  0.00     0.031 C 
ATOM     63  C   UNL     1      12.674   7.073  -2.767  1.00  0.00     0.029 A 
ATOM     64  C   UNL     1      12.842   7.454  -4.088  1.00  0.00     0.049 A 
ATOM     65  H   UNL     1      11.373   8.092  -5.398  1.00  0.00     0.167 HD
ATOM     66  C   UNL     1      13.764   8.107  -6.245  1.00  0.00     0.074 A 
ATOM     67  C   UNL     1      13.028   9.344  -6.401  1.00  0.00     0.031 C 
ATOM     68  C   UNL     1      13.819   7.309  -5.141  1.00  0.00     0.037 A 
BRANCH  55  69
ATOM     69  C   UNL     1       9.082   9.912  -2.923  1.00  0.00     0.058 A 
ATOM     70  C   UNL     1       9.857  11.083  -2.972  1.00  0.00     0.135 A 
ATOM     71  C   UNL     1       8.057   9.838  -1.977  1.00  0.00     0.135 A 
ATOM     72  F   UNL     1      10.843  11.199  -3.878  1.00  0.00    -0.206 F 
ATOM     73  C   UNL     1       9.656  12.130  -2.084  1.00  0.00     0.059 A 
ATOM     74  C   UNL     1       7.830  10.880  -1.077  1.00  0.00     0.059 A 
ATOM     75  F   UNL     1       7.292   8.738  -1.892  1.00  0.00    -0.206 F 
ATOM     76  C   UNL     1       8.649  12.012  -1.127  1.00  0.00     0.060 A 
BRANCH  76  77
ATOM     77  S   UNL     1       8.456  13.356   0.064  1.00  0.00     0.124 S 
ATOM     78  O   UNL     1       9.744  13.341   0.749  1.00  0.00    -0.237 OA
ATOM     79  O   UNL     1       8.210  14.499  -0.810  1.00  0.00    -0.237 OA
ATOM     80  O   UNL     1       7.314  12.932   0.870  1.00  0.00    -0.744 OA
ENDBRANCH  76  77
ENDBRANCH  55  69
BRANCH  56  81
ATOM     81  C   UNL     1      13.024   9.120 -10.827  1.00  0.00     0.058 A 
ATOM     82  C   UNL     1      12.710   8.742 -12.149  1.00  0.00     0.135 A 
ATOM     83  C   UNL     1      13.388  10.470 -10.659  1.00  0.00     0.135 A 
ATOM     84  F   UNL     1      12.507   7.450 -12.452  1.00  0.00    -0.206 F 
ATOM     85  C   UNL     1      12.613   9.666 -13.194  1.00  0.00     0.059 A 
ATOM     86  C   UNL     1      13.259  11.421 -11.675  1.00  0.00     0.059 A 
ATOM     87  F   UNL     1      13.884  10.918  -9.499  1.00  0.00    -0.206 F 
ATOM     88  C   UNL     1      12.841  11.014 -12.934  1.00  0.00     0.060 A 
BRANCH  88  89
ATOM     89  S   UNL     1      12.517  12.226 -14.233  1.00  0.00     0.124 S 
ATOM     90  O   UNL     1      13.588  11.950 -15.183  1.00  0.00    -0.237 OA
ATOM     91  O   UNL     1      11.173  11.853 -14.663  1.00  0.00    -0.237 OA
ATOM     92  O   UNL     1      12.609  13.505 -13.533  1.00  0.00    -0.744 OA
ENDBRANCH  88  89
ENDBRANCH  56  81
BRANCH  68  93
ATOM     93  C   UNL     1      14.805   6.206  -5.161  1.00  0.00     0.058 A 
ATOM     94  C   UNL     1      16.172   6.516  -5.233  1.00  0.00     0.135 A 
ATOM     95  C   UNL     1      14.437   4.862  -5.032  1.00  0.00     0.135 A 
ATOM     96  F   UNL     1      16.576   7.794  -5.329  1.00  0.00    -0.206 F 
ATOM     97  C   UNL     1      17.145   5.531  -5.153  1.00  0.00     0.059 A 
ATOM     98  C   UNL     1      15.396   3.857  -4.940  1.00  0.00     0.059 A 
ATOM     99  F   UNL     1      13.142   4.509  -4.973  1.00  0.00    -0.206 F 
ATOM    100  C   UNL     1      16.748   4.204  -4.988  1.00  0.00     0.060 A 
BRANCH 100 101
ATOM    101  S   UNL     1      18.031   2.961  -4.747  1.00  0.00     0.124 S 
ATOM    102  O   UNL     1      18.693   2.948  -6.048  1.00  0.00    -0.237 OA
ATOM    103  O   UNL     1      18.806   3.530  -3.648  1.00  0.00    -0.237 OA
ATOM    104  O   UNL     1      17.281   1.754  -4.414  1.00  0.00    -0.744 OA
ENDBRANCH 100 101
ENDBRANCH  68  93
ENDBRANCH  42  43
ENDBRANCH  34  37
ENDBRANCH  32  33
ENDBRANCH   1  32
TORSDOF 16
