REMARK SMILES Cc1cc2nc(NC(=O)[C@H]3[C@@H](C(=O)NCCCNC(=O)c4ccc(-c5c6nc(c(-c7c(F)cc(S(=O)(=O)[O-])cc7F)c7ccc([nH]7)c(-c7c(F)cc(S(=O)(=O)[O-])cc7F)c7nc(c(-c8c(F)cc(S(=O)(=O)[O-])cc8F)c8ccc5[nH]8)C=C7)C=C6)cc4)[C@@H]4C=C[C@H]3C4)sc2cc1C
REMARK SMILES IDX 16 1 15 2 14 3 12 4 13 5 11 7 10 8 90 9 87 10 89 11 91 12
REMARK SMILES IDX 88 13 8 14 7 15 9 17 6 18 1 19 2 20 3 21 95 22 4 23 94 24
REMARK SMILES IDX 96 25 5 26 93 27 92 28 17 29 18 30 19 31 20 33 21 34 22 35
REMARK SMILES IDX 86 36 23 37 85 38 24 39 25 40 26 41 79 42 27 43 84 44 78 45
REMARK SMILES IDX 80 46 28 47 83 48 77 49 76 50 29 52 63 53 42 54 62 55 43 56
REMARK SMILES IDX 46 57 61 58 81 59 44 60 45 61 60 63 82 64 47 65 30 66 31 67
REMARK SMILES IDX 40 68 32 69 33 70 39 71 41 72 34 73 35 74 36 75 37 76 38 77
REMARK SMILES IDX 64 78 65 79 74 80 66 81 67 82 73 83 75 84 68 85 69 86 70 87
REMARK SMILES IDX 71 88 72 89 48 90 49 91 58 92 50 93 51 94 57 95 59 96 52 97
REMARK SMILES IDX 53 98 54 99 55 100 56 101
REMARK H PARENT 14 6 7 16 18 32 80 51 46 62
REMARK Flexibility Score: inf
ROOT
ATOM      1  C   UNL     1       6.167   6.283   3.526  1.00  0.00     0.042 C 
ENDROOT
BRANCH   1   2
ATOM      2  C   UNL     1       5.505   7.107   2.432  1.00  0.00     0.117 C 
BRANCH   2   3
ATOM      3  N   UNL     1       5.787   6.659   1.082  1.00  0.00    -0.356 N 
ATOM      4  C   UNL     1       5.007   6.332   0.023  1.00  0.00     0.224 C 
ATOM      5  O   UNL     1       5.632   6.110  -1.026  1.00  0.00    -0.275 OA
ATOM      6  H   UNL     1       6.750   6.574   0.895  1.00  0.00     0.163 HD
BRANCH   4   7
ATOM      7  C   UNL     1       3.490   6.108   0.028  1.00  0.00     0.098 C 
ATOM      8  C   UNL     1       2.478   7.005   0.805  1.00  0.00     0.099 C 
ATOM      9  C   UNL     1       1.843   5.960   1.793  1.00  0.00     0.025 C 
ATOM     10  C   UNL     1       3.130   4.671   0.492  1.00  0.00     0.025 C 
ATOM     11  C   UNL     1       0.910   5.118   0.945  1.00  0.00    -0.027 C 
ATOM     12  C   UNL     1       2.917   4.878   1.985  1.00  0.00     0.017 C 
ATOM     13  C   UNL     1       1.681   4.372   0.136  1.00  0.00    -0.027 C 
BRANCH   8  14
ATOM     14  C   UNL     1       2.913   8.314   1.455  1.00  0.00     0.230 C 
ATOM     15  N   UNL     1       3.561   9.291   0.763  1.00  0.00    -0.302 N 
ATOM     16  H   UNL     1       3.942  10.029   1.292  1.00  0.00     0.172 HD
ATOM     17  O   UNL     1       2.684   8.539   2.648  1.00  0.00    -0.274 OA
BRANCH  15  18
ATOM     18  C   UNL     1       3.734   9.353  -0.584  1.00  0.00     0.190 A 
ATOM     19  C   UNL     1       3.316   8.188  -6.433  1.00  0.00     0.044 C 
ATOM     20  C   UNL     1       3.778   8.877  -5.179  1.00  0.00    -0.046 A 
ATOM     21  C   UNL     1       3.316   8.359  -3.955  1.00  0.00     0.033 A 
ATOM     22  C   UNL     1       4.575  10.036  -5.180  1.00  0.00    -0.047 A 
ATOM     23  C   UNL     1       3.655   8.972  -2.738  1.00  0.00     0.084 A 
ATOM     24  C   UNL     1       4.965  10.629  -3.958  1.00  0.00     0.025 A 
ATOM     25  C   UNL     1       5.054  10.702  -6.442  1.00  0.00     0.044 C 
ATOM     26  N   UNL     1       3.224   8.571  -1.492  1.00  0.00    -0.220 NA
ATOM     27  C   UNL     1       4.483  10.093  -2.755  1.00  0.00     0.057 A 
ATOM     28  S   UNL     1       4.726  10.623  -1.130  1.00  0.00    -0.097 S 
ENDBRANCH  15  18
ENDBRANCH   8  14
ENDBRANCH   4   7
ENDBRANCH   2   3
ENDBRANCH   1   2
BRANCH   1  29
ATOM     29  C   UNL     1       7.644   6.572   3.760  1.00  0.00     0.118 C 
BRANCH  29  30
ATOM     30  N   UNL     1       7.972   7.976   3.895  1.00  0.00    -0.352 N 
ATOM     31  C   UNL     1       8.034   8.870   4.927  1.00  0.00     0.251 C 
ATOM     32  H   UNL     1       8.207   8.388   3.032  1.00  0.00     0.163 HD
ATOM     33  O   UNL     1       8.532   9.963   4.641  1.00  0.00    -0.269 OA
BRANCH  31  34
ATOM     34  C   UNL     1       7.517   8.661   6.308  1.00  0.00     0.039 A 
ATOM     35  C   UNL     1       6.787   7.561   6.754  1.00  0.00     0.014 A 
ATOM     36  C   UNL     1       7.723   9.729   7.204  1.00  0.00     0.014 A 
ATOM     37  C   UNL     1       6.178   7.584   8.011  1.00  0.00     0.010 A 
ATOM     38  C   UNL     1       7.146   9.742   8.470  1.00  0.00     0.010 A 
ATOM     39  C   UNL     1       6.324   8.692   8.856  1.00  0.00    -0.014 A 
BRANCH  39  40
ATOM     40  C   UNL     1       5.716   8.640  10.189  1.00  0.00     0.031 A 
ATOM     41  C   UNL     1       6.182   7.491  11.019  1.00  0.00     0.074 A 
ATOM     42  C   UNL     1       4.908   9.588  10.713  1.00  0.00     0.049 A 
ATOM     43  N   UNL     1       5.502   6.466  11.417  1.00  0.00    -0.248 NA
ATOM     44  C   UNL     1       7.621   7.402  11.317  1.00  0.00     0.031 C 
ATOM     45  C   UNL     1       4.582  10.905  10.161  1.00  0.00     0.029 A 
ATOM     46  N   UNL     1       4.260   9.602  11.916  1.00  0.00    -0.354 N 
ATOM     47  C   UNL     1       6.369   5.716  12.208  1.00  0.00     0.074 A 
ATOM     48  C   UNL     1       7.689   6.240  11.967  1.00  0.00     0.031 C 
ATOM     49  C   UNL     1       3.989  11.662  11.114  1.00  0.00     0.029 A 
ATOM     50  C   UNL     1       3.759  10.846  12.295  1.00  0.00     0.049 A 
ATOM     51  H   UNL     1       4.154   8.796  12.472  1.00  0.00     0.167 HD
ATOM     52  C   UNL     1       5.906   4.879  13.178  1.00  0.00     0.037 A 
ATOM     53  C   UNL     1       3.230  11.189  13.501  1.00  0.00     0.037 A 
ATOM     54  C   UNL     1       4.516   4.562  12.979  1.00  0.00     0.049 A 
ATOM     55  C   UNL     1       2.809   9.929  14.165  1.00  0.00     0.074 A 
ATOM     56  C   UNL     1       3.785   3.968  11.968  1.00  0.00     0.029 A 
ATOM     57  N   UNL     1       3.596   5.193  13.779  1.00  0.00    -0.354 N 
ATOM     58  N   UNL     1       1.833   9.173  13.747  1.00  0.00    -0.248 NA
ATOM     59  C   UNL     1       3.762   9.287  15.056  1.00  0.00     0.031 C 
ATOM     60  C   UNL     1       2.550   4.679  11.939  1.00  0.00     0.029 A 
ATOM     61  C   UNL     1       2.576   5.619  12.970  1.00  0.00     0.049 A 
ATOM     62  H   UNL     1       3.659   5.317  14.754  1.00  0.00     0.167 HD
ATOM     63  C   UNL     1       2.276   7.877  13.960  1.00  0.00     0.074 A 
ATOM     64  C   UNL     1       3.430   8.011  14.847  1.00  0.00     0.031 C 
ATOM     65  C   UNL     1       1.838   6.844  13.183  1.00  0.00     0.037 A 
BRANCH  52  66
ATOM     66  C   UNL     1       6.595   4.661  14.508  1.00  0.00     0.058 A 
ATOM     67  C   UNL     1       6.102   3.676  15.390  1.00  0.00     0.135 A 
ATOM     68  C   UNL     1       7.518   5.572  15.071  1.00  0.00     0.135 A 
ATOM     69  F   UNL     1       5.214   2.762  14.967  1.00  0.00    -0.206 F 
ATOM     70  C   UNL     1       6.436   3.650  16.746  1.00  0.00     0.059 A 
ATOM     71  C   UNL     1       7.905   5.530  16.405  1.00  0.00     0.059 A 
ATOM     72  F   UNL     1       8.013   6.607  14.384  1.00  0.00    -0.206 F 
ATOM     73  C   UNL     1       7.327   4.595  17.246  1.00  0.00     0.060 A 
BRANCH  73  74
ATOM     74  S   UNL     1       7.675   4.632  19.012  1.00  0.00     0.124 S 
ATOM     75  O   UNL     1       6.389   5.046  19.554  1.00  0.00    -0.237 OA
ATOM     76  O   UNL     1       8.069   3.252  19.270  1.00  0.00    -0.237 OA
ATOM     77  O   UNL     1       8.754   5.615  19.119  1.00  0.00    -0.744 OA
ENDBRANCH  73  74
ENDBRANCH  52  66
BRANCH  53  78
ATOM     78  C   UNL     1       3.360  12.466  14.261  1.00  0.00     0.058 A 
ATOM     79  C   UNL     1       2.596  12.709  15.422  1.00  0.00     0.135 A 
ATOM     80  C   UNL     1       4.446  13.337  14.050  1.00  0.00     0.135 A 
ATOM     81  F   UNL     1       1.549  11.923  15.717  1.00  0.00    -0.206 F 
ATOM     82  C   UNL     1       2.928  13.708  16.346  1.00  0.00     0.059 A 
ATOM     83  C   UNL     1       4.791  14.345  14.952  1.00  0.00     0.059 A 
ATOM     84  F   UNL     1       5.269  13.173  13.004  1.00  0.00    -0.206 F 
ATOM     85  C   UNL     1       4.047  14.507  16.114  1.00  0.00     0.060 A 
BRANCH  85  86
ATOM     86  S   UNL     1       4.592  15.671  17.389  1.00  0.00     0.124 S 
ATOM     87  O   UNL     1       3.508  16.647  17.392  1.00  0.00    -0.237 OA
ATOM     88  O   UNL     1       4.684  14.817  18.568  1.00  0.00    -0.237 OA
ATOM     89  O   UNL     1       5.869  16.161  16.877  1.00  0.00    -0.744 OA
ENDBRANCH  85  86
ENDBRANCH  53  78
BRANCH  65  90
ATOM     90  C   UNL     1       0.629   7.062  12.312  1.00  0.00     0.058 A 
ATOM     91  C   UNL     1       0.570   7.960  11.231  1.00  0.00     0.135 A 
ATOM     92  C   UNL     1      -0.464   6.200  12.489  1.00  0.00     0.135 A 
ATOM     93  F   UNL     1       1.610   8.753  10.935  1.00  0.00    -0.206 F 
ATOM     94  C   UNL     1      -0.539   8.014  10.382  1.00  0.00     0.059 A 
ATOM     95  C   UNL     1      -1.565   6.215  11.638  1.00  0.00     0.059 A 
ATOM     96  F   UNL     1      -0.445   5.282  13.471  1.00  0.00    -0.206 F 
ATOM     97  C   UNL     1      -1.599   7.131  10.590  1.00  0.00     0.060 A 
BRANCH  97  98
ATOM     98  S   UNL     1      -2.993   7.138   9.441  1.00  0.00     0.124 S 
ATOM     99  O   UNL     1      -3.625   8.421   9.729  1.00  0.00    -0.237 OA
ATOM    100  O   UNL     1      -2.333   7.033   8.143  1.00  0.00    -0.237 OA
ATOM    101  O   UNL     1      -3.765   5.961   9.832  1.00  0.00    -0.744 OA
ENDBRANCH  97  98
ENDBRANCH  65  90
ENDBRANCH  39  40
ENDBRANCH  31  34
ENDBRANCH  29  30
ENDBRANCH   1  29
TORSDOF 15
