REMARK SMILES NC(=O)C[N@H+]1CCCC[C@H]1C(=O)NCCCNC(=O)c1ccc(-c2c3nc(c(-c4c(F)cc(S(=O)(=O)[O-])cc4F)c4ccc([nH]4)c(-c4c(F)cc(S(=O)(=O)[O-])cc4F)c4nc(c(-c5c(F)cc(S(=O)(=O)[O-])cc5F)c5ccc2[nH]5)C=C4)C=C3)cc1
REMARK SMILES IDX 15 1 14 2 13 3 11 4 12 5 10 7 5 8 6 9 7 11 9 12 8 13 4 14
REMARK SMILES IDX 2 15 1 16 3 19 16 20 17 21 18 22 19 24 20 25 21 26 85 27
REMARK SMILES IDX 22 28 84 29 23 30 24 31 25 32 78 33 26 34 83 35 77 36 79 37
REMARK SMILES IDX 27 38 82 39 76 40 75 41 28 43 62 44 41 45 61 46 42 47 45 48
REMARK SMILES IDX 60 49 80 50 43 51 44 52 59 54 81 55 46 56 29 57 30 58 39 59
REMARK SMILES IDX 31 60 32 61 38 62 40 63 33 64 34 65 35 66 36 67 37 68 63 69
REMARK SMILES IDX 64 70 73 71 65 72 66 73 72 74 74 75 67 76 68 77 69 78 70 79
REMARK SMILES IDX 71 80 47 81 48 82 57 83 49 84 50 85 56 86 58 87 51 88 52 89
REMARK SMILES IDX 53 90 54 91 55 92
REMARK H PARENT 13 6 5 10 1 17 1 18 17 23 79 42 45 53
REMARK Flexibility Score: inf
ROOT
ATOM      1  C   UNL     1      -0.276   2.983  -4.674  1.00  0.00     0.042 C 
ENDROOT
BRANCH   1   2
ATOM      2  C   UNL     1      -0.389   2.368  -3.283  1.00  0.00     0.118 C 
BRANCH   2   3
ATOM      3  N   UNL     1      -0.896   1.012  -3.359  1.00  0.00    -0.351 N 
ATOM      4  C   UNL     1      -0.219  -0.172  -3.357  1.00  0.00     0.278 C 
ATOM      5  O   UNL     1      -0.853  -1.179  -3.675  1.00  0.00    -0.268 OA
ATOM      6  H   UNL     1      -1.876   0.935  -3.422  1.00  0.00     0.163 HD
BRANCH   4   7
ATOM      7  C   UNL     1       1.267  -0.190  -2.917  1.00  0.00     0.274 C 
ATOM      8  N   UNL     1       1.732  -1.512  -2.401  1.00  0.00    -0.317 N 
ATOM      9  C   UNL     1       1.892  -2.500  -3.495  1.00  0.00     0.263 C 
ATOM     10  H   UNL     1       2.631  -1.303  -1.966  1.00  0.00     0.349 HD
ATOM     11  C   UNL     1       2.756  -2.012  -4.661  1.00  0.00     0.062 C 
ATOM     12  C   UNL     1       2.221   0.315  -4.008  1.00  0.00     0.076 C 
ATOM     13  C   UNL     1       2.308  -0.654  -5.174  1.00  0.00     0.012 C 
BRANCH   8  14
ATOM     14  C   UNL     1       0.849  -2.116  -1.360  1.00  0.00     0.363 C 
BRANCH  14  15
ATOM     15  C   UNL     1       0.304  -1.132  -0.322  1.00  0.00     0.272 C 
ATOM     16  N   UNL     1       1.220  -0.330   0.292  1.00  0.00    -0.365 N 
ATOM     17  H   UNL     1       0.927   0.323   0.968  1.00  0.00     0.159 HD
ATOM     18  H   UNL     1       2.173  -0.403   0.059  1.00  0.00     0.159 HD
ATOM     19  O   UNL     1      -0.879  -1.073   0.002  1.00  0.00    -0.269 OA
ENDBRANCH  14  15
ENDBRANCH   8  14
ENDBRANCH   4   7
ENDBRANCH   2   3
ENDBRANCH   1   2
BRANCH   1  20
ATOM     20  C   UNL     1      -1.609   3.089  -5.400  1.00  0.00     0.118 C 
BRANCH  20  21
ATOM     21  N   UNL     1      -2.525   4.005  -4.739  1.00  0.00    -0.352 N 
ATOM     22  C   UNL     1      -3.108   5.145  -5.232  1.00  0.00     0.251 C 
ATOM     23  H   UNL     1      -2.758   3.776  -3.811  1.00  0.00     0.163 HD
ATOM     24  O   UNL     1      -3.678   5.922  -4.470  1.00  0.00    -0.269 OA
BRANCH  22  25
ATOM     25  C   UNL     1      -3.030   5.436  -6.678  1.00  0.00     0.039 A 
ATOM     26  C   UNL     1      -2.722   6.732  -7.100  1.00  0.00     0.014 A 
ATOM     27  C   UNL     1      -3.257   4.424  -7.615  1.00  0.00     0.014 A 
ATOM     28  C   UNL     1      -2.587   6.999  -8.464  1.00  0.00     0.010 A 
ATOM     29  C   UNL     1      -3.036   4.671  -8.963  1.00  0.00     0.010 A 
ATOM     30  C   UNL     1      -2.716   5.964  -9.404  1.00  0.00    -0.014 A 
BRANCH  30  31
ATOM     31  C   UNL     1      -2.562   6.201 -10.861  1.00  0.00     0.031 A 
ATOM     32  C   UNL     1      -3.729   5.951 -11.777  1.00  0.00     0.074 A 
ATOM     33  C   UNL     1      -1.362   6.546 -11.367  1.00  0.00     0.049 A 
ATOM     34  N   UNL     1      -3.775   5.961 -13.083  1.00  0.00    -0.248 NA
ATOM     35  C   UNL     1      -5.009   5.610 -11.134  1.00  0.00     0.031 C 
ATOM     36  C   UNL     1      -0.151   6.791 -10.583  1.00  0.00     0.029 A 
ATOM     37  N   UNL     1      -0.961   6.733 -12.665  1.00  0.00    -0.354 N 
ATOM     38  C   UNL     1      -5.074   5.597 -13.418  1.00  0.00     0.074 A 
ATOM     39  C   UNL     1      -5.769   5.323 -12.179  1.00  0.00     0.031 C 
ATOM     40  C   UNL     1       0.852   7.117 -11.414  1.00  0.00     0.029 A 
ATOM     41  C   UNL     1       0.370   7.055 -12.791  1.00  0.00     0.049 A 
ATOM     42  H   UNL     1      -1.568   6.644 -13.435  1.00  0.00     0.167 HD
ATOM     43  C   UNL     1      -5.641   5.517 -14.645  1.00  0.00     0.037 A 
ATOM     44  C   UNL     1       1.118   7.264 -13.892  1.00  0.00     0.037 A 
ATOM     45  C   UNL     1      -4.945   5.818 -15.868  1.00  0.00     0.049 A 
ATOM     46  C   UNL     1       0.474   7.155 -15.248  1.00  0.00     0.074 A 
ATOM     47  C   UNL     1      -5.440   5.826 -17.160  1.00  0.00     0.029 A 
ATOM     48  N   UNL     1      -3.602   6.157 -15.951  1.00  0.00    -0.354 N 
ATOM     49  N   UNL     1      -0.768   6.859 -15.548  1.00  0.00    -0.248 NA
ATOM     50  C   UNL     1       1.330   7.409 -16.414  1.00  0.00     0.031 C 
ATOM     51  C   UNL     1      -4.384   6.117 -18.029  1.00  0.00     0.029 A 
ATOM     52  C   UNL     1      -3.245   6.354 -17.275  1.00  0.00     0.049 A 
ATOM     53  H   UNL     1      -2.993   6.245 -15.183  1.00  0.00     0.167 HD
ATOM     54  C   UNL     1      -0.854   6.934 -16.934  1.00  0.00     0.074 A 
ATOM     55  C   UNL     1       0.465   7.296 -17.413  1.00  0.00     0.031 C 
ATOM     56  C   UNL     1      -1.930   6.734 -17.734  1.00  0.00     0.037 A 
BRANCH  43  57
ATOM     57  C   UNL     1      -7.077   5.068 -14.718  1.00  0.00     0.058 A 
ATOM     58  C   UNL     1      -8.129   5.852 -14.215  1.00  0.00     0.135 A 
ATOM     59  C   UNL     1      -7.406   3.832 -15.298  1.00  0.00     0.135 A 
ATOM     60  F   UNL     1      -7.874   7.037 -13.638  1.00  0.00    -0.206 F 
ATOM     61  C   UNL     1      -9.445   5.403 -14.234  1.00  0.00     0.059 A 
ATOM     62  C   UNL     1      -8.720   3.379 -15.361  1.00  0.00     0.059 A 
ATOM     63  F   UNL     1      -6.443   3.042 -15.800  1.00  0.00    -0.206 F 
ATOM     64  C   UNL     1      -9.730   4.161 -14.803  1.00  0.00     0.060 A 
BRANCH  64  65
ATOM     65  S   UNL     1     -11.438   3.579 -14.792  1.00  0.00     0.124 S 
ATOM     66  O   UNL     1     -11.618   3.236 -13.384  1.00  0.00    -0.237 OA
ATOM     67  O   UNL     1     -12.172   4.752 -15.257  1.00  0.00    -0.237 OA
ATOM     68  O   UNL     1     -11.419   2.448 -15.714  1.00  0.00    -0.744 OA
ENDBRANCH  64  65
ENDBRANCH  43  57
BRANCH  44  69
ATOM     69  C   UNL     1       2.550   7.641 -13.749  1.00  0.00     0.058 A 
ATOM     70  C   UNL     1       2.978   8.945 -14.037  1.00  0.00     0.135 A 
ATOM     71  C   UNL     1       3.508   6.727 -13.281  1.00  0.00     0.135 A 
ATOM     72  F   UNL     1       2.102   9.852 -14.495  1.00  0.00    -0.206 F 
ATOM     73  C   UNL     1       4.304   9.331 -13.871  1.00  0.00     0.059 A 
ATOM     74  C   UNL     1       4.835   7.096 -13.083  1.00  0.00     0.059 A 
ATOM     75  F   UNL     1       3.146   5.471 -12.976  1.00  0.00    -0.206 F 
ATOM     76  C   UNL     1       5.224   8.401 -13.384  1.00  0.00     0.060 A 
BRANCH  76  77
ATOM     77  S   UNL     1       6.925   8.938 -13.099  1.00  0.00     0.124 S 
ATOM     78  O   UNL     1       7.412   9.108 -14.463  1.00  0.00    -0.237 OA
ATOM     79  O   UNL     1       6.732  10.164 -12.331  1.00  0.00    -0.237 OA
ATOM     80  O   UNL     1       7.508   7.826 -12.354  1.00  0.00    -0.744 OA
ENDBRANCH  76  77
ENDBRANCH  44  69
BRANCH  56  81
ATOM     81  C   UNL     1      -1.758   6.960 -19.212  1.00  0.00     0.058 A 
ATOM     82  C   UNL     1      -1.055   6.061 -20.027  1.00  0.00     0.135 A 
ATOM     83  C   UNL     1      -2.389   8.053 -19.831  1.00  0.00     0.135 A 
ATOM     84  F   UNL     1      -0.427   5.005 -19.485  1.00  0.00    -0.206 F 
ATOM     85  C   UNL     1      -0.976   6.242 -21.405  1.00  0.00     0.059 A 
ATOM     86  C   UNL     1      -2.347   8.236 -21.209  1.00  0.00     0.059 A 
ATOM     87  F   UNL     1      -3.082   8.938 -19.097  1.00  0.00    -0.206 F 
ATOM     88  C   UNL     1      -1.633   7.328 -21.987  1.00  0.00     0.060 A 
BRANCH  88  89
ATOM     89  S   UNL     1      -1.577   7.513 -23.782  1.00  0.00     0.124 S 
ATOM     90  O   UNL     1      -0.196   7.937 -23.991  1.00  0.00    -0.237 OA
ATOM     91  O   UNL     1      -1.904   6.167 -24.244  1.00  0.00    -0.237 OA
ATOM     92  O   UNL     1      -2.592   8.526 -24.052  1.00  0.00    -0.744 OA
ENDBRANCH  88  89
ENDBRANCH  56  81
ENDBRANCH  30  31
ENDBRANCH  22  25
ENDBRANCH  20  21
ENDBRANCH   1  20
TORSDOF 15
