REMARK SMILES O=C(CNC(=O)CN1C(=O)S/C(=C\c2cccc(Br)c2)C1=O)NCCCNC(=O)c1ccc(-c2c3nc(c(-c4c(F)cc(S(=O)(=O)[O-])cc4F)c4ccc([nH]4)c(-c4c(F)cc(S(=O)(=O)[O-])cc4F)c4nc(c(-c5c(F)cc(S(=O)(=O)[O-])cc5F)c5ccc2[nH]5)C=C4)C=C3)cc1
REMARK SMILES IDX 24 1 23 2 1 3 2 4 3 6 4 7 5 8 6 10 7 11 8 12 9 13 21 14
REMARK SMILES IDX 10 15 11 16 12 17 22 18 13 19 14 20 15 21 20 22 16 23 18 24
REMARK SMILES IDX 17 25 19 26 25 27 26 28 27 29 28 30 29 32 30 33 31 34 95 35
REMARK SMILES IDX 32 36 94 37 33 38 34 39 35 40 88 41 36 42 93 43 87 44 89 45
REMARK SMILES IDX 37 46 92 47 86 48 85 49 38 51 72 52 51 53 71 54 52 55 55 56
REMARK SMILES IDX 70 57 90 58 53 59 54 60 69 62 91 63 56 64 39 65 40 66 49 67
REMARK SMILES IDX 41 68 42 69 48 70 50 71 43 72 44 73 45 74 46 75 47 76 73 77
REMARK SMILES IDX 74 78 83 79 75 80 76 81 82 82 84 83 77 84 78 85 79 86 80 87
REMARK SMILES IDX 81 88 57 89 58 90 67 91 59 92 60 93 66 94 68 95 61 96 62 97
REMARK SMILES IDX 63 98 64 99 65 100
REMARK H PARENT 23 5 4 9 27 31 89 50 55 61
REMARK Flexibility Score: inf
ROOT
ATOM      1  C   UNL     1       1.885   2.380   0.650  1.00  0.00     0.117 C 
ENDROOT
BRANCH   1   2
ATOM      2  N   UNL     1       2.554   1.216   0.079  1.00  0.00    -0.355 N 
ATOM      3  O   UNL     1       0.861  -0.305   0.425  1.00  0.00    -0.273 OA
ATOM      4  C   UNL     1       1.962  -0.028  -0.041  1.00  0.00     0.239 C 
ATOM      5  H   UNL     1       3.479   1.323  -0.239  1.00  0.00     0.163 HD
BRANCH   4   6
ATOM      6  C   UNL     1       2.854  -1.101  -0.687  1.00  0.00     0.216 C 
BRANCH   6   7
ATOM      7  N   UNL     1       3.844  -0.524  -1.587  1.00  0.00    -0.345 N 
ATOM      8  C   UNL     1       5.190  -0.681  -1.679  1.00  0.00     0.240 C 
ATOM      9  H   UNL     1       3.467   0.093  -2.254  1.00  0.00     0.164 HD
ATOM     10  O   UNL     1       5.714  -0.260  -2.716  1.00  0.00    -0.273 OA
BRANCH   8  11
ATOM     11  C   UNL     1       6.014  -1.494  -0.679  1.00  0.00     0.229 C 
BRANCH  11  12
ATOM     12  N   UNL     1       5.756  -1.251   0.726  1.00  0.00    -0.259 N 
ATOM     13  C   UNL     1       5.375  -2.256   1.568  1.00  0.00     0.294 C 
ATOM     14  C   UNL     1       6.059  -0.044   1.305  1.00  0.00     0.268 C 
ATOM     15  O   UNL     1       5.155  -3.423   1.261  1.00  0.00    -0.261 OA
ATOM     16  S   UNL     1       5.217  -1.662   3.202  1.00  0.00    -0.022 SA
ATOM     17  C   UNL     1       5.810  -0.114   2.770  1.00  0.00     0.083 C 
ATOM     18  O   UNL     1       6.412   0.964   0.710  1.00  0.00    -0.268 OA
ATOM     19  C   UNL     1       6.000   0.937   3.572  1.00  0.00     0.029 C 
BRANCH  19  20
ATOM     20  C   UNL     1       5.617   1.010   4.987  1.00  0.00    -0.023 A 
ATOM     21  C   UNL     1       6.469   0.543   5.987  1.00  0.00     0.008 A 
ATOM     22  C   UNL     1       4.391   1.585   5.354  1.00  0.00     0.023 A 
ATOM     23  C   UNL     1       6.103   0.666   7.332  1.00  0.00     0.002 A 
ATOM     24  C   UNL     1       4.029   1.705   6.692  1.00  0.00     0.018 A 
ATOM     25  C   UNL     1       4.883   1.251   7.687  1.00  0.00     0.016 A 
ATOM     26  Br  UNL     1       2.357   2.479   7.114  1.00  0.00    -0.051 Br
ENDBRANCH  19  20
ENDBRANCH  11  12
ENDBRANCH   8  11
ENDBRANCH   6   7
ENDBRANCH   4   6
ENDBRANCH   1   2
BRANCH   1  27
ATOM     27  C   UNL     1       2.411   2.781   2.040  1.00  0.00     0.042 C 
BRANCH  27  28
ATOM     28  C   UNL     1       3.890   3.213   2.086  1.00  0.00     0.118 C 
BRANCH  28  29
ATOM     29  N   UNL     1       4.146   4.644   2.130  1.00  0.00    -0.352 N 
ATOM     30  C   UNL     1       4.877   5.463   2.976  1.00  0.00     0.251 C 
ATOM     31  H   UNL     1       3.704   5.138   1.403  1.00  0.00     0.163 HD
ATOM     32  O   UNL     1       5.092   6.611   2.581  1.00  0.00    -0.269 OA
BRANCH  30  33
ATOM     33  C   UNL     1       5.356   5.120   4.352  1.00  0.00     0.039 A 
ATOM     34  C   UNL     1       4.915   5.918   5.411  1.00  0.00     0.014 A 
ATOM     35  C   UNL     1       6.405   4.255   4.640  1.00  0.00     0.014 A 
ATOM     36  C   UNL     1       5.423   5.762   6.728  1.00  0.00     0.010 A 
ATOM     37  C   UNL     1       6.816   4.016   5.989  1.00  0.00     0.010 A 
ATOM     38  C   UNL     1       6.302   4.724   7.093  1.00  0.00    -0.014 A 
BRANCH  38  39
ATOM     39  C   UNL     1       6.598   4.391   8.575  1.00  0.00     0.031 A 
ATOM     40  C   UNL     1       7.963   3.913   9.100  1.00  0.00     0.074 A 
ATOM     41  C   UNL     1       5.605   4.399   9.511  1.00  0.00     0.049 A 
ATOM     42  N   UNL     1       8.300   3.521  10.316  1.00  0.00    -0.248 NA
ATOM     43  C   UNL     1       9.076   3.821   8.148  1.00  0.00     0.031 C 
ATOM     44  C   UNL     1       4.195   4.704   9.264  1.00  0.00     0.029 A 
ATOM     45  N   UNL     1       5.615   4.115  10.871  1.00  0.00    -0.354 N 
ATOM     46  C   UNL     1       9.635   3.115  10.257  1.00  0.00     0.074 A 
ATOM     47  C   UNL     1      10.013   3.211   8.863  1.00  0.00     0.031 C 
ATOM     48  C   UNL     1       3.494   4.615  10.402  1.00  0.00     0.029 A 
ATOM     49  C   UNL     1       4.381   4.220  11.485  1.00  0.00     0.049 A 
ATOM     50  H   UNL     1       6.433   3.861  11.356  1.00  0.00     0.167 HD
ATOM     51  C   UNL     1      10.503   2.760  11.247  1.00  0.00     0.037 A 
ATOM     52  C   UNL     1       3.963   4.037  12.758  1.00  0.00     0.037 A 
ATOM     53  C   UNL     1      10.206   2.736  12.661  1.00  0.00     0.049 A 
ATOM     54  C   UNL     1       4.936   3.685  13.850  1.00  0.00     0.074 A 
ATOM     55  C   UNL     1      11.080   2.525  13.720  1.00  0.00     0.029 A 
ATOM     56  N   UNL     1       8.957   2.929  13.224  1.00  0.00    -0.354 N 
ATOM     57  N   UNL     1       6.220   3.447  13.762  1.00  0.00    -0.248 NA
ATOM     58  C   UNL     1       4.407   3.607  15.223  1.00  0.00     0.031 C 
ATOM     59  C   UNL     1      10.352   2.544  14.915  1.00  0.00     0.029 A 
ATOM     60  C   UNL     1       9.034   2.822  14.607  1.00  0.00     0.049 A 
ATOM     61  H   UNL     1       8.133   3.115  12.718  1.00  0.00     0.167 HD
ATOM     62  C   UNL     1       6.658   3.247  15.069  1.00  0.00     0.074 A 
ATOM     63  C   UNL     1       5.507   3.390  15.930  1.00  0.00     0.031 C 
ATOM     64  C   UNL     1       7.914   2.980  15.501  1.00  0.00     0.037 A 
BRANCH  51  65
ATOM     65  C   UNL     1      11.928   2.424  10.851  1.00  0.00     0.058 A 
ATOM     66  C   UNL     1      12.793   3.404  10.335  1.00  0.00     0.135 A 
ATOM     67  C   UNL     1      12.460   1.138  11.058  1.00  0.00     0.135 A 
ATOM     68  F   UNL     1      12.351   4.655  10.129  1.00  0.00    -0.206 F 
ATOM     69  C   UNL     1      14.104   3.109   9.976  1.00  0.00     0.059 A 
ATOM     70  C   UNL     1      13.784   0.831  10.745  1.00  0.00     0.059 A 
ATOM     71  F   UNL     1      11.697   0.166  11.581  1.00  0.00    -0.206 F 
ATOM     72  C   UNL     1      14.590   1.817  10.179  1.00  0.00     0.060 A 
BRANCH  72  73
ATOM     73  S   UNL     1      16.287   1.453   9.684  1.00  0.00     0.124 S 
ATOM     74  O   UNL     1      16.169   1.453   8.228  1.00  0.00    -0.237 OA
ATOM     75  O   UNL     1      17.028   2.571  10.258  1.00  0.00    -0.237 OA
ATOM     76  O   UNL     1      16.549   0.152  10.291  1.00  0.00    -0.744 OA
ENDBRANCH  72  73
ENDBRANCH  51  65
BRANCH  52  77
ATOM     77  C   UNL     1       2.527   4.256  13.109  1.00  0.00     0.058 A 
ATOM     78  C   UNL     1       2.135   5.380  13.853  1.00  0.00     0.135 A 
ATOM     79  C   UNL     1       1.528   3.346  12.730  1.00  0.00     0.135 A 
ATOM     80  F   UNL     1       3.055   6.272  14.253  1.00  0.00    -0.206 F 
ATOM     81  C   UNL     1       0.812   5.583  14.231  1.00  0.00     0.059 A 
ATOM     82  C   UNL     1       0.192   3.542  13.071  1.00  0.00     0.059 A 
ATOM     83  F   UNL     1       1.847   2.262  12.006  1.00  0.00    -0.206 F 
ATOM     84  C   UNL     1      -0.154   4.659  13.832  1.00  0.00     0.060 A 
BRANCH  84  85
ATOM     85  S   UNL     1      -1.874   4.958  14.299  1.00  0.00     0.124 S 
ATOM     86  O   UNL     1      -1.838   4.713  15.736  1.00  0.00    -0.237 OA
ATOM     87  O   UNL     1      -2.062   6.348  13.893  1.00  0.00    -0.237 OA
ATOM     88  O   UNL     1      -2.613   3.977  13.509  1.00  0.00    -0.744 OA
ENDBRANCH  84  85
ENDBRANCH  52  77
BRANCH  64  89
ATOM     89  C   UNL     1       8.153   2.882  16.987  1.00  0.00     0.058 A 
ATOM     90  C   UNL     1       7.662   1.814  17.756  1.00  0.00     0.135 A 
ATOM     91  C   UNL     1       8.925   3.853  17.647  1.00  0.00     0.135 A 
ATOM     92  F   UNL     1       6.911   0.859  17.184  1.00  0.00    -0.206 F 
ATOM     93  C   UNL     1       7.907   1.725  19.125  1.00  0.00     0.059 A 
ATOM     94  C   UNL     1       9.208   3.769  19.009  1.00  0.00     0.059 A 
ATOM     95  F   UNL     1       9.426   4.896  16.966  1.00  0.00    -0.206 F 
ATOM     96  C   UNL     1       8.685   2.706  19.742  1.00  0.00     0.060 A 
BRANCH  96  97
ATOM     97  S   UNL     1       9.028   2.557  21.510  1.00  0.00     0.124 S 
ATOM     98  O   UNL     1       7.729   2.879  22.091  1.00  0.00    -0.237 OA
ATOM     99  O   UNL     1       9.448   1.165  21.629  1.00  0.00    -0.237 OA
ATOM    100  O   UNL     1      10.079   3.544  21.738  1.00  0.00    -0.744 OA
ENDBRANCH  96  97
ENDBRANCH  64  89
ENDBRANCH  38  39
ENDBRANCH  30  33
ENDBRANCH  28  29
ENDBRANCH  27  28
ENDBRANCH   1  27
TORSDOF 17
