REMARK SMILES Cn1ncc(C(=O)NCCCNC(=O)c2ccc(-c3c4nc(c(-c5c(F)cc(S(=O)(=O)[O-])cc5F)c5ccc([nH]5)c(-c5c(F)cc(S(=O)(=O)[O-])cc5F)c5nc(c(-c6c(F)cc(S(=O)(=O)[O-])cc6F)c6ccc3[nH]6)C=C5)C=C4)cc2)c1C(=O)Nc1nccc(-c2ccc(OC(F)F)cc2)n1
REMARK SMILES IDX 9 1 8 2 6 3 7 4 5 6 1 7 2 8 3 9 81 10 4 11 82 12 83 13 84 14
REMARK SMILES IDX 85 16 86 17 100 18 87 19 89 20 88 21 90 22 91 23 99 24 92 25
REMARK SMILES IDX 98 26 93 27 94 28 95 29 96 30 97 31 10 32 11 33 12 34 13 35
REMARK SMILES IDX 14 37 15 38 16 39 80 40 17 41 79 42 18 43 19 44 20 45 73 46
REMARK SMILES IDX 21 47 78 48 72 49 74 50 22 51 77 52 71 53 70 54 23 56 57 57
REMARK SMILES IDX 36 58 56 59 37 60 40 61 55 62 75 63 38 64 39 65 54 67 76 68
REMARK SMILES IDX 41 69 24 70 25 71 34 72 26 73 27 74 33 75 35 76 28 77 29 78
REMARK SMILES IDX 30 79 31 80 32 81 58 82 59 83 68 84 60 85 61 86 67 87 69 88
REMARK SMILES IDX 62 89 63 90 64 91 65 92 66 93 42 94 43 95 52 96 44 97 45 98
REMARK SMILES IDX 51 99 53 100 46 101 47 102 48 103 49 104 50 105
REMARK H PARENT 8 5 84 15 12 36 74 55 40 66
REMARK Flexibility Score: inf
ROOT
ATOM      1  C   UNL     1       1.513  -3.872  -0.043  1.00  0.00     0.118 C 
ENDROOT
BRANCH   1   2
ATOM      2  N   UNL     1       2.549  -2.874  -0.079  1.00  0.00    -0.352 N 
ATOM      3  C   UNL     1       2.546  -1.509  -0.055  1.00  0.00     0.255 C 
ATOM      4  O   UNL     1       3.668  -1.003  -0.171  1.00  0.00    -0.269 OA
ATOM      5  H   UNL     1       3.454  -3.258  -0.133  1.00  0.00     0.163 HD
BRANCH   3   6
ATOM      6  C   UNL     1       1.380  -0.637   0.089  1.00  0.00     0.090 A 
ATOM      7  C   UNL     1      -1.578   0.995   1.335  1.00  0.00     0.174 C 
ATOM      8  N   UNL     1      -0.416   0.528   0.618  1.00  0.00    -0.262 N 
ATOM      9  N   UNL     1       0.432   1.463   0.166  1.00  0.00    -0.180 NA
ATOM     10  C   UNL     1       0.044  -0.766   0.496  1.00  0.00     0.139 A 
ATOM     11  C   UNL     1       1.521   0.764  -0.130  1.00  0.00     0.149 A 
BRANCH  10  12
ATOM     12  C   UNL     1      -0.686  -1.903   0.991  1.00  0.00     0.277 C 
ATOM     13  O   UNL     1      -0.314  -2.509   1.998  1.00  0.00    -0.267 OA
ATOM     14  N   UNL     1      -1.758  -2.436   0.310  1.00  0.00    -0.289 N 
ATOM     15  H   UNL     1      -1.718  -3.390   0.070  1.00  0.00     0.173 HD
BRANCH  14  16
ATOM     16  C   UNL     1      -2.888  -1.727  -0.062  1.00  0.00     0.230 A 
ATOM     17  N   UNL     1      -3.974  -2.100   0.630  1.00  0.00    -0.221 NA
ATOM     18  N   UNL     1      -2.842  -0.688  -0.894  1.00  0.00    -0.213 NA
ATOM     19  C   UNL     1      -5.058  -1.315   0.531  1.00  0.00     0.117 A 
ATOM     20  C   UNL     1      -3.978   0.043  -1.025  1.00  0.00     0.076 A 
ATOM     21  C   UNL     1      -5.115  -0.215  -0.285  1.00  0.00     0.049 A 
BRANCH  20  22
ATOM     22  C   UNL     1      -3.857   1.229  -1.877  1.00  0.00     0.001 A 
ATOM     23  C   UNL     1      -3.611   1.120  -3.251  1.00  0.00     0.014 A 
ATOM     24  C   UNL     1      -3.895   2.515  -1.314  1.00  0.00     0.014 A 
ATOM     25  C   UNL     1      -3.362   2.262  -4.022  1.00  0.00     0.047 A 
ATOM     26  C   UNL     1      -3.616   3.651  -2.078  1.00  0.00     0.047 A 
ATOM     27  C   UNL     1      -3.336   3.530  -3.436  1.00  0.00     0.126 A 
BRANCH  27  28
ATOM     28  O   UNL     1      -3.017   4.551  -4.285  1.00  0.00    -0.435 OA
BRANCH  28  29
ATOM     29  C   UNL     1      -2.922   5.864  -3.750  1.00  0.00     0.542 C 
ATOM     30  F   UNL     1      -4.109   6.234  -3.209  1.00  0.00    -0.167 F 
ATOM     31  F   UNL     1      -1.980   5.913  -2.777  1.00  0.00    -0.167 F 
ENDBRANCH  28  29
ENDBRANCH  27  28
ENDBRANCH  20  22
ENDBRANCH  14  16
ENDBRANCH  10  12
ENDBRANCH   3   6
ENDBRANCH   1   2
BRANCH   1  32
ATOM     32  C   UNL     1       1.472  -4.741  -1.282  1.00  0.00     0.042 C 
BRANCH  32  33
ATOM     33  C   UNL     1       2.598  -5.753  -1.353  1.00  0.00     0.118 C 
BRANCH  33  34
ATOM     34  N   UNL     1       2.531  -6.744  -0.282  1.00  0.00    -0.352 N 
ATOM     35  C   UNL     1       2.203  -8.079  -0.329  1.00  0.00     0.251 C 
ATOM     36  H   UNL     1       2.755  -6.403   0.614  1.00  0.00     0.163 HD
ATOM     37  O   UNL     1       2.000  -8.698   0.713  1.00  0.00    -0.269 OA
BRANCH  35  38
ATOM     38  C   UNL     1       2.072  -8.756  -1.635  1.00  0.00     0.039 A 
ATOM     39  C   UNL     1       1.011  -9.638  -1.853  1.00  0.00     0.014 A 
ATOM     40  C   UNL     1       2.986  -8.493  -2.655  1.00  0.00     0.014 A 
ATOM     41  C   UNL     1       0.816 -10.180  -3.126  1.00  0.00     0.010 A 
ATOM     42  C   UNL     1       2.722  -8.931  -3.943  1.00  0.00     0.010 A 
ATOM     43  C   UNL     1       1.641  -9.788  -4.193  1.00  0.00    -0.014 A 
BRANCH  43  44
ATOM     44  C   UNL     1       1.423 -10.263  -5.582  1.00  0.00     0.031 A 
ATOM     45  C   UNL     1       2.525 -11.010  -6.286  1.00  0.00     0.074 A 
ATOM     46  C   UNL     1       0.295  -9.929  -6.240  1.00  0.00     0.049 A 
ATOM     47  N   UNL     1       2.616 -11.360  -7.542  1.00  0.00    -0.248 NA
ATOM     48  C   UNL     1       3.703 -11.370  -5.477  1.00  0.00     0.031 C 
ATOM     49  C   UNL     1      -0.820  -9.162  -5.679  1.00  0.00     0.029 A 
ATOM     50  N   UNL     1      -0.091 -10.171  -7.534  1.00  0.00    -0.354 N 
ATOM     51  C   UNL     1       3.868 -11.949  -7.679  1.00  0.00     0.074 A 
ATOM     52  C   UNL     1       4.525 -11.856  -6.395  1.00  0.00     0.031 C 
ATOM     53  C   UNL     1      -1.771  -9.015  -6.616  1.00  0.00     0.029 A 
ATOM     54  C   UNL     1      -1.314  -9.631  -7.857  1.00  0.00     0.049 A 
ATOM     55  H   UNL     1       0.457 -10.684  -8.172  1.00  0.00     0.167 HD
ATOM     56  C   UNL     1       4.410 -12.539  -8.770  1.00  0.00     0.037 A 
ATOM     57  C   UNL     1      -1.983  -9.620  -9.027  1.00  0.00     0.037 A 
ATOM     58  C   UNL     1       3.727 -12.665 -10.029  1.00  0.00     0.049 A 
ATOM     59  C   UNL     1      -1.367 -10.292 -10.224  1.00  0.00     0.074 A 
ATOM     60  C   UNL     1       4.154 -13.304 -11.179  1.00  0.00     0.029 A 
ATOM     61  N   UNL     1       2.469 -12.146 -10.302  1.00  0.00    -0.354 N 
ATOM     62  N   UNL     1      -0.206 -10.896 -10.322  1.00  0.00    -0.248 NA
ATOM     63  C   UNL     1      -2.148 -10.287 -11.468  1.00  0.00     0.031 C 
ATOM     64  C   UNL     1       3.174 -13.135 -12.160  1.00  0.00     0.029 A 
ATOM     65  C   UNL     1       2.112 -12.436 -11.607  1.00  0.00     0.049 A 
ATOM     66  H   UNL     1       1.913 -11.645  -9.662  1.00  0.00     0.167 HD
ATOM     67  C   UNL     1      -0.132 -11.370 -11.627  1.00  0.00     0.074 A 
ATOM     68  C   UNL     1      -1.367 -10.988 -12.279  1.00  0.00     0.031 C 
ATOM     69  C   UNL     1       0.866 -12.062 -12.230  1.00  0.00     0.037 A 
BRANCH  56  70
ATOM     70  C   UNL     1       5.800 -13.099  -8.644  1.00  0.00     0.058 A 
ATOM     71  C   UNL     1       6.073 -14.227  -7.853  1.00  0.00     0.135 A 
ATOM     72  C   UNL     1       6.870 -12.518  -9.345  1.00  0.00     0.135 A 
ATOM     73  F   UNL     1       5.092 -14.812  -7.147  1.00  0.00    -0.206 F 
ATOM     74  C   UNL     1       7.361 -14.739  -7.735  1.00  0.00     0.059 A 
ATOM     75  C   UNL     1       8.161 -13.033  -9.266  1.00  0.00     0.059 A 
ATOM     76  F   UNL     1       6.667 -11.437 -10.114  1.00  0.00    -0.206 F 
ATOM     77  C   UNL     1       8.398 -14.135  -8.446  1.00  0.00     0.060 A 
BRANCH  77  78
ATOM     78  S   UNL     1      10.061 -14.819  -8.288  1.00  0.00     0.124 S 
ATOM     79  O   UNL     1      10.423 -14.392  -6.939  1.00  0.00    -0.237 OA
ATOM     80  O   UNL     1       9.828 -16.249  -8.458  1.00  0.00    -0.237 OA
ATOM     81  O   UNL     1      10.799 -14.174  -9.369  1.00  0.00    -0.744 OA
ENDBRANCH  77  78
ENDBRANCH  56  70
BRANCH  57  82
ATOM     82  C   UNL     1      -3.317  -8.968  -9.116  1.00  0.00     0.058 A 
ATOM     83  C   UNL     1      -4.483  -9.733  -9.269  1.00  0.00     0.135 A 
ATOM     84  C   UNL     1      -3.459  -7.574  -9.030  1.00  0.00     0.135 A 
ATOM     85  F   UNL     1      -4.401 -11.069  -9.361  1.00  0.00    -0.206 F 
ATOM     86  C   UNL     1      -5.740  -9.141  -9.351  1.00  0.00     0.059 A 
ATOM     87  C   UNL     1      -4.707  -6.960  -9.084  1.00  0.00     0.059 A 
ATOM     88  F   UNL     1      -2.378  -6.796  -8.864  1.00  0.00    -0.206 F 
ATOM     89  C   UNL     1      -5.842  -7.752  -9.255  1.00  0.00     0.060 A 
BRANCH  89  90
ATOM     90  S   UNL     1      -7.482  -6.998  -9.313  1.00  0.00     0.124 S 
ATOM     91  O   UNL     1      -7.827  -7.153 -10.721  1.00  0.00    -0.237 OA
ATOM     92  O   UNL     1      -8.234  -7.828  -8.376  1.00  0.00    -0.237 OA
ATOM     93  O   UNL     1      -7.238  -5.629  -8.868  1.00  0.00    -0.744 OA
ENDBRANCH  89  90
ENDBRANCH  57  82
BRANCH  69  94
ATOM     94  C   UNL     1       0.653 -12.496 -13.652  1.00  0.00     0.058 A 
ATOM     95  C   UNL     1       0.717 -11.589 -14.720  1.00  0.00     0.135 A 
ATOM     96  C   UNL     1       0.466 -13.856 -13.954  1.00  0.00     0.135 A 
ATOM     97  F   UNL     1       0.887 -10.278 -14.484  1.00  0.00    -0.206 F 
ATOM     98  C   UNL     1       0.594 -12.013 -16.038  1.00  0.00     0.059 A 
ATOM     99  C   UNL     1       0.367 -14.305 -15.266  1.00  0.00     0.059 A 
ATOM    100  F   UNL     1       0.407 -14.765 -12.967  1.00  0.00    -0.206 F 
ATOM    101  C   UNL     1       0.426 -13.374 -16.302  1.00  0.00     0.060 A 
BRANCH 101 102
ATOM    102  S   UNL     1       0.328 -13.917 -18.020  1.00  0.00     0.124 S 
ATOM    103  O   UNL     1      -1.004 -13.458 -18.398  1.00  0.00    -0.237 OA
ATOM    104  O   UNL     1       1.443 -13.203 -18.637  1.00  0.00    -0.237 OA
ATOM    105  O   UNL     1       0.492 -15.365 -17.930  1.00  0.00    -0.744 OA
ENDBRANCH 101 102
ENDBRANCH  69  94
ENDBRANCH  43  44
ENDBRANCH  35  38
ENDBRANCH  33  34
ENDBRANCH  32  33
ENDBRANCH   1  32
TORSDOF 18
