REMARK SMILES CCc1cc(C(=O)c2[nH]c3cc(Cl)ccc3c2CC(=O)NCCCNC(=O)c2ccc(-c3c4nc(c(-c5c(F)cc(S(=O)(=O)[O-])cc5F)c5ccc([nH]5)c(-c5c(F)cc(S(=O)(=O)[O-])cc5F)c5nc(c(-c6c(F)cc(S(=O)(=O)[O-])cc6F)c6ccc3[nH]6)C=C5)C=C4)cc2)ncc1Cl
REMARK SMILES IDX 22 1 21 2 19 3 20 4 18 6 17 7 8 8 9 9 10 10 16 12 11 13
REMARK SMILES IDX 15 14 12 15 14 16 13 17 6 18 7 19 5 20 3 21 4 22 96 23 95 24
REMARK SMILES IDX 97 25 94 26 2 27 1 28 23 29 24 30 25 31 26 32 27 34 28 35
REMARK SMILES IDX 29 36 93 37 30 38 92 39 31 40 32 41 33 42 86 43 34 44 91 45
REMARK SMILES IDX 85 46 87 47 35 48 90 49 84 50 83 51 36 53 70 54 49 55 69 56
REMARK SMILES IDX 50 57 53 58 68 59 88 60 51 61 52 62 67 64 89 65 54 66 37 67
REMARK SMILES IDX 38 68 47 69 39 70 40 71 46 72 48 73 41 74 42 75 43 76 44 77
REMARK SMILES IDX 45 78 71 79 72 80 81 81 73 82 74 83 80 84 82 85 75 86 76 87
REMARK SMILES IDX 77 88 78 89 79 90 55 91 56 92 65 93 57 94 58 95 64 96 66 97
REMARK SMILES IDX 59 98 60 99 61 100 62 101 63 102
REMARK H PARENT 21 5 9 11 25 33 87 52 53 63
REMARK Flexibility Score: inf
ROOT
ATOM      1  C   UNL     1       0.683   8.425   2.685  1.00  0.00     0.117 C 
ENDROOT
BRANCH   1   2
ATOM      2  N   UNL     1       1.512   7.648   3.588  1.00  0.00    -0.356 N 
ATOM      3  C   UNL     1       2.169   6.471   3.373  1.00  0.00     0.224 C 
ATOM      4  O   UNL     1       2.960   6.078   4.237  1.00  0.00    -0.275 OA
ATOM      5  H   UNL     1       1.616   8.027   4.491  1.00  0.00     0.163 HD
BRANCH   3   6
ATOM      6  C   UNL     1       2.015   5.716   2.063  1.00  0.00     0.138 C 
BRANCH   6   7
ATOM      7  C   UNL     1       0.643   5.157   1.825  1.00  0.00    -0.002 A 
ATOM      8  C   UNL     1      -0.057   4.257   2.622  1.00  0.00     0.093 A 
ATOM      9  N   UNL     1      -1.317   4.122   2.086  1.00  0.00    -0.351 N 
ATOM     10  C   UNL     1      -1.392   4.758   0.871  1.00  0.00     0.048 A 
ATOM     11  H   UNL     1      -2.060   3.637   2.513  1.00  0.00     0.167 HD
ATOM     12  C   UNL     1      -0.180   5.419   0.678  1.00  0.00     0.004 A 
ATOM     13  C   UNL     1      -2.445   4.812  -0.051  1.00  0.00     0.047 A 
ATOM     14  C   UNL     1      -0.009   6.176  -0.501  1.00  0.00     0.012 A 
ATOM     15  C   UNL     1      -2.241   5.561  -1.212  1.00  0.00     0.043 A 
ATOM     16  C   UNL     1      -1.046   6.236  -1.439  1.00  0.00     0.021 A 
ATOM     17  Cl  UNL     1      -3.494   5.647  -2.390  1.00  0.00    -0.084 Cl
BRANCH   8  18
ATOM     18  C   UNL     1       0.349   3.594   3.849  1.00  0.00     0.227 C 
ATOM     19  O   UNL     1       0.311   4.176   4.926  1.00  0.00    -0.285 OA
BRANCH  18  20
ATOM     20  C   UNL     1       0.781   2.146   3.759  1.00  0.00     0.113 A 
ATOM     21  C   UNL     1       0.997   0.037   2.565  1.00  0.00    -0.026 A 
ATOM     22  C   UNL     1       0.613   1.392   2.595  1.00  0.00     0.037 A 
ATOM     23  C   UNL     1       1.560  -0.505   3.726  1.00  0.00     0.062 A 
ATOM     24  C   UNL     1       1.694   0.316   4.841  1.00  0.00     0.132 A 
ATOM     25  Cl  UNL     1       2.094  -2.139   3.841  1.00  0.00    -0.082 Cl
ATOM     26  N   UNL     1       1.316   1.615   4.886  1.00  0.00    -0.251 NA
BRANCH  21  27
ATOM     27  C   UNL     1       0.744  -0.761   1.306  1.00  0.00     0.034 C 
ATOM     28  C   UNL     1       1.534  -0.253   0.107  1.00  0.00     0.009 C 
ENDBRANCH  21  27
ENDBRANCH  18  20
ENDBRANCH   8  18
ENDBRANCH   6   7
ENDBRANCH   3   6
ENDBRANCH   1   2
BRANCH   1  29
ATOM     29  C   UNL     1      -0.816   8.235   2.906  1.00  0.00     0.042 C 
BRANCH  29  30
ATOM     30  C   UNL     1      -1.339   8.707   4.261  1.00  0.00     0.118 C 
BRANCH  30  31
ATOM     31  N   UNL     1      -1.266  10.151   4.416  1.00  0.00    -0.352 N 
ATOM     32  C   UNL     1      -2.247  11.069   4.699  1.00  0.00     0.251 C 
ATOM     33  H   UNL     1      -0.367  10.533   4.299  1.00  0.00     0.163 HD
ATOM     34  O   UNL     1      -1.978  12.266   4.611  1.00  0.00    -0.269 OA
BRANCH  32  35
ATOM     35  C   UNL     1      -3.617  10.656   5.092  1.00  0.00     0.039 A 
ATOM     36  C   UNL     1      -4.700  11.392   4.593  1.00  0.00     0.014 A 
ATOM     37  C   UNL     1      -3.849   9.620   6.002  1.00  0.00     0.014 A 
ATOM     38  C   UNL     1      -6.007  11.062   4.964  1.00  0.00     0.010 A 
ATOM     39  C   UNL     1      -5.158   9.268   6.346  1.00  0.00     0.010 A 
ATOM     40  C   UNL     1      -6.247   9.987   5.832  1.00  0.00    -0.014 A 
BRANCH  40  41
ATOM     41  C   UNL     1      -7.631   9.616   6.219  1.00  0.00     0.031 A 
ATOM     42  C   UNL     1      -8.135   9.899   7.605  1.00  0.00     0.074 A 
ATOM     43  C   UNL     1      -8.427   8.981   5.339  1.00  0.00     0.049 A 
ATOM     44  N   UNL     1      -9.268   9.550   8.158  1.00  0.00    -0.248 NA
ATOM     45  C   UNL     1      -7.240  10.662   8.488  1.00  0.00     0.031 C 
ATOM     46  C   UNL     1      -8.059   8.624   3.969  1.00  0.00     0.029 A 
ATOM     47  N   UNL     1      -9.710   8.514   5.474  1.00  0.00    -0.354 N 
ATOM     48  C   UNL     1      -9.207  10.007   9.467  1.00  0.00     0.074 A 
ATOM     49  C   UNL     1      -7.932  10.678   9.620  1.00  0.00     0.031 C 
ATOM     50  C   UNL     1      -9.097   8.000   3.386  1.00  0.00     0.029 A 
ATOM     51  C   UNL     1     -10.192   7.898   4.347  1.00  0.00     0.049 A 
ATOM     52  H   UNL     1     -10.235   8.613   6.301  1.00  0.00     0.167 HD
ATOM     53  C   UNL     1     -10.122   9.872  10.457  1.00  0.00     0.037 A 
ATOM     54  C   UNL     1     -11.380   7.308   4.114  1.00  0.00     0.037 A 
ATOM     55  C   UNL     1     -11.410   9.249  10.308  1.00  0.00     0.049 A 
ATOM     56  C   UNL     1     -12.416   7.253   5.195  1.00  0.00     0.074 A 
ATOM     57  C   UNL     1     -12.405   9.082  11.256  1.00  0.00     0.029 A 
ATOM     58  N   UNL     1     -11.889   8.705   9.127  1.00  0.00    -0.354 N 
ATOM     59  N   UNL     1     -12.335   7.677   6.432  1.00  0.00    -0.248 NA
ATOM     60  C   UNL     1     -13.705   6.637   4.849  1.00  0.00     0.031 C 
ATOM     61  C   UNL     1     -13.491   8.441  10.644  1.00  0.00     0.029 A 
ATOM     62  C   UNL     1     -13.169   8.211   9.317  1.00  0.00     0.049 A 
ATOM     63  H   UNL     1     -11.392   8.675   8.278  1.00  0.00     0.167 HD
ATOM     64  C   UNL     1     -13.558   7.374   7.017  1.00  0.00     0.074 A 
ATOM     65  C   UNL     1     -14.368   6.741   5.995  1.00  0.00     0.031 C 
ATOM     66  C   UNL     1     -13.966   7.592   8.290  1.00  0.00     0.037 A 
BRANCH  53  67
ATOM     67  C   UNL     1      -9.730  10.400  11.802  1.00  0.00     0.058 A 
ATOM     68  C   UNL     1      -9.928  11.744  12.146  1.00  0.00     0.135 A 
ATOM     69  C   UNL     1      -9.116   9.558  12.742  1.00  0.00     0.135 A 
ATOM     70  F   UNL     1     -10.495  12.588  11.269  1.00  0.00    -0.206 F 
ATOM     71  C   UNL     1      -9.503  12.248  13.371  1.00  0.00     0.059 A 
ATOM     72  C   UNL     1      -8.688  10.039  13.974  1.00  0.00     0.059 A 
ATOM     73  F   UNL     1      -8.897   8.267  12.450  1.00  0.00    -0.206 F 
ATOM     74  C   UNL     1      -8.868  11.391  14.271  1.00  0.00     0.060 A 
BRANCH  74  75
ATOM     75  S   UNL     1      -8.263  12.031  15.848  1.00  0.00     0.124 S 
ATOM     76  O   UNL     1      -6.867  12.310  15.529  1.00  0.00    -0.237 OA
ATOM     77  O   UNL     1      -9.103  13.204  16.074  1.00  0.00    -0.237 OA
ATOM     78  O   UNL     1      -8.494  10.916  16.760  1.00  0.00    -0.744 OA
ENDBRANCH  74  75
ENDBRANCH  53  67
BRANCH  54  79
ATOM     79  C   UNL     1     -11.641   6.718   2.781  1.00  0.00     0.058 A 
ATOM     80  C   UNL     1     -12.269   7.467   1.778  1.00  0.00     0.135 A 
ATOM     81  C   UNL     1     -11.210   5.422   2.471  1.00  0.00     0.135 A 
ATOM     82  F   UNL     1     -12.695   8.713   2.038  1.00  0.00    -0.206 F 
ATOM     83  C   UNL     1     -12.454   6.954   0.499  1.00  0.00     0.059 A 
ATOM     84  C   UNL     1     -11.379   4.889   1.198  1.00  0.00     0.059 A 
ATOM     85  F   UNL     1     -10.595   4.677   3.402  1.00  0.00    -0.206 F 
ATOM     86  C   UNL     1     -12.001   5.664   0.218  1.00  0.00     0.060 A 
BRANCH  86  87
ATOM     87  S   UNL     1     -12.140   5.016  -1.463  1.00  0.00     0.124 S 
ATOM     88  O   UNL     1     -13.421   4.323  -1.405  1.00  0.00    -0.237 OA
ATOM     89  O   UNL     1     -12.107   6.226  -2.280  1.00  0.00    -0.237 OA
ATOM     90  O   UNL     1     -10.960   4.165  -1.576  1.00  0.00    -0.744 OA
ENDBRANCH  86  87
ENDBRANCH  54  79
BRANCH  66  91
ATOM     91  C   UNL     1     -15.350   7.144   8.645  1.00  0.00     0.058 A 
ATOM     92  C   UNL     1     -15.592   5.838   9.097  1.00  0.00     0.135 A 
ATOM     93  C   UNL     1     -16.437   8.025   8.552  1.00  0.00     0.135 A 
ATOM     94  F   UNL     1     -14.581   4.961   9.196  1.00  0.00    -0.206 F 
ATOM     95  C   UNL     1     -16.872   5.415   9.438  1.00  0.00     0.059 A 
ATOM     96  C   UNL     1     -17.726   7.623   8.890  1.00  0.00     0.059 A 
ATOM     97  F   UNL     1     -16.252   9.282   8.121  1.00  0.00    -0.206 F 
ATOM     98  C   UNL     1     -17.935   6.312   9.324  1.00  0.00     0.060 A 
BRANCH  98  99
ATOM     99  S   UNL     1     -19.600   5.783   9.781  1.00  0.00     0.124 S 
ATOM    100  O   UNL     1     -20.110   5.290   8.506  1.00  0.00    -0.237 OA
ATOM    101  O   UNL     1     -19.353   4.765  10.799  1.00  0.00    -0.237 OA
ATOM    102  O   UNL     1     -20.211   7.014  10.274  1.00  0.00    -0.744 OA
ENDBRANCH  98  99
ENDBRANCH  66  91
ENDBRANCH  40  41
ENDBRANCH  32  35
ENDBRANCH  30  31
ENDBRANCH  29  30
ENDBRANCH   1  29
TORSDOF 17
