REMARK SMILES CC1=NN(c2ccccc2)C(=O)/C1=C\c1ccc(-c2cc(C(=O)NCCCNC(=O)c3ccc(-c4c5nc(c(-c6c(F)cc(S(=O)(=O)[O-])cc6F)c6ccc([nH]6)c(-c6c(F)cc(S(=O)(=O)[O-])cc6F)c6nc(c(-c7c(F)cc(S(=O)(=O)[O-])cc7F)c7ccc4[nH]7)C=C6)C=C5)cc3)ccc2Cl)o1
REMARK SMILES IDX 26 1 25 2 24 3 22 4 23 5 21 7 19 8 20 9 99 10 98 11 100 12
REMARK SMILES IDX 97 13 18 14 15 15 16 16 101 17 17 18 14 19 1 20 2 21 3 22
REMARK SMILES IDX 13 23 4 24 11 25 12 26 5 27 6 28 10 29 7 30 9 31 8 32 27 33
REMARK SMILES IDX 28 34 29 35 30 37 31 38 32 39 96 40 33 41 95 42 34 43 35 44
REMARK SMILES IDX 36 45 89 46 37 47 94 48 88 49 90 50 38 51 93 52 87 53 86 54
REMARK SMILES IDX 39 56 73 57 52 58 72 59 53 60 56 61 71 62 91 63 54 64 55 65
REMARK SMILES IDX 70 67 92 68 57 69 40 70 41 71 50 72 42 73 43 74 49 75 51 76
REMARK SMILES IDX 44 77 45 78 46 79 47 80 48 81 74 82 75 83 84 84 76 85 77 86
REMARK SMILES IDX 83 87 85 88 78 89 79 90 80 91 81 92 82 93 58 94 59 95 68 96
REMARK SMILES IDX 60 97 61 98 67 99 69 100 62 101 63 102 64 103 65 104 66 105
REMARK H PARENT 24 6 28 36 90 55 56 66
REMARK Flexibility Score: inf
ROOT
ATOM      1  C   UNL     1       5.580  -8.949  -5.511  1.00  0.00     0.042 C 
ENDROOT
BRANCH   1   2
ATOM      2  C   UNL     1       6.398  -7.813  -4.923  1.00  0.00     0.118 C 
BRANCH   2   3
ATOM      3  N   UNL     1       5.934  -6.481  -5.297  1.00  0.00    -0.352 N 
ATOM      4  C   UNL     1       5.469  -5.416  -4.556  1.00  0.00     0.251 C 
ATOM      5  O   UNL     1       5.108  -4.401  -5.149  1.00  0.00    -0.269 OA
ATOM      6  H   UNL     1       5.957  -6.310  -6.266  1.00  0.00     0.163 HD
BRANCH   4   7
ATOM      7  C   UNL     1       5.355  -5.470  -3.073  1.00  0.00     0.040 A 
ATOM      8  C   UNL     1       4.158  -4.830  -1.041  1.00  0.00     0.037 A 
ATOM      9  C   UNL     1       4.335  -4.740  -2.435  1.00  0.00     0.027 A 
ATOM     10  C   UNL     1       4.949  -5.749  -0.324  1.00  0.00     0.052 A 
ATOM     11  C   UNL     1       6.018  -6.392  -0.940  1.00  0.00     0.022 A 
ATOM     12  Cl  UNL     1       4.672  -6.138   1.342  1.00  0.00    -0.084 Cl
ATOM     13  C   UNL     1       6.266  -6.180  -2.291  1.00  0.00     0.015 A 
BRANCH   8  14
ATOM     14  C   UNL     1       3.310  -3.880  -0.330  1.00  0.00     0.136 A 
ATOM     15  C   UNL     1       1.500  -2.648   0.014  1.00  0.00     0.128 A 
ATOM     16  C   UNL     1       2.384  -2.413   1.063  1.00  0.00     0.051 A 
ATOM     17  O   UNL     1       2.070  -3.588  -0.823  1.00  0.00    -0.457 OA
ATOM     18  C   UNL     1       3.551  -3.145   0.810  1.00  0.00     0.051 A 
BRANCH  15  19
ATOM     19  C   UNL     1       0.224  -2.044  -0.164  1.00  0.00     0.063 C 
ATOM     20  C   UNL     1      -2.482  -0.489   0.071  1.00  0.00     0.069 C 
ATOM     21  C   UNL     1      -1.110   0.092   0.005  1.00  0.00     0.071 C 
ATOM     22  N   UNL     1      -0.849   1.365   0.162  1.00  0.00    -0.169 NA
ATOM     23  C   UNL     1       0.111  -0.709  -0.198  1.00  0.00     0.068 C 
ATOM     24  N   UNL     1       0.521   1.496  -0.046  1.00  0.00    -0.196 N 
ATOM     25  C   UNL     1       1.195   0.299  -0.312  1.00  0.00     0.280 C 
ATOM     26  O   UNL     1       2.365   0.098  -0.562  1.00  0.00    -0.267 OA
BRANCH  24  27
ATOM     27  C   UNL     1       1.109   2.776  -0.067  1.00  0.00     0.069 A 
ATOM     28  C   UNL     1       0.669   3.780   0.800  1.00  0.00     0.028 A 
ATOM     29  C   UNL     1       2.168   3.050  -0.945  1.00  0.00     0.028 A 
ATOM     30  C   UNL     1       1.311   5.023   0.818  1.00  0.00     0.002 A 
ATOM     31  C   UNL     1       2.773   4.306  -0.963  1.00  0.00     0.002 A 
ATOM     32  C   UNL     1       2.355   5.288  -0.070  1.00  0.00     0.000 A 
ENDBRANCH  24  27
ENDBRANCH  15  19
ENDBRANCH   8  14
ENDBRANCH   4   7
ENDBRANCH   2   3
ENDBRANCH   1   2
BRANCH   1  33
ATOM     33  C   UNL     1       5.682  -9.090  -7.019  1.00  0.00     0.118 C 
BRANCH  33  34
ATOM     34  N   UNL     1       7.037  -9.382  -7.475  1.00  0.00    -0.352 N 
ATOM     35  C   UNL     1       7.594 -10.533  -7.982  1.00  0.00     0.251 C 
ATOM     36  H   UNL     1       7.660  -8.624  -7.407  1.00  0.00     0.163 HD
ATOM     37  O   UNL     1       8.813 -10.591  -8.122  1.00  0.00    -0.269 OA
BRANCH  35  38
ATOM     38  C   UNL     1       6.754 -11.701  -8.332  1.00  0.00     0.039 A 
ATOM     39  C   UNL     1       7.239 -12.988  -8.080  1.00  0.00     0.014 A 
ATOM     40  C   UNL     1       5.502 -11.543  -8.928  1.00  0.00     0.014 A 
ATOM     41  C   UNL     1       6.435 -14.100  -8.345  1.00  0.00     0.010 A 
ATOM     42  C   UNL     1       4.661 -12.639  -9.085  1.00  0.00     0.010 A 
ATOM     43  C   UNL     1       5.118 -13.933  -8.803  1.00  0.00    -0.014 A 
BRANCH  43  44
ATOM     44  C   UNL     1       4.206 -15.092  -8.998  1.00  0.00     0.031 A 
ATOM     45  C   UNL     1       3.619 -15.375 -10.356  1.00  0.00     0.074 A 
ATOM     46  C   UNL     1       3.848 -15.844  -7.937  1.00  0.00     0.049 A 
ATOM     47  N   UNL     1       2.747 -16.286 -10.705  1.00  0.00    -0.248 NA
ATOM     48  C   UNL     1       4.042 -14.500 -11.462  1.00  0.00     0.031 C 
ATOM     49  C   UNL     1       4.305 -15.637  -6.560  1.00  0.00     0.029 A 
ATOM     50  N   UNL     1       3.010 -16.927  -7.846  1.00  0.00    -0.354 N 
ATOM     51  C   UNL     1       2.507 -16.083 -12.060  1.00  0.00     0.074 A 
ATOM     52  C   UNL     1       3.276 -14.925 -12.456  1.00  0.00     0.031 C 
ATOM     53  C   UNL     1       3.766 -16.579  -5.770  1.00  0.00     0.029 A 
ATOM     54  C   UNL     1       2.889 -17.427  -6.569  1.00  0.00     0.049 A 
ATOM     55  H   UNL     1       2.540 -17.311  -8.621  1.00  0.00     0.167 HD
ATOM     56  C   UNL     1       1.736 -16.811 -12.903  1.00  0.00     0.037 A 
ATOM     57  C   UNL     1       2.147 -18.447  -6.094  1.00  0.00     0.037 A 
ATOM     58  C   UNL     1       0.993 -17.979 -12.506  1.00  0.00     0.049 A 
ATOM     59  C   UNL     1       1.293 -19.237  -7.049  1.00  0.00     0.074 A 
ATOM     60  C   UNL     1       0.233 -18.823 -13.296  1.00  0.00     0.029 A 
ATOM     61  N   UNL     1       0.910 -18.464 -11.209  1.00  0.00    -0.354 N 
ATOM     62  N   UNL     1       1.135 -19.074  -8.341  1.00  0.00    -0.248 NA
ATOM     63  C   UNL     1       0.522 -20.352  -6.484  1.00  0.00     0.031 C 
ATOM     64  C   UNL     1      -0.355 -19.784 -12.468  1.00  0.00     0.029 A 
ATOM     65  C   UNL     1       0.090 -19.579 -11.171  1.00  0.00     0.049 A 
ATOM     66  H   UNL     1       1.368 -18.073 -10.429  1.00  0.00     0.167 HD
ATOM     67  C   UNL     1       0.270 -20.084  -8.749  1.00  0.00     0.074 A 
ATOM     68  C   UNL     1      -0.048 -20.860  -7.568  1.00  0.00     0.031 C 
ATOM     69  C   UNL     1      -0.214 -20.346  -9.988  1.00  0.00     0.037 A 
BRANCH  56  70
ATOM     70  C   UNL     1       1.659 -16.370 -14.341  1.00  0.00     0.058 A 
ATOM     71  C   UNL     1       2.764 -16.462 -15.204  1.00  0.00     0.135 A 
ATOM     72  C   UNL     1       0.454 -15.885 -14.876  1.00  0.00     0.135 A 
ATOM     73  F   UNL     1       3.946 -16.904 -14.746  1.00  0.00    -0.206 F 
ATOM     74  C   UNL     1       2.685 -16.061 -16.534  1.00  0.00     0.059 A 
ATOM     75  C   UNL     1       0.344 -15.509 -16.211  1.00  0.00     0.059 A 
ATOM     76  F   UNL     1      -0.634 -15.774 -14.098  1.00  0.00    -0.206 F 
ATOM     77  C   UNL     1       1.470 -15.587 -17.029  1.00  0.00     0.060 A 
BRANCH  77  78
ATOM     78  S   UNL     1       1.384 -15.081 -18.760  1.00  0.00     0.124 S 
ATOM     79  O   UNL     1       2.167 -13.849 -18.742  1.00  0.00    -0.237 OA
ATOM     80  O   UNL     1       2.000 -16.213 -19.445  1.00  0.00    -0.237 OA
ATOM     81  O   UNL     1      -0.046 -14.912 -18.996  1.00  0.00    -0.744 OA
ENDBRANCH  77  78
ENDBRANCH  56  70
BRANCH  57  82
ATOM     82  C   UNL     1       2.193 -18.790  -4.646  1.00  0.00     0.058 A 
ATOM     83  C   UNL     1       2.783 -19.984  -4.204  1.00  0.00     0.135 A 
ATOM     84  C   UNL     1       1.662 -17.928  -3.674  1.00  0.00     0.135 A 
ATOM     85  F   UNL     1       3.300 -20.845  -5.094  1.00  0.00    -0.206 F 
ATOM     86  C   UNL     1       2.827 -20.322  -2.855  1.00  0.00     0.059 A 
ATOM     87  C   UNL     1       1.720 -18.229  -2.316  1.00  0.00     0.059 A 
ATOM     88  F   UNL     1       1.102 -16.764  -4.040  1.00  0.00    -0.206 F 
ATOM     89  C   UNL     1       2.295 -19.435  -1.918  1.00  0.00     0.060 A 
BRANCH  89  90
ATOM     90  S   UNL     1       2.400 -19.862  -0.166  1.00  0.00     0.124 S 
ATOM     91  O   UNL     1       1.430 -20.946  -0.069  1.00  0.00    -0.237 OA
ATOM     92  O   UNL     1       3.802 -20.244  -0.029  1.00  0.00    -0.237 OA
ATOM     93  O   UNL     1       2.029 -18.620   0.505  1.00  0.00    -0.744 OA
ENDBRANCH  89  90
ENDBRANCH  57  82
BRANCH  69  94
ATOM     94  C   UNL     1      -1.112 -21.544 -10.144  1.00  0.00     0.058 A 
ATOM     95  C   UNL     1      -2.419 -21.564  -9.633  1.00  0.00     0.135 A 
ATOM     96  C   UNL     1      -0.673 -22.669 -10.863  1.00  0.00     0.135 A 
ATOM     97  F   UNL     1      -2.887 -20.518  -8.933  1.00  0.00    -0.206 F 
ATOM     98  C   UNL     1      -3.250 -22.666  -9.806  1.00  0.00     0.059 A 
ATOM     99  C   UNL     1      -1.498 -23.768 -11.076  1.00  0.00     0.059 A 
ATOM    100  F   UNL     1       0.565 -22.700 -11.383  1.00  0.00    -0.206 F 
ATOM    101  C   UNL     1      -2.781 -23.762 -10.532  1.00  0.00     0.060 A 
BRANCH 101 102
ATOM    102  S   UNL     1      -3.883 -25.171 -10.777  1.00  0.00     0.124 S 
ATOM    103  O   UNL     1      -3.911 -25.758  -9.441  1.00  0.00    -0.237 OA
ATOM    104  O   UNL     1      -5.119 -24.528 -11.213  1.00  0.00    -0.237 OA
ATOM    105  O   UNL     1      -3.202 -25.964 -11.796  1.00  0.00    -0.744 OA
ENDBRANCH 101 102
ENDBRANCH  69  94
ENDBRANCH  43  44
ENDBRANCH  35  38
ENDBRANCH  33  34
ENDBRANCH   1  33
TORSDOF 16
