REMARK SMILES CC[C@@H](NS(=O)(=O)c1cc(C)ccc1C)C(=O)NCCCNC(=O)c1ccc(-c2c3nc(c(-c4c(F)cc(S(=O)(=O)[O-])cc4F)c4ccc([nH]4)c(-c4c(F)cc(S(=O)(=O)[O-])cc4F)c4nc(c(-c5c(F)cc(S(=O)(=O)[O-])cc5F)c5ccc2[nH]5)C=C4)C=C3)cc1
REMARK SMILES IDX 20 1 19 2 18 3 16 4 17 5 3 7 2 8 1 9 4 10 5 12 6 13 7 14
REMARK SMILES IDX 8 15 9 16 14 17 10 18 13 19 15 20 11 21 12 22 21 23 22 24
REMARK SMILES IDX 23 25 24 27 25 28 26 29 90 30 27 31 89 32 28 33 29 34 30 35
REMARK SMILES IDX 83 36 31 37 88 38 82 39 84 40 32 41 87 42 81 43 80 44 33 46
REMARK SMILES IDX 67 47 46 48 66 49 47 50 50 51 65 52 85 53 48 54 49 55 64 57
REMARK SMILES IDX 86 58 51 59 34 60 35 61 44 62 36 63 37 64 43 65 45 66 38 67
REMARK SMILES IDX 39 68 40 69 41 70 42 71 68 72 69 73 78 74 70 75 71 76 77 77
REMARK SMILES IDX 79 78 72 79 73 80 74 81 75 82 76 83 52 84 53 85 62 86 54 87
REMARK SMILES IDX 55 88 61 89 63 90 56 91 57 92 58 93 59 94 60 95
REMARK H PARENT 18 6 4 11 22 26 84 45 50 56
REMARK Flexibility Score: inf
ROOT
ATOM      1  C   UNL     1      -2.947  -1.145   1.693  1.00  0.00     0.042 C 
ENDROOT
BRANCH   1   2
ATOM      2  C   UNL     1      -1.984  -0.739   2.818  1.00  0.00     0.117 C 
BRANCH   2   3
ATOM      3  N   UNL     1      -0.952  -1.729   3.090  1.00  0.00    -0.355 N 
ATOM      4  C   UNL     1       0.379  -1.769   2.811  1.00  0.00     0.238 C 
ATOM      5  O   UNL     1       0.967  -2.830   3.037  1.00  0.00    -0.273 OA
ATOM      6  H   UNL     1      -1.282  -2.524   3.569  1.00  0.00     0.163 HD
BRANCH   4   7
ATOM      7  C   UNL     1       1.117  -0.589   2.184  1.00  0.00     0.158 C 
BRANCH   7   8
ATOM      8  C   UNL     1       0.777  -0.622   0.688  1.00  0.00     0.027 C 
ATOM      9  C   UNL     1       1.510   0.405  -0.153  1.00  0.00     0.006 C 
ENDBRANCH   7   8
BRANCH   7  10
ATOM     10  N   UNL     1       0.779   0.701   2.822  1.00  0.00    -0.199 NA
ATOM     11  H   UNL     1      -0.212   0.653   3.058  1.00  0.00     0.142 HD
BRANCH  10  12
ATOM     12  S   UNL     1       1.572   1.239   4.212  1.00  0.00     0.241 S 
ATOM     13  O   UNL     1       2.983   0.990   4.033  1.00  0.00    -0.207 OA
ATOM     14  O   UNL     1       1.092   2.594   4.395  1.00  0.00    -0.207 OA
BRANCH  12  15
ATOM     15  C   UNL     1       0.966   0.198   5.528  1.00  0.00     0.085 A 
ATOM     16  C   UNL     1       1.534  -1.083   5.543  1.00  0.00     0.025 A 
ATOM     17  C   UNL     1       0.025   0.545   6.516  1.00  0.00    -0.031 A 
ATOM     18  C   UNL     1       1.087  -2.071   6.417  1.00  0.00    -0.050 A 
ATOM     19  C   UNL     1      -0.381  -0.456   7.429  1.00  0.00     0.005 A 
ATOM     20  C   UNL     1      -0.524   1.917   6.778  1.00  0.00     0.046 C 
ATOM     21  C   UNL     1       1.585  -3.467   6.247  1.00  0.00     0.044 C 
ATOM     22  C   UNL     1       0.114  -1.758   7.358  1.00  0.00     0.004 A 
ENDBRANCH  12  15
ENDBRANCH  10  12
ENDBRANCH   7  10
ENDBRANCH   4   7
ENDBRANCH   2   3
ENDBRANCH   1   2
BRANCH   1  23
ATOM     23  C   UNL     1      -3.996  -2.211   2.024  1.00  0.00     0.118 C 
BRANCH  23  24
ATOM     24  N   UNL     1      -4.897  -1.813   3.112  1.00  0.00    -0.352 N 
ATOM     25  C   UNL     1      -5.405  -2.480   4.214  1.00  0.00     0.251 C 
ATOM     26  H   UNL     1      -5.203  -0.879   3.045  1.00  0.00     0.163 HD
ATOM     27  O   UNL     1      -6.389  -2.008   4.780  1.00  0.00    -0.269 OA
BRANCH  25  28
ATOM     28  C   UNL     1      -4.791  -3.728   4.725  1.00  0.00     0.039 A 
ATOM     29  C   UNL     1      -5.462  -4.604   5.586  1.00  0.00     0.014 A 
ATOM     30  C   UNL     1      -3.490  -4.022   4.361  1.00  0.00     0.014 A 
ATOM     31  C   UNL     1      -4.811  -5.764   6.024  1.00  0.00     0.010 A 
ATOM     32  C   UNL     1      -2.932  -5.246   4.597  1.00  0.00     0.010 A 
ATOM     33  C   UNL     1      -3.542  -6.075   5.516  1.00  0.00    -0.014 A 
BRANCH  33  34
ATOM     34  C   UNL     1      -2.832  -7.307   5.816  1.00  0.00     0.031 A 
ATOM     35  C   UNL     1      -3.498  -8.512   5.306  1.00  0.00     0.074 A 
ATOM     36  C   UNL     1      -1.550  -7.355   6.240  1.00  0.00     0.049 A 
ATOM     37  N   UNL     1      -4.228  -9.325   5.990  1.00  0.00    -0.248 NA
ATOM     38  C   UNL     1      -3.522  -8.751   3.856  1.00  0.00     0.031 C 
ATOM     39  C   UNL     1      -0.653  -6.222   6.471  1.00  0.00     0.029 A 
ATOM     40  N   UNL     1      -0.738  -8.431   6.448  1.00  0.00    -0.354 N 
ATOM     41  C   UNL     1      -4.523 -10.352   5.110  1.00  0.00     0.074 A 
ATOM     42  C   UNL     1      -4.341  -9.805   3.791  1.00  0.00     0.031 C 
ATOM     43  C   UNL     1       0.616  -6.670   6.586  1.00  0.00     0.029 A 
ATOM     44  C   UNL     1       0.610  -8.114   6.591  1.00  0.00     0.049 A 
ATOM     45  H   UNL     1      -1.076  -9.355   6.493  1.00  0.00     0.167 HD
ATOM     46  C   UNL     1      -4.535 -11.643   5.543  1.00  0.00     0.037 A 
ATOM     47  C   UNL     1       1.663  -8.956   6.734  1.00  0.00     0.037 A 
ATOM     48  C   UNL     1      -4.447 -11.703   6.989  1.00  0.00     0.049 A 
ATOM     49  C   UNL     1       1.111 -10.215   7.282  1.00  0.00     0.074 A 
ATOM     50  C   UNL     1      -5.170 -11.170   8.039  1.00  0.00     0.029 A 
ATOM     51  N   UNL     1      -3.236 -12.086   7.515  1.00  0.00    -0.354 N 
ATOM     52  N   UNL     1       0.596 -10.319   8.477  1.00  0.00    -0.248 NA
ATOM     53  C   UNL     1       0.748 -11.273   6.353  1.00  0.00     0.031 C 
ATOM     54  C   UNL     1      -4.213 -10.886   9.057  1.00  0.00     0.029 A 
ATOM     55  C   UNL     1      -2.962 -11.319   8.617  1.00  0.00     0.049 A 
ATOM     56  H   UNL     1      -2.658 -12.798   7.157  1.00  0.00     0.167 HD
ATOM     57  C   UNL     1      -0.496 -11.153   8.307  1.00  0.00     0.074 A 
ATOM     58  C   UNL     1      -0.261 -11.825   7.032  1.00  0.00     0.031 C 
ATOM     59  C   UNL     1      -1.622 -10.988   9.061  1.00  0.00     0.037 A 
BRANCH  46  60
ATOM     60  C   UNL     1      -4.207 -12.843   4.686  1.00  0.00     0.058 A 
ATOM     61  C   UNL     1      -4.468 -14.128   5.204  1.00  0.00     0.135 A 
ATOM     62  C   UNL     1      -3.425 -12.809   3.510  1.00  0.00     0.135 A 
ATOM     63  F   UNL     1      -5.190 -14.278   6.326  1.00  0.00    -0.206 F 
ATOM     64  C   UNL     1      -3.934 -15.284   4.638  1.00  0.00     0.059 A 
ATOM     65  C   UNL     1      -2.938 -13.954   2.892  1.00  0.00     0.059 A 
ATOM     66  F   UNL     1      -3.004 -11.669   2.952  1.00  0.00    -0.206 F 
ATOM     67  C   UNL     1      -3.160 -15.184   3.487  1.00  0.00     0.060 A 
BRANCH  67  68
ATOM     68  S   UNL     1      -2.395 -16.660   2.804  1.00  0.00     0.124 S 
ATOM     69  O   UNL     1      -1.359 -16.930   3.794  1.00  0.00    -0.237 OA
ATOM     70  O   UNL     1      -3.514 -17.595   2.775  1.00  0.00    -0.237 OA
ATOM     71  O   UNL     1      -1.922 -16.216   1.496  1.00  0.00    -0.744 OA
ENDBRANCH  67  68
ENDBRANCH  46  60
BRANCH  47  72
ATOM     72  C   UNL     1       3.068  -8.828   6.261  1.00  0.00     0.058 A 
ATOM     73  C   UNL     1       4.061  -9.728   6.692  1.00  0.00     0.135 A 
ATOM     74  C   UNL     1       3.403  -8.024   5.153  1.00  0.00     0.135 A 
ATOM     75  F   UNL     1       3.834 -10.532   7.742  1.00  0.00    -0.206 F 
ATOM     76  C   UNL     1       5.273  -9.888   6.012  1.00  0.00     0.059 A 
ATOM     77  C   UNL     1       4.611  -8.159   4.464  1.00  0.00     0.059 A 
ATOM     78  F   UNL     1       2.523  -7.149   4.644  1.00  0.00    -0.206 F 
ATOM     79  C   UNL     1       5.526  -9.121   4.877  1.00  0.00     0.060 A 
BRANCH  79  80
ATOM     80  S   UNL     1       6.979  -9.494   3.865  1.00  0.00     0.124 S 
ATOM     81  O   UNL     1       8.069  -9.019   4.710  1.00  0.00    -0.237 OA
ATOM     82  O   UNL     1       6.881 -10.941   3.706  1.00  0.00    -0.237 OA
ATOM     83  O   UNL     1       6.751  -8.722   2.646  1.00  0.00    -0.744 OA
ENDBRANCH  79  80
ENDBRANCH  47  72
BRANCH  59  84
ATOM     84  C   UNL     1      -1.498 -10.236  10.363  1.00  0.00     0.058 A 
ATOM     85  C   UNL     1      -1.167  -8.876  10.493  1.00  0.00     0.135 A 
ATOM     86  C   UNL     1      -1.860 -10.919  11.536  1.00  0.00     0.135 A 
ATOM     87  F   UNL     1      -0.895  -8.122   9.418  1.00  0.00    -0.206 F 
ATOM     88  C   UNL     1      -1.163  -8.237  11.737  1.00  0.00     0.059 A 
ATOM     89  C   UNL     1      -1.895 -10.296  12.778  1.00  0.00     0.059 A 
ATOM     90  F   UNL     1      -2.235 -12.208  11.473  1.00  0.00    -0.206 F 
ATOM     91  C   UNL     1      -1.533  -8.955  12.874  1.00  0.00     0.060 A 
BRANCH  91  92
ATOM     92  S   UNL     1      -1.610  -8.110  14.469  1.00  0.00     0.124 S 
ATOM     93  O   UNL     1      -0.198  -7.926  14.788  1.00  0.00    -0.237 OA
ATOM     94  O   UNL     1      -2.351  -6.893  14.149  1.00  0.00    -0.237 OA
ATOM     95  O   UNL     1      -2.324  -9.057  15.323  1.00  0.00    -0.744 OA
ENDBRANCH  91  92
ENDBRANCH  59  84
ENDBRANCH  33  34
ENDBRANCH  25  28
ENDBRANCH  23  24
ENDBRANCH   1  23
TORSDOF 17
