REMARK SMILES C[NH2+][C@@]1(C(=O)NCCCNC(=O)c2ccc(-c3c4nc(c(-c5c(F)cc(S(=O)(=O)[O-])cc5F)c5ccc([nH]5)c(-c5c(F)cc(S(=O)(=O)[O-])cc5F)c5nc(c(-c6c(F)cc(S(=O)(=O)[O-])cc6F)c6ccc3[nH]6)C=C5)C=C4)cc2)CC[C@H]([NH+]2CC[NH+](C)CC2)C1
REMARK SMILES IDX 9 1 8 2 7 3 6 4 4 5 5 6 3 8 79 9 89 10 80 11 81 12 2 13 1 14
REMARK SMILES IDX 82 17 83 18 88 19 84 21 87 22 85 23 86 24 10 26 11 27 12 29
REMARK SMILES IDX 13 30 14 31 78 32 15 33 77 34 16 35 17 36 18 37 71 38 19 39
REMARK SMILES IDX 76 40 70 41 72 42 20 43 75 44 69 45 68 46 21 48 55 49 34 50
REMARK SMILES IDX 54 51 35 52 38 53 53 54 73 55 36 56 37 57 52 59 74 60 39 61
REMARK SMILES IDX 22 62 23 63 32 64 24 65 25 66 31 67 33 68 26 69 27 70 28 71
REMARK SMILES IDX 29 72 30 73 56 74 57 75 66 76 58 77 59 78 65 79 67 80 60 81
REMARK SMILES IDX 61 82 62 83 63 84 64 85 40 86 41 87 50 88 42 89 43 90 49 91
REMARK SMILES IDX 51 92 44 93 45 94 46 95 47 96 48 97
REMARK H PARENT 6 7 2 15 2 16 82 20 85 25 10 28 72 47 38 58
REMARK Flexibility Score: inf
ROOT
ATOM      1  C   UNL     1      -5.978  -0.498   3.856  1.00  0.00     0.118 C 
ENDROOT
BRANCH   1   2
ATOM      2  C   UNL     1      -5.210  -0.024   2.443  1.00  0.00     0.042 C 
BRANCH   2   3
ATOM      3  C   UNL     1      -3.727   1.357   1.809  1.00  0.00     0.118 C 
BRANCH   3   4
ATOM      4  N   UNL     1      -2.220   1.631   2.286  1.00  0.00    -0.351 N 
ATOM      5  C   UNL     1      -0.950   1.263   1.987  1.00  0.00     0.281 C 
ATOM      6  O   UNL     1      -0.114   1.595   2.844  1.00  0.00    -0.268 OA
ATOM      7  H   UNL     1      -2.216   2.271   3.034  1.00  0.00     0.163 HD
BRANCH   5   8
ATOM      8  C   UNL     1      -0.518   0.471   0.717  1.00  0.00     0.181 C 
ATOM      9  C   UNL     1      -1.149   1.144  -0.505  1.00  0.00     0.085 C 
ATOM     10  C   UNL     1      -1.043  -0.974   0.732  1.00  0.00     0.144 C 
ATOM     11  C   UNL     1      -2.181   0.143  -1.010  1.00  0.00     0.072 C 
ATOM     12  C   UNL     1      -2.444  -0.880   0.132  1.00  0.00     0.191 C 
BRANCH   8  13
ATOM     13  N   UNL     1       0.964   0.587   0.670  1.00  0.00    -0.336 N 
ATOM     14  C   UNL     1       1.676  -0.172  -0.337  1.00  0.00     0.331 C 
ATOM     15  H   UNL     1       1.187   1.571   0.521  1.00  0.00     0.346 HD
ATOM     16  H   UNL     1       1.278   0.189   1.556  1.00  0.00     0.346 HD
ENDBRANCH   8  13
BRANCH  12  17
ATOM     17  N   UNL     1      -3.539  -0.630   1.077  1.00  0.00    -0.323 N 
ATOM     18  C   UNL     1      -4.973   0.248   0.325  1.00  0.00     0.324 C 
ATOM     19  C   UNL     1      -3.208  -0.409   2.903  1.00  0.00     0.324 C 
ATOM     20  H   UNL     1      -3.865  -1.581   1.247  1.00  0.00     0.348 HD
ATOM     21  C   UNL     1      -5.783   1.764   1.256  1.00  0.00     0.324 C 
ATOM     22  C   UNL     1      -4.057   1.108   3.862  1.00  0.00     0.324 C 
ATOM     23  N   UNL     1      -5.449   2.026   3.049  1.00  0.00    -0.328 N 
ATOM     24  C   UNL     1      -5.529   3.439   3.405  1.00  0.00     0.333 C 
ATOM     25  H   UNL     1      -6.224   1.527   3.487  1.00  0.00     0.348 HD
ENDBRANCH  12  17
ENDBRANCH   5   8
ENDBRANCH   3   4
ENDBRANCH   2   3
ENDBRANCH   1   2
BRANCH   1  26
ATOM     26  N   UNL     1      -6.875   0.503   4.428  1.00  0.00    -0.352 N 
ATOM     27  C   UNL     1      -8.183   0.444   4.798  1.00  0.00     0.251 C 
ATOM     28  H   UNL     1      -6.457   1.383   4.572  1.00  0.00     0.163 HD
ATOM     29  O   UNL     1      -8.850   1.458   4.969  1.00  0.00    -0.269 OA
BRANCH  27  30
ATOM     30  C   UNL     1      -8.783  -0.883   4.940  1.00  0.00     0.039 A 
ATOM     31  C   UNL     1     -10.015  -1.133   4.334  1.00  0.00     0.014 A 
ATOM     32  C   UNL     1      -8.080  -1.881   5.618  1.00  0.00     0.014 A 
ATOM     33  C   UNL     1     -10.542  -2.414   4.395  1.00  0.00     0.010 A 
ATOM     34  C   UNL     1      -8.563  -3.174   5.600  1.00  0.00     0.010 A 
ATOM     35  C   UNL     1      -9.812  -3.438   5.019  1.00  0.00    -0.014 A 
BRANCH  35  36
ATOM     36  C   UNL     1     -10.378  -4.790   5.162  1.00  0.00     0.031 A 
ATOM     37  C   UNL     1     -10.694  -5.289   6.542  1.00  0.00     0.074 A 
ATOM     38  C   UNL     1     -10.542  -5.556   4.070  1.00  0.00     0.049 A 
ATOM     39  N   UNL     1     -11.112  -6.467   6.918  1.00  0.00    -0.248 NA
ATOM     40  C   UNL     1     -10.463  -4.351   7.657  1.00  0.00     0.031 C 
ATOM     41  C   UNL     1     -10.207  -5.160   2.699  1.00  0.00     0.029 A 
ATOM     42  N   UNL     1     -11.026  -6.828   3.940  1.00  0.00    -0.354 N 
ATOM     43  C   UNL     1     -11.164  -6.418   8.305  1.00  0.00     0.074 A 
ATOM     44  C   UNL     1     -10.672  -5.123   8.711  1.00  0.00     0.031 C 
ATOM     45  C   UNL     1     -10.526  -6.161   1.863  1.00  0.00     0.029 A 
ATOM     46  C   UNL     1     -11.054  -7.276   2.641  1.00  0.00     0.049 A 
ATOM     47  H   UNL     1     -11.326  -7.371   4.704  1.00  0.00     0.167 HD
ATOM     48  C   UNL     1     -11.616  -7.364   9.159  1.00  0.00     0.037 A 
ATOM     49  C   UNL     1     -11.465  -8.458   2.148  1.00  0.00     0.037 A 
ATOM     50  C   UNL     1     -12.150  -8.623   8.717  1.00  0.00     0.049 A 
ATOM     51  C   UNL     1     -12.005  -9.478   3.114  1.00  0.00     0.074 A 
ATOM     52  C   UNL     1     -12.703  -9.640   9.472  1.00  0.00     0.029 A 
ATOM     53  N   UNL     1     -12.206  -9.029   7.389  1.00  0.00    -0.354 N 
ATOM     54  N   UNL     1     -12.105  -9.402   4.421  1.00  0.00    -0.248 NA
ATOM     55  C   UNL     1     -12.498 -10.736   2.543  1.00  0.00     0.031 C 
ATOM     56  C   UNL     1     -13.060 -10.676   8.603  1.00  0.00     0.029 A 
ATOM     57  C   UNL     1     -12.774 -10.286   7.303  1.00  0.00     0.049 A 
ATOM     58  H   UNL     1     -11.888  -8.499   6.623  1.00  0.00     0.167 HD
ATOM     59  C   UNL     1     -12.697 -10.591   4.828  1.00  0.00     0.074 A 
ATOM     60  C   UNL     1     -12.943 -11.361   3.624  1.00  0.00     0.031 C 
ATOM     61  C   UNL     1     -13.010 -11.013   6.079  1.00  0.00     0.037 A 
BRANCH  48  62
ATOM     62  C   UNL     1     -11.556  -7.062  10.631  1.00  0.00     0.058 A 
ATOM     63  C   UNL     1     -12.360  -6.070  11.218  1.00  0.00     0.135 A 
ATOM     64  C   UNL     1     -10.682  -7.772  11.469  1.00  0.00     0.135 A 
ATOM     65  F   UNL     1     -13.199  -5.344  10.462  1.00  0.00    -0.206 F 
ATOM     66  C   UNL     1     -12.274  -5.768  12.573  1.00  0.00     0.059 A 
ATOM     67  C   UNL     1     -10.602  -7.509  12.834  1.00  0.00     0.059 A 
ATOM     68  F   UNL     1      -9.884  -8.725  10.963  1.00  0.00    -0.206 F 
ATOM     69  C   UNL     1     -11.390  -6.493  13.374  1.00  0.00     0.060 A 
BRANCH  69  70
ATOM     70  S   UNL     1     -11.294  -6.093  15.131  1.00  0.00     0.124 S 
ATOM     71  O   UNL     1     -10.573  -4.825  15.103  1.00  0.00    -0.237 OA
ATOM     72  O   UNL     1     -12.701  -6.013  15.511  1.00  0.00    -0.237 OA
ATOM     73  O   UNL     1     -10.560  -7.221  15.697  1.00  0.00    -0.744 OA
ENDBRANCH  69  70
ENDBRANCH  48  62
BRANCH  49  74
ATOM     74  C   UNL     1     -11.423  -8.710   0.684  1.00  0.00     0.058 A 
ATOM     75  C   UNL     1     -12.604  -8.776  -0.070  1.00  0.00     0.135 A 
ATOM     76  C   UNL     1     -10.205  -8.854   0.001  1.00  0.00     0.135 A 
ATOM     77  F   UNL     1     -13.794  -8.642   0.535  1.00  0.00    -0.206 F 
ATOM     78  C   UNL     1     -12.582  -8.994  -1.444  1.00  0.00     0.059 A 
ATOM     79  C   UNL     1     -10.156  -9.049  -1.376  1.00  0.00     0.059 A 
ATOM     80  F   UNL     1      -9.045  -8.775   0.671  1.00  0.00    -0.206 F 
ATOM     81  C   UNL     1     -11.352  -9.127  -2.089  1.00  0.00     0.060 A 
BRANCH  81  82
ATOM     82  S   UNL     1     -11.334  -9.363  -3.880  1.00  0.00     0.124 S 
ATOM     83  O   UNL     1     -11.801 -10.739  -4.000  1.00  0.00    -0.237 OA
ATOM     84  O   UNL     1     -12.261  -8.331  -4.334  1.00  0.00    -0.237 OA
ATOM     85  O   UNL     1      -9.935  -9.137  -4.234  1.00  0.00    -0.744 OA
ENDBRANCH  81  82
ENDBRANCH  49  74
BRANCH  61  86
ATOM     86  C   UNL     1     -13.682 -12.349   6.199  1.00  0.00     0.058 A 
ATOM     87  C   UNL     1     -12.975 -13.546   6.013  1.00  0.00     0.135 A 
ATOM     88  C   UNL     1     -15.034 -12.429   6.568  1.00  0.00     0.135 A 
ATOM     89  F   UNL     1     -11.681 -13.519   5.655  1.00  0.00    -0.206 F 
ATOM     90  C   UNL     1     -13.594 -14.781   6.165  1.00  0.00     0.059 A 
ATOM     91  C   UNL     1     -15.665 -13.653   6.754  1.00  0.00     0.059 A 
ATOM     92  F   UNL     1     -15.748 -11.310   6.770  1.00  0.00    -0.206 F 
ATOM     93  C   UNL     1     -14.939 -14.823   6.539  1.00  0.00     0.060 A 
BRANCH  93  94
ATOM     94  S   UNL     1     -15.720 -16.433   6.769  1.00  0.00     0.124 S 
ATOM     95  O   UNL     1     -15.887 -16.877   5.389  1.00  0.00    -0.237 OA
ATOM     96  O   UNL     1     -14.721 -17.156   7.551  1.00  0.00    -0.237 OA
ATOM     97  O   UNL     1     -16.953 -16.113   7.481  1.00  0.00    -0.744 OA
ENDBRANCH  93  94
ENDBRANCH  61  86
ENDBRANCH  35  36
ENDBRANCH  27  30
ENDBRANCH   1  26
TORSDOF 15
