REMARK SMILES CC(C)(C[N@H+]1C[C@@H]2C[NH2+]C[C@H]2C1(C)C)C(=O)NCCCNC(=O)c1ccc(-c2c3nc(c(-c4c(F)cc(S(=O)(=O)[O-])cc4F)c4ccc([nH]4)c(-c4c(F)cc(S(=O)(=O)[O-])cc4F)c4nc(c(-c5c(F)cc(S(=O)(=O)[O-])cc5F)c5ccc2[nH]5)C=C4)C=C3)cc1
REMARK SMILES IDX 19 1 18 2 17 3 15 4 16 5 2 7 1 8 3 9 4 10 5 11 6 12 12 13
REMARK SMILES IDX 7 15 11 16 13 17 14 18 8 19 10 20 9 21 20 24 21 25 22 26
REMARK SMILES IDX 23 28 24 29 25 30 89 31 26 32 88 33 27 34 28 35 29 36 82 37
REMARK SMILES IDX 30 38 87 39 81 40 83 41 31 42 86 43 80 44 79 45 32 47 66 48
REMARK SMILES IDX 45 49 65 50 46 51 49 52 64 53 84 54 47 55 48 56 63 58 85 59
REMARK SMILES IDX 50 60 33 61 34 62 43 63 35 64 36 65 42 66 44 67 37 68 38 69
REMARK SMILES IDX 39 70 40 71 41 72 67 73 68 74 77 75 69 76 70 77 76 78 78 79
REMARK SMILES IDX 71 80 72 81 73 82 74 83 75 84 51 85 52 86 61 87 53 88 54 89
REMARK SMILES IDX 60 90 62 91 55 92 56 93 57 94 58 95 59 96
REMARK H PARENT 17 6 5 14 9 22 9 23 21 27 83 46 49 57
REMARK Flexibility Score: inf
ROOT
ATOM      1  C   UNL     1      -1.125   0.596   5.521  1.00  0.00     0.042 C 
ENDROOT
BRANCH   1   2
ATOM      2  C   UNL     1       0.049   1.072   4.657  1.00  0.00     0.117 C 
BRANCH   2   3
ATOM      3  N   UNL     1       0.806   0.024   3.993  1.00  0.00    -0.355 N 
ATOM      4  C   UNL     1       1.103  -0.311   2.712  1.00  0.00     0.231 C 
ATOM      5  O   UNL     1       1.924  -1.235   2.618  1.00  0.00    -0.274 OA
ATOM      6  H   UNL     1       1.206  -0.604   4.638  1.00  0.00     0.163 HD
BRANCH   4   7
ATOM      7  C   UNL     1       0.516   0.348   1.446  1.00  0.00     0.092 C 
ATOM      8  C   UNL     1       1.393  -0.100   0.248  1.00  0.00     0.027 C 
ATOM      9  C   UNL     1       0.701   1.883   1.490  1.00  0.00     0.027 C 
BRANCH   7  10
ATOM     10  C   UNL     1      -0.999   0.018   1.213  1.00  0.00     0.279 C 
BRANCH  10  11
ATOM     11  N   UNL     1      -1.485  -1.325   0.927  1.00  0.00    -0.329 N 
ATOM     12  C   UNL     1      -1.060  -2.099  -0.243  1.00  0.00     0.272 C 
ATOM     13  C   UNL     1      -2.147  -2.200   1.928  1.00  0.00     0.101 C 
ATOM     14  H   UNL     1      -2.148  -0.597   0.657  1.00  0.00     0.348 HD
ATOM     15  C   UNL     1      -0.760  -3.405   0.440  1.00  0.00     0.114 C 
ATOM     16  C   UNL     1      -2.010  -3.575   1.272  1.00  0.00     0.119 C 
ATOM     17  C   UNL     1      -1.513  -2.188   3.307  1.00  0.00     0.079 C 
ATOM     18  C   UNL     1      -3.625  -1.800   2.058  1.00  0.00     0.079 C 
ATOM     19  C   UNL     1      -0.678  -4.752  -0.218  1.00  0.00     0.270 C 
ATOM     20  C   UNL     1      -1.694  -4.880   1.963  1.00  0.00     0.271 C 
ATOM     21  N   UNL     1      -1.021  -5.676   0.898  1.00  0.00    -0.345 N 
ATOM     22  H   UNL     1      -0.172  -6.102   1.268  1.00  0.00     0.346 HD
ATOM     23  H   UNL     1      -1.637  -6.418   0.567  1.00  0.00     0.346 HD
ENDBRANCH  10  11
ENDBRANCH   7  10
ENDBRANCH   4   7
ENDBRANCH   2   3
ENDBRANCH   1   2
BRANCH   1  24
ATOM     24  C   UNL     1      -0.922  -0.697   6.312  1.00  0.00     0.118 C 
BRANCH  24  25
ATOM     25  N   UNL     1      -0.283  -0.475   7.594  1.00  0.00    -0.352 N 
ATOM     26  C   UNL     1      -0.795  -0.638   8.859  1.00  0.00     0.251 C 
ATOM     27  H   UNL     1       0.649  -0.164   7.553  1.00  0.00     0.163 HD
ATOM     28  O   UNL     1      -0.167  -0.200   9.819  1.00  0.00    -0.269 OA
BRANCH  26  29
ATOM     29  C   UNL     1      -2.098  -1.315   9.081  1.00  0.00     0.039 A 
ATOM     30  C   UNL     1      -2.999  -0.746   9.986  1.00  0.00     0.014 A 
ATOM     31  C   UNL     1      -2.410  -2.534   8.469  1.00  0.00     0.014 A 
ATOM     32  C   UNL     1      -4.218  -1.377  10.255  1.00  0.00     0.010 A 
ATOM     33  C   UNL     1      -3.652  -3.137   8.698  1.00  0.00     0.010 A 
ATOM     34  C   UNL     1      -4.564  -2.573   9.604  1.00  0.00    -0.014 A 
BRANCH  34  35
ATOM     35  C   UNL     1      -5.857  -3.252   9.896  1.00  0.00     0.031 A 
ATOM     36  C   UNL     1      -5.877  -4.581  10.607  1.00  0.00     0.074 A 
ATOM     37  C   UNL     1      -7.018  -2.687   9.511  1.00  0.00     0.049 A 
ATOM     38  N   UNL     1      -6.901  -5.329  10.935  1.00  0.00    -0.248 NA
ATOM     39  C   UNL     1      -4.574  -5.148  10.985  1.00  0.00     0.031 C 
ATOM     40  C   UNL     1      -7.143  -1.414   8.800  1.00  0.00     0.029 A 
ATOM     41  N   UNL     1      -8.316  -3.109   9.667  1.00  0.00    -0.354 N 
ATOM     42  C   UNL     1      -6.367  -6.456  11.551  1.00  0.00     0.074 A 
ATOM     43  C   UNL     1      -4.927  -6.315  11.505  1.00  0.00     0.031 C 
ATOM     44  C   UNL     1      -8.445  -1.145   8.607  1.00  0.00     0.029 A 
ATOM     45  C   UNL     1      -9.247  -2.238   9.150  1.00  0.00     0.049 A 
ATOM     46  H   UNL     1      -8.558  -3.956  10.107  1.00  0.00     0.167 HD
ATOM     47  C   UNL     1      -7.013  -7.502  12.123  1.00  0.00     0.037 A 
ATOM     48  C   UNL     1     -10.592  -2.310   9.118  1.00  0.00     0.037 A 
ATOM     49  C   UNL     1      -8.445  -7.639  12.183  1.00  0.00     0.049 A 
ATOM     50  C   UNL     1     -11.289  -3.493   9.734  1.00  0.00     0.074 A 
ATOM     51  C   UNL     1      -9.192  -8.647  12.770  1.00  0.00     0.029 A 
ATOM     52  N   UNL     1      -9.351  -6.742  11.635  1.00  0.00    -0.354 N 
ATOM     53  N   UNL     1     -10.768  -4.529  10.346  1.00  0.00    -0.248 NA
ATOM     54  C   UNL     1     -12.756  -3.513   9.658  1.00  0.00     0.031 C 
ATOM     55  C   UNL     1     -10.547  -8.377  12.547  1.00  0.00     0.029 A 
ATOM     56  C   UNL     1     -10.647  -7.180  11.856  1.00  0.00     0.049 A 
ATOM     57  H   UNL     1      -9.108  -5.915  11.159  1.00  0.00     0.167 HD
ATOM     58  C   UNL     1     -11.844  -5.311  10.753  1.00  0.00     0.074 A 
ATOM     59  C   UNL     1     -13.045  -4.625  10.321  1.00  0.00     0.031 C 
ATOM     60  C   UNL     1     -11.837  -6.487  11.427  1.00  0.00     0.037 A 
BRANCH  47  61
ATOM     61  C   UNL     1      -6.162  -8.585  12.729  1.00  0.00     0.058 A 
ATOM     62  C   UNL     1      -5.433  -8.371  13.910  1.00  0.00     0.135 A 
ATOM     63  C   UNL     1      -6.073  -9.849  12.125  1.00  0.00     0.135 A 
ATOM     64  F   UNL     1      -5.474  -7.178  14.523  1.00  0.00    -0.206 F 
ATOM     65  C   UNL     1      -4.608  -9.356  14.445  1.00  0.00     0.059 A 
ATOM     66  C   UNL     1      -5.274 -10.858  12.657  1.00  0.00     0.059 A 
ATOM     67  F   UNL     1      -6.754 -10.111  10.999  1.00  0.00    -0.206 F 
ATOM     68  C   UNL     1      -4.527 -10.593  13.804  1.00  0.00     0.060 A 
BRANCH  68  69
ATOM     69  S   UNL     1      -3.425 -11.850  14.486  1.00  0.00     0.124 S 
ATOM     70  O   UNL     1      -2.122 -11.361  14.048  1.00  0.00    -0.237 OA
ATOM     71  O   UNL     1      -3.687 -11.757  15.919  1.00  0.00    -0.237 OA
ATOM     72  O   UNL     1      -3.881 -13.082  13.849  1.00  0.00    -0.744 OA
ENDBRANCH  68  69
ENDBRANCH  47  61
BRANCH  48  73
ATOM     73  C   UNL     1     -11.375  -1.201   8.511  1.00  0.00     0.058 A 
ATOM     74  C   UNL     1     -12.106  -0.316   9.317  1.00  0.00     0.135 A 
ATOM     75  C   UNL     1     -11.393  -0.992   7.124  1.00  0.00     0.135 A 
ATOM     76  F   UNL     1     -12.127  -0.483  10.648  1.00  0.00    -0.206 F 
ATOM     77  C   UNL     1     -12.830   0.738   8.771  1.00  0.00     0.059 A 
ATOM     78  C   UNL     1     -12.093   0.068   6.555  1.00  0.00     0.059 A 
ATOM     79  F   UNL     1     -10.700  -1.805   6.312  1.00  0.00    -0.206 F 
ATOM     80  C   UNL     1     -12.814   0.924   7.387  1.00  0.00     0.060 A 
BRANCH  80  81
ATOM     81  S   UNL     1     -13.703   2.335   6.692  1.00  0.00     0.124 S 
ATOM     82  O   UNL     1     -15.087   1.890   6.798  1.00  0.00    -0.237 OA
ATOM     83  O   UNL     1     -13.309   3.418   7.588  1.00  0.00    -0.237 OA
ATOM     84  O   UNL     1     -13.170   2.430   5.336  1.00  0.00    -0.744 OA
ENDBRANCH  80  81
ENDBRANCH  48  73
BRANCH  60  85
ATOM     85  C   UNL     1     -13.168  -7.096  11.773  1.00  0.00     0.058 A 
ATOM     86  C   UNL     1     -13.965  -7.724  10.804  1.00  0.00     0.135 A 
ATOM     87  C   UNL     1     -13.629  -7.089  13.099  1.00  0.00     0.135 A 
ATOM     88  F   UNL     1     -13.574  -7.751   9.520  1.00  0.00    -0.206 F 
ATOM     89  C   UNL     1     -15.185  -8.307  11.134  1.00  0.00     0.059 A 
ATOM     90  C   UNL     1     -14.835  -7.685  13.456  1.00  0.00     0.059 A 
ATOM     91  F   UNL     1     -12.900  -6.508  14.065  1.00  0.00    -0.206 F 
ATOM     92  C   UNL     1     -15.612  -8.283  12.464  1.00  0.00     0.060 A 
BRANCH  92  93
ATOM     93  S   UNL     1     -17.180  -9.071  12.887  1.00  0.00     0.124 S 
ATOM     94  O   UNL     1     -18.143  -8.089  12.401  1.00  0.00    -0.237 OA
ATOM     95  O   UNL     1     -17.116 -10.322  12.137  1.00  0.00    -0.237 OA
ATOM     96  O   UNL     1     -17.106  -9.214  14.338  1.00  0.00    -0.744 OA
ENDBRANCH  92  93
ENDBRANCH  60  85
ENDBRANCH  34  35
ENDBRANCH  26  29
ENDBRANCH  24  25
ENDBRANCH   1  24
TORSDOF 15
