REMARK SMILES Cc1cccc(C[N@H+]2CC[C@@](C)(C(=O)NCCCNC(=O)c3ccc(-c4c5nc(c(-c6c(F)cc(S(=O)(=O)[O-])cc6F)c6ccc([nH]6)c(-c6c(F)cc(S(=O)(=O)[O-])cc6F)c6nc(c(-c7c(F)cc(S(=O)(=O)[O-])cc7F)c7ccc4[nH]7)C=C6)C=C5)cc3)C2)n1
REMARK SMILES IDX 17 1 16 2 15 3 13 4 14 5 11 7 8 8 9 9 88 10 10 12 12 13 7 14
REMARK SMILES IDX 6 15 1 16 2 17 3 18 89 19 4 20 5 21 18 22 19 23 20 24 21 26
REMARK SMILES IDX 22 27 23 28 87 29 24 30 86 31 25 32 26 33 27 34 80 35 28 36
REMARK SMILES IDX 85 37 79 38 81 39 29 40 84 41 78 42 77 43 30 45 64 46 43 47
REMARK SMILES IDX 63 48 44 49 47 50 62 51 82 52 45 53 46 54 61 56 83 57 48 58
REMARK SMILES IDX 31 59 32 60 41 61 33 62 34 63 40 64 42 65 35 66 36 67 37 68
REMARK SMILES IDX 38 69 39 70 65 71 66 72 75 73 67 74 68 75 74 76 76 77 69 78
REMARK SMILES IDX 70 79 71 80 72 81 73 82 49 83 50 84 59 85 51 86 52 87 58 88
REMARK SMILES IDX 60 89 53 90 54 91 55 92 56 93 57 94
REMARK H PARENT 15 6 8 11 19 25 81 44 47 55
REMARK Flexibility Score: inf
ROOT
ATOM      1  C   UNL     1       0.137  -0.408  -0.224  1.00  0.00     0.042 C 
ENDROOT
BRANCH   1   2
ATOM      2  C   UNL     1      -0.003   0.645   1.688  1.00  0.00     0.117 C 
BRANCH   2   3
ATOM      3  N   UNL     1       1.056   1.183   2.685  1.00  0.00    -0.355 N 
ATOM      4  C   UNL     1       1.348   2.433   3.102  1.00  0.00     0.231 C 
ATOM      5  O   UNL     1       2.309   2.476   3.885  1.00  0.00    -0.274 OA
ATOM      6  H   UNL     1       1.618   0.483   3.089  1.00  0.00     0.163 HD
BRANCH   4   7
ATOM      7  C   UNL     1       0.507   3.700   2.780  1.00  0.00     0.100 C 
ATOM      8  N   UNL     1      -1.215   3.759   1.029  1.00  0.00    -0.329 N 
ATOM      9  C   UNL     1      -1.894   3.428   2.280  1.00  0.00     0.263 C 
ATOM     10  C   UNL     1       0.203   4.050   1.314  1.00  0.00     0.279 C 
ATOM     11  H   UNL     1      -1.658   4.605   0.670  1.00  0.00     0.348 HD
ATOM     12  C   UNL     1      -0.885   3.613   3.420  1.00  0.00     0.084 C 
ATOM     13  C   UNL     1       1.315   4.862   3.411  1.00  0.00     0.028 C 
BRANCH   8  14
ATOM     14  C   UNL     1      -1.467   2.869  -0.138  1.00  0.00     0.319 C 
BRANCH  14  15
ATOM     15  C   UNL     1      -0.815   1.476  -0.070  1.00  0.00     0.095 A 
ATOM     16  C   UNL     1       3.300   0.235   0.810  1.00  0.00     0.067 C 
ATOM     17  C   UNL     1       1.809   0.158   0.795  1.00  0.00     0.038 A 
ATOM     18  C   UNL     1       0.904  -1.188   1.571  1.00  0.00     0.023 A 
ATOM     19  N   UNL     1       0.944   1.488   0.058  1.00  0.00    -0.252 NA
ATOM     20  C   UNL     1      -0.899  -1.255   1.392  1.00  0.00     0.004 A 
ATOM     21  C   UNL     1      -1.767   0.127   0.623  1.00  0.00     0.030 A 
ENDBRANCH  14  15
ENDBRANCH   8  14
ENDBRANCH   4   7
ENDBRANCH   2   3
ENDBRANCH   1   2
BRANCH   1  22
ATOM     22  C   UNL     1       1.010  -1.803  -0.782  1.00  0.00     0.118 C 
BRANCH  22  23
ATOM     23  N   UNL     1       0.752  -3.121  -0.156  1.00  0.00    -0.352 N 
ATOM     24  C   UNL     1       0.564  -4.343  -0.727  1.00  0.00     0.251 C 
ATOM     25  H   UNL     1       0.712  -3.112   0.828  1.00  0.00     0.163 HD
ATOM     26  O   UNL     1       0.228  -5.318  -0.070  1.00  0.00    -0.269 OA
BRANCH  24  27
ATOM     27  C   UNL     1       0.839  -4.422  -2.149  1.00  0.00     0.039 A 
ATOM     28  C   UNL     1      -0.200  -4.690  -3.034  1.00  0.00     0.014 A 
ATOM     29  C   UNL     1       2.107  -4.004  -2.561  1.00  0.00     0.014 A 
ATOM     30  C   UNL     1       0.037  -4.504  -4.385  1.00  0.00     0.010 A 
ATOM     31  C   UNL     1       2.295  -3.704  -3.888  1.00  0.00     0.010 A 
ATOM     32  C   UNL     1       1.273  -3.984  -4.807  1.00  0.00    -0.014 A 
BRANCH  32  33
ATOM     33  C   UNL     1       1.562  -3.771  -6.232  1.00  0.00     0.031 A 
ATOM     34  C   UNL     1       2.692  -4.541  -6.846  1.00  0.00     0.074 A 
ATOM     35  C   UNL     1       0.878  -2.831  -6.906  1.00  0.00     0.049 A 
ATOM     36  N   UNL     1       3.208  -4.432  -8.038  1.00  0.00    -0.248 NA
ATOM     37  C   UNL     1       3.375  -5.524  -5.983  1.00  0.00     0.031 C 
ATOM     38  C   UNL     1      -0.178  -1.983  -6.346  1.00  0.00     0.029 A 
ATOM     39  N   UNL     1       0.982  -2.419  -8.206  1.00  0.00    -0.354 N 
ATOM     40  C   UNL     1       4.292  -5.300  -8.051  1.00  0.00     0.074 A 
ATOM     41  C   UNL     1       4.411  -5.866  -6.730  1.00  0.00     0.031 C 
ATOM     42  C   UNL     1      -0.645  -1.171  -7.307  1.00  0.00     0.029 A 
ATOM     43  C   UNL     1       0.111  -1.409  -8.531  1.00  0.00     0.049 A 
ATOM     44  H   UNL     1       1.619  -2.810  -8.846  1.00  0.00     0.167 HD
ATOM     45  C   UNL     1       5.090  -5.618  -9.092  1.00  0.00     0.037 A 
ATOM     46  C   UNL     1      -0.040  -0.744  -9.691  1.00  0.00     0.037 A 
ATOM     47  C   UNL     1       4.903  -5.071 -10.406  1.00  0.00     0.049 A 
ATOM     48  C   UNL     1       0.834  -1.140 -10.849  1.00  0.00     0.074 A 
ATOM     49  C   UNL     1       5.570  -5.387 -11.572  1.00  0.00     0.029 A 
ATOM     50  N   UNL     1       3.976  -4.084 -10.721  1.00  0.00    -0.354 N 
ATOM     51  N   UNL     1       1.784  -2.046 -10.888  1.00  0.00    -0.248 NA
ATOM     52  C   UNL     1       0.619  -0.435 -12.117  1.00  0.00     0.031 C 
ATOM     53  C   UNL     1       5.088  -4.547 -12.581  1.00  0.00     0.029 A 
ATOM     54  C   UNL     1       4.080  -3.749 -12.057  1.00  0.00     0.049 A 
ATOM     55  H   UNL     1       3.340  -3.683 -10.085  1.00  0.00     0.167 HD
ATOM     56  C   UNL     1       2.280  -2.025 -12.185  1.00  0.00     0.074 A 
ATOM     57  C   UNL     1       1.504  -1.033 -12.905  1.00  0.00     0.031 C 
ATOM     58  C   UNL     1       3.287  -2.750 -12.733  1.00  0.00     0.037 A 
BRANCH  45  59
ATOM     59  C   UNL     1       6.212  -6.586  -8.842  1.00  0.00     0.058 A 
ATOM     60  C   UNL     1       5.978  -7.930  -8.506  1.00  0.00     0.135 A 
ATOM     61  C   UNL     1       7.547  -6.160  -8.933  1.00  0.00     0.135 A 
ATOM     62  F   UNL     1       4.722  -8.389  -8.382  1.00  0.00    -0.206 F 
ATOM     63  C   UNL     1       7.023  -8.805  -8.228  1.00  0.00     0.059 A 
ATOM     64  C   UNL     1       8.609  -7.027  -8.695  1.00  0.00     0.059 A 
ATOM     65  F   UNL     1       7.831  -4.885  -9.241  1.00  0.00    -0.206 F 
ATOM     66  C   UNL     1       8.336  -8.343  -8.326  1.00  0.00     0.060 A 
BRANCH  66  67
ATOM     67  S   UNL     1       9.679  -9.493  -7.965  1.00  0.00     0.124 S 
ATOM     68  O   UNL     1       9.559  -9.636  -6.517  1.00  0.00    -0.237 OA
ATOM     69  O   UNL     1       9.304 -10.664  -8.750  1.00  0.00    -0.237 OA
ATOM     70  O   UNL     1      10.868  -8.784  -8.429  1.00  0.00    -0.744 OA
ENDBRANCH  66  67
ENDBRANCH  45  59
BRANCH  46  71
ATOM     71  C   UNL     1      -1.056   0.335  -9.796  1.00  0.00     0.058 A 
ATOM     72  C   UNL     1      -2.223   0.163 -10.552  1.00  0.00     0.135 A 
ATOM     73  C   UNL     1      -0.910   1.539  -9.086  1.00  0.00     0.135 A 
ATOM     74  F   UNL     1      -2.410  -0.969 -11.248  1.00  0.00    -0.206 F 
ATOM     75  C   UNL     1      -3.209   1.144 -10.606  1.00  0.00     0.059 A 
ATOM     76  C   UNL     1      -1.893   2.524  -9.103  1.00  0.00     0.059 A 
ATOM     77  F   UNL     1       0.178   1.745  -8.328  1.00  0.00    -0.206 F 
ATOM     78  C   UNL     1      -3.038   2.318  -9.871  1.00  0.00     0.060 A 
BRANCH  78  79
ATOM     79  S   UNL     1      -4.358   3.551  -9.889  1.00  0.00     0.124 S 
ATOM     80  O   UNL     1      -4.257   4.070 -11.248  1.00  0.00    -0.237 OA
ATOM     81  O   UNL     1      -5.536   2.739  -9.601  1.00  0.00    -0.237 OA
ATOM     82  O   UNL     1      -3.970   4.476  -8.829  1.00  0.00    -0.744 OA
ENDBRANCH  78  79
ENDBRANCH  46  71
BRANCH  58  83
ATOM     83  C   UNL     1       3.610  -2.497 -14.176  1.00  0.00     0.058 A 
ATOM     84  C   UNL     1       4.280  -1.332 -14.579  1.00  0.00     0.135 A 
ATOM     85  C   UNL     1       3.343  -3.477 -15.146  1.00  0.00     0.135 A 
ATOM     86  F   UNL     1       4.548  -0.364 -13.689  1.00  0.00    -0.206 F 
ATOM     87  C   UNL     1       4.672  -1.145 -15.898  1.00  0.00     0.059 A 
ATOM     88  C   UNL     1       3.755  -3.324 -16.464  1.00  0.00     0.059 A 
ATOM     89  F   UNL     1       2.714  -4.613 -14.805  1.00  0.00    -0.206 F 
ATOM     90  C   UNL     1       4.416  -2.153 -16.830  1.00  0.00     0.060 A 
BRANCH  90  91
ATOM     91  S   UNL     1       5.000  -1.926 -18.522  1.00  0.00     0.124 S 
ATOM     92  O   UNL     1       4.104  -0.880 -19.004  1.00  0.00    -0.237 OA
ATOM     93  O   UNL     1       6.389  -1.528 -18.319  1.00  0.00    -0.237 OA
ATOM     94  O   UNL     1       4.811  -3.241 -19.127  1.00  0.00    -0.744 OA
ENDBRANCH  90  91
ENDBRANCH  58  83
ENDBRANCH  32  33
ENDBRANCH  24  27
ENDBRANCH  22  23
ENDBRANCH   1  22
TORSDOF 15
