REMARK SMILES O=C(NCCCNC(=O)[C@H]1CC[C@@H](C[NH2+][C@H]2CCC[C@H](C3CC3)C2)CC1)c1ccc(-c2c3nc(c(-c4c(F)cc(S(=O)(=O)[O-])cc4F)c4ccc([nH]4)c(-c4c(F)cc(S(=O)(=O)[O-])cc4F)c4nc(c(-c5c(F)cc(S(=O)(=O)[O-])cc5F)c5ccc2[nH]5)C=C4)C=C3)cc1
REMARK SMILES IDX 5 1 4 2 3 3 1 4 2 5 27 7 28 8 92 9 29 10 91 11 30 12 31 13
REMARK SMILES IDX 32 14 85 15 33 16 90 17 84 18 86 19 34 20 89 21 83 22 82 23
REMARK SMILES IDX 35 25 69 26 48 27 68 28 49 29 52 30 67 31 87 32 50 33 51 34
REMARK SMILES IDX 66 36 88 37 53 38 36 39 37 40 46 41 38 42 39 43 45 44 47 45
REMARK SMILES IDX 40 46 41 47 42 48 43 49 44 50 70 51 71 52 80 53 72 54 73 55
REMARK SMILES IDX 79 56 81 57 74 58 75 59 76 60 77 61 78 62 54 63 55 64 64 65
REMARK SMILES IDX 56 66 57 67 63 68 65 69 58 70 59 71 60 72 61 73 62 74 6 75
REMARK SMILES IDX 7 76 8 77 9 79 10 80 26 81 11 82 25 83 12 84 13 85 14 86
REMARK SMILES IDX 15 87 16 90 17 91 24 92 18 93 20 94 19 95 21 96 22 97 23 98
REMARK H PARENT 3 6 86 24 52 35 7 78 15 88 15 89
REMARK Flexibility Score: inf
ROOT
ATOM      1  C   UNL     1       7.103  -4.835   5.463  1.00  0.00     0.042 C 
ENDROOT
BRANCH   1   2
ATOM      2  C   UNL     1       8.594  -4.775   5.797  1.00  0.00     0.118 C 
BRANCH   2   3
ATOM      3  N   UNL     1       8.811  -4.596   7.225  1.00  0.00    -0.352 N 
ATOM      4  O   UNL     1       9.123  -5.248   9.347  1.00  0.00    -0.269 OA
ATOM      5  C   UNL     1       9.312  -5.471   8.155  1.00  0.00     0.251 C 
ATOM      6  H   UNL     1       8.559  -3.712   7.578  1.00  0.00     0.163 HD
BRANCH   5   7
ATOM      7  C   UNL     1      10.080  -6.664   7.736  1.00  0.00     0.039 A 
ATOM      8  C   UNL     1      11.026  -6.588   6.709  1.00  0.00     0.014 A 
ATOM      9  C   UNL     1       9.915  -7.857   8.446  1.00  0.00     0.014 A 
ATOM     10  C   UNL     1      11.739  -7.724   6.331  1.00  0.00     0.010 A 
ATOM     11  C   UNL     1      10.677  -8.978   8.108  1.00  0.00     0.010 A 
ATOM     12  C   UNL     1      11.585  -8.924   7.040  1.00  0.00    -0.014 A 
BRANCH  12  13
ATOM     13  C   UNL     1      12.417 -10.106   6.703  1.00  0.00     0.031 A 
ATOM     14  C   UNL     1      11.785 -11.356   6.163  1.00  0.00     0.074 A 
ATOM     15  C   UNL     1      13.746 -10.056   6.922  1.00  0.00     0.049 A 
ATOM     16  N   UNL     1      12.337 -12.512   5.899  1.00  0.00    -0.248 NA
ATOM     17  C   UNL     1      10.340 -11.304   5.897  1.00  0.00     0.031 C 
ATOM     18  C   UNL     1      14.468  -8.896   7.449  1.00  0.00     0.029 A 
ATOM     19  N   UNL     1      14.722 -11.002   6.743  1.00  0.00    -0.354 N 
ATOM     20  C   UNL     1      11.306 -13.334   5.460  1.00  0.00     0.074 A 
ATOM     21  C   UNL     1      10.091 -12.548   5.513  1.00  0.00     0.031 C 
ATOM     22  C   UNL     1      15.771  -9.196   7.544  1.00  0.00     0.029 A 
ATOM     23  C   UNL     1      15.969 -10.585   7.142  1.00  0.00     0.049 A 
ATOM     24  H   UNL     1      14.546 -11.895   6.367  1.00  0.00     0.167 HD
ATOM     25  C   UNL     1      11.371 -14.624   5.050  1.00  0.00     0.037 A 
ATOM     26  C   UNL     1      17.138 -11.251   7.209  1.00  0.00     0.037 A 
ATOM     27  C   UNL     1      12.589 -15.391   4.998  1.00  0.00     0.049 A 
ATOM     28  C   UNL     1      17.186 -12.686   6.771  1.00  0.00     0.074 A 
ATOM     29  C   UNL     1      12.769 -16.695   4.570  1.00  0.00     0.029 A 
ATOM     30  N   UNL     1      13.835 -14.927   5.398  1.00  0.00    -0.354 N 
ATOM     31  N   UNL     1      16.208 -13.441   6.330  1.00  0.00    -0.248 NA
ATOM     32  C   UNL     1      18.489 -13.360   6.834  1.00  0.00     0.031 C 
ATOM     33  C   UNL     1      14.114 -17.032   4.751  1.00  0.00     0.029 A 
ATOM     34  C   UNL     1      14.785 -15.924   5.244  1.00  0.00     0.049 A 
ATOM     35  H   UNL     1      14.017 -14.022   5.741  1.00  0.00     0.167 HD
ATOM     36  C   UNL     1      16.780 -14.674   6.041  1.00  0.00     0.074 A 
ATOM     37  C   UNL     1      18.190 -14.562   6.356  1.00  0.00     0.031 C 
ATOM     38  C   UNL     1      16.189 -15.792   5.552  1.00  0.00     0.037 A 
BRANCH  25  39
ATOM     39  C   UNL     1      10.079 -15.292   4.662  1.00  0.00     0.058 A 
ATOM     40  C   UNL     1       9.386 -14.946   3.491  1.00  0.00     0.135 A 
ATOM     41  C   UNL     1       9.523 -16.291   5.479  1.00  0.00     0.135 A 
ATOM     42  F   UNL     1       9.866 -13.990   2.680  1.00  0.00    -0.206 F 
ATOM     43  C   UNL     1       8.165 -15.530   3.168  1.00  0.00     0.059 A 
ATOM     44  C   UNL     1       8.316 -16.908   5.161  1.00  0.00     0.059 A 
ATOM     45  F   UNL     1      10.145 -16.666   6.607  1.00  0.00    -0.206 F 
ATOM     46  C   UNL     1       7.633 -16.503   4.017  1.00  0.00     0.060 A 
BRANCH  46  47
ATOM     47  S   UNL     1       6.024 -17.216   3.614  1.00  0.00     0.124 S 
ATOM     48  O   UNL     1       5.124 -16.128   3.987  1.00  0.00    -0.237 OA
ATOM     49  O   UNL     1       6.143 -17.474   2.182  1.00  0.00    -0.237 OA
ATOM     50  O   UNL     1       5.957 -18.404   4.459  1.00  0.00    -0.744 OA
ENDBRANCH  46  47
ENDBRANCH  25  39
BRANCH  26  51
ATOM     51  C   UNL     1      18.342 -10.546   7.720  1.00  0.00     0.058 A 
ATOM     52  C   UNL     1      19.362 -10.136   6.852  1.00  0.00     0.135 A 
ATOM     53  C   UNL     1      18.449 -10.190   9.075  1.00  0.00     0.135 A 
ATOM     54  F   UNL     1      19.306 -10.458   5.551  1.00  0.00    -0.206 F 
ATOM     55  C   UNL     1      20.443  -9.385   7.304  1.00  0.00     0.059 A 
ATOM     56  C   UNL     1      19.508  -9.420   9.546  1.00  0.00     0.059 A 
ATOM     57  F   UNL     1      17.488 -10.545   9.941  1.00  0.00    -0.206 F 
ATOM     58  C   UNL     1      20.500  -9.022   8.652  1.00  0.00     0.060 A 
BRANCH  58  59
ATOM     59  S   UNL     1      21.851  -7.959   9.206  1.00  0.00     0.124 S 
ATOM     60  O   UNL     1      22.975  -8.888   9.206  1.00  0.00    -0.237 OA
ATOM     61  O   UNL     1      21.874  -6.928   8.172  1.00  0.00    -0.237 OA
ATOM     62  O   UNL     1      21.405  -7.506  10.520  1.00  0.00    -0.744 OA
ENDBRANCH  58  59
ENDBRANCH  26  51
BRANCH  38  63
ATOM     63  C   UNL     1      17.066 -16.981   5.282  1.00  0.00     0.058 A 
ATOM     64  C   UNL     1      17.537 -17.802   6.317  1.00  0.00     0.135 A 
ATOM     65  C   UNL     1      17.359 -17.354   3.960  1.00  0.00     0.135 A 
ATOM     66  F   UNL     1      17.292 -17.483   7.598  1.00  0.00    -0.206 F 
ATOM     67  C   UNL     1      18.269 -18.955   6.051  1.00  0.00     0.059 A 
ATOM     68  C   UNL     1      18.070 -18.513   3.671  1.00  0.00     0.059 A 
ATOM     69  F   UNL     1      16.926 -16.603   2.935  1.00  0.00    -0.206 F 
ATOM     70  C   UNL     1      18.523 -19.307   4.724  1.00  0.00     0.060 A 
BRANCH  70  71
ATOM     71  S   UNL     1      19.407 -20.845   4.388  1.00  0.00     0.124 S 
ATOM     72  O   UNL     1      20.774 -20.482   4.744  1.00  0.00    -0.237 OA
ATOM     73  O   UNL     1      18.747 -21.788   5.286  1.00  0.00    -0.237 OA
ATOM     74  O   UNL     1      19.167 -21.071   2.966  1.00  0.00    -0.744 OA
ENDBRANCH  70  71
ENDBRANCH  38  63
ENDBRANCH  12  13
ENDBRANCH   5   7
ENDBRANCH   2   3
ENDBRANCH   1   2
BRANCH   1  75
ATOM     75  C   UNL     1       6.397  -3.492   5.658  1.00  0.00     0.117 C 
BRANCH  75  76
ATOM     76  N   UNL     1       6.742  -2.568   4.595  1.00  0.00    -0.356 N 
ATOM     77  C   UNL     1       6.157  -2.288   3.404  1.00  0.00     0.223 C 
ATOM     78  H   UNL     1       7.556  -2.043   4.772  1.00  0.00     0.163 HD
ATOM     79  O   UNL     1       6.782  -1.533   2.651  1.00  0.00    -0.275 OA
BRANCH  77  80
ATOM     80  C   UNL     1       4.743  -2.730   3.024  1.00  0.00     0.078 C 
ATOM     81  C   UNL     1       4.389  -4.216   3.178  1.00  0.00     0.014 C 
ATOM     82  C   UNL     1       3.746  -1.768   3.682  1.00  0.00     0.014 C 
ATOM     83  C   UNL     1       2.896  -4.520   2.989  1.00  0.00     0.010 C 
ATOM     84  C   UNL     1       2.309  -2.128   3.326  1.00  0.00     0.010 C 
ATOM     85  C   UNL     1       1.967  -3.562   3.760  1.00  0.00     0.044 C 
BRANCH  85  86
ATOM     86  C   UNL     1       2.039  -3.794   5.294  1.00  0.00     0.264 C 
BRANCH  86  87
ATOM     87  N   UNL     1       1.227  -2.815   6.024  1.00  0.00    -0.344 N 
ATOM     88  H   UNL     1       0.244  -2.992   5.815  1.00  0.00     0.346 HD
ATOM     89  H   UNL     1       1.528  -1.890   5.719  1.00  0.00     0.346 HD
BRANCH  87  90
ATOM     90  C   UNL     1       1.409  -2.869   7.484  1.00  0.00     0.182 C 
ATOM     91  C   UNL     1       1.013  -1.505   8.078  1.00  0.00     0.065 C 
ATOM     92  C   UNL     1       0.563  -3.972   8.136  1.00  0.00     0.069 C 
ATOM     93  C   UNL     1      -0.478  -1.218   7.915  1.00  0.00     0.006 C 
ATOM     94  C   UNL     1      -0.958  -3.727   8.026  1.00  0.00    -0.002 C 
ATOM     95  C   UNL     1      -1.321  -2.324   8.544  1.00  0.00     0.004 C 
BRANCH  94  96
ATOM     96  C   UNL     1      -1.710  -4.848   8.726  1.00  0.00    -0.008 C 
ATOM     97  C   UNL     1      -2.671  -4.645   9.877  1.00  0.00     0.004 C 
ATOM     98  C   UNL     1      -3.197  -4.995   8.515  1.00  0.00     0.004 C 
ENDBRANCH  94  96
ENDBRANCH  87  90
ENDBRANCH  86  87
ENDBRANCH  85  86
ENDBRANCH  77  80
ENDBRANCH  75  76
ENDBRANCH   1  75
TORSDOF 17
