REMARK SMILES Cc1ccc(-c2cc(Cl)ccc2Cl)c(C(=O)NCCCNC(=O)c2ccc(-c3c4nc(c(-c5c(F)cc(S(=O)(=O)[O-])cc5F)c5ccc([nH]5)c(-c5c(F)cc(S(=O)(=O)[O-])cc5F)c5nc(c(-c6c(F)cc(S(=O)(=O)[O-])cc6F)c6ccc3[nH]6)C=C5)C=C4)cc2)c1
REMARK SMILES IDX 20 1 19 2 18 3 17 4 15 5 16 6 14 8 1 9 2 10 3 11 90 12 4 13
REMARK SMILES IDX 5 14 6 15 7 16 12 17 8 18 11 19 13 20 9 21 10 22 21 23 22 24
REMARK SMILES IDX 23 26 24 27 25 28 89 29 26 30 88 31 27 32 28 33 29 34 82 35
REMARK SMILES IDX 30 36 87 37 81 38 83 39 31 40 86 41 80 42 79 43 32 45 66 46
REMARK SMILES IDX 45 47 65 48 46 49 49 50 64 51 84 52 47 53 48 54 63 56 85 57
REMARK SMILES IDX 50 58 33 59 34 60 43 61 35 62 36 63 42 64 44 65 37 66 38 67
REMARK SMILES IDX 39 68 40 69 41 70 67 71 68 72 77 73 69 74 70 75 76 76 78 77
REMARK SMILES IDX 71 78 72 79 73 80 74 81 75 82 51 83 52 84 61 85 53 86 54 87
REMARK SMILES IDX 60 88 62 89 55 90 56 91 57 92 58 93 59 94
REMARK H PARENT 17 7 21 25 83 44 49 55
REMARK Flexibility Score: inf
ROOT
ATOM      1  C   UNL     1       1.338   5.467  -1.043  1.00  0.00     0.118 C 
ENDROOT
BRANCH   1   2
ATOM      2  C   UNL     1       1.362   4.075  -0.427  1.00  0.00     0.042 C 
BRANCH   2   3
ATOM      3  C   UNL     1       0.474   3.948   0.812  1.00  0.00     0.118 C 
BRANCH   3   4
ATOM      4  N   UNL     1      -0.904   3.604   0.483  1.00  0.00    -0.352 N 
ATOM      5  C   UNL     1      -1.601   2.439   0.267  1.00  0.00     0.251 C 
ATOM      6  O   UNL     1      -2.819   2.593   0.155  1.00  0.00    -0.269 OA
ATOM      7  H   UNL     1      -1.475   4.401   0.395  1.00  0.00     0.163 HD
BRANCH   5   8
ATOM      8  C   UNL     1      -1.003   1.053   0.142  1.00  0.00     0.047 A 
ATOM      9  C   UNL     1       2.467  -0.565  -0.116  1.00  0.00     0.044 C 
ATOM     10  C   UNL     1       0.974  -0.418  -0.060  1.00  0.00    -0.050 A 
ATOM     11  C   UNL     1       0.155  -1.533  -0.155  1.00  0.00     0.004 A 
ATOM     12  C   UNL     1       0.387   0.849   0.091  1.00  0.00     0.018 A 
ATOM     13  C   UNL     1      -1.227  -1.373  -0.117  1.00  0.00     0.010 A 
ATOM     14  C   UNL     1      -1.832  -0.100   0.026  1.00  0.00    -0.004 A 
BRANCH  14  15
ATOM     15  C   UNL     1      -3.312  -0.088   0.023  1.00  0.00     0.003 A 
ATOM     16  C   UNL     1      -3.996   0.277  -1.155  1.00  0.00     0.030 A 
ATOM     17  C   UNL     1      -4.082  -0.484   1.136  1.00  0.00     0.049 A 
ATOM     18  C   UNL     1      -5.391   0.272  -1.205  1.00  0.00     0.041 A 
ATOM     19  C   UNL     1      -5.481  -0.501   1.074  1.00  0.00     0.023 A 
ATOM     20  Cl  UNL     1      -3.349  -0.995   2.620  1.00  0.00    -0.084 Cl
ATOM     21  Cl  UNL     1      -6.198   0.735  -2.652  1.00  0.00    -0.084 Cl
ATOM     22  C   UNL     1      -6.136  -0.118  -0.096  1.00  0.00     0.022 A 
ENDBRANCH  14  15
ENDBRANCH   5   8
ENDBRANCH   3   4
ENDBRANCH   2   3
ENDBRANCH   1   2
BRANCH   1  23
ATOM     23  N   UNL     1       2.659   6.091  -1.066  1.00  0.00    -0.352 N 
ATOM     24  C   UNL     1       3.030   7.242  -1.727  1.00  0.00     0.251 C 
ATOM     25  H   UNL     1       3.365   5.637  -0.552  1.00  0.00     0.163 HD
ATOM     26  O   UNL     1       4.194   7.582  -1.862  1.00  0.00    -0.269 OA
BRANCH  24  27
ATOM     27  C   UNL     1       1.929   8.125  -2.157  1.00  0.00     0.039 A 
ATOM     28  C   UNL     1       1.678   9.250  -1.365  1.00  0.00     0.014 A 
ATOM     29  C   UNL     1       1.006   7.671  -3.095  1.00  0.00     0.014 A 
ATOM     30  C   UNL     1       0.420   9.841  -1.400  1.00  0.00     0.010 A 
ATOM     31  C   UNL     1      -0.265   8.214  -3.073  1.00  0.00     0.010 A 
ATOM     32  C   UNL     1      -0.571   9.270  -2.196  1.00  0.00    -0.014 A 
BRANCH  32  33
ATOM     33  C   UNL     1      -1.977   9.654  -2.125  1.00  0.00     0.031 A 
ATOM     34  C   UNL     1      -2.595  10.427  -3.228  1.00  0.00     0.074 A 
ATOM     35  C   UNL     1      -2.743   9.223  -1.099  1.00  0.00     0.049 A 
ATOM     36  N   UNL     1      -3.711  11.071  -3.140  1.00  0.00    -0.248 NA
ATOM     37  C   UNL     1      -1.955  10.569  -4.531  1.00  0.00     0.031 C 
ATOM     38  C   UNL     1      -4.201   9.180  -1.052  1.00  0.00     0.029 A 
ATOM     39  N   UNL     1      -2.342   8.921   0.206  1.00  0.00    -0.354 N 
ATOM     40  C   UNL     1      -4.068  11.472  -4.409  1.00  0.00     0.074 A 
ATOM     41  C   UNL     1      -2.917  11.178  -5.230  1.00  0.00     0.031 C 
ATOM     42  C   UNL     1      -4.595   9.116   0.229  1.00  0.00     0.029 A 
ATOM     43  C   UNL     1      -3.411   9.280   1.052  1.00  0.00     0.049 A 
ATOM     44  H   UNL     1      -1.481   8.532   0.481  1.00  0.00     0.167 HD
ATOM     45  C   UNL     1      -5.345  11.887  -4.655  1.00  0.00     0.037 A 
ATOM     46  C   UNL     1      -3.269  10.236   2.018  1.00  0.00     0.037 A 
ATOM     47  C   UNL     1      -6.135  11.938  -3.427  1.00  0.00     0.049 A 
ATOM     48  C   UNL     1      -4.194  11.421   1.859  1.00  0.00     0.074 A 
ATOM     49  C   UNL     1      -7.011  11.039  -2.839  1.00  0.00     0.029 A 
ATOM     50  N   UNL     1      -5.848  12.895  -2.460  1.00  0.00    -0.354 N 
ATOM     51  N   UNL     1      -4.835  11.702   0.758  1.00  0.00    -0.248 NA
ATOM     52  C   UNL     1      -4.460  12.392   2.917  1.00  0.00     0.031 C 
ATOM     53  C   UNL     1      -7.201  11.425  -1.491  1.00  0.00     0.029 A 
ATOM     54  C   UNL     1      -6.457  12.569  -1.263  1.00  0.00     0.049 A 
ATOM     55  H   UNL     1      -5.288  13.691  -2.608  1.00  0.00     0.167 HD
ATOM     56  C   UNL     1      -5.554  12.857   0.925  1.00  0.00     0.074 A 
ATOM     57  C   UNL     1      -5.307  13.237   2.303  1.00  0.00     0.031 C 
ATOM     58  C   UNL     1      -6.286  13.408  -0.088  1.00  0.00     0.037 A 
BRANCH  45  59
ATOM     59  C   UNL     1      -5.938  11.928  -6.049  1.00  0.00     0.058 A 
ATOM     60  C   UNL     1      -7.282  11.558  -6.278  1.00  0.00     0.135 A 
ATOM     61  C   UNL     1      -5.210  12.245  -7.212  1.00  0.00     0.135 A 
ATOM     62  F   UNL     1      -8.132  11.337  -5.267  1.00  0.00    -0.206 F 
ATOM     63  C   UNL     1      -7.814  11.377  -7.556  1.00  0.00     0.059 A 
ATOM     64  C   UNL     1      -5.700  12.017  -8.504  1.00  0.00     0.059 A 
ATOM     65  F   UNL     1      -4.004  12.825  -7.135  1.00  0.00    -0.206 F 
ATOM     66  C   UNL     1      -7.002  11.564  -8.665  1.00  0.00     0.060 A 
BRANCH  66  67
ATOM     67  S   UNL     1      -7.667  11.195 -10.300  1.00  0.00     0.124 S 
ATOM     68  O   UNL     1      -8.226   9.859 -10.115  1.00  0.00    -0.237 OA
ATOM     69  O   UNL     1      -8.636  12.269 -10.483  1.00  0.00    -0.237 OA
ATOM     70  O   UNL     1      -6.491  11.255 -11.165  1.00  0.00    -0.744 OA
ENDBRANCH  66  67
ENDBRANCH  45  59
BRANCH  46  71
ATOM     71  C   UNL     1      -1.907  10.268   2.615  1.00  0.00     0.058 A 
ATOM     72  C   UNL     1      -1.511   9.159   3.386  1.00  0.00     0.135 A 
ATOM     73  C   UNL     1      -0.898  11.085   2.086  1.00  0.00     0.135 A 
ATOM     74  F   UNL     1      -2.439   8.355   3.931  1.00  0.00    -0.206 F 
ATOM     75  C   UNL     1      -0.180   8.772   3.479  1.00  0.00     0.059 A 
ATOM     76  C   UNL     1       0.448  10.721   2.176  1.00  0.00     0.059 A 
ATOM     77  F   UNL     1      -1.215  12.162   1.352  1.00  0.00    -0.206 F 
ATOM     78  C   UNL     1       0.784   9.521   2.808  1.00  0.00     0.060 A 
BRANCH  78  79
ATOM     79  S   UNL     1       2.430   8.795   2.622  1.00  0.00     0.124 S 
ATOM     80  O   UNL     1       2.848   8.626   4.009  1.00  0.00    -0.237 OA
ATOM     81  O   UNL     1       2.130   7.558   1.901  1.00  0.00    -0.237 OA
ATOM     82  O   UNL     1       3.159   9.803   1.861  1.00  0.00    -0.744 OA
ENDBRANCH  78  79
ENDBRANCH  46  71
BRANCH  58  83
ATOM     83  C   UNL     1      -6.978  14.747  -0.047  1.00  0.00     0.058 A 
ATOM     84  C   UNL     1      -6.471  15.868   0.630  1.00  0.00     0.135 A 
ATOM     85  C   UNL     1      -8.130  14.977  -0.838  1.00  0.00     0.135 A 
ATOM     86  F   UNL     1      -5.332  15.797   1.335  1.00  0.00    -0.206 F 
ATOM     87  C   UNL     1      -7.089  17.120   0.571  1.00  0.00     0.059 A 
ATOM     88  C   UNL     1      -8.732  16.227  -0.952  1.00  0.00     0.059 A 
ATOM     89  F   UNL     1      -8.703  13.986  -1.539  1.00  0.00    -0.206 F 
ATOM     90  C   UNL     1      -8.217  17.291  -0.226  1.00  0.00     0.060 A 
BRANCH  90  91
ATOM     91  S   UNL     1      -8.984  18.916  -0.379  1.00  0.00     0.124 S 
ATOM     92  O   UNL     1     -10.063  18.823   0.598  1.00  0.00    -0.237 OA
ATOM     93  O   UNL     1      -7.897  19.827  -0.030  1.00  0.00    -0.237 OA
ATOM     94  O   UNL     1      -9.396  18.953  -1.778  1.00  0.00    -0.744 OA
ENDBRANCH  90  91
ENDBRANCH  58  83
ENDBRANCH  32  33
ENDBRANCH  24  27
ENDBRANCH   1  23
TORSDOF 14
