REMARK SMILES C[C@H](Oc1ccc(/C=C2/SC(=S)N(c3ccc(F)cc3)C2=O)cc1)C(=O)NCCCNC(=O)c1ccc(-c2c3nc(c(-c4c(F)cc(S(=O)(=O)[O-])cc4F)c4ccc([nH]4)c(-c4c(F)cc(S(=O)(=O)[O-])cc4F)c4nc(c(-c5c(F)cc(S(=O)(=O)[O-])cc5F)c5ccc2[nH]5)C=C4)C=C3)cc1
REMARK SMILES IDX 28 1 27 2 25 3 26 4 2 6 1 7 3 8 4 9 5 10 24 11 6 12 23 13
REMARK SMILES IDX 7 14 8 15 9 16 10 17 21 18 11 19 13 20 22 21 12 22 14 23
REMARK SMILES IDX 15 24 20 25 16 26 19 27 17 28 18 29 29 30 30 31 31 32 32 33
REMARK SMILES IDX 33 35 34 36 35 37 99 38 36 39 98 40 37 41 38 42 39 43 92 44
REMARK SMILES IDX 40 45 97 46 91 47 93 48 41 49 96 50 90 51 89 52 42 54 76 55
REMARK SMILES IDX 55 56 75 57 56 58 59 59 74 60 94 61 57 62 58 63 73 65 95 66
REMARK SMILES IDX 60 67 43 68 44 69 53 70 45 71 46 72 52 73 54 74 47 75 48 76
REMARK SMILES IDX 49 77 50 78 51 79 77 80 78 81 87 82 79 83 80 84 86 85 88 86
REMARK SMILES IDX 81 87 82 88 83 89 84 90 85 91 61 92 62 93 71 94 63 95 64 96
REMARK SMILES IDX 70 97 72 98 65 99 66 100 67 101 68 102 69 103
REMARK H PARENT 27 5 31 34 93 53 59 64
REMARK Flexibility Score: inf
ROOT
ATOM      1  C   UNL     1      -0.935  -1.441   1.689  1.00  0.00     0.118 C 
ENDROOT
BRANCH   1   2
ATOM      2  N   UNL     1      -1.447  -1.330   0.330  1.00  0.00    -0.353 N 
ATOM      3  C   UNL     1      -0.763  -1.370  -0.859  1.00  0.00     0.260 C 
ATOM      4  O   UNL     1      -1.413  -1.321  -1.907  1.00  0.00    -0.271 OA
ATOM      5  H   UNL     1      -2.421  -1.210   0.254  1.00  0.00     0.163 HD
BRANCH   3   6
ATOM      6  C   UNL     1       0.767  -1.530  -0.874  1.00  0.00     0.258 C 
ATOM      7  C   UNL     1       1.117  -2.918  -0.332  1.00  0.00     0.064 C 
BRANCH   6   8
ATOM      8  O   UNL     1       1.232  -0.382  -0.167  1.00  0.00    -0.481 OA
BRANCH   8   9
ATOM      9  C   UNL     1       2.508  -0.211   0.256  1.00  0.00     0.120 A 
ATOM     10  C   UNL     1       3.589  -1.060   0.056  1.00  0.00     0.047 A 
ATOM     11  C   UNL     1       2.684   0.945   1.019  1.00  0.00     0.047 A 
ATOM     12  C   UNL     1       4.798  -0.827   0.729  1.00  0.00     0.012 A 
ATOM     13  C   UNL     1       3.895   1.203   1.658  1.00  0.00     0.012 A 
ATOM     14  C   UNL     1       4.940   0.280   1.572  1.00  0.00    -0.024 A 
BRANCH  14  15
ATOM     15  C   UNL     1       6.165   0.463   2.357  1.00  0.00     0.029 C 
ATOM     16  C   UNL     1       6.223   0.560   3.696  1.00  0.00     0.081 C 
ATOM     17  S   UNL     1       7.685   0.902   4.533  1.00  0.00    -0.054 SA
ATOM     18  C   UNL     1       5.095   0.452   4.674  1.00  0.00     0.270 C 
ATOM     19  C   UNL     1       6.869   1.086   6.090  1.00  0.00     0.152 C 
ATOM     20  N   UNL     1       5.504   0.888   5.935  1.00  0.00    -0.261 N 
ATOM     21  O   UNL     1       3.992   0.027   4.361  1.00  0.00    -0.268 OA
ATOM     22  S   UNL     1       7.776   1.326   7.476  1.00  0.00    -0.051 S 
BRANCH  20  23
ATOM     23  C   UNL     1       4.527   1.095   6.965  1.00  0.00     0.051 A 
ATOM     24  C   UNL     1       3.454   0.202   7.134  1.00  0.00     0.030 A 
ATOM     25  C   UNL     1       4.561   2.246   7.774  1.00  0.00     0.030 A 
ATOM     26  C   UNL     1       2.455   0.445   8.080  1.00  0.00     0.041 A 
ATOM     27  C   UNL     1       3.556   2.493   8.717  1.00  0.00     0.041 A 
ATOM     28  C   UNL     1       2.512   1.591   8.860  1.00  0.00     0.123 A 
ATOM     29  F   UNL     1       1.538   1.829   9.747  1.00  0.00    -0.207 F 
ENDBRANCH  20  23
ENDBRANCH  14  15
ENDBRANCH   8   9
ENDBRANCH   6   8
ENDBRANCH   3   6
ENDBRANCH   1   2
BRANCH   1  30
ATOM     30  C   UNL     1      -1.249  -0.228   2.554  1.00  0.00     0.042 C 
BRANCH  30  31
ATOM     31  C   UNL     1      -2.727  -0.033   2.869  1.00  0.00     0.118 C 
BRANCH  31  32
ATOM     32  N   UNL     1      -3.307  -1.146   3.609  1.00  0.00    -0.352 N 
ATOM     33  C   UNL     1      -4.013  -1.166   4.787  1.00  0.00     0.251 C 
ATOM     34  H   UNL     1      -3.169  -2.029   3.197  1.00  0.00     0.163 HD
ATOM     35  O   UNL     1      -4.280  -2.251   5.299  1.00  0.00    -0.269 OA
BRANCH  33  36
ATOM     36  C   UNL     1      -4.431   0.088   5.456  1.00  0.00     0.039 A 
ATOM     37  C   UNL     1      -4.372   0.151   6.852  1.00  0.00     0.014 A 
ATOM     38  C   UNL     1      -4.911   1.184   4.734  1.00  0.00     0.014 A 
ATOM     39  C   UNL     1      -4.729   1.329   7.513  1.00  0.00     0.010 A 
ATOM     40  C   UNL     1      -5.194   2.383   5.389  1.00  0.00     0.010 A 
ATOM     41  C   UNL     1      -5.108   2.468   6.785  1.00  0.00    -0.014 A 
BRANCH  41  42
ATOM     42  C   UNL     1      -5.396   3.752   7.476  1.00  0.00     0.031 A 
ATOM     43  C   UNL     1      -6.773   4.358   7.431  1.00  0.00     0.074 A 
ATOM     44  C   UNL     1      -4.396   4.401   8.105  1.00  0.00     0.049 A 
ATOM     45  N   UNL     1      -7.199   5.478   7.959  1.00  0.00    -0.248 NA
ATOM     46  C   UNL     1      -7.798   3.626   6.671  1.00  0.00     0.031 C 
ATOM     47  C   UNL     1      -3.001   3.954   8.162  1.00  0.00     0.029 A 
ATOM     48  N   UNL     1      -4.395   5.575   8.815  1.00  0.00    -0.354 N 
ATOM     49  C   UNL     1      -8.533   5.592   7.585  1.00  0.00     0.074 A 
ATOM     50  C   UNL     1      -8.833   4.452   6.746  1.00  0.00     0.031 C 
ATOM     51  C   UNL     1      -2.289   4.826   8.893  1.00  0.00     0.029 A 
ATOM     52  C   UNL     1      -3.166   5.905   9.335  1.00  0.00     0.049 A 
ATOM     53  H   UNL     1      -5.200   6.128   8.941  1.00  0.00     0.167 HD
ATOM     54  C   UNL     1      -9.433   6.545   7.928  1.00  0.00     0.037 A 
ATOM     55  C   UNL     1      -2.788   6.955  10.089  1.00  0.00     0.037 A 
ATOM     56  C   UNL     1      -9.141   7.662   8.790  1.00  0.00     0.049 A 
ATOM     57  C   UNL     1      -3.816   7.970  10.503  1.00  0.00     0.074 A 
ATOM     58  C   UNL     1      -9.998   8.651   9.242  1.00  0.00     0.029 A 
ATOM     59  N   UNL     1      -7.895   7.936   9.335  1.00  0.00    -0.354 N 
ATOM     60  N   UNL     1      -5.089   8.029  10.189  1.00  0.00    -0.248 NA
ATOM     61  C   UNL     1      -3.362   9.051  11.387  1.00  0.00     0.031 C 
ATOM     62  C   UNL     1      -9.265   9.536  10.042  1.00  0.00     0.029 A 
ATOM     63  C   UNL     1      -7.959   9.080  10.115  1.00  0.00     0.049 A 
ATOM     64  H   UNL     1      -7.084   7.397   9.190  1.00  0.00     0.167 HD
ATOM     65  C   UNL     1      -5.592   9.140  10.854  1.00  0.00     0.074 A 
ATOM     66  C   UNL     1      -4.490   9.715  11.599  1.00  0.00     0.031 C 
ATOM     67  C   UNL     1      -6.853   9.640  10.850  1.00  0.00     0.037 A 
BRANCH  54  68
ATOM     68  C   UNL     1     -10.826   6.413   7.378  1.00  0.00     0.058 A 
ATOM     69  C   UNL     1     -11.707   5.421   7.840  1.00  0.00     0.135 A 
ATOM     70  C   UNL     1     -11.298   7.301   6.398  1.00  0.00     0.135 A 
ATOM     71  F   UNL     1     -11.302   4.537   8.765  1.00  0.00    -0.206 F 
ATOM     72  C   UNL     1     -12.994   5.294   7.328  1.00  0.00     0.059 A 
ATOM     73  C   UNL     1     -12.591   7.208   5.889  1.00  0.00     0.059 A 
ATOM     74  F   UNL     1     -10.499   8.269   5.921  1.00  0.00    -0.206 F 
ATOM     75  C   UNL     1     -13.426   6.190   6.349  1.00  0.00     0.060 A 
BRANCH  75  76
ATOM     76  S   UNL     1     -15.098   6.014   5.692  1.00  0.00     0.124 S 
ATOM     77  O   UNL     1     -14.940   4.870   4.799  1.00  0.00    -0.237 OA
ATOM     78  O   UNL     1     -15.886   5.773   6.896  1.00  0.00    -0.237 OA
ATOM     79  O   UNL     1     -15.341   7.295   5.035  1.00  0.00    -0.744 OA
ENDBRANCH  75  76
ENDBRANCH  54  68
BRANCH  55  80
ATOM     80  C   UNL     1      -1.377   7.070  10.537  1.00  0.00     0.058 A 
ATOM     81  C   UNL     1      -1.020   6.807  11.868  1.00  0.00     0.135 A 
ATOM     82  C   UNL     1      -0.355   7.413   9.639  1.00  0.00     0.135 A 
ATOM     83  F   UNL     1      -1.965   6.481  12.763  1.00  0.00    -0.206 F 
ATOM     84  C   UNL     1       0.300   6.890  12.298  1.00  0.00     0.059 A 
ATOM     85  C   UNL     1       0.975   7.483  10.041  1.00  0.00     0.059 A 
ATOM     86  F   UNL     1      -0.644   7.657   8.351  1.00  0.00    -0.206 F 
ATOM     87  C   UNL     1       1.292   7.227  11.375  1.00  0.00     0.060 A 
BRANCH  87  88
ATOM     88  S   UNL     1       3.015   7.262  11.914  1.00  0.00     0.124 S 
ATOM     89  O   UNL     1       3.097   8.571  12.550  1.00  0.00    -0.237 OA
ATOM     90  O   UNL     1       3.089   6.110  12.807  1.00  0.00    -0.237 OA
ATOM     91  O   UNL     1       3.755   7.117  10.663  1.00  0.00    -0.744 OA
ENDBRANCH  87  88
ENDBRANCH  55  80
BRANCH  67  92
ATOM     92  C   UNL     1      -7.108  10.852  11.699  1.00  0.00     0.058 A 
ATOM     93  C   UNL     1      -6.641  12.123  11.328  1.00  0.00     0.135 A 
ATOM     94  C   UNL     1      -7.834  10.742  12.896  1.00  0.00     0.135 A 
ATOM     95  F   UNL     1      -5.937  12.279  10.195  1.00  0.00    -0.206 F 
ATOM     96  C   UNL     1      -6.852  13.237  12.133  1.00  0.00     0.059 A 
ATOM     97  C   UNL     1      -8.077  11.848  13.704  1.00  0.00     0.059 A 
ATOM     98  F   UNL     1      -8.313   9.552  13.290  1.00  0.00    -0.206 F 
ATOM     99  C   UNL     1      -7.564  13.088  13.324  1.00  0.00     0.060 A 
BRANCH  99 100
ATOM    100  S   UNL     1      -7.830  14.537  14.368  1.00  0.00     0.124 S 
ATOM    101  O   UNL     1      -6.540  14.654  15.040  1.00  0.00    -0.237 OA
ATOM    102  O   UNL     1      -8.133  15.579  13.392  1.00  0.00    -0.237 OA
ATOM    103  O   UNL     1      -8.949  14.140  15.217  1.00  0.00    -0.744 OA
ENDBRANCH  99 100
ENDBRANCH  67  92
ENDBRANCH  41  42
ENDBRANCH  33  36
ENDBRANCH  31  32
ENDBRANCH  30  31
ENDBRANCH   1  30
TORSDOF 17
