REMARK SMILES Cn1cccc1/C=C1/SC(=S)N([C@@H](CCC(N)=O)C(=O)NCCCNC(=O)c2ccc(-c3c4nc(c(-c5c(F)cc(S(=O)(=O)[O-])cc5F)c5ccc([nH]5)c(-c5c(F)cc(S(=O)(=O)[O-])cc5F)c5nc(c(-c6c(F)cc(S(=O)(=O)[O-])cc6F)c6ccc3[nH]6)C=C5)C=C4)cc2)C1=O
REMARK SMILES IDX 23 1 22 2 21 3 19 4 20 5 13 7 12 8 7 9 8 10 9 11 94 12 10 13
REMARK SMILES IDX 95 14 11 15 6 16 1 17 2 18 3 19 4 20 5 21 14 22 15 23 16 24
REMARK SMILES IDX 17 25 18 26 24 29 25 30 26 31 27 33 28 34 29 35 93 36 30 37
REMARK SMILES IDX 92 38 31 39 32 40 33 41 86 42 34 43 91 44 85 45 87 46 35 47
REMARK SMILES IDX 90 48 84 49 83 50 36 52 70 53 49 54 69 55 50 56 53 57 68 58
REMARK SMILES IDX 88 59 51 60 52 61 67 63 89 64 54 65 37 66 38 67 47 68 39 69
REMARK SMILES IDX 40 70 46 71 48 72 41 73 42 74 43 75 44 76 45 77 71 78 72 79
REMARK SMILES IDX 81 80 73 81 74 82 80 83 82 84 75 85 76 86 77 87 78 88 79 89
REMARK SMILES IDX 55 90 56 91 65 92 57 93 58 94 64 95 66 96 59 97 60 98 61 99
REMARK SMILES IDX 62 100 63 101
REMARK H PARENT 21 6 17 27 17 28 25 32 87 51 53 62
REMARK Flexibility Score: inf
ROOT
ATOM      1  C   UNL     1      -0.731  -0.583   2.989  1.00  0.00     0.042 C 
ENDROOT
BRANCH   1   2
ATOM      2  C   UNL     1       0.297  -0.218   4.037  1.00  0.00     0.117 C 
BRANCH   2   3
ATOM      3  N   UNL     1       0.553  -1.264   4.992  1.00  0.00    -0.354 N 
ATOM      4  C   UNL     1       1.696  -1.955   5.241  1.00  0.00     0.243 C 
ATOM      5  O   UNL     1       1.719  -2.612   6.288  1.00  0.00    -0.273 OA
ATOM      6  H   UNL     1      -0.217  -1.517   5.551  1.00  0.00     0.163 HD
BRANCH   4   7
ATOM      7  C   UNL     1       2.893  -2.019   4.262  1.00  0.00     0.181 C 
BRANCH   7   8
ATOM      8  N   UNL     1       2.530  -2.707   2.988  1.00  0.00    -0.280 N 
ATOM      9  C   UNL     1       0.846  -2.638  -0.265  1.00  0.00     0.047 C 
ATOM     10  C   UNL     1       1.606  -2.917   0.808  1.00  0.00     0.082 C 
ATOM     11  S   UNL     1       2.041  -4.534   1.212  1.00  0.00    -0.054 SA
ATOM     12  C   UNL     1       2.128  -2.013   1.869  1.00  0.00     0.266 C 
ATOM     13  C   UNL     1       2.548  -4.088   2.838  1.00  0.00     0.149 C 
ATOM     14  O   UNL     1       2.261  -0.807   1.708  1.00  0.00    -0.268 OA
ATOM     15  S   UNL     1       2.985  -5.271   3.934  1.00  0.00    -0.052 S 
BRANCH   9  16
ATOM     16  C   UNL     1       0.236  -1.386  -0.537  1.00  0.00     0.042 A 
ATOM     17  C   UNL     1       2.346  -0.062  -1.079  1.00  0.00     0.149 C 
ATOM     18  N   UNL     1       0.929  -0.233  -0.839  1.00  0.00    -0.351 N 
ATOM     19  C   UNL     1       0.042   0.814  -0.956  1.00  0.00     0.086 A 
ATOM     20  C   UNL     1      -1.233   0.306  -0.880  1.00  0.00     0.020 A 
ATOM     21  C   UNL     1      -1.113  -1.080  -0.645  1.00  0.00     0.028 A 
ENDBRANCH   9  16
ENDBRANCH   7   8
BRANCH   7  22
ATOM     22  C   UNL     1       3.944  -0.874   4.244  1.00  0.00     0.045 C 
BRANCH  22  23
ATOM     23  C   UNL     1       3.643   0.593   3.925  1.00  0.00     0.102 C 
BRANCH  23  24
ATOM     24  C   UNL     1       2.850   1.342   4.972  1.00  0.00     0.217 C 
ATOM     25  N   UNL     1       2.250   2.481   4.514  1.00  0.00    -0.370 N 
ATOM     26  O   UNL     1       2.744   0.992   6.139  1.00  0.00    -0.275 OA
ATOM     27  H   UNL     1       2.350   2.744   3.570  1.00  0.00     0.159 HD
ATOM     28  H   UNL     1       1.719   3.039   5.127  1.00  0.00     0.159 HD
ENDBRANCH  23  24
ENDBRANCH  22  23
ENDBRANCH   7  22
ENDBRANCH   4   7
ENDBRANCH   2   3
ENDBRANCH   1   2
BRANCH   1  29
ATOM     29  C   UNL     1      -2.092   0.029   3.261  1.00  0.00     0.118 C 
BRANCH  29  30
ATOM     30  N   UNL     1      -2.078   1.491   3.188  1.00  0.00    -0.352 N 
ATOM     31  C   UNL     1      -2.850   2.350   2.441  1.00  0.00     0.251 C 
ATOM     32  H   UNL     1      -1.411   1.929   3.764  1.00  0.00     0.163 HD
ATOM     33  O   UNL     1      -2.568   3.545   2.409  1.00  0.00    -0.269 OA
BRANCH  31  34
ATOM     34  C   UNL     1      -3.992   1.828   1.659  1.00  0.00     0.039 A 
ATOM     35  C   UNL     1      -4.240   2.337   0.381  1.00  0.00     0.014 A 
ATOM     36  C   UNL     1      -4.795   0.810   2.173  1.00  0.00     0.014 A 
ATOM     37  C   UNL     1      -5.225   1.750  -0.419  1.00  0.00     0.010 A 
ATOM     38  C   UNL     1      -5.694   0.158   1.343  1.00  0.00     0.010 A 
ATOM     39  C   UNL     1      -5.926   0.626   0.041  1.00  0.00    -0.014 A 
BRANCH  39  40
ATOM     40  C   UNL     1      -6.949  -0.068  -0.778  1.00  0.00     0.031 A 
ATOM     41  C   UNL     1      -8.363  -0.143  -0.266  1.00  0.00     0.074 A 
ATOM     42  C   UNL     1      -6.593  -0.720  -1.901  1.00  0.00     0.049 A 
ATOM     43  N   UNL     1      -9.368  -0.850  -0.710  1.00  0.00    -0.248 NA
ATOM     44  C   UNL     1      -8.668   0.645   0.940  1.00  0.00     0.031 C 
ATOM     45  C   UNL     1      -5.244  -0.761  -2.471  1.00  0.00     0.029 A 
ATOM     46  N   UNL     1      -7.335  -1.497  -2.755  1.00  0.00    -0.354 N 
ATOM     47  C   UNL     1     -10.409  -0.620   0.181  1.00  0.00     0.074 A 
ATOM     48  C   UNL     1      -9.896   0.240   1.224  1.00  0.00     0.031 C 
ATOM     49  C   UNL     1      -5.260  -1.508  -3.588  1.00  0.00     0.029 A 
ATOM     50  C   UNL     1      -6.606  -2.033  -3.791  1.00  0.00     0.049 A 
ATOM     51  H   UNL     1      -8.299  -1.656  -2.636  1.00  0.00     0.167 HD
ATOM     52  C   UNL     1     -11.687  -1.063   0.123  1.00  0.00     0.037 A 
ATOM     53  C   UNL     1      -6.984  -2.862  -4.784  1.00  0.00     0.037 A 
ATOM     54  C   UNL     1     -12.200  -1.876  -0.946  1.00  0.00     0.049 A 
ATOM     55  C   UNL     1      -8.417  -3.320  -4.848  1.00  0.00     0.074 A 
ATOM     56  C   UNL     1     -13.493  -2.328  -1.141  1.00  0.00     0.029 A 
ATOM     57  N   UNL     1     -11.444  -2.349  -2.009  1.00  0.00    -0.354 N 
ATOM     58  N   UNL     1      -9.403  -3.055  -4.024  1.00  0.00    -0.248 NA
ATOM     59  C   UNL     1      -8.791  -4.184  -5.976  1.00  0.00     0.031 C 
ATOM     60  C   UNL     1     -13.512  -3.099  -2.308  1.00  0.00     0.029 A 
ATOM     61  C   UNL     1     -12.241  -3.093  -2.861  1.00  0.00     0.049 A 
ATOM     62  H   UNL     1     -10.483  -2.180  -2.138  1.00  0.00     0.167 HD
ATOM     63  C   UNL     1     -10.522  -3.691  -4.553  1.00  0.00     0.074 A 
ATOM     64  C   UNL     1     -10.090  -4.352  -5.767  1.00  0.00     0.031 C 
ATOM     65  C   UNL     1     -11.792  -3.721  -4.079  1.00  0.00     0.037 A 
BRANCH  52  66
ATOM     66  C   UNL     1     -12.610  -0.663   1.240  1.00  0.00     0.058 A 
ATOM     67  C   UNL     1     -13.031   0.667   1.407  1.00  0.00     0.135 A 
ATOM     68  C   UNL     1     -13.075  -1.616   2.160  1.00  0.00     0.135 A 
ATOM     69  F   UNL     1     -12.601   1.622   0.567  1.00  0.00    -0.206 F 
ATOM     70  C   UNL     1     -13.843   1.046   2.469  1.00  0.00     0.059 A 
ATOM     71  C   UNL     1     -13.915  -1.265   3.213  1.00  0.00     0.059 A 
ATOM     72  F   UNL     1     -12.704  -2.901   2.049  1.00  0.00    -0.206 F 
ATOM     73  C   UNL     1     -14.275   0.073   3.371  1.00  0.00     0.060 A 
BRANCH  73  74
ATOM     74  S   UNL     1     -15.315   0.583   4.756  1.00  0.00     0.124 S 
ATOM     75  O   UNL     1     -14.337   1.225   5.630  1.00  0.00    -0.237 OA
ATOM     76  O   UNL     1     -16.274   1.477   4.115  1.00  0.00    -0.237 OA
ATOM     77  O   UNL     1     -15.866  -0.675   5.248  1.00  0.00    -0.744 OA
ENDBRANCH  73  74
ENDBRANCH  52  66
BRANCH  53  78
ATOM     78  C   UNL     1      -6.000  -3.279  -5.818  1.00  0.00     0.058 A 
ATOM     79  C   UNL     1      -6.076  -2.771  -7.124  1.00  0.00     0.135 A 
ATOM     80  C   UNL     1      -4.958  -4.171  -5.525  1.00  0.00     0.135 A 
ATOM     81  F   UNL     1      -7.058  -1.918  -7.454  1.00  0.00    -0.206 F 
ATOM     82  C   UNL     1      -5.163  -3.141  -8.106  1.00  0.00     0.059 A 
ATOM     83  C   UNL     1      -4.019  -4.540  -6.484  1.00  0.00     0.059 A 
ATOM     84  F   UNL     1      -4.830  -4.673  -4.286  1.00  0.00    -0.206 F 
ATOM     85  C   UNL     1      -4.136  -4.026  -7.776  1.00  0.00     0.060 A 
BRANCH  85  86
ATOM     86  S   UNL     1      -2.925  -4.458  -9.045  1.00  0.00     0.124 S 
ATOM     87  O   UNL     1      -3.700  -5.351  -9.898  1.00  0.00    -0.237 OA
ATOM     88  O   UNL     1      -2.598  -3.154  -9.614  1.00  0.00    -0.237 OA
ATOM     89  O   UNL     1      -1.851  -5.087  -8.282  1.00  0.00    -0.744 OA
ENDBRANCH  85  86
ENDBRANCH  53  78
BRANCH  65  90
ATOM     90  C   UNL     1     -12.822  -4.448  -4.894  1.00  0.00     0.058 A 
ATOM     91  C   UNL     1     -12.887  -5.849  -4.924  1.00  0.00     0.135 A 
ATOM     92  C   UNL     1     -13.811  -3.728  -5.585  1.00  0.00     0.135 A 
ATOM     93  F   UNL     1     -11.961  -6.582  -4.285  1.00  0.00    -0.206 F 
ATOM     94  C   UNL     1     -13.893  -6.512  -5.618  1.00  0.00     0.059 A 
ATOM     95  C   UNL     1     -14.839  -4.370  -6.265  1.00  0.00     0.059 A 
ATOM     96  F   UNL     1     -13.797  -2.385  -5.578  1.00  0.00    -0.206 F 
ATOM     97  C   UNL     1     -14.868  -5.764  -6.281  1.00  0.00     0.060 A 
BRANCH  97  98
ATOM     98  S   UNL     1     -16.203  -6.636  -7.126  1.00  0.00     0.124 S 
ATOM     99  O   UNL     1     -15.521  -7.135  -8.316  1.00  0.00    -0.237 OA
ATOM    100  O   UNL     1     -16.588  -7.646  -6.145  1.00  0.00    -0.237 OA
ATOM    101  O   UNL     1     -17.195  -5.591  -7.362  1.00  0.00    -0.744 OA
ENDBRANCH  97  98
ENDBRANCH  65  90
ENDBRANCH  39  40
ENDBRANCH  31  34
ENDBRANCH  29  30
ENDBRANCH   1  29
TORSDOF 18
