REMARK SMILES Cc1ccc(Cl)c(Nc2ccccc2C(=O)N[C@@H](C)C(=O)NCCCNC(=O)c2ccc(-c3c4nc(c(-c5c(F)cc(S(=O)(=O)[O-])cc5F)c5ccc([nH]5)c(-c5c(F)cc(S(=O)(=O)[O-])cc5F)c5nc(c(-c6c(F)cc(S(=O)(=O)[O-])cc6F)c6ccc3[nH]6)C=C5)C=C4)cc2)c1Cl
REMARK SMILES IDX 23 1 22 2 20 3 21 4 18 6 19 7 17 8 15 9 16 10 14 12 9 13
REMARK SMILES IDX 10 14 11 15 13 16 12 17 8 18 7 20 1 21 2 22 3 23 95 24 4 25
REMARK SMILES IDX 96 26 5 27 6 28 24 29 25 30 26 31 27 32 28 34 29 35 30 36
REMARK SMILES IDX 94 37 31 38 93 39 32 40 33 41 34 42 87 43 35 44 92 45 86 46
REMARK SMILES IDX 88 47 36 48 91 49 85 50 84 51 37 53 71 54 50 55 70 56 51 57
REMARK SMILES IDX 54 58 69 59 89 60 52 61 53 62 68 64 90 65 55 66 38 67 39 68
REMARK SMILES IDX 48 69 40 70 41 71 47 72 49 73 42 74 43 75 44 76 45 77 46 78
REMARK SMILES IDX 72 79 73 80 82 81 74 82 75 83 81 84 83 85 76 86 77 87 78 88
REMARK SMILES IDX 79 89 80 90 56 91 57 92 66 93 58 94 59 95 65 96 67 97 60 98
REMARK SMILES IDX 61 99 62 100 63 101 64 102
REMARK H PARENT 22 5 17 11 8 19 26 33 88 52 54 63
REMARK Flexibility Score: inf
ROOT
ATOM      1  C   UNL     1      -1.874   1.725   3.300  1.00  0.00     0.117 C 
ENDROOT
BRANCH   1   2
ATOM      2  N   UNL     1      -1.814   1.090   1.990  1.00  0.00    -0.354 N 
ATOM      3  C   UNL     1      -0.791   0.212   1.746  1.00  0.00     0.242 C 
ATOM      4  O   UNL     1       0.304   0.681   1.439  1.00  0.00    -0.273 OA
ATOM      5  H   UNL     1      -2.489   1.286   1.301  1.00  0.00     0.163 HD
BRANCH   3   6
ATOM      6  C   UNL     1      -1.074  -1.309   1.814  1.00  0.00     0.168 C 
ATOM      7  C   UNL     1      -2.341  -1.690   2.562  1.00  0.00     0.041 C 
BRANCH   6   8
ATOM      8  N   UNL     1       0.116  -1.876   2.433  1.00  0.00    -0.340 N 
ATOM      9  C   UNL     1       1.295  -2.241   1.825  1.00  0.00     0.254 C 
ATOM     10  O   UNL     1       2.332  -1.964   2.435  1.00  0.00    -0.269 OA
ATOM     11  H   UNL     1       0.071  -2.016   3.406  1.00  0.00     0.164 HD
BRANCH   9  12
ATOM     12  C   UNL     1       1.380  -3.207   0.687  1.00  0.00     0.063 A 
ATOM     13  C   UNL     1       0.757  -3.191  -0.577  1.00  0.00     0.051 A 
ATOM     14  C   UNL     1       0.973  -4.298  -1.437  1.00  0.00     0.027 A 
ATOM     15  C   UNL     1       1.825  -5.351  -1.106  1.00  0.00     0.002 A 
ATOM     16  C   UNL     1       2.254  -4.282   0.993  1.00  0.00     0.016 A 
ATOM     17  C   UNL     1       2.486  -5.333   0.108  1.00  0.00     0.001 A 
BRANCH  13  18
ATOM     18  N   UNL     1       0.019  -2.147  -1.164  1.00  0.00    -0.352 N 
ATOM     19  H   UNL     1      -0.857  -2.442  -1.503  1.00  0.00     0.167 HD
BRANCH  18  20
ATOM     20  C   UNL     1       0.253  -0.763  -1.376  1.00  0.00     0.077 A 
ATOM     21  C   UNL     1       2.848   2.033  -0.924  1.00  0.00     0.046 C 
ATOM     22  C   UNL     1       1.570   1.309  -1.260  1.00  0.00    -0.030 A 
ATOM     23  C   UNL     1       0.421   2.066  -1.536  1.00  0.00     0.006 A 
ATOM     24  C   UNL     1       1.492  -0.105  -1.231  1.00  0.00     0.069 A 
ATOM     25  C   UNL     1      -0.795   1.436  -1.765  1.00  0.00     0.023 A 
ATOM     26  Cl  UNL     1       2.981  -0.997  -1.134  1.00  0.00    -0.082 Cl
ATOM     27  C   UNL     1      -0.876   0.047  -1.670  1.00  0.00     0.066 A 
ATOM     28  Cl  UNL     1      -2.445  -0.670  -1.892  1.00  0.00    -0.082 Cl
ENDBRANCH  18  20
ENDBRANCH  13  18
ENDBRANCH   9  12
ENDBRANCH   6   8
ENDBRANCH   3   6
ENDBRANCH   1   2
BRANCH   1  29
ATOM     29  C   UNL     1      -0.656   2.595   3.635  1.00  0.00     0.042 C 
BRANCH  29  30
ATOM     30  C   UNL     1      -0.363   3.691   2.613  1.00  0.00     0.118 C 
BRANCH  30  31
ATOM     31  N   UNL     1      -1.469   4.633   2.499  1.00  0.00    -0.352 N 
ATOM     32  C   UNL     1      -1.657   5.835   3.131  1.00  0.00     0.251 C 
ATOM     33  H   UNL     1      -2.185   4.368   1.877  1.00  0.00     0.163 HD
ATOM     34  O   UNL     1      -2.782   6.340   3.145  1.00  0.00    -0.269 OA
BRANCH  32  35
ATOM     35  C   UNL     1      -0.529   6.518   3.795  1.00  0.00     0.039 A 
ATOM     36  C   UNL     1      -0.723   7.095   5.053  1.00  0.00     0.014 A 
ATOM     37  C   UNL     1       0.708   6.633   3.155  1.00  0.00     0.014 A 
ATOM     38  C   UNL     1       0.340   7.742   5.690  1.00  0.00     0.010 A 
ATOM     39  C   UNL     1       1.784   7.212   3.822  1.00  0.00     0.010 A 
ATOM     40  C   UNL     1       1.609   7.785   5.090  1.00  0.00    -0.014 A 
BRANCH  40  41
ATOM     41  C   UNL     1       2.761   8.442   5.761  1.00  0.00     0.031 A 
ATOM     42  C   UNL     1       3.404   9.654   5.139  1.00  0.00     0.074 A 
ATOM     43  C   UNL     1       3.267   7.912   6.892  1.00  0.00     0.049 A 
ATOM     44  N   UNL     1       4.458  10.323   5.529  1.00  0.00    -0.248 NA
ATOM     45  C   UNL     1       2.798  10.164   3.897  1.00  0.00     0.031 C 
ATOM     46  C   UNL     1       2.763   6.713   7.564  1.00  0.00     0.029 A 
ATOM     47  N   UNL     1       4.326   8.307   7.671  1.00  0.00    -0.354 N 
ATOM     48  C   UNL     1       4.654  11.315   4.574  1.00  0.00     0.074 A 
ATOM     49  C   UNL     1       3.640  11.130   3.560  1.00  0.00     0.031 C 
ATOM     50  C   UNL     1       3.497   6.484   8.665  1.00  0.00     0.029 A 
ATOM     51  C   UNL     1       4.545   7.496   8.759  1.00  0.00     0.049 A 
ATOM     52  H   UNL     1       4.877   9.098   7.469  1.00  0.00     0.167 HD
ATOM     53  C   UNL     1       5.581  12.303   4.556  1.00  0.00     0.037 A 
ATOM     54  C   UNL     1       5.486   7.559   9.721  1.00  0.00     0.037 A 
ATOM     55  C   UNL     1       6.565  12.501   5.587  1.00  0.00     0.049 A 
ATOM     56  C   UNL     1       6.495   8.675   9.687  1.00  0.00     0.074 A 
ATOM     57  C   UNL     1       7.508  13.509   5.695  1.00  0.00     0.029 A 
ATOM     58  N   UNL     1       6.734  11.677   6.690  1.00  0.00    -0.354 N 
ATOM     59  N   UNL     1       6.626   9.642   8.810  1.00  0.00    -0.248 NA
ATOM     60  C   UNL     1       7.478   8.716  10.778  1.00  0.00     0.031 C 
ATOM     61  C   UNL     1       8.271  13.273   6.843  1.00  0.00     0.029 A 
ATOM     62  C   UNL     1       7.773  12.145   7.477  1.00  0.00     0.049 A 
ATOM     63  H   UNL     1       6.194  10.877   6.886  1.00  0.00     0.167 HD
ATOM     64  C   UNL     1       7.683  10.424   9.262  1.00  0.00     0.074 A 
ATOM     65  C   UNL     1       8.151   9.822  10.493  1.00  0.00     0.031 C 
ATOM     66  C   UNL     1       8.216  11.542   8.709  1.00  0.00     0.037 A 
BRANCH  53  67
ATOM     67  C   UNL     1       5.570  13.249   3.386  1.00  0.00     0.058 A 
ATOM     68  C   UNL     1       4.541  14.188   3.206  1.00  0.00     0.135 A 
ATOM     69  C   UNL     1       6.617  13.242   2.450  1.00  0.00     0.135 A 
ATOM     70  F   UNL     1       3.507  14.230   4.061  1.00  0.00    -0.206 F 
ATOM     71  C   UNL     1       4.534  15.063   2.125  1.00  0.00     0.059 A 
ATOM     72  C   UNL     1       6.646  14.128   1.376  1.00  0.00     0.059 A 
ATOM     73  F   UNL     1       7.627  12.367   2.573  1.00  0.00    -0.206 F 
ATOM     74  C   UNL     1       5.590  15.024   1.214  1.00  0.00     0.060 A 
BRANCH  74  75
ATOM     75  S   UNL     1       5.568  16.169  -0.182  1.00  0.00     0.124 S 
ATOM     76  O   UNL     1       4.534  15.577  -1.026  1.00  0.00    -0.237 OA
ATOM     77  O   UNL     1       5.217  17.434   0.456  1.00  0.00    -0.237 OA
ATOM     78  O   UNL     1       6.927  16.092  -0.708  1.00  0.00    -0.744 OA
ENDBRANCH  74  75
ENDBRANCH  53  67
BRANCH  54  79
ATOM     79  C   UNL     1       5.497   6.555  10.819  1.00  0.00     0.058 A 
ATOM     80  C   UNL     1       5.138   6.916  12.126  1.00  0.00     0.135 A 
ATOM     81  C   UNL     1       5.859   5.219  10.587  1.00  0.00     0.135 A 
ATOM     82  F   UNL     1       4.789   8.183  12.399  1.00  0.00    -0.206 F 
ATOM     83  C   UNL     1       5.155   5.995  13.168  1.00  0.00     0.059 A 
ATOM     84  C   UNL     1       5.859   4.273  11.608  1.00  0.00     0.059 A 
ATOM     85  F   UNL     1       6.194   4.818   9.351  1.00  0.00    -0.206 F 
ATOM     86  C   UNL     1       5.516   4.675  12.899  1.00  0.00     0.060 A 
BRANCH  86  87
ATOM     87  S   UNL     1       5.494   3.479  14.252  1.00  0.00     0.124 S 
ATOM     88  O   UNL     1       6.681   3.867  15.006  1.00  0.00    -0.237 OA
ATOM     89  O   UNL     1       4.212   3.760  14.890  1.00  0.00    -0.237 OA
ATOM     90  O   UNL     1       5.574   2.193  13.565  1.00  0.00    -0.744 OA
ENDBRANCH  86  87
ENDBRANCH  54  79
BRANCH  66  91
ATOM     91  C   UNL     1       9.332  12.219   9.455  1.00  0.00     0.058 A 
ATOM     92  C   UNL     1      10.624  11.674   9.509  1.00  0.00     0.135 A 
ATOM     93  C   UNL     1       9.114  13.456  10.085  1.00  0.00     0.135 A 
ATOM     94  F   UNL     1      10.884  10.492   8.929  1.00  0.00    -0.206 F 
ATOM     95  C   UNL     1      11.656  12.321  10.182  1.00  0.00     0.059 A 
ATOM     96  C   UNL     1      10.137  14.132  10.739  1.00  0.00     0.059 A 
ATOM     97  F   UNL     1       7.898  14.025  10.053  1.00  0.00    -0.206 F 
ATOM     98  C   UNL     1      11.403  13.550  10.793  1.00  0.00     0.060 A 
BRANCH  98  99
ATOM     99  S   UNL     1      12.757  14.394  11.637  1.00  0.00     0.124 S 
ATOM    100  O   UNL     1      12.878  13.607  12.860  1.00  0.00    -0.237 OA
ATOM    101  O   UNL     1      13.854  14.257  10.684  1.00  0.00    -0.237 OA
ATOM    102  O   UNL     1      12.254  15.754  11.812  1.00  0.00    -0.744 OA
ENDBRANCH  98  99
ENDBRANCH  66  91
ENDBRANCH  40  41
ENDBRANCH  32  35
ENDBRANCH  30  31
ENDBRANCH  29  30
ENDBRANCH   1  29
TORSDOF 17
