REMARK SMILES O=C(COc1nc(NCc2cccc(Cl)c2)nc2c1CCC2)NCCCNC(=O)c1ccc(-c2c3nc(c(-c4c(F)cc(S(=O)(=O)[O-])cc4F)c4ccc([nH]4)c(-c4c(F)cc(S(=O)(=O)[O-])cc4F)c4nc(c(-c5c(F)cc(S(=O)(=O)[O-])cc5F)c5ccc2[nH]5)C=C4)C=C3)cc1
REMARK SMILES IDX 24 1 23 2 1 3 2 4 3 6 4 7 5 8 6 9 19 10 7 11 18 12 20 13
REMARK SMILES IDX 17 14 22 15 21 16 8 17 9 19 10 20 11 21 16 22 12 23 14 24
REMARK SMILES IDX 13 25 15 26 25 27 26 28 27 29 28 30 29 32 30 33 31 34 95 35
REMARK SMILES IDX 32 36 94 37 33 38 34 39 35 40 88 41 36 42 93 43 87 44 89 45
REMARK SMILES IDX 37 46 92 47 86 48 85 49 38 51 72 52 51 53 71 54 52 55 55 56
REMARK SMILES IDX 70 57 90 58 53 59 54 60 69 62 91 63 56 64 39 65 40 66 49 67
REMARK SMILES IDX 41 68 42 69 48 70 50 71 43 72 44 73 45 74 46 75 47 76 73 77
REMARK SMILES IDX 74 78 83 79 75 80 76 81 82 82 84 83 77 84 78 85 79 86 80 87
REMARK SMILES IDX 81 88 57 89 58 90 67 91 59 92 60 93 66 94 68 95 61 96 62 97
REMARK SMILES IDX 63 98 64 99 65 100
REMARK H PARENT 23 5 8 18 27 31 89 50 55 61
REMARK Flexibility Score: inf
ROOT
ATOM      1  C   UNL     1       2.234   2.463  -0.660  1.00  0.00     0.117 C 
ENDROOT
BRANCH   1   2
ATOM      2  N   UNL     1       2.819   1.146  -0.532  1.00  0.00    -0.353 N 
ATOM      3  O   UNL     1       1.065   0.213   0.619  1.00  0.00    -0.271 OA
ATOM      4  C   UNL     1       2.143   0.092   0.042  1.00  0.00     0.258 C 
ATOM      5  H   UNL     1       3.733   0.998  -0.868  1.00  0.00     0.163 HD
BRANCH   4   6
ATOM      6  C   UNL     1       2.879  -1.256  -0.022  1.00  0.00     0.331 C 
BRANCH   6   7
ATOM      7  O   UNL     1       3.864  -1.460  -1.029  1.00  0.00    -0.467 OA
BRANCH   7   8
ATOM      8  C   UNL     1       3.296  -1.694  -2.259  1.00  0.00     0.222 A 
ATOM      9  N   UNL     1       2.314  -0.878  -2.672  1.00  0.00    -0.177 NA
ATOM     10  C   UNL     1       3.816  -2.665  -3.055  1.00  0.00     0.036 A 
ATOM     11  C   UNL     1       1.823  -1.063  -3.909  1.00  0.00     0.226 A 
ATOM     12  C   UNL     1       3.234  -2.792  -4.292  1.00  0.00     0.053 A 
ATOM     13  C   UNL     1       4.859  -3.693  -2.817  1.00  0.00     0.043 C 
ATOM     14  N   UNL     1       2.246  -2.017  -4.752  1.00  0.00    -0.218 NA
ATOM     15  C   UNL     1       3.814  -3.959  -5.037  1.00  0.00     0.057 C 
ATOM     16  C   UNL     1       5.113  -4.190  -4.251  1.00  0.00     0.011 C 
BRANCH  11  17
ATOM     17  N   UNL     1       0.837  -0.197  -4.275  1.00  0.00    -0.350 N 
ATOM     18  H   UNL     1       0.496   0.431  -3.597  1.00  0.00     0.164 HD
BRANCH  17  19
ATOM     19  C   UNL     1       0.269  -0.147  -5.589  1.00  0.00     0.152 C 
BRANCH  19  20
ATOM     20  C   UNL     1      -1.224  -0.353  -5.498  1.00  0.00    -0.027 A 
ATOM     21  C   UNL     1      -1.750  -1.652  -5.425  1.00  0.00     0.005 A 
ATOM     22  C   UNL     1      -2.100   0.741  -5.447  1.00  0.00     0.026 A 
ATOM     23  C   UNL     1      -3.128  -1.856  -5.326  1.00  0.00     0.002 A 
ATOM     24  C   UNL     1      -3.475   0.530  -5.348  1.00  0.00     0.041 A 
ATOM     25  C   UNL     1      -3.993  -0.763  -5.291  1.00  0.00     0.020 A 
ATOM     26  Cl  UNL     1      -4.545   1.877  -5.301  1.00  0.00    -0.084 Cl
ENDBRANCH  19  20
ENDBRANCH  17  19
ENDBRANCH  11  17
ENDBRANCH   7   8
ENDBRANCH   6   7
ENDBRANCH   4   6
ENDBRANCH   1   2
BRANCH   1  27
ATOM     27  C   UNL     1       2.572   3.386   0.503  1.00  0.00     0.042 C 
BRANCH  27  28
ATOM     28  C   UNL     1       4.066   3.641   0.686  1.00  0.00     0.118 C 
BRANCH  28  29
ATOM     29  N   UNL     1       4.677   4.313  -0.454  1.00  0.00    -0.352 N 
ATOM     30  C   UNL     1       5.250   5.556  -0.559  1.00  0.00     0.251 C 
ATOM     31  H   UNL     1       4.680   3.788  -1.287  1.00  0.00     0.163 HD
ATOM     32  O   UNL     1       5.571   5.979  -1.668  1.00  0.00    -0.269 OA
BRANCH  30  33
ATOM     33  C   UNL     1       5.458   6.400   0.639  1.00  0.00     0.039 A 
ATOM     34  C   UNL     1       5.123   7.756   0.570  1.00  0.00     0.014 A 
ATOM     35  C   UNL     1       5.998   5.875   1.815  1.00  0.00     0.014 A 
ATOM     36  C   UNL     1       5.252   8.562   1.703  1.00  0.00     0.010 A 
ATOM     37  C   UNL     1       6.064   6.663   2.964  1.00  0.00     0.010 A 
ATOM     38  C   UNL     1       5.683   8.013   2.922  1.00  0.00    -0.014 A 
BRANCH  38  39
ATOM     39  C   UNL     1       5.716   8.832   4.161  1.00  0.00     0.031 A 
ATOM     40  C   UNL     1       7.022   9.151   4.832  1.00  0.00     0.074 A 
ATOM     41  C   UNL     1       4.557   9.252   4.707  1.00  0.00     0.049 A 
ATOM     42  N   UNL     1       7.239   9.819   5.936  1.00  0.00    -0.248 NA
ATOM     43  C   UNL     1       8.243   8.637   4.192  1.00  0.00     0.031 C 
ATOM     44  C   UNL     1       3.221   8.973   4.173  1.00  0.00     0.029 A 
ATOM     45  N   UNL     1       4.313  10.002   5.830  1.00  0.00    -0.354 N 
ATOM     46  C   UNL     1       8.616   9.805   6.125  1.00  0.00     0.074 A 
ATOM     47  C   UNL     1       9.180   9.019   5.049  1.00  0.00     0.031 C 
ATOM     48  C   UNL     1       2.303   9.572   4.949  1.00  0.00     0.029 A 
ATOM     49  C   UNL     1       2.978  10.247   6.053  1.00  0.00     0.049 A 
ATOM     50  H   UNL     1       5.027  10.332   6.422  1.00  0.00     0.167 HD
ATOM     51  C   UNL     1       9.344  10.414   7.090  1.00  0.00     0.037 A 
ATOM     52  C   UNL     1       2.366  10.939   7.033  1.00  0.00     0.037 A 
ATOM     53  C   UNL     1       8.783  11.215   8.146  1.00  0.00     0.049 A 
ATOM     54  C   UNL     1       3.195  11.591   8.104  1.00  0.00     0.074 A 
ATOM     55  C   UNL     1       9.445  11.910   9.143  1.00  0.00     0.029 A 
ATOM     56  N   UNL     1       7.427  11.431   8.341  1.00  0.00    -0.354 N 
ATOM     57  N   UNL     1       4.500  11.605   8.239  1.00  0.00    -0.248 NA
ATOM     58  C   UNL     1       2.473  12.318   9.157  1.00  0.00     0.031 C 
ATOM     59  C   UNL     1       8.488  12.521   9.960  1.00  0.00     0.029 A 
ATOM     60  C   UNL     1       7.231  12.233   9.453  1.00  0.00     0.049 A 
ATOM     61  H   UNL     1       6.709  11.066   7.774  1.00  0.00     0.167 HD
ATOM     62  C   UNL     1       4.755  12.355   9.381  1.00  0.00     0.074 A 
ATOM     63  C   UNL     1       3.471  12.786   9.895  1.00  0.00     0.031 C 
ATOM     64  C   UNL     1       5.947  12.656   9.952  1.00  0.00     0.037 A 
BRANCH  51  65
ATOM     65  C   UNL     1      10.837  10.254   7.037  1.00  0.00     0.058 A 
ATOM     66  C   UNL     1      11.608  10.918   6.070  1.00  0.00     0.135 A 
ATOM     67  C   UNL     1      11.510   9.465   7.984  1.00  0.00     0.135 A 
ATOM     68  F   UNL     1      11.012  11.673   5.133  1.00  0.00    -0.206 F 
ATOM     69  C   UNL     1      12.991  10.787   6.027  1.00  0.00     0.059 A 
ATOM     70  C   UNL     1      12.897   9.338   7.974  1.00  0.00     0.059 A 
ATOM     71  F   UNL     1      10.821   8.809   8.930  1.00  0.00    -0.206 F 
ATOM     72  C   UNL     1      13.627   9.993   6.982  1.00  0.00     0.060 A 
BRANCH  72  73
ATOM     73  S   UNL     1      15.424   9.836   6.913  1.00  0.00     0.124 S 
ATOM     74  O   UNL     1      15.595   8.971   5.750  1.00  0.00    -0.237 OA
ATOM     75  O   UNL     1      15.852  11.221   6.741  1.00  0.00    -0.237 OA
ATOM     76  O   UNL     1      15.763   9.233   8.198  1.00  0.00    -0.744 OA
ENDBRANCH  72  73
ENDBRANCH  51  65
BRANCH  52  77
ATOM     77  C   UNL     1       0.887  11.079   7.024  1.00  0.00     0.058 A 
ATOM     78  C   UNL     1       0.288  12.299   6.675  1.00  0.00     0.135 A 
ATOM     79  C   UNL     1       0.046   9.998   7.329  1.00  0.00     0.135 A 
ATOM     80  F   UNL     1       1.052  13.362   6.383  1.00  0.00    -0.206 F 
ATOM     81  C   UNL     1      -1.094  12.444   6.634  1.00  0.00     0.059 A 
ATOM     82  C   UNL     1      -1.340  10.114   7.275  1.00  0.00     0.059 A 
ATOM     83  F   UNL     1       0.573   8.808   7.654  1.00  0.00    -0.206 F 
ATOM     84  C   UNL     1      -1.901  11.344   6.931  1.00  0.00     0.060 A 
BRANCH  84  85
ATOM     85  S   UNL     1      -3.693  11.530   6.815  1.00  0.00     0.124 S 
ATOM     86  O   UNL     1      -3.982  12.339   7.994  1.00  0.00    -0.237 OA
ATOM     87  O   UNL     1      -3.848  12.201   5.527  1.00  0.00    -0.237 OA
ATOM     88  O   UNL     1      -4.177  10.154   6.858  1.00  0.00    -0.744 OA
ENDBRANCH  84  85
ENDBRANCH  52  77
BRANCH  64  89
ATOM     89  C   UNL     1       5.931  13.500  11.194  1.00  0.00     0.058 A 
ATOM     90  C   UNL     1       5.585  12.957  12.440  1.00  0.00     0.135 A 
ATOM     91  C   UNL     1       6.351  14.839  11.152  1.00  0.00     0.135 A 
ATOM     92  F   UNL     1       5.169  11.684  12.529  1.00  0.00    -0.206 F 
ATOM     93  C   UNL     1       5.656  13.713  13.605  1.00  0.00     0.059 A 
ATOM     94  C   UNL     1       6.448  15.608  12.308  1.00  0.00     0.059 A 
ATOM     95  F   UNL     1       6.698  15.403   9.984  1.00  0.00    -0.206 F 
ATOM     96  C   UNL     1       6.096  15.036  13.530  1.00  0.00     0.060 A 
BRANCH  96  97
ATOM     97  S   UNL     1       6.249  15.983  15.059  1.00  0.00     0.124 S 
ATOM     98  O   UNL     1       4.852  16.251  15.382  1.00  0.00    -0.237 OA
ATOM     99  O   UNL     1       6.934  15.043  15.941  1.00  0.00    -0.237 OA
ATOM    100  O   UNL     1       7.036  17.147  14.662  1.00  0.00    -0.744 OA
ENDBRANCH  96  97
ENDBRANCH  64  89
ENDBRANCH  38  39
ENDBRANCH  30  33
ENDBRANCH  28  29
ENDBRANCH  27  28
ENDBRANCH   1  27
TORSDOF 18
