REMARK SMILES Cn1cc([C@@H]2CC(NCCCNC(=O)c3ccc(-c4c5nc(c(-c6c(F)cc(S(=O)(=O)[O-])cc6F)c6ccc([nH]6)c(-c6c(F)cc(S(=O)(=O)[O-])cc6F)c6nc(c(-c7c(F)cc(S(=O)(=O)[O-])cc7F)c7ccc4[nH]7)C=C6)C=C5)cc3)=[NH+]c3c2sc(C(=O)[O-])c3-c2ccc(Cl)cc2)cn1
REMARK SMILES IDX 12 1 13 2 14 3 11 5 10 6 9 7 8 8 5 9 6 10 83 11 7 12 82 13
REMARK SMILES IDX 84 14 81 15 89 16 85 17 4 20 1 21 2 22 3 23 98 24 97 25
REMARK SMILES IDX 90 26 91 27 96 28 92 29 95 30 93 31 94 32 86 33 87 34 88 35
REMARK SMILES IDX 15 36 16 37 80 38 17 39 79 40 18 41 19 42 20 43 73 44 21 45
REMARK SMILES IDX 78 46 72 47 74 48 22 49 77 50 71 51 70 52 23 54 57 55 36 56
REMARK SMILES IDX 56 57 37 58 40 59 55 60 75 61 38 62 39 63 54 65 76 66 41 67
REMARK SMILES IDX 24 68 25 69 34 70 26 71 27 72 33 73 35 74 28 75 29 76 30 77
REMARK SMILES IDX 31 78 32 79 58 80 59 81 68 82 60 83 61 84 67 85 69 86 62 87
REMARK SMILES IDX 63 88 64 89 65 90 66 91 42 92 43 93 52 94 44 95 45 96 51 97
REMARK SMILES IDX 53 98 46 99 47 100 48 101 49 102 50 103
REMARK H PARENT 12 4 8 18 81 19 74 53 40 64
REMARK Flexibility Score: inf
ROOT
ATOM      1  N   UNL     1       3.888  -7.742  -4.032  1.00  0.00    -0.352 N 
ATOM      2  C   UNL     1       4.131  -7.977  -5.378  1.00  0.00     0.251 C 
ATOM      3  O   UNL     1       4.998  -8.766  -5.732  1.00  0.00    -0.269 OA
ATOM      4  H   UNL     1       4.604  -8.011  -3.412  1.00  0.00     0.163 HD
ENDROOT
BRANCH   1   5
ATOM      5  C   UNL     1       2.694  -7.141  -3.416  1.00  0.00     0.120 C 
BRANCH   5   6
ATOM      6  C   UNL     1       2.771  -7.054  -1.904  1.00  0.00     0.067 C 
BRANCH   6   7
ATOM      7  C   UNL     1       3.852  -6.081  -1.432  1.00  0.00     0.235 C 
BRANCH   7   8
ATOM      8  N   UNL     1       3.471  -4.688  -1.641  1.00  0.00    -0.278 N 
ATOM      9  C   UNL     1       2.646  -1.383   0.179  1.00  0.00     0.079 C 
ATOM     10  C   UNL     1       2.934  -2.356  -0.980  1.00  0.00     0.142 C 
ATOM     11  C   UNL     1       2.652  -2.100   1.487  1.00  0.00     0.061 A 
ATOM     12  C   UNL     1       3.148  -3.829  -0.607  1.00  0.00     0.248 C 
ATOM     13  C   UNL     1       2.828  -3.441   1.641  1.00  0.00     0.147 A 
ATOM     14  S   UNL     1       2.455  -1.334   2.993  1.00  0.00    -0.133 S 
ATOM     15  N   UNL     1       3.072  -4.319   0.595  1.00  0.00    -0.243 N 
ATOM     16  C   UNL     1       2.775  -3.893   2.994  1.00  0.00     0.049 A 
ATOM     17  C   UNL     1       2.559  -2.828   3.864  1.00  0.00     0.062 A 
ATOM     18  H   UNL     1       3.443  -4.343  -2.563  1.00  0.00     0.304 HD
ATOM     19  H   UNL     1       3.184  -5.284   0.757  1.00  0.00     0.312 HD
BRANCH   9  20
ATOM     20  C   UNL     1       1.368  -0.614  -0.010  1.00  0.00    -0.001 A 
ATOM     21  C   UNL     1      -2.180   0.024  -0.174  1.00  0.00     0.173 C 
ATOM     22  N   UNL     1      -0.738   0.007  -0.150  1.00  0.00    -0.276 N 
ATOM     23  C   UNL     1       0.071  -1.089  -0.084  1.00  0.00     0.112 A 
ATOM     24  N   UNL     1      -0.062   1.168  -0.131  1.00  0.00    -0.182 NA
ATOM     25  C   UNL     1       1.215   0.792  -0.069  1.00  0.00     0.139 A 
ENDBRANCH   9  20
BRANCH  16  26
ATOM     26  C   UNL     1       2.980  -5.278   3.411  1.00  0.00    -0.012 A 
ATOM     27  C   UNL     1       1.962  -6.009   4.035  1.00  0.00     0.010 A 
ATOM     28  C   UNL     1       4.208  -5.901   3.139  1.00  0.00     0.010 A 
ATOM     29  C   UNL     1       2.195  -7.325   4.444  1.00  0.00     0.021 A 
ATOM     30  C   UNL     1       4.435  -7.220   3.533  1.00  0.00     0.021 A 
ATOM     31  C   UNL     1       3.432  -7.920   4.199  1.00  0.00     0.041 A 
ATOM     32  Cl  UNL     1       3.727  -9.531   4.728  1.00  0.00    -0.084 Cl
ENDBRANCH  16  26
BRANCH  17  33
ATOM     33  C   UNL     1       2.437  -2.737   5.306  1.00  0.00     0.082 C 
ATOM     34  O   UNL     1       2.135  -1.771   5.986  1.00  0.00    -0.544 OA
ATOM     35  O   UNL     1       2.717  -3.901   5.936  1.00  0.00    -0.544 OA
ENDBRANCH  17  33
ENDBRANCH   7   8
ENDBRANCH   6   7
ENDBRANCH   5   6
ENDBRANCH   1   5
BRANCH   2  36
ATOM     36  C   UNL     1       3.326  -7.241  -6.367  1.00  0.00     0.039 A 
ATOM     37  C   UNL     1       2.829  -7.825  -7.535  1.00  0.00     0.014 A 
ATOM     38  C   UNL     1       3.016  -5.927  -6.046  1.00  0.00     0.014 A 
ATOM     39  C   UNL     1       1.951  -7.084  -8.326  1.00  0.00     0.010 A 
ATOM     40  C   UNL     1       1.968  -5.316  -6.665  1.00  0.00     0.010 A 
ATOM     41  C   UNL     1       1.513  -5.831  -7.867  1.00  0.00    -0.014 A 
BRANCH  41  42
ATOM     42  C   UNL     1       0.503  -5.045  -8.562  1.00  0.00     0.031 A 
ATOM     43  C   UNL     1      -0.787  -5.760  -8.725  1.00  0.00     0.074 A 
ATOM     44  C   UNL     1       0.650  -3.714  -8.774  1.00  0.00     0.049 A 
ATOM     45  N   UNL     1      -1.267  -6.286  -9.801  1.00  0.00    -0.248 NA
ATOM     46  C   UNL     1      -1.545  -6.115  -7.510  1.00  0.00     0.031 C 
ATOM     47  C   UNL     1       1.742  -2.840  -8.310  1.00  0.00     0.029 A 
ATOM     48  N   UNL     1      -0.201  -2.825  -9.358  1.00  0.00    -0.354 N 
ATOM     49  C   UNL     1      -2.528  -6.763  -9.448  1.00  0.00     0.074 A 
ATOM     50  C   UNL     1      -2.523  -6.872  -8.015  1.00  0.00     0.031 C 
ATOM     51  C   UNL     1       1.374  -1.544  -8.412  1.00  0.00     0.029 A 
ATOM     52  C   UNL     1       0.119  -1.484  -9.134  1.00  0.00     0.049 A 
ATOM     53  H   UNL     1      -0.978  -3.104  -9.893  1.00  0.00     0.167 HD
ATOM     54  C   UNL     1      -3.564  -6.694 -10.332  1.00  0.00     0.037 A 
ATOM     55  C   UNL     1      -0.589  -0.400  -9.536  1.00  0.00     0.037 A 
ATOM     56  C   UNL     1      -3.073  -6.333 -11.639  1.00  0.00     0.049 A 
ATOM     57  C   UNL     1      -1.450  -0.846 -10.656  1.00  0.00     0.074 A 
ATOM     58  C   UNL     1      -2.381  -6.955 -12.654  1.00  0.00     0.029 A 
ATOM     59  N   UNL     1      -2.940  -4.979 -11.818  1.00  0.00    -0.354 N 
ATOM     60  N   UNL     1      -0.976  -1.277 -11.795  1.00  0.00    -0.248 NA
ATOM     61  C   UNL     1      -2.838  -1.200 -10.385  1.00  0.00     0.031 C 
ATOM     62  C   UNL     1      -1.672  -5.923 -13.338  1.00  0.00     0.029 A 
ATOM     63  C   UNL     1      -1.995  -4.694 -12.767  1.00  0.00     0.049 A 
ATOM     64  H   UNL     1      -3.458  -4.301 -11.327  1.00  0.00     0.167 HD
ATOM     65  C   UNL     1      -1.842  -2.285 -12.172  1.00  0.00     0.074 A 
ATOM     66  C   UNL     1      -3.042  -2.081 -11.369  1.00  0.00     0.031 C 
ATOM     67  C   UNL     1      -1.390  -3.379 -12.852  1.00  0.00     0.037 A 
BRANCH  54  68
ATOM     68  C   UNL     1      -5.020  -6.462  -9.972  1.00  0.00     0.058 A 
ATOM     69  C   UNL     1      -5.997  -6.536 -10.990  1.00  0.00     0.135 A 
ATOM     70  C   UNL     1      -5.464  -5.897  -8.756  1.00  0.00     0.135 A 
ATOM     71  F   UNL     1      -5.691  -7.045 -12.195  1.00  0.00    -0.206 F 
ATOM     72  C   UNL     1      -7.293  -6.036 -10.830  1.00  0.00     0.059 A 
ATOM     73  C   UNL     1      -6.763  -5.439  -8.559  1.00  0.00     0.059 A 
ATOM     74  F   UNL     1      -4.642  -5.668  -7.727  1.00  0.00    -0.206 F 
ATOM     75  C   UNL     1      -7.662  -5.480  -9.610  1.00  0.00     0.060 A 
BRANCH  75  76
ATOM     76  S   UNL     1      -9.308  -4.773  -9.414  1.00  0.00     0.124 S 
ATOM     77  O   UNL     1      -9.235  -3.611 -10.291  1.00  0.00    -0.237 OA
ATOM     78  O   UNL     1     -10.161  -5.866  -9.867  1.00  0.00    -0.237 OA
ATOM     79  O   UNL     1      -9.379  -4.482  -7.985  1.00  0.00    -0.744 OA
ENDBRANCH  75  76
ENDBRANCH  54  68
BRANCH  55  80
ATOM     80  C   UNL     1      -0.777   0.906  -8.852  1.00  0.00     0.058 A 
ATOM     81  C   UNL     1      -1.215   2.049  -9.546  1.00  0.00     0.135 A 
ATOM     82  C   UNL     1      -0.819   0.978  -7.446  1.00  0.00     0.135 A 
ATOM     83  F   UNL     1      -1.224   2.058 -10.887  1.00  0.00    -0.206 F 
ATOM     84  C   UNL     1      -1.715   3.178  -8.885  1.00  0.00     0.059 A 
ATOM     85  C   UNL     1      -1.313   2.092  -6.765  1.00  0.00     0.059 A 
ATOM     86  F   UNL     1      -0.466  -0.079  -6.697  1.00  0.00    -0.206 F 
ATOM     87  C   UNL     1      -1.781   3.181  -7.492  1.00  0.00     0.060 A 
BRANCH  87  88
ATOM     88  S   UNL     1      -2.586   4.565  -6.644  1.00  0.00     0.124 S 
ATOM     89  O   UNL     1      -1.636   5.649  -6.868  1.00  0.00    -0.237 OA
ATOM     90  O   UNL     1      -3.853   4.671  -7.359  1.00  0.00    -0.237 OA
ATOM     91  O   UNL     1      -2.691   4.101  -5.264  1.00  0.00    -0.744 OA
ENDBRANCH  87  88
ENDBRANCH  55  80
BRANCH  67  92
ATOM     92  C   UNL     1      -0.120  -3.240 -13.642  1.00  0.00     0.058 A 
ATOM     93  C   UNL     1       1.166  -3.080 -13.100  1.00  0.00     0.135 A 
ATOM     94  C   UNL     1      -0.218  -3.373 -15.035  1.00  0.00     0.135 A 
ATOM     95  F   UNL     1       1.353  -3.022 -11.774  1.00  0.00    -0.206 F 
ATOM     96  C   UNL     1       2.301  -3.026 -13.913  1.00  0.00     0.059 A 
ATOM     97  C   UNL     1       0.898  -3.353 -15.861  1.00  0.00     0.059 A 
ATOM     98  F   UNL     1      -1.417  -3.574 -15.607  1.00  0.00    -0.206 F 
ATOM     99  C   UNL     1       2.156  -3.164 -15.294  1.00  0.00     0.060 A 
BRANCH  99 100
ATOM    100  S   UNL     1       3.623  -3.151 -16.348  1.00  0.00     0.124 S 
ATOM    101  O   UNL     1       4.051  -1.759 -16.259  1.00  0.00    -0.237 OA
ATOM    102  O   UNL     1       4.491  -4.125 -15.693  1.00  0.00    -0.237 OA
ATOM    103  O   UNL     1       3.110  -3.564 -17.652  1.00  0.00    -0.744 OA
ENDBRANCH  99 100
ENDBRANCH  67  92
ENDBRANCH  41  42
ENDBRANCH   2  36
TORSDOF 15
