REMARK SMILES O=C(COc1ccccc1/C=C1/SC(=S)N(c2ccc(F)c(Cl)c2)C1=O)NCCCNC(=O)c1ccc(-c2c3nc(c(-c4c(F)cc(S(=O)(=O)[O-])cc4F)c4ccc([nH]4)c(-c4c(F)cc(S(=O)(=O)[O-])cc4F)c4nc(c(-c5c(F)cc(S(=O)(=O)[O-])cc5F)c5ccc2[nH]5)C=C4)C=C3)cc1
REMARK SMILES IDX 28 1 27 2 1 3 2 4 3 6 4 7 5 8 6 9 10 10 7 11 9 12 8 13 11 14
REMARK SMILES IDX 12 15 13 16 25 17 14 18 16 19 26 20 15 21 17 22 18 23 24 24
REMARK SMILES IDX 19 25 22 26 20 27 23 28 21 29 29 30 30 31 31 32 32 33 33 35
REMARK SMILES IDX 34 36 35 37 99 38 36 39 98 40 37 41 38 42 39 43 92 44 40 45
REMARK SMILES IDX 97 46 91 47 93 48 41 49 96 50 90 51 89 52 42 54 76 55 55 56
REMARK SMILES IDX 75 57 56 58 59 59 74 60 94 61 57 62 58 63 73 65 95 66 60 67
REMARK SMILES IDX 43 68 44 69 53 70 45 71 46 72 52 73 54 74 47 75 48 76 49 77
REMARK SMILES IDX 50 78 51 79 77 80 78 81 87 82 79 83 80 84 86 85 88 86 81 87
REMARK SMILES IDX 82 88 83 89 84 90 85 91 61 92 62 93 71 94 63 95 64 96 70 97
REMARK SMILES IDX 72 98 65 99 66 100 67 101 68 102 69 103
REMARK H PARENT 27 5 31 34 93 53 59 64
REMARK Flexibility Score: inf
ROOT
ATOM      1  C   UNL     1       2.461   2.434   1.714  1.00  0.00     0.117 C 
ENDROOT
BRANCH   1   2
ATOM      2  N   UNL     1       3.333   0.964   0.463  1.00  0.00    -0.353 N 
ATOM      3  O   UNL     1       2.751  -1.474   0.326  1.00  0.00    -0.271 OA
ATOM      4  C   UNL     1       3.263  -0.449  -0.120  1.00  0.00     0.257 C 
ATOM      5  H   UNL     1       4.148   1.373   0.091  1.00  0.00     0.163 HD
BRANCH   4   6
ATOM      6  C   UNL     1       3.836  -0.518  -1.533  1.00  0.00     0.329 C 
BRANCH   6   7
ATOM      7  O   UNL     1       4.027   0.735  -2.139  1.00  0.00    -0.483 OA
BRANCH   7   8
ATOM      8  C   UNL     1       2.979   1.298  -2.838  1.00  0.00     0.127 A 
ATOM      9  C   UNL     1       3.482   2.005  -3.942  1.00  0.00     0.047 A 
ATOM     10  C   UNL     1       1.635   1.493  -2.395  1.00  0.00     0.018 A 
ATOM     11  C   UNL     1       2.712   2.966  -4.579  1.00  0.00     0.004 A 
ATOM     12  C   UNL     1       0.877   2.470  -3.069  1.00  0.00     0.012 A 
ATOM     13  C   UNL     1       1.419   3.213  -4.130  1.00  0.00     0.001 A 
BRANCH  10  14
ATOM     14  C   UNL     1       1.080   1.007  -1.095  1.00  0.00     0.033 C 
ATOM     15  C   UNL     1       1.570   1.607   0.016  1.00  0.00     0.081 C 
ATOM     16  S   UNL     1       2.006   0.410   1.949  1.00  0.00    -0.054 SA
ATOM     17  C   UNL     1       3.046   2.846  -0.346  1.00  0.00     0.270 C 
ATOM     18  C   UNL     1       4.135   1.529   2.111  1.00  0.00     0.152 C 
ATOM     19  N   UNL     1       4.378   2.512   0.671  1.00  0.00    -0.261 N 
ATOM     20  O   UNL     1       2.997   3.804  -1.107  1.00  0.00    -0.268 OA
ATOM     21  S   UNL     1       4.755   3.131   3.116  1.00  0.00    -0.051 S 
BRANCH  19  22
ATOM     22  C   UNL     1       5.801   2.653   0.384  1.00  0.00     0.052 A 
ATOM     23  C   UNL     1       6.371   3.901   0.187  1.00  0.00     0.030 A 
ATOM     24  C   UNL     1       6.620   1.572   0.842  1.00  0.00     0.050 A 
ATOM     25  C   UNL     1       7.700   4.096   0.610  1.00  0.00     0.043 A 
ATOM     26  C   UNL     1       7.922   1.785   1.280  1.00  0.00     0.078 A 
ATOM     27  C   UNL     1       8.451   3.058   1.182  1.00  0.00     0.141 A 
ATOM     28  Cl  UNL     1       8.774   0.498   2.046  1.00  0.00    -0.081 Cl
ATOM     29  F   UNL     1       9.672   3.325   1.665  1.00  0.00    -0.205 F 
ENDBRANCH  19  22
ENDBRANCH  10  14
ENDBRANCH   7   8
ENDBRANCH   6   7
ENDBRANCH   4   6
ENDBRANCH   1   2
BRANCH   1  30
ATOM     30  C   UNL     1       2.233   2.207   3.632  1.00  0.00     0.042 C 
BRANCH  30  31
ATOM     31  C   UNL     1       3.027   1.117   4.697  1.00  0.00     0.118 C 
BRANCH  31  32
ATOM     32  N   UNL     1       4.506   0.945   4.719  1.00  0.00    -0.352 N 
ATOM     33  C   UNL     1       5.454   1.597   5.490  1.00  0.00     0.251 C 
ATOM     34  H   UNL     1       4.861   0.270   4.096  1.00  0.00     0.163 HD
ATOM     35  O   UNL     1       6.466   2.163   5.076  1.00  0.00    -0.269 OA
BRANCH  33  36
ATOM     36  C   UNL     1       5.617   1.097   6.808  1.00  0.00     0.039 A 
ATOM     37  C   UNL     1       5.796   1.965   7.880  1.00  0.00     0.014 A 
ATOM     38  C   UNL     1       5.948  -0.261   6.801  1.00  0.00     0.014 A 
ATOM     39  C   UNL     1       6.271   1.414   9.042  1.00  0.00     0.010 A 
ATOM     40  C   UNL     1       6.387  -0.811   7.956  1.00  0.00     0.010 A 
ATOM     41  C   UNL     1       6.539   0.036   9.057  1.00  0.00    -0.014 A 
BRANCH  41  42
ATOM     42  C   UNL     1       6.936  -0.622  10.277  1.00  0.00     0.031 A 
ATOM     43  C   UNL     1       8.331  -1.115  10.376  1.00  0.00     0.074 A 
ATOM     44  C   UNL     1       5.923  -0.880  11.114  1.00  0.00     0.049 A 
ATOM     45  N   UNL     1       8.859  -1.853  11.302  1.00  0.00    -0.248 NA
ATOM     46  C   UNL     1       9.238  -0.795   9.254  1.00  0.00     0.031 C 
ATOM     47  C   UNL     1       4.521  -0.481  10.899  1.00  0.00     0.029 A 
ATOM     48  N   UNL     1       5.901  -1.550  12.289  1.00  0.00    -0.354 N 
ATOM     49  C   UNL     1      10.155  -2.099  10.876  1.00  0.00     0.074 A 
ATOM     50  C   UNL     1      10.317  -1.493   9.576  1.00  0.00     0.031 C 
ATOM     51  C   UNL     1       3.785  -0.882  11.943  1.00  0.00     0.029 A 
ATOM     52  C   UNL     1       4.660  -1.581  12.868  1.00  0.00     0.049 A 
ATOM     53  H   UNL     1       6.697  -1.972  12.687  1.00  0.00     0.167 HD
ATOM     54  C   UNL     1      11.112  -2.760  11.560  1.00  0.00     0.037 A 
ATOM     55  C   UNL     1       4.310  -2.113  14.046  1.00  0.00     0.037 A 
ATOM     56  C   UNL     1      10.850  -3.308  12.865  1.00  0.00     0.049 A 
ATOM     57  C   UNL     1       5.426  -2.725  14.836  1.00  0.00     0.074 A 
ATOM     58  C   UNL     1      11.705  -3.955  13.730  1.00  0.00     0.029 A 
ATOM     59  N   UNL     1       9.606  -3.243  13.496  1.00  0.00    -0.354 N 
ATOM     60  N   UNL     1       6.679  -2.911  14.475  1.00  0.00    -0.248 NA
ATOM     61  C   UNL     1       5.108  -3.166  16.191  1.00  0.00     0.031 C 
ATOM     62  C   UNL     1      10.974  -4.296  14.876  1.00  0.00     0.029 A 
ATOM     63  C   UNL     1       9.671  -3.829  14.743  1.00  0.00     0.049 A 
ATOM     64  H   UNL     1       8.799  -2.837  13.106  1.00  0.00     0.167 HD
ATOM     65  C   UNL     1       7.311  -3.482  15.564  1.00  0.00     0.074 A 
ATOM     66  C   UNL     1       6.297  -3.580  16.606  1.00  0.00     0.031 C 
ATOM     67  C   UNL     1       8.596  -3.897  15.707  1.00  0.00     0.037 A 
BRANCH  54  68
ATOM     68  C   UNL     1      12.463  -2.891  10.917  1.00  0.00     0.058 A 
ATOM     69  C   UNL     1      13.279  -1.770  10.678  1.00  0.00     0.135 A 
ATOM     70  C   UNL     1      12.945  -4.142  10.503  1.00  0.00     0.135 A 
ATOM     71  F   UNL     1      12.859  -0.542  11.023  1.00  0.00    -0.206 F 
ATOM     72  C   UNL     1      14.506  -1.881  10.032  1.00  0.00     0.059 A 
ATOM     73  C   UNL     1      14.184  -4.280   9.880  1.00  0.00     0.059 A 
ATOM     74  F   UNL     1      12.203  -5.246  10.684  1.00  0.00    -0.206 F 
ATOM     75  C   UNL     1      14.951  -3.142   9.637  1.00  0.00     0.060 A 
BRANCH  75  76
ATOM     76  S   UNL     1      16.557  -3.274   8.821  1.00  0.00     0.124 S 
ATOM     77  O   UNL     1      16.258  -2.742   7.495  1.00  0.00    -0.237 OA
ATOM     78  O   UNL     1      17.405  -2.435   9.662  1.00  0.00    -0.237 OA
ATOM     79  O   UNL     1      16.848  -4.703   8.873  1.00  0.00    -0.744 OA
ENDBRANCH  75  76
ENDBRANCH  54  68
BRANCH  55  80
ATOM     80  C   UNL     1       2.919  -1.971  14.531  1.00  0.00     0.058 A 
ATOM     81  C   UNL     1       2.609  -1.071  15.560  1.00  0.00     0.135 A 
ATOM     82  C   UNL     1       1.855  -2.647  13.911  1.00  0.00     0.135 A 
ATOM     83  F   UNL     1       3.587  -0.373  16.157  1.00  0.00    -0.206 F 
ATOM     84  C   UNL     1       1.299  -0.868  15.981  1.00  0.00     0.059 A 
ATOM     85  C   UNL     1       0.535  -2.444  14.300  1.00  0.00     0.059 A 
ATOM     86  F   UNL     1       2.093  -3.476  12.883  1.00  0.00    -0.206 F 
ATOM     87  C   UNL     1       0.268  -1.563  15.347  1.00  0.00     0.060 A 
BRANCH  87  88
ATOM     88  S   UNL     1      -1.431  -1.270  15.882  1.00  0.00     0.124 S 
ATOM     89  O   UNL     1      -1.460  -1.977  17.158  1.00  0.00    -0.237 OA
ATOM     90  O   UNL     1      -1.485   0.186  15.957  1.00  0.00    -0.237 OA
ATOM     91  O   UNL     1      -2.228  -1.865  14.813  1.00  0.00    -0.744 OA
ENDBRANCH  87  88
ENDBRANCH  55  80
BRANCH  67  92
ATOM     92  C   UNL     1       8.929  -4.485  17.040  1.00  0.00     0.058 A 
ATOM     93  C   UNL     1       8.470  -5.758  17.404  1.00  0.00     0.135 A 
ATOM     94  C   UNL     1       9.714  -3.765  17.951  1.00  0.00     0.135 A 
ATOM     95  F   UNL     1       7.709  -6.472  16.558  1.00  0.00    -0.206 F 
ATOM     96  C   UNL     1       8.738  -6.282  18.658  1.00  0.00     0.059 A 
ATOM     97  C   UNL     1      10.021  -4.285  19.199  1.00  0.00     0.059 A 
ATOM     98  F   UNL     1      10.183  -2.548  17.631  1.00  0.00    -0.206 F 
ATOM     99  C   UNL     1       9.509  -5.534  19.550  1.00  0.00     0.060 A 
BRANCH  99 100
ATOM    100  S   UNL     1       9.843  -6.219  21.182  1.00  0.00     0.124 S 
ATOM    101  O   UNL     1       8.575  -5.975  21.863  1.00  0.00    -0.237 OA
ATOM    102  O   UNL     1      10.143  -7.615  20.881  1.00  0.00    -0.237 OA
ATOM    103  O   UNL     1      10.975  -5.428  21.654  1.00  0.00    -0.744 OA
ENDBRANCH  99 100
ENDBRANCH  67  92
ENDBRANCH  41  42
ENDBRANCH  33  36
ENDBRANCH  31  32
ENDBRANCH  30  31
ENDBRANCH   1  30
TORSDOF 17
