REMARK SMILES O=C(NCCCNC(=O)c1ccccc1Nc1nc(Cl)nc(Nc2ccc(N3CCOCC3=O)cc2)n1)c1ccc(-c2c3nc(c(-c4c(F)cc(S(=O)(=O)[O-])cc4F)c4ccc([nH]4)c(-c4c(F)cc(S(=O)(=O)[O-])cc4F)c4nc(c(-c5c(F)cc(S(=O)(=O)[O-])cc5F)c5ccc2[nH]5)C=C4)C=C3)cc1
REMARK SMILES IDX 6 1 5 2 4 3 3 4 1 5 2 6 38 8 39 9 103 10 40 11 102 12 41 13
REMARK SMILES IDX 42 14 43 15 96 16 44 17 101 18 95 19 97 20 45 21 100 22
REMARK SMILES IDX 94 23 93 24 46 26 80 27 59 28 79 29 60 30 63 31 78 32 98 33
REMARK SMILES IDX 61 34 62 35 77 37 99 38 64 39 47 40 48 41 57 42 49 43 50 44
REMARK SMILES IDX 56 45 58 46 51 47 52 48 53 49 54 50 55 51 81 52 82 53 91 54
REMARK SMILES IDX 83 55 84 56 90 57 92 58 85 59 86 60 87 61 88 62 89 63 65 64
REMARK SMILES IDX 66 65 75 66 67 67 68 68 74 69 76 70 69 71 70 72 71 73 72 74
REMARK SMILES IDX 73 75 7 76 8 77 9 79 10 80 11 81 15 82 12 83 14 84 13 85
REMARK SMILES IDX 16 86 17 88 18 89 37 90 19 91 22 92 20 93 21 94 23 95 24 97
REMARK SMILES IDX 25 98 36 99 26 100 35 101 27 102 28 103 29 104 33 105 30 106
REMARK SMILES IDX 32 107 34 108 31 109
REMARK H PARENT 3 7 97 25 63 36 7 78 16 87 23 96
REMARK Flexibility Score: inf
ROOT
ATOM      1  C   UNL     1       4.671   0.201   3.773  1.00  0.00     0.118 C 
ENDROOT
BRANCH   1   2
ATOM      2  C   UNL     1       5.146   0.486   2.356  1.00  0.00     0.042 C 
BRANCH   2   3
ATOM      3  C   UNL     1       4.656  -0.504   1.309  1.00  0.00     0.118 C 
BRANCH   3   4
ATOM      4  N   UNL     1       3.209  -0.505   1.146  1.00  0.00    -0.352 N 
ATOM      5  O   UNL     1       1.210  -0.043   0.226  1.00  0.00    -0.269 OA
ATOM      6  C   UNL     1       2.430  -0.094   0.090  1.00  0.00     0.251 C 
ATOM      7  H   UNL     1       2.707  -0.856   1.916  1.00  0.00     0.163 HD
BRANCH   6   8
ATOM      8  C   UNL     1       3.050   0.312  -1.191  1.00  0.00     0.039 A 
ATOM      9  C   UNL     1       4.105  -0.417  -1.742  1.00  0.00     0.014 A 
ATOM     10  C   UNL     1       2.552   1.431  -1.866  1.00  0.00     0.014 A 
ATOM     11  C   UNL     1       4.772   0.066  -2.862  1.00  0.00     0.010 A 
ATOM     12  C   UNL     1       3.158   1.856  -3.052  1.00  0.00     0.010 A 
ATOM     13  C   UNL     1       4.297   1.198  -3.541  1.00  0.00    -0.014 A 
BRANCH  13  14
ATOM     14  C   UNL     1       4.965   1.631  -4.795  1.00  0.00     0.031 A 
ATOM     15  C   UNL     1       5.630   2.976  -4.900  1.00  0.00     0.074 A 
ATOM     16  C   UNL     1       4.972   0.788  -5.846  1.00  0.00     0.049 A 
ATOM     17  N   UNL     1       6.239   3.513  -5.926  1.00  0.00    -0.248 NA
ATOM     18  C   UNL     1       5.598   3.833  -3.706  1.00  0.00     0.031 C 
ATOM     19  C   UNL     1       4.340  -0.534  -5.866  1.00  0.00     0.029 A 
ATOM     20  N   UNL     1       5.526   0.909  -7.094  1.00  0.00    -0.354 N 
ATOM     21  C   UNL     1       6.639   4.779  -5.514  1.00  0.00     0.074 A 
ATOM     22  C   UNL     1       6.186   4.937  -4.148  1.00  0.00     0.031 C 
ATOM     23  C   UNL     1       4.564  -1.111  -7.054  1.00  0.00     0.029 A 
ATOM     24  C   UNL     1       5.297  -0.179  -7.902  1.00  0.00     0.049 A 
ATOM     25  H   UNL     1       6.039   1.698  -7.383  1.00  0.00     0.167 HD
ATOM     26  C   UNL     1       7.323   5.719  -6.212  1.00  0.00     0.037 A 
ATOM     27  C   UNL     1       5.611  -0.396  -9.193  1.00  0.00     0.037 A 
ATOM     28  C   UNL     1       7.782   5.542  -7.567  1.00  0.00     0.049 A 
ATOM     29  C   UNL     1       6.365   0.658  -9.946  1.00  0.00     0.074 A 
ATOM     30  C   UNL     1       8.529   6.412  -8.342  1.00  0.00     0.029 A 
ATOM     31  N   UNL     1       7.529   4.426  -8.352  1.00  0.00    -0.354 N 
ATOM     32  N   UNL     1       6.776   1.830  -9.525  1.00  0.00    -0.248 NA
ATOM     33  C   UNL     1       6.698   0.366 -11.345  1.00  0.00     0.031 C 
ATOM     34  C   UNL     1       8.690   5.841  -9.610  1.00  0.00     0.029 A 
ATOM     35  C   UNL     1       8.082   4.595  -9.611  1.00  0.00     0.049 A 
ATOM     36  H   UNL     1       7.030   3.630  -8.057  1.00  0.00     0.167 HD
ATOM     37  C   UNL     1       7.422   2.416 -10.606  1.00  0.00     0.074 A 
ATOM     38  C   UNL     1       7.363   1.460 -11.694  1.00  0.00     0.031 C 
ATOM     39  C   UNL     1       8.009   3.635 -10.687  1.00  0.00     0.037 A 
BRANCH  26  40
ATOM     40  C   UNL     1       7.590   7.034  -5.531  1.00  0.00     0.058 A 
ATOM     41  C   UNL     1       8.517   7.155  -4.484  1.00  0.00     0.135 A 
ATOM     42  C   UNL     1       6.917   8.197  -5.944  1.00  0.00     0.135 A 
ATOM     43  F   UNL     1       9.181   6.075  -4.042  1.00  0.00    -0.206 F 
ATOM     44  C   UNL     1       8.737   8.371  -3.842  1.00  0.00     0.059 A 
ATOM     45  C   UNL     1       7.140   9.428  -5.334  1.00  0.00     0.059 A 
ATOM     46  F   UNL     1       6.024   8.141  -6.944  1.00  0.00    -0.206 F 
ATOM     47  C   UNL     1       8.037   9.500  -4.269  1.00  0.00     0.060 A 
BRANCH  47  48
ATOM     48  S   UNL     1       8.309  11.064  -3.409  1.00  0.00     0.124 S 
ATOM     49  O   UNL     1       7.570  10.845  -2.169  1.00  0.00    -0.237 OA
ATOM     50  O   UNL     1       9.762  11.104  -3.280  1.00  0.00    -0.237 OA
ATOM     51  O   UNL     1       7.736  12.055  -4.314  1.00  0.00    -0.744 OA
ENDBRANCH  47  48
ENDBRANCH  26  40
BRANCH  27  52
ATOM     52  C   UNL     1       5.182  -1.665  -9.834  1.00  0.00     0.058 A 
ATOM     53  C   UNL     1       6.102  -2.682 -10.121  1.00  0.00     0.135 A 
ATOM     54  C   UNL     1       3.824  -1.916 -10.089  1.00  0.00     0.135 A 
ATOM     55  F   UNL     1       7.410  -2.486  -9.896  1.00  0.00    -0.206 F 
ATOM     56  C   UNL     1       5.691  -3.909 -10.631  1.00  0.00     0.059 A 
ATOM     57  C   UNL     1       3.386  -3.143 -10.575  1.00  0.00     0.059 A 
ATOM     58  F   UNL     1       2.903  -0.979  -9.811  1.00  0.00    -0.206 F 
ATOM     59  C   UNL     1       4.329  -4.133 -10.844  1.00  0.00     0.060 A 
BRANCH  59  60
ATOM     60  S   UNL     1       3.795  -5.763 -11.412  1.00  0.00     0.124 S 
ATOM     61  O   UNL     1       4.175  -5.721 -12.819  1.00  0.00    -0.237 OA
ATOM     62  O   UNL     1       4.580  -6.656 -10.565  1.00  0.00    -0.237 OA
ATOM     63  O   UNL     1       2.360  -5.758 -11.143  1.00  0.00    -0.744 OA
ENDBRANCH  59  60
ENDBRANCH  27  52
BRANCH  39  64
ATOM     64  C   UNL     1       8.650   4.004 -11.994  1.00  0.00     0.058 A 
ATOM     65  C   UNL     1       7.881   4.375 -13.108  1.00  0.00     0.135 A 
ATOM     66  C   UNL     1      10.048   4.047 -12.115  1.00  0.00     0.135 A 
ATOM     67  F   UNL     1       6.541   4.340 -13.047  1.00  0.00    -0.206 F 
ATOM     68  C   UNL     1       8.478   4.768 -14.302  1.00  0.00     0.059 A 
ATOM     69  C   UNL     1      10.665   4.459 -13.291  1.00  0.00     0.059 A 
ATOM     70  F   UNL     1      10.826   3.706 -11.076  1.00  0.00    -0.206 F 
ATOM     71  C   UNL     1       9.871   4.811 -14.382  1.00  0.00     0.060 A 
BRANCH  71  72
ATOM     72  S   UNL     1      10.634   5.373 -15.919  1.00  0.00     0.124 S 
ATOM     73  O   UNL     1      10.444   4.213 -16.783  1.00  0.00    -0.237 OA
ATOM     74  O   UNL     1       9.836   6.550 -16.252  1.00  0.00    -0.237 OA
ATOM     75  O   UNL     1      12.014   5.649 -15.531  1.00  0.00    -0.744 OA
ENDBRANCH  71  72
ENDBRANCH  39  64
ENDBRANCH  13  14
ENDBRANCH   6   8
ENDBRANCH   3   4
ENDBRANCH   2   3
ENDBRANCH   1   2
BRANCH   1  76
ATOM     76  N   UNL     1       5.056  -1.120   4.252  1.00  0.00    -0.352 N 
ATOM     77  C   UNL     1       5.717  -1.479   5.399  1.00  0.00     0.253 C 
ATOM     78  H   UNL     1       4.803  -1.868   3.664  1.00  0.00     0.163 HD
ATOM     79  O   UNL     1       6.013  -2.657   5.588  1.00  0.00    -0.269 OA
BRANCH  77  80
ATOM     80  C   UNL     1       6.093  -0.468   6.410  1.00  0.00     0.063 A 
ATOM     81  C   UNL     1       7.445  -0.435   6.786  1.00  0.00     0.016 A 
ATOM     82  C   UNL     1       5.153   0.393   7.010  1.00  0.00     0.054 A 
ATOM     83  C   UNL     1       7.888   0.497   7.720  1.00  0.00     0.001 A 
ATOM     84  C   UNL     1       5.638   1.361   7.904  1.00  0.00     0.027 A 
ATOM     85  C   UNL     1       6.988   1.406   8.266  1.00  0.00     0.002 A 
BRANCH  82  86
ATOM     86  N   UNL     1       3.785   0.310   6.714  1.00  0.00    -0.323 N 
ATOM     87  H   UNL     1       3.475  -0.590   6.462  1.00  0.00     0.170 HD
BRANCH  86  88
ATOM     88  C   UNL     1       2.792   1.281   6.717  1.00  0.00     0.233 A 
ATOM     89  N   UNL     1       3.102   2.554   6.546  1.00  0.00    -0.182 NA
ATOM     90  N   UNL     1       1.551   0.835   6.877  1.00  0.00    -0.176 NA
ATOM     91  C   UNL     1       2.055   3.360   6.529  1.00  0.00     0.228 A 
ATOM     92  C   UNL     1       0.588   1.750   6.925  1.00  0.00     0.233 A 
ATOM     93  Cl  UNL     1       2.389   5.020   6.306  1.00  0.00    -0.041 Cl
ATOM     94  N   UNL     1       0.789   3.042   6.726  1.00  0.00    -0.182 NA
BRANCH  92  95
ATOM     95  N   UNL     1      -0.653   1.279   7.346  1.00  0.00    -0.324 N 
ATOM     96  H   UNL     1      -0.735   0.301   7.420  1.00  0.00     0.170 HD
BRANCH  95  97
ATOM     97  C   UNL     1      -1.795   2.009   7.676  1.00  0.00     0.041 A 
ATOM     98  C   UNL     1      -2.345   1.883   8.956  1.00  0.00     0.028 A 
ATOM     99  C   UNL     1      -2.350   2.944   6.801  1.00  0.00     0.028 A 
ATOM    100  C   UNL     1      -3.417   2.687   9.358  1.00  0.00     0.028 A 
ATOM    101  C   UNL     1      -3.459   3.705   7.178  1.00  0.00     0.028 A 
ATOM    102  C   UNL     1      -3.991   3.598   8.467  1.00  0.00     0.044 A 
BRANCH 102 103
ATOM    103  N   UNL     1      -5.061   4.442   8.883  1.00  0.00    -0.308 N 
ATOM    104  C   UNL     1      -4.835   5.252  10.085  1.00  0.00     0.154 C 
ATOM    105  C   UNL     1      -6.123   4.732   8.019  1.00  0.00     0.253 C 
ATOM    106  C   UNL     1      -6.106   5.898  10.620  1.00  0.00     0.183 C 
ATOM    107  C   UNL     1      -7.138   5.765   8.539  1.00  0.00     0.260 C 
ATOM    108  O   UNL     1      -6.340   4.150   6.955  1.00  0.00    -0.272 OA
ATOM    109  O   UNL     1      -6.736   6.640   9.580  1.00  0.00    -0.370 OA
ENDBRANCH 102 103
ENDBRANCH  95  97
ENDBRANCH  92  95
ENDBRANCH  86  88
ENDBRANCH  82  86
ENDBRANCH  77  80
ENDBRANCH   1  76
TORSDOF 18
