REMARK SMILES CS(=O)(=O)c1ccc(C2=NN(c3ccc(C(=O)NCCCNC(=O)c4ccc(-c5c6nc(c(-c7c(F)cc(S(=O)(=O)[O-])cc7F)c7ccc([nH]7)c(-c7c(F)cc(S(=O)(=O)[O-])cc7F)c7nc(c(-c8c(F)cc(S(=O)(=O)[O-])cc8F)c8ccc5[nH]8)C=C7)C=C6)cc4)cc3)[C@H](c3cccs3)C2)cc1
REMARK SMILES IDX 20 1 19 2 18 3 16 4 17 5 15 7 12 8 13 9 92 10 14 11 91 12
REMARK SMILES IDX 11 13 9 14 10 15 99 16 93 17 8 18 5 19 6 20 101 21 7 22
REMARK SMILES IDX 100 23 2 24 1 25 3 26 4 27 94 28 95 29 98 30 96 31 97 32
REMARK SMILES IDX 21 33 22 34 23 35 24 37 25 38 26 39 90 40 27 41 89 42 28 43
REMARK SMILES IDX 29 44 30 45 83 46 31 47 88 48 82 49 84 50 32 51 87 52 81 53
REMARK SMILES IDX 80 54 33 56 67 57 46 58 66 59 47 60 50 61 65 62 85 63 48 64
REMARK SMILES IDX 49 65 64 67 86 68 51 69 34 70 35 71 44 72 36 73 37 74 43 75
REMARK SMILES IDX 45 76 38 77 39 78 40 79 41 80 42 81 68 82 69 83 78 84 70 85
REMARK SMILES IDX 71 86 77 87 79 88 72 89 73 90 74 91 75 92 76 93 52 94 53 95
REMARK SMILES IDX 62 96 54 97 55 98 61 99 63 100 56 101 57 102 58 103 59 104
REMARK SMILES IDX 60 105
REMARK H PARENT 18 6 22 36 84 55 50 66
REMARK Flexibility Score: inf
ROOT
ATOM      1  C   UNL     1       5.225  -9.864  10.211  1.00  0.00     0.042 C 
ENDROOT
BRANCH   1   2
ATOM      2  C   UNL     1       5.685  -8.591  10.920  1.00  0.00     0.118 C 
BRANCH   2   3
ATOM      3  N   UNL     1       6.870  -8.026  10.299  1.00  0.00    -0.352 N 
ATOM      4  C   UNL     1       7.035  -6.936   9.482  1.00  0.00     0.251 C 
ATOM      5  O   UNL     1       8.182  -6.585   9.205  1.00  0.00    -0.269 OA
ATOM      6  H   UNL     1       7.703  -8.511  10.500  1.00  0.00     0.163 HD
BRANCH   4   7
ATOM      7  C   UNL     1       5.889  -6.138   8.970  1.00  0.00     0.039 A 
ATOM      8  C   UNL     1       3.788  -4.505   8.032  1.00  0.00     0.060 A 
ATOM      9  C   UNL     1       5.044  -3.957   8.306  1.00  0.00     0.029 A 
ATOM     10  C   UNL     1       3.615  -5.882   8.179  1.00  0.00     0.029 A 
ATOM     11  C   UNL     1       6.085  -4.764   8.779  1.00  0.00     0.016 A 
ATOM     12  C   UNL     1       4.660  -6.696   8.619  1.00  0.00     0.016 A 
BRANCH   8  13
ATOM     13  N   UNL     1       2.726  -3.721   7.612  1.00  0.00    -0.257 N 
ATOM     14  C   UNL     1       1.833  -2.229   6.408  1.00  0.00     0.071 C 
ATOM     15  N   UNL     1       2.760  -3.132   6.396  1.00  0.00    -0.176 NA
ATOM     16  C   UNL     1       1.125  -2.019   7.718  1.00  0.00     0.091 C 
ATOM     17  C   UNL     1       1.753  -3.150   8.546  1.00  0.00     0.154 C 
BRANCH  14  18
ATOM     18  C   UNL     1       1.472  -1.469   5.208  1.00  0.00    -0.002 A 
ATOM     19  C   UNL     1       0.794  -0.113   2.884  1.00  0.00     0.067 A 
ATOM     20  C   UNL     1       0.819  -1.510   2.880  1.00  0.00     0.021 A 
ATOM     21  C   UNL     1       1.111   0.608   4.044  1.00  0.00     0.021 A 
ATOM     22  C   UNL     1       1.177  -2.188   4.044  1.00  0.00     0.011 A 
ATOM     23  C   UNL     1       1.440  -0.074   5.218  1.00  0.00     0.011 A 
BRANCH  19  24
ATOM     24  S   UNL     1       0.364   0.779   1.407  1.00  0.00     0.175 S 
ATOM     25  C   UNL     1       1.158  -0.078   0.073  1.00  0.00     0.163 C 
ATOM     26  O   UNL     1       0.983   2.086   1.501  1.00  0.00    -0.224 OA
ATOM     27  O   UNL     1      -1.073   0.643   1.248  1.00  0.00    -0.224 OA
ENDBRANCH  19  24
ENDBRANCH  14  18
BRANCH  17  28
ATOM     28  C   UNL     1       0.791  -4.152   9.159  1.00  0.00     0.030 A 
ATOM     29  C   UNL     1       1.011  -4.903  10.304  1.00  0.00     0.017 A 
ATOM     30  S   UNL     1      -0.705  -4.581   8.436  1.00  0.00    -0.147 S 
ATOM     31  C   UNL     1      -0.047  -5.812  10.586  1.00  0.00     0.012 A 
ATOM     32  C   UNL     1      -1.058  -5.722   9.657  1.00  0.00     0.065 A 
ENDBRANCH  17  28
ENDBRANCH   8  13
ENDBRANCH   4   7
ENDBRANCH   2   3
ENDBRANCH   1   2
BRANCH   1  33
ATOM     33  C   UNL     1       6.123 -11.069  10.471  1.00  0.00     0.118 C 
BRANCH  33  34
ATOM     34  N   UNL     1       5.995 -11.565  11.833  1.00  0.00    -0.352 N 
ATOM     35  C   UNL     1       5.672 -12.823  12.280  1.00  0.00     0.251 C 
ATOM     36  H   UNL     1       6.166 -10.900  12.539  1.00  0.00     0.163 HD
ATOM     37  O   UNL     1       5.412 -12.990  13.469  1.00  0.00    -0.269 OA
BRANCH  35  38
ATOM     38  C   UNL     1       5.620 -13.967  11.341  1.00  0.00     0.039 A 
ATOM     39  C   UNL     1       4.584 -14.898  11.470  1.00  0.00     0.014 A 
ATOM     40  C   UNL     1       6.600 -14.146  10.361  1.00  0.00     0.014 A 
ATOM     41  C   UNL     1       4.501 -15.974  10.582  1.00  0.00     0.010 A 
ATOM     42  C   UNL     1       6.479 -15.181   9.437  1.00  0.00     0.010 A 
ATOM     43  C   UNL     1       5.431 -16.108   9.540  1.00  0.00    -0.014 A 
BRANCH  43  44
ATOM     44  C   UNL     1       5.332 -17.210   8.548  1.00  0.00     0.031 A 
ATOM     45  C   UNL     1       6.417 -18.250   8.467  1.00  0.00     0.074 A 
ATOM     46  C   UNL     1       4.308 -17.230   7.673  1.00  0.00     0.049 A 
ATOM     47  N   UNL     1       6.568 -19.221   7.604  1.00  0.00    -0.248 NA
ATOM     48  C   UNL     1       7.486 -18.171   9.476  1.00  0.00     0.031 C 
ATOM     49  C   UNL     1       3.215 -16.256   7.627  1.00  0.00     0.029 A 
ATOM     50  N   UNL     1       4.027 -18.092   6.643  1.00  0.00    -0.354 N 
ATOM     51  C   UNL     1       7.756 -19.855   7.950  1.00  0.00     0.074 A 
ATOM     52  C   UNL     1       8.306 -19.132   9.076  1.00  0.00     0.031 C 
ATOM     53  C   UNL     1       2.377 -16.582   6.630  1.00  0.00     0.029 A 
ATOM     54  C   UNL     1       2.890 -17.763   5.942  1.00  0.00     0.049 A 
ATOM     55  H   UNL     1       4.586 -18.872   6.426  1.00  0.00     0.167 HD
ATOM     56  C   UNL     1       8.325 -20.950   7.392  1.00  0.00     0.037 A 
ATOM     57  C   UNL     1       2.331 -18.340   4.861  1.00  0.00     0.037 A 
ATOM     58  C   UNL     1       7.758 -21.681   6.288  1.00  0.00     0.049 A 
ATOM     59  C   UNL     1       2.980 -19.557   4.261  1.00  0.00     0.074 A 
ATOM     60  C   UNL     1       8.232 -22.831   5.682  1.00  0.00     0.029 A 
ATOM     61  N   UNL     1       6.590 -21.333   5.626  1.00  0.00    -0.354 N 
ATOM     62  N   UNL     1       4.080 -20.170   4.628  1.00  0.00    -0.248 NA
ATOM     63  C   UNL     1       2.310 -20.164   3.102  1.00  0.00     0.031 C 
ATOM     64  C   UNL     1       7.368 -23.161   4.632  1.00  0.00     0.029 A 
ATOM     65  C   UNL     1       6.333 -22.239   4.610  1.00  0.00     0.049 A 
ATOM     66  H   UNL     1       6.026 -20.556   5.845  1.00  0.00     0.167 HD
ATOM     67  C   UNL     1       4.219 -21.250   3.765  1.00  0.00     0.074 A 
ATOM     68  C   UNL     1       3.088 -21.211   2.861  1.00  0.00     0.031 C 
ATOM     69  C   UNL     1       5.195 -22.191   3.726  1.00  0.00     0.037 A 
BRANCH  56  70
ATOM     70  C   UNL     1       9.630 -21.425   7.971  1.00  0.00     0.058 A 
ATOM     71  C   UNL     1       9.698 -22.026   9.238  1.00  0.00     0.135 A 
ATOM     72  C   UNL     1      10.825 -21.299   7.242  1.00  0.00     0.135 A 
ATOM     73  F   UNL     1       8.589 -22.158   9.983  1.00  0.00    -0.206 F 
ATOM     74  C   UNL     1      10.907 -22.452   9.778  1.00  0.00     0.059 A 
ATOM     75  C   UNL     1      12.041 -21.744   7.752  1.00  0.00     0.059 A 
ATOM     76  F   UNL     1      10.818 -20.734   6.025  1.00  0.00    -0.206 F 
ATOM     77  C   UNL     1      12.075 -22.303   9.029  1.00  0.00     0.060 A 
BRANCH  77  78
ATOM     78  S   UNL     1      13.637 -22.854   9.746  1.00  0.00     0.124 S 
ATOM     79  O   UNL     1      13.900 -21.796  10.716  1.00  0.00    -0.237 OA
ATOM     80  O   UNL     1      13.284 -24.154  10.307  1.00  0.00    -0.237 OA
ATOM     81  O   UNL     1      14.541 -22.895   8.601  1.00  0.00    -0.744 OA
ENDBRANCH  77  78
ENDBRANCH  56  70
BRANCH  57  82
ATOM     82  C   UNL     1       1.075 -17.784   4.292  1.00  0.00     0.058 A 
ATOM     83  C   UNL     1      -0.143 -18.462   4.444  1.00  0.00     0.135 A 
ATOM     84  C   UNL     1       1.061 -16.559   3.609  1.00  0.00     0.135 A 
ATOM     85  F   UNL     1      -0.178 -19.641   5.085  1.00  0.00    -0.206 F 
ATOM     86  C   UNL     1      -1.330 -17.953   3.930  1.00  0.00     0.059 A 
ATOM     87  C   UNL     1      -0.118 -16.017   3.105  1.00  0.00     0.059 A 
ATOM     88  F   UNL     1       2.198 -15.863   3.452  1.00  0.00    -0.206 F 
ATOM     89  C   UNL     1      -1.308 -16.726   3.264  1.00  0.00     0.060 A 
BRANCH  89  90
ATOM     90  S   UNL     1      -2.864 -16.044   2.651  1.00  0.00     0.124 S 
ATOM     91  O   UNL     1      -3.110 -16.880   1.482  1.00  0.00    -0.237 OA
ATOM     92  O   UNL     1      -3.759 -16.252   3.785  1.00  0.00    -0.237 OA
ATOM     93  O   UNL     1      -2.531 -14.650   2.373  1.00  0.00    -0.744 OA
ENDBRANCH  89  90
ENDBRANCH  57  82
BRANCH  69  94
ATOM     94  C   UNL     1       5.064 -23.280   2.699  1.00  0.00     0.058 A 
ATOM     95  C   UNL     1       5.320 -23.046   1.339  1.00  0.00     0.135 A 
ATOM     96  C   UNL     1       4.731 -24.587   3.090  1.00  0.00     0.135 A 
ATOM     97  F   UNL     1       5.635 -21.812   0.914  1.00  0.00    -0.206 F 
ATOM     98  C   UNL     1       5.231 -24.067   0.399  1.00  0.00     0.059 A 
ATOM     99  C   UNL     1       4.660 -25.628   2.170  1.00  0.00     0.059 A 
ATOM    100  F   UNL     1       4.485 -24.865   4.380  1.00  0.00    -0.206 F 
ATOM    101  C   UNL     1       4.902 -25.355   0.824  1.00  0.00     0.060 A 
BRANCH 101 102
ATOM    102  S   UNL     1       4.828 -26.681  -0.400  1.00  0.00     0.124 S 
ATOM    103  O   UNL     1       3.559 -26.398  -1.062  1.00  0.00    -0.237 OA
ATOM    104  O   UNL     1       6.027 -26.440  -1.197  1.00  0.00    -0.237 OA
ATOM    105  O   UNL     1       4.857 -27.894   0.412  1.00  0.00    -0.744 OA
ENDBRANCH 101 102
ENDBRANCH  69  94
ENDBRANCH  43  44
ENDBRANCH  35  38
ENDBRANCH  33  34
ENDBRANCH   1  33
TORSDOF 17
