REMARK SMILES O=C(CNC(=O)N1CC(NCCCNC(=O)c2ccc(-c3c4nc(c(-c5c(F)cc(S(=O)(=O)[O-])cc5F)c5ccc([nH]5)c(-c5c(F)cc(S(=O)(=O)[O-])cc5F)c5nc(c(-c6c(F)cc(S(=O)(=O)[O-])cc6F)c6ccc3[nH]6)C=C5)C=C4)cc2)=[NH+]c2ccccc21)N[C@H](C(=O)[O-])c1ccccc1
REMARK SMILES IDX 11 1 10 2 7 3 8 4 89 5 9 6 84 7 88 8 83 9 85 10 87 11 86 14
REMARK SMILES IDX 5 15 4 16 6 18 3 19 2 20 1 21 90 22 91 24 95 25 96 26 100 27
REMARK SMILES IDX 97 28 99 29 98 30 92 31 93 32 94 33 12 34 13 35 14 36 15 37
REMARK SMILES IDX 16 39 17 40 18 41 82 42 19 43 81 44 20 45 21 46 22 47 75 48
REMARK SMILES IDX 23 49 80 50 74 51 76 52 24 53 79 54 73 55 72 56 25 58 59 59
REMARK SMILES IDX 38 60 58 61 39 62 42 63 57 64 77 65 40 66 41 67 56 69 78 70
REMARK SMILES IDX 43 71 26 72 27 73 36 74 28 75 29 76 35 77 37 78 30 79 31 80
REMARK SMILES IDX 32 81 33 82 34 83 60 84 61 85 70 86 62 87 63 88 69 89 71 90
REMARK SMILES IDX 64 91 65 92 66 93 67 94 68 95 44 96 45 97 54 98 46 99 47 100
REMARK SMILES IDX 53 101 55 102 48 103 49 104 50 105 51 106 52 107
REMARK H PARENT 10 12 83 13 4 17 90 23 14 38 76 57 42 68
REMARK Flexibility Score: inf
ROOT
ATOM      1  C   UNL     1      -1.146  -7.370  -0.017  1.00  0.00     0.235 C 
ENDROOT
BRANCH   1   2
ATOM      2  N   UNL     1      -0.213  -6.922  -1.024  1.00  0.00    -0.277 N 
ATOM      3  N   UNL     1       3.227  -7.185   0.210  1.00  0.00    -0.278 N 
ATOM      4  C   UNL     1       1.901  -7.772   0.088  1.00  0.00     0.255 C 
ATOM      5  C   UNL     1       3.931  -7.077  -1.015  1.00  0.00     0.093 A 
ATOM      6  C   UNL     1       1.148  -7.087  -1.060  1.00  0.00     0.268 C 
ATOM      7  C   UNL     1       3.172  -6.813  -2.171  1.00  0.00     0.148 A 
ATOM      8  C   UNL     1       5.326  -7.180  -1.087  1.00  0.00     0.031 A 
ATOM      9  N   UNL     1       1.769  -6.669  -2.132  1.00  0.00    -0.241 N 
ATOM     10  C   UNL     1       3.840  -6.573  -3.373  1.00  0.00     0.054 A 
ATOM     11  C   UNL     1       5.976  -6.954  -2.300  1.00  0.00     0.002 A 
ATOM     12  H   UNL     1      -0.606  -6.434  -1.784  1.00  0.00     0.304 HD
ATOM     13  H   UNL     1       1.276  -6.268  -2.884  1.00  0.00     0.312 HD
ATOM     14  C   UNL     1       5.235  -6.634  -3.437  1.00  0.00     0.005 A 
BRANCH   3  15
ATOM     15  C   UNL     1       3.678  -6.838   1.456  1.00  0.00     0.323 C 
ATOM     16  N   UNL     1       4.502  -5.769   1.602  1.00  0.00    -0.329 N 
ATOM     17  H   UNL     1       4.975  -5.724   2.464  1.00  0.00     0.165 HD
ATOM     18  O   UNL     1       3.284  -7.395   2.481  1.00  0.00    -0.248 OA
BRANCH  16  19
ATOM     19  C   UNL     1       4.796  -4.677   0.679  1.00  0.00     0.218 C 
BRANCH  19  20
ATOM     20  C   UNL     1       4.375  -3.336   1.259  1.00  0.00     0.240 C 
ATOM     21  O   UNL     1       5.193  -2.483   1.588  1.00  0.00    -0.273 OA
ATOM     22  N   UNL     1       3.009  -3.159   1.323  1.00  0.00    -0.342 N 
ATOM     23  H   UNL     1       2.414  -3.896   1.056  1.00  0.00     0.164 HD
BRANCH  22  24
ATOM     24  C   UNL     1       2.426  -1.894   1.781  1.00  0.00     0.158 C 
BRANCH  24  25
ATOM     25  C   UNL     1       2.627  -1.658   3.277  1.00  0.00    -0.020 A 
ATOM     26  C   UNL     1       2.746  -2.756   4.155  1.00  0.00     0.006 A 
ATOM     27  C   UNL     1       2.592  -0.378   3.853  1.00  0.00     0.006 A 
ATOM     28  C   UNL     1       2.883  -2.580   5.534  1.00  0.00     0.000 A 
ATOM     29  C   UNL     1       2.726  -0.201   5.234  1.00  0.00     0.000 A 
ATOM     30  C   UNL     1       2.879  -1.300   6.073  1.00  0.00     0.000 A 
ENDBRANCH  24  25
BRANCH  24  31
ATOM     31  C   UNL     1       2.789  -0.755   0.794  1.00  0.00     0.068 C 
ATOM     32  O   UNL     1       2.689   0.457   0.956  1.00  0.00    -0.548 OA
ATOM     33  O   UNL     1       3.078  -1.196  -0.459  1.00  0.00    -0.548 OA
ENDBRANCH  24  31
ENDBRANCH  22  24
ENDBRANCH  19  20
ENDBRANCH  16  19
ENDBRANCH   3  15
ENDBRANCH   1   2
BRANCH   1  34
ATOM     34  C   UNL     1      -1.650  -6.205   0.828  1.00  0.00     0.067 C 
BRANCH  34  35
ATOM     35  C   UNL     1      -2.500  -5.192   0.063  1.00  0.00     0.120 C 
BRANCH  35  36
ATOM     36  N   UNL     1      -3.705  -5.780  -0.505  1.00  0.00    -0.352 N 
ATOM     37  C   UNL     1      -5.028  -5.456  -0.336  1.00  0.00     0.251 C 
ATOM     38  H   UNL     1      -3.544  -6.537  -1.114  1.00  0.00     0.163 HD
ATOM     39  O   UNL     1      -5.884  -6.218  -0.781  1.00  0.00    -0.269 OA
BRANCH  37  40
ATOM     40  C   UNL     1      -5.437  -4.223   0.376  1.00  0.00     0.039 A 
ATOM     41  C   UNL     1      -6.573  -4.266   1.191  1.00  0.00     0.014 A 
ATOM     42  C   UNL     1      -4.756  -3.015   0.205  1.00  0.00     0.014 A 
ATOM     43  C   UNL     1      -6.994  -3.118   1.867  1.00  0.00     0.010 A 
ATOM     44  C   UNL     1      -5.130  -1.890   0.941  1.00  0.00     0.010 A 
ATOM     45  C   UNL     1      -6.260  -1.924   1.771  1.00  0.00    -0.014 A 
BRANCH  45  46
ATOM     46  C   UNL     1      -6.674  -0.706   2.520  1.00  0.00     0.031 A 
ATOM     47  C   UNL     1      -7.073   0.545   1.778  1.00  0.00     0.074 A 
ATOM     48  C   UNL     1      -6.643  -0.709   3.869  1.00  0.00     0.049 A 
ATOM     49  N   UNL     1      -7.415   1.714   2.256  1.00  0.00    -0.248 NA
ATOM     50  C   UNL     1      -7.062   0.484   0.306  1.00  0.00     0.031 C 
ATOM     51  C   UNL     1      -6.225  -1.837   4.705  1.00  0.00     0.029 A 
ATOM     52  N   UNL     1      -6.959   0.272   4.777  1.00  0.00    -0.354 N 
ATOM     53  C   UNL     1      -7.634   2.530   1.151  1.00  0.00     0.074 A 
ATOM     54  C   UNL     1      -7.350   1.736  -0.023  1.00  0.00     0.031 C 
ATOM     55  C   UNL     1      -6.327  -1.491   5.999  1.00  0.00     0.029 A 
ATOM     56  C   UNL     1      -6.780  -0.107   6.088  1.00  0.00     0.049 A 
ATOM     57  H   UNL     1      -7.283   1.164   4.515  1.00  0.00     0.167 HD
ATOM     58  C   UNL     1      -8.052   3.818   1.119  1.00  0.00     0.037 A 
ATOM     59  C   UNL     1      -6.952   0.584   7.232  1.00  0.00     0.037 A 
ATOM     60  C   UNL     1      -8.380   4.590   2.290  1.00  0.00     0.049 A 
ATOM     61  C   UNL     1      -7.444   2.006   7.162  1.00  0.00     0.074 A 
ATOM     62  C   UNL     1      -8.895   5.874   2.353  1.00  0.00     0.029 A 
ATOM     63  N   UNL     1      -8.229   4.156   3.597  1.00  0.00    -0.354 N 
ATOM     64  N   UNL     1      -7.729   2.731   6.106  1.00  0.00    -0.248 NA
ATOM     65  C   UNL     1      -7.655   2.701   8.440  1.00  0.00     0.031 C 
ATOM     66  C   UNL     1      -9.004   6.236   3.699  1.00  0.00     0.029 A 
ATOM     67  C   UNL     1      -8.618   5.155   4.474  1.00  0.00     0.049 A 
ATOM     68  H   UNL     1      -7.894   3.269   3.863  1.00  0.00     0.167 HD
ATOM     69  C   UNL     1      -8.192   3.949   6.595  1.00  0.00     0.074 A 
ATOM     70  C   UNL     1      -8.162   3.858   8.039  1.00  0.00     0.031 C 
ATOM     71  C   UNL     1      -8.608   5.043   5.910  1.00  0.00     0.037 A 
BRANCH  58  72
ATOM     72  C   UNL     1      -8.191   4.491  -0.220  1.00  0.00     0.058 A 
ATOM     73  C   UNL     1      -9.226   4.166  -1.109  1.00  0.00     0.135 A 
ATOM     74  C   UNL     1      -7.334   5.548  -0.571  1.00  0.00     0.135 A 
ATOM     75  F   UNL     1     -10.063   3.153  -0.833  1.00  0.00    -0.206 F 
ATOM     76  C   UNL     1      -9.406   4.862  -2.301  1.00  0.00     0.059 A 
ATOM     77  C   UNL     1      -7.512   6.276  -1.744  1.00  0.00     0.059 A 
ATOM     78  F   UNL     1      -6.324   5.898   0.241  1.00  0.00    -0.206 F 
ATOM     79  C   UNL     1      -8.550   5.923  -2.604  1.00  0.00     0.060 A 
BRANCH  79  80
ATOM     80  S   UNL     1      -8.837   6.853  -4.125  1.00  0.00     0.124 S 
ATOM     81  O   UNL     1      -8.424   5.888  -5.139  1.00  0.00    -0.237 OA
ATOM     82  O   UNL     1     -10.269   7.126  -4.056  1.00  0.00    -0.237 OA
ATOM     83  O   UNL     1      -7.972   8.019  -3.979  1.00  0.00    -0.744 OA
ENDBRANCH  79  80
ENDBRANCH  58  72
BRANCH  59  84
ATOM     84  C   UNL     1      -6.664  -0.048   8.551  1.00  0.00     0.058 A 
ATOM     85  C   UNL     1      -7.689  -0.302   9.475  1.00  0.00     0.135 A 
ATOM     86  C   UNL     1      -5.351  -0.366   8.933  1.00  0.00     0.135 A 
ATOM     87  F   UNL     1      -8.962  -0.015   9.159  1.00  0.00    -0.206 F 
ATOM     88  C   UNL     1      -7.421  -0.798  10.746  1.00  0.00     0.059 A 
ATOM     89  C   UNL     1      -5.061  -0.895  10.186  1.00  0.00     0.059 A 
ATOM     90  F   UNL     1      -4.334  -0.166   8.080  1.00  0.00    -0.206 F 
ATOM     91  C   UNL     1      -6.101  -1.084  11.095  1.00  0.00     0.060 A 
BRANCH  91  92
ATOM     92  S   UNL     1      -5.758  -1.717  12.752  1.00  0.00     0.124 S 
ATOM     93  O   UNL     1      -5.933  -0.519  13.564  1.00  0.00    -0.237 OA
ATOM     94  O   UNL     1      -6.780  -2.748  12.904  1.00  0.00    -0.237 OA
ATOM     95  O   UNL     1      -4.390  -2.213  12.643  1.00  0.00    -0.744 OA
ENDBRANCH  91  92
ENDBRANCH  59  84
BRANCH  71  96
ATOM     96  C   UNL     1      -9.134   6.204   6.710  1.00  0.00     0.058 A 
ATOM     97  C   UNL     1      -8.296   7.010   7.496  1.00  0.00     0.135 A 
ATOM     98  C   UNL     1     -10.500   6.531   6.662  1.00  0.00     0.135 A 
ATOM     99  F   UNL     1      -6.983   6.742   7.579  1.00  0.00    -0.206 F 
ATOM    100  C   UNL     1      -8.800   8.072   8.241  1.00  0.00     0.059 A 
ATOM    101  C   UNL     1     -11.019   7.609   7.371  1.00  0.00     0.059 A 
ATOM    102  F   UNL     1     -11.344   5.803   5.913  1.00  0.00    -0.206 F 
ATOM    103  C   UNL     1     -10.165   8.361   8.174  1.00  0.00     0.060 A 
BRANCH 103 104
ATOM    104  S   UNL     1     -10.807   9.744   9.140  1.00  0.00     0.124 S 
ATOM    105  O   UNL     1     -10.784   9.193  10.491  1.00  0.00    -0.237 OA
ATOM    106  O   UNL     1      -9.833  10.796   8.868  1.00  0.00    -0.237 OA
ATOM    107  O   UNL     1     -12.135   9.966   8.575  1.00  0.00    -0.744 OA
ENDBRANCH 103 104
ENDBRANCH  71  96
ENDBRANCH  45  46
ENDBRANCH  37  40
ENDBRANCH  35  36
ENDBRANCH  34  35
ENDBRANCH   1  34
TORSDOF 18
