REMARK SMILES O=C(NCCCNC(=O)c1cc(-c2ccccc2)nc(Nc2nc3ccccc3s2)n1)c1ccc(-c2c3nc(c(-c4c(F)cc(S(=O)(=O)[O-])cc4F)c4ccc([nH]4)c(-c4c(F)cc(S(=O)(=O)[O-])cc4F)c4nc(c(-c5c(F)cc(S(=O)(=O)[O-])cc5F)c5ccc2[nH]5)C=C4)C=C3)cc1
REMARK SMILES IDX 4 1 3 2 1 3 2 4 32 6 33 7 97 8 34 9 96 10 35 11 36 12 37 13
REMARK SMILES IDX 90 14 38 15 95 16 89 17 91 18 39 19 94 20 88 21 87 22 40 24
REMARK SMILES IDX 74 25 53 26 73 27 54 28 57 29 72 30 92 31 55 32 56 33 71 35
REMARK SMILES IDX 93 36 58 37 41 38 42 39 51 40 43 41 44 42 50 43 52 44 45 45
REMARK SMILES IDX 46 46 47 47 48 48 49 49 75 50 76 51 85 52 77 53 78 54 84 55
REMARK SMILES IDX 86 56 79 57 80 58 81 59 82 60 83 61 59 62 60 63 69 64 61 65
REMARK SMILES IDX 62 66 68 67 70 68 63 69 64 70 65 71 66 72 67 73 5 74 6 75
REMARK SMILES IDX 7 76 8 77 9 79 10 80 11 81 31 82 12 83 20 84 19 85 13 86
REMARK SMILES IDX 14 87 18 88 15 89 17 90 16 91 21 92 22 94 23 95 30 96 24 97
REMARK SMILES IDX 29 98 25 99 28 100 26 101 27 102
REMARK H PARENT 3 5 91 23 57 34 7 78 21 93
REMARK Flexibility Score: inf
ROOT
ATOM      1  C   UNL     1       4.424   0.735  -1.258  1.00  0.00     0.118 C 
ENDROOT
BRANCH   1   2
ATOM      2  N   UNL     1       3.003   0.682  -0.929  1.00  0.00    -0.352 N 
ATOM      3  O   UNL     1       1.106  -0.069   0.011  1.00  0.00    -0.269 OA
ATOM      4  C   UNL     1       2.329  -0.032   0.036  1.00  0.00     0.251 C 
ATOM      5  H   UNL     1       2.431   1.253  -1.492  1.00  0.00     0.163 HD
BRANCH   4   6
ATOM      6  C   UNL     1       3.078  -0.763   1.082  1.00  0.00     0.039 A 
ATOM      7  C   UNL     1       4.218  -0.208   1.657  1.00  0.00     0.014 A 
ATOM      8  C   UNL     1       2.623  -2.015   1.512  1.00  0.00     0.014 A 
ATOM      9  C   UNL     1       5.008  -0.973   2.502  1.00  0.00     0.010 A 
ATOM     10  C   UNL     1       3.355  -2.735   2.464  1.00  0.00     0.010 A 
ATOM     11  C   UNL     1       4.576  -2.236   2.939  1.00  0.00    -0.014 A 
BRANCH  11  12
ATOM     12  C   UNL     1       5.404  -2.951   3.945  1.00  0.00     0.031 A 
ATOM     13  C   UNL     1       6.048  -4.275   3.640  1.00  0.00     0.074 A 
ATOM     14  C   UNL     1       5.639  -2.337   5.123  1.00  0.00     0.049 A 
ATOM     15  N   UNL     1       6.870  -4.976   4.380  1.00  0.00    -0.248 NA
ATOM     16  C   UNL     1       5.725  -4.903   2.349  1.00  0.00     0.031 C 
ATOM     17  C   UNL     1       5.041  -1.063   5.540  1.00  0.00     0.029 A 
ATOM     18  N   UNL     1       6.466  -2.667   6.164  1.00  0.00    -0.354 N 
ATOM     19  C   UNL     1       7.156  -6.127   3.654  1.00  0.00     0.074 A 
ATOM     20  C   UNL     1       6.393  -6.047   2.426  1.00  0.00     0.031 C 
ATOM     21  C   UNL     1       5.575  -0.686   6.709  1.00  0.00     0.029 A 
ATOM     22  C   UNL     1       6.500  -1.718   7.159  1.00  0.00     0.049 A 
ATOM     23  H   UNL     1       6.986  -3.503   6.197  1.00  0.00     0.167 HD
ATOM     24  C   UNL     1       7.987  -7.147   3.978  1.00  0.00     0.037 A 
ATOM     25  C   UNL     1       7.189  -1.683   8.314  1.00  0.00     0.037 A 
ATOM     26  C   UNL     1       8.752  -7.210   5.199  1.00  0.00     0.049 A 
ATOM     27  C   UNL     1       8.116  -2.817   8.637  1.00  0.00     0.074 A 
ATOM     28  C   UNL     1       9.622  -8.201   5.622  1.00  0.00     0.029 A 
ATOM     29  N   UNL     1       8.746  -6.239   6.191  1.00  0.00    -0.354 N 
ATOM     30  N   UNL     1       8.375  -3.892   7.932  1.00  0.00    -0.248 NA
ATOM     31  C   UNL     1       8.841  -2.736   9.910  1.00  0.00     0.031 C 
ATOM     32  C   UNL     1      10.119  -7.844   6.881  1.00  0.00     0.029 A 
ATOM     33  C   UNL     1       9.591  -6.611   7.226  1.00  0.00     0.049 A 
ATOM     34  H   UNL     1       8.220  -5.408   6.164  1.00  0.00     0.167 HD
ATOM     35  C   UNL     1       9.292  -4.620   8.679  1.00  0.00     0.074 A 
ATOM     36  C   UNL     1       9.570  -3.843   9.870  1.00  0.00     0.031 C 
ATOM     37  C   UNL     1       9.844  -5.829   8.409  1.00  0.00     0.037 A 
BRANCH  24  38
ATOM     38  C   UNL     1       8.117  -8.284   3.002  1.00  0.00     0.058 A 
ATOM     39  C   UNL     1       8.824  -8.142   1.797  1.00  0.00     0.135 A 
ATOM     40  C   UNL     1       7.578  -9.547   3.297  1.00  0.00     0.135 A 
ATOM     41  F   UNL     1       9.346  -6.953   1.457  1.00  0.00    -0.206 F 
ATOM     42  C   UNL     1       8.979  -9.206   0.913  1.00  0.00     0.059 A 
ATOM     43  C   UNL     1       7.739 -10.632   2.438  1.00  0.00     0.059 A 
ATOM     44  F   UNL     1       6.891  -9.740   4.434  1.00  0.00    -0.206 F 
ATOM     45  C   UNL     1       8.434 -10.448   1.243  1.00  0.00     0.060 A 
BRANCH  45  46
ATOM     46  S   UNL     1       8.658 -11.822   0.093  1.00  0.00     0.124 S 
ATOM     47  O   UNL     1       7.737 -11.457  -0.980  1.00  0.00    -0.237 OA
ATOM     48  O   UNL     1      10.077 -11.730  -0.234  1.00  0.00    -0.237 OA
ATOM     49  O   UNL     1       8.273 -12.991   0.878  1.00  0.00    -0.744 OA
ENDBRANCH  45  46
ENDBRANCH  24  38
BRANCH  25  50
ATOM     50  C   UNL     1       7.006  -0.541   9.247  1.00  0.00     0.058 A 
ATOM     51  C   UNL     1       8.027   0.394   9.468  1.00  0.00     0.135 A 
ATOM     52  C   UNL     1       5.787  -0.351   9.917  1.00  0.00     0.135 A 
ATOM     53  F   UNL     1       9.210   0.255   8.850  1.00  0.00    -0.206 F 
ATOM     54  C   UNL     1       7.854   1.468  10.335  1.00  0.00     0.059 A 
ATOM     55  C   UNL     1       5.580   0.731  10.765  1.00  0.00     0.059 A 
ATOM     56  F   UNL     1       4.771  -1.206   9.722  1.00  0.00    -0.206 F 
ATOM     57  C   UNL     1       6.625   1.627  10.979  1.00  0.00     0.060 A 
BRANCH  57  58
ATOM     58  S   UNL     1       6.388   3.046  12.070  1.00  0.00     0.124 S 
ATOM     59  O   UNL     1       7.086   2.609  13.273  1.00  0.00    -0.237 OA
ATOM     60  O   UNL     1       7.021   4.126  11.319  1.00  0.00    -0.237 OA
ATOM     61  O   UNL     1       4.935   3.141  12.181  1.00  0.00    -0.744 OA
ENDBRANCH  57  58
ENDBRANCH  25  50
BRANCH  37  62
ATOM     62  C   UNL     1      10.806  -6.371   9.427  1.00  0.00     0.058 A 
ATOM     63  C   UNL     1      10.361  -6.866  10.663  1.00  0.00     0.135 A 
ATOM     64  C   UNL     1      12.184  -6.399   9.164  1.00  0.00     0.135 A 
ATOM     65  F   UNL     1       9.053  -6.854  10.965  1.00  0.00    -0.206 F 
ATOM     66  C   UNL     1      11.254  -7.334  11.621  1.00  0.00     0.059 A 
ATOM     67  C   UNL     1      13.093  -6.887  10.097  1.00  0.00     0.059 A 
ATOM     68  F   UNL     1      12.659  -5.946   7.993  1.00  0.00    -0.206 F 
ATOM     69  C   UNL     1      12.620  -7.335  11.330  1.00  0.00     0.060 A 
BRANCH  69  70
ATOM     70  S   UNL     1      13.772  -7.942  12.580  1.00  0.00     0.124 S 
ATOM     71  O   UNL     1      13.823  -6.814  13.504  1.00  0.00    -0.237 OA
ATOM     72  O   UNL     1      13.097  -9.138  13.076  1.00  0.00    -0.237 OA
ATOM     73  O   UNL     1      14.994  -8.191  11.821  1.00  0.00    -0.744 OA
ENDBRANCH  69  70
ENDBRANCH  37  62
ENDBRANCH  11  12
ENDBRANCH   4   6
ENDBRANCH   1   2
BRANCH   1  74
ATOM     74  C   UNL     1       4.743   0.093  -2.599  1.00  0.00     0.042 C 
BRANCH  74  75
ATOM     75  C   UNL     1       4.063   0.775  -3.774  1.00  0.00     0.118 C 
BRANCH  75  76
ATOM     76  N   UNL     1       4.471   2.165  -3.931  1.00  0.00    -0.351 N 
ATOM     77  C   UNL     1       5.341   2.728  -4.838  1.00  0.00     0.270 C 
ATOM     78  H   UNL     1       4.064   2.795  -3.294  1.00  0.00     0.163 HD
ATOM     79  O   UNL     1       5.633   3.917  -4.745  1.00  0.00    -0.268 OA
BRANCH  77  80
ATOM     80  C   UNL     1       5.878   1.899  -5.943  1.00  0.00     0.134 A 
ATOM     81  C   UNL     1       5.019   1.250  -6.781  1.00  0.00     0.063 A 
ATOM     82  N   UNL     1       7.208   1.807  -6.027  1.00  0.00    -0.207 NA
ATOM     83  C   UNL     1       5.609   0.371  -7.657  1.00  0.00     0.077 A 
ATOM     84  C   UNL     1       7.720   0.993  -6.954  1.00  0.00     0.230 A 
ATOM     85  N   UNL     1       6.953   0.244  -7.769  1.00  0.00    -0.213 NA
BRANCH  83  86
ATOM     86  C   UNL     1       4.759  -0.562  -8.410  1.00  0.00     0.000 A 
ATOM     87  C   UNL     1       4.942  -1.949  -8.290  1.00  0.00     0.010 A 
ATOM     88  C   UNL     1       3.647  -0.101  -9.139  1.00  0.00     0.010 A 
ATOM     89  C   UNL     1       4.021  -2.843  -8.844  1.00  0.00     0.001 A 
ATOM     90  C   UNL     1       2.729  -0.993  -9.694  1.00  0.00     0.001 A 
ATOM     91  C   UNL     1       2.911  -2.364  -9.537  1.00  0.00     0.000 A 
ENDBRANCH  83  86
BRANCH  84  92
ATOM     92  N   UNL     1       9.097   0.967  -7.164  1.00  0.00    -0.300 N 
ATOM     93  H   UNL     1       9.452   0.387  -7.876  1.00  0.00     0.172 HD
BRANCH  92  94
ATOM     94  C   UNL     1       9.967   1.700  -6.437  1.00  0.00     0.190 A 
ATOM     95  N   UNL     1       9.837   1.984  -5.162  1.00  0.00    -0.220 NA
ATOM     96  S   UNL     1      11.376   2.381  -7.167  1.00  0.00    -0.097 S 
ATOM     97  C   UNL     1      10.739   2.946  -4.773  1.00  0.00     0.084 A 
ATOM     98  C   UNL     1      11.659   3.325  -5.749  1.00  0.00     0.056 A 
ATOM     99  C   UNL     1      10.777   3.571  -3.512  1.00  0.00     0.030 A 
ATOM    100  C   UNL     1      12.612   4.330  -5.510  1.00  0.00     0.021 A 
ATOM    101  C   UNL     1      11.710   4.581  -3.267  1.00  0.00     0.002 A 
ATOM    102  C   UNL     1      12.612   4.957  -4.257  1.00  0.00     0.002 A 
ENDBRANCH  92  94
ENDBRANCH  84  92
ENDBRANCH  77  80
ENDBRANCH  75  76
ENDBRANCH  74  75
ENDBRANCH   1  74
TORSDOF 16
