REMARK SMILES CC(C)c1ccc(OCC[C@H]2CCC[C@@]2([NH3+])C(=O)NCCCNC(=O)c2ccc(-c3c4nc(c(-c5c(F)cc(S(=O)(=O)[O-])cc5F)c5ccc([nH]5)c(-c5c(F)cc(S(=O)(=O)[O-])cc5F)c5nc(c(-c6c(F)cc(S(=O)(=O)[O-])cc6F)c6ccc3[nH]6)C=C5)C=C4)cc2)cc1
REMARK SMILES IDX 20 1 19 2 17 3 18 4 15 6 11 7 12 8 13 9 14 10 10 11 9 12
REMARK SMILES IDX 8 13 7 14 4 15 5 16 93 17 6 18 92 19 2 20 1 21 3 22 16 23
REMARK SMILES IDX 21 27 22 28 23 29 24 30 25 32 26 33 27 34 91 35 28 36 90 37
REMARK SMILES IDX 29 38 30 39 31 40 84 41 32 42 89 43 83 44 85 45 33 46 88 47
REMARK SMILES IDX 82 48 81 49 34 51 68 52 47 53 67 54 48 55 51 56 66 57 86 58
REMARK SMILES IDX 49 59 50 60 65 62 87 63 52 64 35 65 36 66 45 67 37 68 38 69
REMARK SMILES IDX 44 70 46 71 39 72 40 73 41 74 42 75 43 76 69 77 70 78 79 79
REMARK SMILES IDX 71 80 72 81 78 82 80 83 73 84 74 85 75 86 76 87 77 88 53 89
REMARK SMILES IDX 54 90 63 91 55 92 56 93 62 94 64 95 57 96 58 97 59 98 60 99
REMARK SMILES IDX 61 100
REMARK H PARENT 19 5 16 24 16 25 16 26 23 31 85 50 51 61
REMARK Flexibility Score: inf
ROOT
ATOM      1  C   UNL     1      -5.246   0.646   0.429  1.00  0.00     0.118 C 
ENDROOT
BRANCH   1   2
ATOM      2  N   UNL     1      -4.279   0.348  -0.616  1.00  0.00    -0.351 N 
ATOM      3  C   UNL     1      -3.601  -0.805  -0.904  1.00  0.00     0.281 C 
ATOM      4  O   UNL     1      -2.829  -0.757  -1.869  1.00  0.00    -0.268 OA
ATOM      5  H   UNL     1      -4.078   1.102  -1.216  1.00  0.00     0.163 HD
BRANCH   3   6
ATOM      6  C   UNL     1      -3.716  -2.090  -0.031  1.00  0.00     0.176 C 
ATOM      7  C   UNL     1      -4.108  -3.429  -0.741  1.00  0.00     0.064 C 
ATOM      8  C   UNL     1      -3.781  -4.425   0.377  1.00  0.00     0.011 C 
ATOM      9  C   UNL     1      -2.564  -3.842   1.126  1.00  0.00     0.008 C 
ATOM     10  C   UNL     1      -2.346  -2.446   0.548  1.00  0.00     0.079 C 
BRANCH   7  11
ATOM     11  C   UNL     1      -3.505  -3.822  -2.134  1.00  0.00     0.052 C 
BRANCH  11  12
ATOM     12  C   UNL     1      -2.204  -4.659  -2.299  1.00  0.00     0.230 C 
BRANCH  12  13
ATOM     13  O   UNL     1      -2.392  -6.092  -2.411  1.00  0.00    -0.494 OA
BRANCH  13  14
ATOM     14  C   UNL     1      -2.204  -6.871  -1.301  1.00  0.00     0.119 A 
ATOM     15  C   UNL     1      -2.727  -7.939   1.236  1.00  0.00    -0.045 A 
ATOM     16  C   UNL     1      -3.299  -8.516   0.092  1.00  0.00     0.008 A 
ATOM     17  C   UNL     1      -1.653  -7.063   1.038  1.00  0.00     0.008 A 
ATOM     18  C   UNL     1      -3.040  -7.978  -1.175  1.00  0.00     0.047 A 
ATOM     19  C   UNL     1      -1.367  -6.558  -0.241  1.00  0.00     0.047 A 
BRANCH  15  20
ATOM     20  C   UNL     1      -3.437  -8.082   2.582  1.00  0.00     0.013 C 
ATOM     21  C   UNL     1      -3.583  -9.525   3.060  1.00  0.00     0.012 C 
ATOM     22  C   UNL     1      -2.889  -7.205   3.718  1.00  0.00     0.012 C 
ENDBRANCH  15  20
ENDBRANCH  13  14
ENDBRANCH  12  13
ENDBRANCH  11  12
ENDBRANCH   7  11
BRANCH   6  23
ATOM     23  N   UNL     1      -4.640  -1.901   1.125  1.00  0.00    -0.345 N 
ATOM     24  H   UNL     1      -4.686  -2.763   1.668  1.00  0.00     0.345 HD
ATOM     25  H   UNL     1      -5.571  -1.665   0.781  1.00  0.00     0.345 HD
ATOM     26  H   UNL     1      -4.295  -1.144   1.716  1.00  0.00     0.345 HD
ENDBRANCH   6  23
ENDBRANCH   3   6
ENDBRANCH   1   2
BRANCH   1  27
ATOM     27  C   UNL     1      -4.590   0.992   1.769  1.00  0.00     0.042 C 
BRANCH  27  28
ATOM     28  C   UNL     1      -3.932   2.362   1.766  1.00  0.00     0.118 C 
BRANCH  28  29
ATOM     29  N   UNL     1      -4.899   3.404   1.453  1.00  0.00    -0.352 N 
ATOM     30  C   UNL     1      -5.454   4.340   2.284  1.00  0.00     0.251 C 
ATOM     31  H   UNL     1      -5.194   3.441   0.514  1.00  0.00     0.163 HD
ATOM     32  O   UNL     1      -6.543   4.830   2.011  1.00  0.00    -0.269 OA
BRANCH  30  33
ATOM     33  C   UNL     1      -4.705   4.778   3.477  1.00  0.00     0.039 A 
ATOM     34  C   UNL     1      -5.400   5.148   4.629  1.00  0.00     0.014 A 
ATOM     35  C   UNL     1      -3.311   4.889   3.422  1.00  0.00     0.014 A 
ATOM     36  C   UNL     1      -4.690   5.611   5.736  1.00  0.00     0.010 A 
ATOM     37  C   UNL     1      -2.602   5.256   4.553  1.00  0.00     0.010 A 
ATOM     38  C   UNL     1      -3.286   5.652   5.708  1.00  0.00    -0.014 A 
BRANCH  38  39
ATOM     39  C   UNL     1      -2.503   6.142   6.863  1.00  0.00     0.031 A 
ATOM     40  C   UNL     1      -1.649   7.371   6.713  1.00  0.00     0.074 A 
ATOM     41  C   UNL     1      -2.508   5.436   8.008  1.00  0.00     0.049 A 
ATOM     42  N   UNL     1      -0.824   7.912   7.571  1.00  0.00    -0.248 NA
ATOM     43  C   UNL     1      -1.701   8.065   5.414  1.00  0.00     0.031 C 
ATOM     44  C   UNL     1      -3.260   4.199   8.236  1.00  0.00     0.029 A 
ATOM     45  N   UNL     1      -1.851   5.648   9.191  1.00  0.00    -0.354 N 
ATOM     46  C   UNL     1      -0.249   8.993   6.912  1.00  0.00     0.074 A 
ATOM     47  C   UNL     1      -0.770   8.995   5.564  1.00  0.00     0.031 C 
ATOM     48  C   UNL     1      -3.043   3.777   9.491  1.00  0.00     0.029 A 
ATOM     49  C   UNL     1      -2.104   4.686  10.140  1.00  0.00     0.049 A 
ATOM     50  H   UNL     1      -1.255   6.415   9.347  1.00  0.00     0.167 HD
ATOM     51  C   UNL     1       0.614   9.915   7.399  1.00  0.00     0.037 A 
ATOM     52  C   UNL     1      -1.623   4.552  11.390  1.00  0.00     0.037 A 
ATOM     53  C   UNL     1       1.100   9.909   8.753  1.00  0.00     0.049 A 
ATOM     54  C   UNL     1      -0.668   5.590  11.910  1.00  0.00     0.074 A 
ATOM     55  C   UNL     1       1.929  10.825   9.374  1.00  0.00     0.029 A 
ATOM     56  N   UNL     1       0.801   8.934   9.695  1.00  0.00    -0.354 N 
ATOM     57  N   UNL     1      -0.184   6.646  11.298  1.00  0.00    -0.248 NA
ATOM     58  C   UNL     1      -0.198   5.426  13.291  1.00  0.00     0.031 C 
ATOM     59  C   UNL     1       2.173  10.377  10.677  1.00  0.00     0.029 A 
ATOM     60  C   UNL     1       1.448   9.214  10.887  1.00  0.00     0.049 A 
ATOM     61  H   UNL     1       0.215   8.158   9.539  1.00  0.00     0.167 HD
ATOM     62  C   UNL     1       0.623   7.289  12.229  1.00  0.00     0.074 A 
ATOM     63  C   UNL     1       0.553   6.508  13.448  1.00  0.00     0.031 C 
ATOM     64  C   UNL     1       1.355   8.423  12.090  1.00  0.00     0.037 A 
BRANCH  51  65
ATOM     65  C   UNL     1       1.079  11.001   6.465  1.00  0.00     0.058 A 
ATOM     66  C   UNL     1       0.206  11.995   5.993  1.00  0.00     0.135 A 
ATOM     67  C   UNL     1       2.420  11.064   6.055  1.00  0.00     0.135 A 
ATOM     68  F   UNL     1      -1.092  11.976   6.338  1.00  0.00    -0.206 F 
ATOM     69  C   UNL     1       0.637  12.991   5.123  1.00  0.00     0.059 A 
ATOM     70  C   UNL     1       2.881  12.070   5.211  1.00  0.00     0.059 A 
ATOM     71  F   UNL     1       3.299  10.139   6.473  1.00  0.00    -0.206 F 
ATOM     72  C   UNL     1       1.978  13.020   4.738  1.00  0.00     0.060 A 
BRANCH  72  73
ATOM     73  S   UNL     1       2.521  14.323   3.612  1.00  0.00     0.124 S 
ATOM     74  O   UNL     1       1.906  13.899   2.358  1.00  0.00    -0.237 OA
ATOM     75  O   UNL     1       1.953  15.520   4.224  1.00  0.00    -0.237 OA
ATOM     76  O   UNL     1       3.977  14.229   3.659  1.00  0.00    -0.744 OA
ENDBRANCH  72  73
ENDBRANCH  51  65
BRANCH  52  77
ATOM     77  C   UNL     1      -2.062   3.410  12.233  1.00  0.00     0.058 A 
ATOM     78  C   UNL     1      -2.899   3.612  13.341  1.00  0.00     0.135 A 
ATOM     79  C   UNL     1      -1.683   2.092  11.933  1.00  0.00     0.135 A 
ATOM     80  F   UNL     1      -3.289   4.853  13.669  1.00  0.00    -0.206 F 
ATOM     81  C   UNL     1      -3.329   2.553  14.133  1.00  0.00     0.059 A 
ATOM     82  C   UNL     1      -2.122   1.013  12.694  1.00  0.00     0.059 A 
ATOM     83  F   UNL     1      -0.902   1.842  10.870  1.00  0.00    -0.206 F 
ATOM     84  C   UNL     1      -2.937   1.255  13.798  1.00  0.00     0.060 A 
BRANCH  84  85
ATOM     85  S   UNL     1      -3.540  -0.117  14.806  1.00  0.00     0.124 S 
ATOM     86  O   UNL     1      -2.777   0.063  16.035  1.00  0.00    -0.237 OA
ATOM     87  O   UNL     1      -4.968   0.172  14.892  1.00  0.00    -0.237 OA
ATOM     88  O   UNL     1      -3.193  -1.293  14.013  1.00  0.00    -0.744 OA
ENDBRANCH  84  85
ENDBRANCH  52  77
BRANCH  64  89
ATOM     89  C   UNL     1       2.107   8.910  13.297  1.00  0.00     0.058 A 
ATOM     90  C   UNL     1       3.250   8.249  13.772  1.00  0.00     0.135 A 
ATOM     91  C   UNL     1       1.709  10.088  13.950  1.00  0.00     0.135 A 
ATOM     92  F   UNL     1       3.668   7.116  13.188  1.00  0.00    -0.206 F 
ATOM     93  C   UNL     1       3.959   8.727  14.869  1.00  0.00     0.059 A 
ATOM     94  C   UNL     1       2.421  10.601  15.028  1.00  0.00     0.059 A 
ATOM     95  F   UNL     1       0.628  10.764  13.528  1.00  0.00    -0.206 F 
ATOM     96  C   UNL     1       3.539   9.906  15.488  1.00  0.00     0.060 A 
BRANCH  96  97
ATOM     97  S   UNL     1       4.491  10.535  16.886  1.00  0.00     0.124 S 
ATOM     98  O   UNL     1       4.135   9.585  17.935  1.00  0.00    -0.237 OA
ATOM     99  O   UNL     1       5.862  10.450  16.392  1.00  0.00    -0.237 OA
ATOM    100  O   UNL     1       3.979  11.890  17.065  1.00  0.00    -0.744 OA
ENDBRANCH  96  97
ENDBRANCH  64  89
ENDBRANCH  38  39
ENDBRANCH  30  33
ENDBRANCH  28  29
ENDBRANCH  27  28
ENDBRANCH   1  27
TORSDOF 19
