REMARK SMILES COc1cc(/C=C2/C(=O)N(c3ccccc3)C(=O)[NH+]=C2NCCCNC(=O)c2ccc(-c3c4nc(c(-c5c(F)cc(S(=O)(=O)[O-])cc5F)c5ccc([nH]5)c(-c5c(F)cc(S(=O)(=O)[O-])cc5F)c5nc(c(-c6c(F)cc(S(=O)(=O)[O-])cc6F)c6ccc3[nH]6)C=C5)C=C4)cc2)ccc1OCC(=O)[O-]
REMARK SMILES IDX 23 1 22 2 21 3 6 4 7 5 8 6 20 7 9 8 10 9 19 10 17 11 18 14
REMARK SMILES IDX 5 15 3 16 4 17 96 18 95 19 94 20 2 21 1 22 97 23 98 24 99 25
REMARK SMILES IDX 100 26 101 27 11 28 12 29 16 30 13 31 15 32 14 33 24 34
REMARK SMILES IDX 25 35 26 36 27 38 28 39 29 40 93 41 30 42 92 43 31 44 32 45
REMARK SMILES IDX 33 46 86 47 34 48 91 49 85 50 87 51 35 52 90 53 84 54 83 55
REMARK SMILES IDX 36 57 70 58 49 59 69 60 50 61 53 62 68 63 88 64 51 65 52 66
REMARK SMILES IDX 67 68 89 69 54 70 37 71 38 72 47 73 39 74 40 75 46 76 48 77
REMARK SMILES IDX 41 78 42 79 43 80 44 81 45 82 71 83 72 84 81 85 73 86 74 87
REMARK SMILES IDX 80 88 82 89 75 90 76 91 77 92 78 93 79 94 55 95 56 96 65 97
REMARK SMILES IDX 57 98 58 99 64 100 66 101 59 102 60 103 61 104 62 105 63 106
REMARK H PARENT 19 12 21 13 25 37 87 56 53 67
REMARK Flexibility Score: inf
ROOT
ATOM      1  C   UNL     1       0.687  -2.659   1.545  1.00  0.00     0.059 C 
ENDROOT
BRANCH   1   2
ATOM      2  C   UNL     1       0.723  -2.009   3.644  1.00  0.00     0.195 C 
BRANCH   2   3
ATOM      3  N   UNL     1      -0.460  -1.331   4.538  1.00  0.00    -0.305 N 
ATOM      4  C   UNL     1      -1.509  -4.123   3.965  1.00  0.00     0.030 C 
ATOM      5  C   UNL     1      -1.873  -3.380   5.018  1.00  0.00     0.129 C 
ATOM      6  C   UNL     1      -2.678  -3.911   6.133  1.00  0.00     0.328 C 
ATOM      7  C   UNL     1      -1.595  -1.922   5.062  1.00  0.00     0.236 C 
ATOM      8  O   UNL     1      -2.550  -5.070   6.516  1.00  0.00    -0.249 OA
ATOM      9  N   UNL     1      -3.562  -2.965   6.620  1.00  0.00    -0.155 N 
ATOM     10  N   UNL     1      -2.512  -1.141   5.559  1.00  0.00    -0.209 N 
ATOM     11  C   UNL     1      -3.684  -1.722   6.004  1.00  0.00     0.448 C 
ATOM     12  H   UNL     1      -2.374  -0.168   5.617  1.00  0.00     0.270 HD
ATOM     13  H   UNL     1      -0.351  -0.372   4.731  1.00  0.00     0.256 HD
ATOM     14  O   UNL     1      -4.764  -1.157   5.849  1.00  0.00    -0.212 OA
BRANCH   4  15
ATOM     15  C   UNL     1      -0.626  -3.475   3.001  1.00  0.00    -0.021 A 
ATOM     16  C   UNL     1       0.427  -0.672   2.102  1.00  0.00     0.161 A 
ATOM     17  C   UNL     1      -0.970  -1.791   2.385  1.00  0.00     0.058 A 
ATOM     18  C   UNL     1       2.131  -1.303   2.197  1.00  0.00     0.161 A 
ATOM     19  C   UNL     1       2.441  -2.960   2.782  1.00  0.00     0.051 A 
ATOM     20  C   UNL     1       1.071  -4.064   3.115  1.00  0.00     0.012 A 
BRANCH  16  21
ATOM     21  O   UNL     1       0.305   0.690   2.053  1.00  0.00    -0.493 OA
ATOM     22  C   UNL     1      -0.656   1.204   1.140  1.00  0.00     0.278 C 
ENDBRANCH  16  21
BRANCH  18  23
ATOM     23  O   UNL     1       3.125  -0.531   1.667  1.00  0.00    -0.484 OA
BRANCH  23  24
ATOM     24  C   UNL     1       4.132  -1.248   0.955  1.00  0.00     0.282 C 
BRANCH  24  25
ATOM     25  C   UNL     1       3.940  -2.557   0.150  1.00  0.00     0.079 C 
ATOM     26  O   UNL     1       3.277  -2.738  -0.855  1.00  0.00    -0.546 OA
ATOM     27  O   UNL     1       4.599  -3.611   0.681  1.00  0.00    -0.546 OA
ENDBRANCH  24  25
ENDBRANCH  23  24
ENDBRANCH  18  23
ENDBRANCH   4  15
BRANCH   9  28
ATOM     28  C   UNL     1      -4.497  -3.348   7.605  1.00  0.00     0.111 A 
ATOM     29  C   UNL     1      -5.808  -3.698   7.271  1.00  0.00     0.044 A 
ATOM     30  C   UNL     1      -4.088  -3.347   8.943  1.00  0.00     0.044 A 
ATOM     31  C   UNL     1      -6.705  -4.053   8.281  1.00  0.00     0.004 A 
ATOM     32  C   UNL     1      -4.993  -3.679   9.948  1.00  0.00     0.004 A 
ATOM     33  C   UNL     1      -6.299  -4.036   9.617  1.00  0.00     0.000 A 
ENDBRANCH   9  28
ENDBRANCH   2   3
ENDBRANCH   1   2
BRANCH   1  34
ATOM     34  C   UNL     1       0.400  -1.872  -0.007  1.00  0.00     0.119 C 
BRANCH  34  35
ATOM     35  N   UNL     1       1.154  -0.671  -0.413  1.00  0.00    -0.352 N 
ATOM     36  C   UNL     1       1.585  -0.204  -1.617  1.00  0.00     0.251 C 
ATOM     37  H   UNL     1       1.397  -0.088   0.342  1.00  0.00     0.163 HD
ATOM     38  O   UNL     1       2.128   0.895  -1.690  1.00  0.00    -0.269 OA
BRANCH  36  39
ATOM     39  C   UNL     1       1.508  -1.071  -2.785  1.00  0.00     0.039 A 
ATOM     40  C   UNL     1       2.703  -1.295  -3.477  1.00  0.00     0.014 A 
ATOM     41  C   UNL     1       0.327  -1.735  -3.110  1.00  0.00     0.014 A 
ATOM     42  C   UNL     1       2.743  -2.271  -4.456  1.00  0.00     0.010 A 
ATOM     43  C   UNL     1       0.375  -2.733  -4.063  1.00  0.00     0.010 A 
ATOM     44  C   UNL     1       1.583  -3.000  -4.730  1.00  0.00    -0.014 A 
BRANCH  44  45
ATOM     45  C   UNL     1       1.557  -3.958  -5.839  1.00  0.00     0.031 A 
ATOM     46  C   UNL     1       0.889  -3.512  -7.098  1.00  0.00     0.074 A 
ATOM     47  C   UNL     1       2.059  -5.192  -5.671  1.00  0.00     0.049 A 
ATOM     48  N   UNL     1       0.569  -4.208  -8.150  1.00  0.00    -0.248 NA
ATOM     49  C   UNL     1       0.495  -2.092  -7.161  1.00  0.00     0.031 C 
ATOM     50  C   UNL     1       2.729  -5.682  -4.463  1.00  0.00     0.029 A 
ATOM     51  N   UNL     1       2.064  -6.267  -6.515  1.00  0.00    -0.354 N 
ATOM     52  C   UNL     1      -0.073  -3.314  -8.996  1.00  0.00     0.074 A 
ATOM     53  C   UNL     1      -0.151  -2.044  -8.314  1.00  0.00     0.031 C 
ATOM     54  C   UNL     1       3.073  -6.970  -4.646  1.00  0.00     0.029 A 
ATOM     55  C   UNL     1       2.618  -7.397  -5.965  1.00  0.00     0.049 A 
ATOM     56  H   UNL     1       1.704  -6.234  -7.431  1.00  0.00     0.167 HD
ATOM     57  C   UNL     1      -0.529  -3.539 -10.247  1.00  0.00     0.037 A 
ATOM     58  C   UNL     1       2.719  -8.635  -6.484  1.00  0.00     0.037 A 
ATOM     59  C   UNL     1      -0.422  -4.814 -10.896  1.00  0.00     0.049 A 
ATOM     60  C   UNL     1       2.169  -8.867  -7.870  1.00  0.00     0.074 A 
ATOM     61  C   UNL     1      -0.857  -5.183 -12.153  1.00  0.00     0.029 A 
ATOM     62  N   UNL     1       0.183  -5.928 -10.329  1.00  0.00    -0.354 N 
ATOM     63  N   UNL     1       1.568  -8.016  -8.671  1.00  0.00    -0.248 NA
ATOM     64  C   UNL     1       2.311 -10.218  -8.426  1.00  0.00     0.031 C 
ATOM     65  C   UNL     1      -0.528  -6.530 -12.341  1.00  0.00     0.029 A 
ATOM     66  C   UNL     1       0.145  -6.986 -11.216  1.00  0.00     0.049 A 
ATOM     67  H   UNL     1       0.581  -5.959  -9.429  1.00  0.00     0.167 HD
ATOM     68  C   UNL     1       1.307  -8.715  -9.843  1.00  0.00     0.074 A 
ATOM     69  C   UNL     1       1.809 -10.060  -9.643  1.00  0.00     0.031 C 
ATOM     70  C   UNL     1       0.709  -8.292 -10.983  1.00  0.00     0.037 A 
BRANCH  57  71
ATOM     71  C   UNL     1      -1.157  -2.384 -10.966  1.00  0.00     0.058 A 
ATOM     72  C   UNL     1      -0.387  -1.293 -11.402  1.00  0.00     0.135 A 
ATOM     73  C   UNL     1      -2.538  -2.352 -11.211  1.00  0.00     0.135 A 
ATOM     74  F   UNL     1       0.934  -1.259 -11.162  1.00  0.00    -0.206 F 
ATOM     75  C   UNL     1      -0.967  -0.200 -12.034  1.00  0.00     0.059 A 
ATOM     76  C   UNL     1      -3.136  -1.281 -11.868  1.00  0.00     0.059 A 
ATOM     77  F   UNL     1      -3.322  -3.362 -10.800  1.00  0.00    -0.206 F 
ATOM     78  C   UNL     1      -2.343  -0.203 -12.263  1.00  0.00     0.060 A 
BRANCH  78  79
ATOM     79  S   UNL     1      -3.078   1.218 -13.097  1.00  0.00     0.124 S 
ATOM     80  O   UNL     1      -3.033   2.228 -12.044  1.00  0.00    -0.237 OA
ATOM     81  O   UNL     1      -2.165   1.429 -14.216  1.00  0.00    -0.237 OA
ATOM     82  O   UNL     1      -4.411   0.748 -13.460  1.00  0.00    -0.744 OA
ENDBRANCH  78  79
ENDBRANCH  57  71
BRANCH  58  83
ATOM     83  C   UNL     1       3.370  -9.734  -5.723  1.00  0.00     0.058 A 
ATOM     84  C   UNL     1       4.592 -10.274  -6.149  1.00  0.00     0.135 A 
ATOM     85  C   UNL     1       2.776 -10.290  -4.580  1.00  0.00     0.135 A 
ATOM     86  F   UNL     1       5.204  -9.774  -7.234  1.00  0.00    -0.206 F 
ATOM     87  C   UNL     1       5.181 -11.355  -5.500  1.00  0.00     0.059 A 
ATOM     88  C   UNL     1       3.357 -11.356  -3.898  1.00  0.00     0.059 A 
ATOM     89  F   UNL     1       1.619  -9.795  -4.112  1.00  0.00    -0.206 F 
ATOM     90  C   UNL     1       4.549 -11.896  -4.380  1.00  0.00     0.060 A 
BRANCH  90  91
ATOM     91  S   UNL     1       5.315 -13.305  -3.550  1.00  0.00     0.124 S 
ATOM     92  O   UNL     1       5.029 -14.386  -4.486  1.00  0.00    -0.237 OA
ATOM     93  O   UNL     1       6.711 -12.889  -3.461  1.00  0.00    -0.237 OA
ATOM     94  O   UNL     1       4.606 -13.368  -2.275  1.00  0.00    -0.744 OA
ENDBRANCH  90  91
ENDBRANCH  58  83
BRANCH  70  95
ATOM     95  C   UNL     1       0.638  -9.259 -12.127  1.00  0.00     0.058 A 
ATOM     96  C   UNL     1      -0.299 -10.301 -12.152  1.00  0.00     0.135 A 
ATOM     97  C   UNL     1       1.443  -9.060 -13.260  1.00  0.00     0.135 A 
ATOM     98  F   UNL     1      -1.084 -10.531 -11.088  1.00  0.00    -0.206 F 
ATOM     99  C   UNL     1      -0.437 -11.117 -13.268  1.00  0.00     0.059 A 
ATOM    100  C   UNL     1       1.304  -9.848 -14.395  1.00  0.00     0.059 A 
ATOM    101  F   UNL     1       2.346  -8.067 -13.282  1.00  0.00    -0.206 F 
ATOM    102  C   UNL     1       0.361 -10.874 -14.389  1.00  0.00     0.060 A 
BRANCH 102 103
ATOM    103  S   UNL     1       0.108 -11.884 -15.862  1.00  0.00     0.124 S 
ATOM    104  O   UNL     1       0.727 -13.144 -15.464  1.00  0.00    -0.237 OA
ATOM    105  O   UNL     1      -1.347 -11.902 -15.982  1.00  0.00    -0.237 OA
ATOM    106  O   UNL     1       0.808 -11.142 -16.907  1.00  0.00    -0.744 OA
ENDBRANCH 102 103
ENDBRANCH  70  95
ENDBRANCH  44  45
ENDBRANCH  36  39
ENDBRANCH  34  35
ENDBRANCH   1  34
TORSDOF 18
