REMARK SMILES Cc1c(NC(=O)c2ccccc2NC(=O)[C@@H]2CCCO2)cccc1C(=O)NCCCNC(=O)c1ccc(-c2c3nc(c(-c4c(F)cc(S(=O)(=O)[O-])cc4F)c4ccc([nH]4)c(-c4c(F)cc(S(=O)(=O)[O-])cc4F)c4nc(c(-c5c(F)cc(S(=O)(=O)[O-])cc5F)c5ccc2[nH]5)C=C4)C=C3)cc1
REMARK SMILES IDX 28 1 27 2 25 3 26 4 24 6 1 7 2 8 3 9 21 10 23 11 22 12 4 13
REMARK SMILES IDX 5 14 6 16 7 17 8 18 12 19 9 20 11 21 10 22 13 23 14 24 15 26
REMARK SMILES IDX 16 27 17 28 20 29 18 30 19 31 29 32 30 33 31 34 32 35 33 37
REMARK SMILES IDX 34 38 35 39 99 40 36 41 98 42 37 43 38 44 39 45 92 46 40 47
REMARK SMILES IDX 97 48 91 49 93 50 41 51 96 52 90 53 89 54 42 56 76 57 55 58
REMARK SMILES IDX 75 59 56 60 59 61 74 62 94 63 57 64 58 65 73 67 95 68 60 69
REMARK SMILES IDX 43 70 44 71 53 72 45 73 46 74 52 75 54 76 47 77 48 78 49 79
REMARK SMILES IDX 50 80 51 81 77 82 78 83 87 84 79 85 80 86 86 87 88 88 81 89
REMARK SMILES IDX 82 90 83 91 84 92 85 93 61 94 62 95 71 96 63 97 64 98 70 99
REMARK SMILES IDX 72 100 65 101 66 102 67 103 68 104 69 105
REMARK H PARENT 27 5 4 15 13 25 31 36 93 55 59 66
REMARK Flexibility Score: inf
ROOT
ATOM      1  C   UNL     1       3.271   0.719   1.230  1.00  0.00     0.118 C 
ENDROOT
BRANCH   1   2
ATOM      2  N   UNL     1       2.407   1.665   0.463  1.00  0.00    -0.352 N 
ATOM      3  C   UNL     1       1.062   1.812   0.158  1.00  0.00     0.251 C 
ATOM      4  O   UNL     1       0.605   2.887  -0.232  1.00  0.00    -0.269 OA
ATOM      5  H   UNL     1       2.942   2.387   0.061  1.00  0.00     0.163 HD
BRANCH   3   6
ATOM      6  C   UNL     1       0.101   0.690   0.297  1.00  0.00     0.044 A 
ATOM      7  C   UNL     1       1.751  -0.971  -0.674  1.00  0.00     0.047 C 
ATOM      8  C   UNL     1       0.496  -0.629   0.099  1.00  0.00    -0.015 A 
ATOM      9  C   UNL     1      -0.382  -1.663   0.458  1.00  0.00     0.045 A 
ATOM     10  C   UNL     1      -1.719  -1.405   0.763  1.00  0.00     0.026 A 
ATOM     11  C   UNL     1      -1.263   0.958   0.538  1.00  0.00     0.014 A 
ATOM     12  C   UNL     1      -2.174  -0.086   0.745  1.00  0.00     0.003 A 
BRANCH   9  13
ATOM     13  N   UNL     1       0.185  -2.937   0.460  1.00  0.00    -0.322 N 
ATOM     14  C   UNL     1      -0.159  -4.093  -0.176  1.00  0.00     0.257 C 
ATOM     15  H   UNL     1       0.986  -3.016   1.028  1.00  0.00     0.170 HD
ATOM     16  O   UNL     1       0.577  -5.072  -0.026  1.00  0.00    -0.269 OA
BRANCH  14  17
ATOM     17  C   UNL     1      -1.359  -4.224  -1.039  1.00  0.00     0.063 A 
ATOM     18  C   UNL     1      -2.014  -5.456  -0.866  1.00  0.00     0.016 A 
ATOM     19  C   UNL     1      -1.835  -3.290  -1.995  1.00  0.00     0.054 A 
ATOM     20  C   UNL     1      -3.189  -5.734  -1.544  1.00  0.00     0.001 A 
ATOM     21  C   UNL     1      -3.079  -3.547  -2.570  1.00  0.00     0.027 A 
ATOM     22  C   UNL     1      -3.743  -4.759  -2.359  1.00  0.00     0.002 A 
BRANCH  19  23
ATOM     23  N   UNL     1      -1.035  -2.190  -2.360  1.00  0.00    -0.323 N 
ATOM     24  C   UNL     1      -1.077  -1.130  -3.220  1.00  0.00     0.253 C 
ATOM     25  H   UNL     1      -0.199  -2.183  -1.841  1.00  0.00     0.170 HD
ATOM     26  O   UNL     1      -0.131  -0.338  -3.165  1.00  0.00    -0.272 OA
BRANCH  24  27
ATOM     27  C   UNL     1      -2.172  -0.969  -4.264  1.00  0.00     0.207 C 
ATOM     28  C   UNL     1      -1.946  -2.002  -5.359  1.00  0.00     0.044 C 
ATOM     29  O   UNL     1      -2.204   0.302  -4.935  1.00  0.00    -0.368 OA
ATOM     30  C   UNL     1      -2.626  -1.365  -6.536  1.00  0.00     0.032 C 
ATOM     31  C   UNL     1      -2.239   0.083  -6.349  1.00  0.00     0.161 C 
ENDBRANCH  24  27
ENDBRANCH  19  23
ENDBRANCH  14  17
ENDBRANCH   9  13
ENDBRANCH   3   6
ENDBRANCH   1   2
BRANCH   1  32
ATOM     32  C   UNL     1       4.554  -0.005   0.495  1.00  0.00     0.042 C 
BRANCH  32  33
ATOM     33  C   UNL     1       5.993   0.612   0.787  1.00  0.00     0.118 C 
BRANCH  33  34
ATOM     34  N   UNL     1       7.362   0.272   0.095  1.00  0.00    -0.352 N 
ATOM     35  C   UNL     1       8.602   0.996  -0.216  1.00  0.00     0.251 C 
ATOM     36  H   UNL     1       7.397  -0.664  -0.209  1.00  0.00     0.163 HD
ATOM     37  O   UNL     1       9.584   0.574   0.423  1.00  0.00    -0.269 OA
BRANCH  35  38
ATOM     38  C   UNL     1       8.983   2.153  -1.247  1.00  0.00     0.039 A 
ATOM     39  C   UNL     1       9.924   3.179  -0.901  1.00  0.00     0.014 A 
ATOM     40  C   UNL     1       8.424   2.368  -2.500  1.00  0.00     0.014 A 
ATOM     41  C   UNL     1       9.801   4.530  -1.438  1.00  0.00     0.010 A 
ATOM     42  C   UNL     1       8.289   3.696  -3.025  1.00  0.00     0.010 A 
ATOM     43  C   UNL     1       8.761   4.825  -2.338  1.00  0.00    -0.014 A 
BRANCH  43  44
ATOM     44  C   UNL     1       7.964   6.140  -2.370  1.00  0.00     0.031 A 
ATOM     45  C   UNL     1       8.164   7.103  -3.446  1.00  0.00     0.074 A 
ATOM     46  C   UNL     1       6.904   6.556  -1.599  1.00  0.00     0.049 A 
ATOM     47  N   UNL     1       8.374   8.369  -3.281  1.00  0.00    -0.248 NA
ATOM     48  C   UNL     1       8.005   6.678  -4.823  1.00  0.00     0.031 C 
ATOM     49  C   UNL     1       5.982   7.709  -1.661  1.00  0.00     0.029 A 
ATOM     50  N   UNL     1       6.325   5.921  -0.524  1.00  0.00    -0.354 N 
ATOM     51  C   UNL     1       8.051   8.947  -4.490  1.00  0.00     0.074 A 
ATOM     52  C   UNL     1       8.052   7.855  -5.448  1.00  0.00     0.031 C 
ATOM     53  C   UNL     1       5.319   7.833  -0.483  1.00  0.00     0.029 A 
ATOM     54  C   UNL     1       5.808   6.806   0.413  1.00  0.00     0.049 A 
ATOM     55  H   UNL     1       6.282   4.942  -0.429  1.00  0.00     0.167 HD
ATOM     56  C   UNL     1       7.498  10.198  -4.573  1.00  0.00     0.037 A 
ATOM     57  C   UNL     1       6.399   6.886   1.652  1.00  0.00     0.037 A 
ATOM     58  C   UNL     1       7.044  10.699  -3.260  1.00  0.00     0.049 A 
ATOM     59  C   UNL     1       7.157   8.181   1.755  1.00  0.00     0.074 A 
ATOM     60  C   UNL     1       5.794  10.959  -2.708  1.00  0.00     0.029 A 
ATOM     61  N   UNL     1       7.917  10.731  -2.185  1.00  0.00    -0.354 N 
ATOM     62  N   UNL     1       6.959   9.179   0.946  1.00  0.00    -0.248 NA
ATOM     63  C   UNL     1       8.258   8.430   2.684  1.00  0.00     0.031 C 
ATOM     64  C   UNL     1       5.942  11.171  -1.305  1.00  0.00     0.029 A 
ATOM     65  C   UNL     1       7.284  11.062  -0.997  1.00  0.00     0.049 A 
ATOM     66  H   UNL     1       8.880  10.541  -2.256  1.00  0.00     0.167 HD
ATOM     67  C   UNL     1       7.956  10.092   1.091  1.00  0.00     0.074 A 
ATOM     68  C   UNL     1       8.716   9.613   2.234  1.00  0.00     0.031 C 
ATOM     69  C   UNL     1       8.087  11.134   0.220  1.00  0.00     0.037 A 
BRANCH  56  70
ATOM     70  C   UNL     1       7.091  10.825  -5.901  1.00  0.00     0.058 A 
ATOM     71  C   UNL     1       6.177  11.896  -5.977  1.00  0.00     0.135 A 
ATOM     72  C   UNL     1       7.632  10.443  -7.151  1.00  0.00     0.135 A 
ATOM     73  F   UNL     1       5.696  12.489  -4.877  1.00  0.00    -0.206 F 
ATOM     74  C   UNL     1       5.749  12.451  -7.187  1.00  0.00     0.059 A 
ATOM     75  C   UNL     1       7.162  10.919  -8.376  1.00  0.00     0.059 A 
ATOM     76  F   UNL     1       8.710   9.648  -7.233  1.00  0.00    -0.206 F 
ATOM     77  C   UNL     1       6.223  11.936  -8.386  1.00  0.00     0.060 A 
BRANCH  77  78
ATOM     78  S   UNL     1       5.691  12.681  -9.938  1.00  0.00     0.124 S 
ATOM     79  O   UNL     1       4.238  12.576  -9.854  1.00  0.00    -0.237 OA
ATOM     80  O   UNL     1       6.239  14.028  -9.827  1.00  0.00    -0.237 OA
ATOM     81  O   UNL     1       6.315  11.837 -10.954  1.00  0.00    -0.744 OA
ENDBRANCH  77  78
ENDBRANCH  56  70
BRANCH  57  82
ATOM     82  C   UNL     1       6.887   5.556   2.288  1.00  0.00     0.058 A 
ATOM     83  C   UNL     1       5.848   4.659   2.582  1.00  0.00     0.135 A 
ATOM     84  C   UNL     1       7.903   4.969   1.559  1.00  0.00     0.135 A 
ATOM     85  F   UNL     1       5.181   4.767   3.738  1.00  0.00    -0.206 F 
ATOM     86  C   UNL     1       5.442   3.694   1.660  1.00  0.00     0.059 A 
ATOM     87  C   UNL     1       7.498   4.028   0.609  1.00  0.00     0.059 A 
ATOM     88  F   UNL     1       9.064   5.622   1.371  1.00  0.00    -0.206 F 
ATOM     89  C   UNL     1       6.209   3.546   0.522  1.00  0.00     0.060 A 
BRANCH  89  90
ATOM     90  S   UNL     1       5.365   3.063  -1.230  1.00  0.00     0.124 S 
ATOM     91  O   UNL     1       3.984   2.975  -0.788  1.00  0.00    -0.237 OA
ATOM     92  O   UNL     1       5.590   4.167  -2.121  1.00  0.00    -0.237 OA
ATOM     93  O   UNL     1       5.938   1.793  -1.661  1.00  0.00    -0.744 OA
ENDBRANCH  89  90
ENDBRANCH  57  82
BRANCH  69  94
ATOM     94  C   UNL     1       9.030  12.284   0.427  1.00  0.00     0.058 A 
ATOM     95  C   UNL     1       9.357  12.771   1.704  1.00  0.00     0.135 A 
ATOM     96  C   UNL     1       9.534  13.034  -0.659  1.00  0.00     0.135 A 
ATOM     97  F   UNL     1       8.806  12.250   2.812  1.00  0.00    -0.206 F 
ATOM     98  C   UNL     1      10.230  13.839   1.890  1.00  0.00     0.059 A 
ATOM     99  C   UNL     1      10.367  14.132  -0.498  1.00  0.00     0.059 A 
ATOM    100  F   UNL     1       9.245  12.741  -1.932  1.00  0.00    -0.206 F 
ATOM    101  C   UNL     1      10.742  14.503   0.780  1.00  0.00     0.060 A 
BRANCH 101 102
ATOM    102  S   UNL     1      11.874  15.875   1.018  1.00  0.00     0.124 S 
ATOM    103  O   UNL     1      11.232  16.627   2.092  1.00  0.00    -0.237 OA
ATOM    104  O   UNL     1      13.103  15.176   1.381  1.00  0.00    -0.237 OA
ATOM    105  O   UNL     1      11.888  16.539  -0.282  1.00  0.00    -0.744 OA
ENDBRANCH 101 102
ENDBRANCH  69  94
ENDBRANCH  43  44
ENDBRANCH  35  38
ENDBRANCH  33  34
ENDBRANCH  32  33
ENDBRANCH   1  32
TORSDOF 17
