REMARK SMILES CC(=O)NS(=O)(=O)c1cc(-c2ccn(C(F)F)c(=O)c2)ccc1C(=O)NCCCNC(=O)c1ccc(-c2c3nc(c(-c4c(F)cc(S(=O)(=O)[O-])cc4F)c4ccc([nH]4)c(-c4c(F)cc(S(=O)(=O)[O-])cc4F)c4nc(c(-c5c(F)cc(S(=O)(=O)[O-])cc5F)c5ccc2[nH]5)C=C4)C=C3)cc1
REMARK SMILES IDX 28 1 27 2 26 3 24 4 25 5 23 7 8 8 9 9 10 10 22 11 21 12 5 13
REMARK SMILES IDX 6 14 7 15 4 16 1 17 2 18 3 19 11 21 12 22 20 23 13 24 18 25
REMARK SMILES IDX 14 26 19 27 15 28 16 29 17 30 29 31 30 32 31 33 32 35 33 36
REMARK SMILES IDX 34 37 98 38 35 39 97 40 36 41 37 42 38 43 91 44 39 45 96 46
REMARK SMILES IDX 90 47 92 48 40 49 95 50 89 51 88 52 41 54 75 55 54 56 74 57
REMARK SMILES IDX 55 58 58 59 73 60 93 61 56 62 57 63 72 65 94 66 59 67 42 68
REMARK SMILES IDX 43 69 52 70 44 71 45 72 51 73 53 74 46 75 47 76 48 77 49 78
REMARK SMILES IDX 50 79 76 80 77 81 86 82 78 83 79 84 85 85 87 86 80 87 81 88
REMARK SMILES IDX 82 89 83 90 84 91 60 92 61 93 70 94 62 95 63 96 69 97 71 98
REMARK SMILES IDX 64 99 65 100 66 101 67 102 68 103
REMARK H PARENT 26 6 4 20 30 34 92 53 58 64
REMARK Flexibility Score: inf
ROOT
ATOM      1  C   UNL     1      -0.165  -3.612  -2.321  1.00  0.00     0.042 C 
ENDROOT
BRANCH   1   2
ATOM      2  C   UNL     1       0.133  -2.426  -3.247  1.00  0.00     0.118 C 
BRANCH   2   3
ATOM      3  N   UNL     1      -0.328  -1.197  -2.622  1.00  0.00    -0.352 N 
ATOM      4  C   UNL     1       0.314  -0.136  -2.056  1.00  0.00     0.252 C 
ATOM      5  O   UNL     1      -0.367   0.682  -1.435  1.00  0.00    -0.269 OA
ATOM      6  H   UNL     1      -1.309  -1.113  -2.604  1.00  0.00     0.163 HD
BRANCH   4   7
ATOM      7  C   UNL     1       1.747   0.195  -2.226  1.00  0.00     0.060 A 
ATOM      8  C   UNL     1       2.849  -0.461  -1.676  1.00  0.00     0.101 A 
ATOM      9  C   UNL     1       4.116   0.161  -1.691  1.00  0.00     0.031 A 
ATOM     10  C   UNL     1       4.284   1.478  -2.126  1.00  0.00    -0.017 A 
ATOM     11  C   UNL     1       1.954   1.496  -2.753  1.00  0.00     0.016 A 
ATOM     12  C   UNL     1       3.198   2.142  -2.683  1.00  0.00     0.009 A 
BRANCH   8  13
ATOM     13  S   UNL     1       2.793  -1.933  -0.700  1.00  0.00     0.264 S 
ATOM     14  O   UNL     1       3.894  -1.859   0.254  1.00  0.00    -0.201 OA
ATOM     15  O   UNL     1       2.701  -3.031  -1.614  1.00  0.00    -0.201 OA
BRANCH  13  16
ATOM     16  N   UNL     1       1.414  -1.877   0.202  1.00  0.00    -0.249 N 
ATOM     17  C   UNL     1       1.716   0.288   1.411  1.00  0.00     0.115 C 
ATOM     18  C   UNL     1       1.164  -1.105   1.345  1.00  0.00     0.230 C 
ATOM     19  O   UNL     1       0.408  -1.550   2.192  1.00  0.00    -0.274 OA
ATOM     20  H   UNL     1       0.677  -2.455  -0.099  1.00  0.00     0.183 HD
ENDBRANCH  13  16
ENDBRANCH   8  13
BRANCH  10  21
ATOM     21  C   UNL     1       5.529   2.164  -1.738  1.00  0.00    -0.011 A 
ATOM     22  C   UNL     1       5.637   2.824  -0.448  1.00  0.00     0.027 A 
ATOM     23  C   UNL     1       6.625   2.040  -2.504  1.00  0.00     0.080 A 
ATOM     24  C   UNL     1       6.824   3.232   0.012  1.00  0.00     0.095 A 
ATOM     25  C   UNL     1       7.947   2.546  -2.027  1.00  0.00     0.255 A 
ATOM     26  N   UNL     1       7.968   3.082  -0.747  1.00  0.00    -0.258 N 
ATOM     27  O   UNL     1       8.918   2.436  -2.769  1.00  0.00    -0.269 OA
BRANCH  26  28
ATOM     28  C   UNL     1       9.246   3.487  -0.221  1.00  0.00     0.451 C 
ATOM     29  F   UNL     1      10.124   2.454  -0.214  1.00  0.00    -0.185 F 
ATOM     30  F   UNL     1       9.782   4.489  -0.959  1.00  0.00    -0.185 F 
ENDBRANCH  26  28
ENDBRANCH  10  21
ENDBRANCH   4   7
ENDBRANCH   2   3
ENDBRANCH   1   2
BRANCH   1  31
ATOM     31  C   UNL     1      -1.605  -4.116  -2.358  1.00  0.00     0.118 C 
BRANCH  31  32
ATOM     32  N   UNL     1      -1.724  -5.310  -3.171  1.00  0.00    -0.352 N 
ATOM     33  C   UNL     1      -1.708  -6.646  -2.849  1.00  0.00     0.251 C 
ATOM     34  H   UNL     1      -1.837  -5.131  -4.132  1.00  0.00     0.163 HD
ATOM     35  O   UNL     1      -1.525  -7.440  -3.774  1.00  0.00    -0.269 OA
BRANCH  33  36
ATOM     36  C   UNL     1      -1.904  -7.177  -1.469  1.00  0.00     0.039 A 
ATOM     37  C   UNL     1      -1.355  -8.435  -1.175  1.00  0.00     0.014 A 
ATOM     38  C   UNL     1      -2.723  -6.573  -0.512  1.00  0.00     0.014 A 
ATOM     39  C   UNL     1      -1.636  -9.080   0.038  1.00  0.00     0.010 A 
ATOM     40  C   UNL     1      -2.936  -7.180   0.736  1.00  0.00     0.010 A 
ATOM     41  C   UNL     1      -2.437  -8.462   1.008  1.00  0.00    -0.014 A 
BRANCH  41  42
ATOM     42  C   UNL     1      -2.840  -9.192   2.247  1.00  0.00     0.031 A 
ATOM     43  C   UNL     1      -4.295  -9.529   2.490  1.00  0.00     0.074 A 
ATOM     44  C   UNL     1      -1.920  -9.560   3.161  1.00  0.00     0.049 A 
ATOM     45  N   UNL     1      -4.850 -10.125   3.516  1.00  0.00    -0.248 NA
ATOM     46  C   UNL     1      -5.254  -9.115   1.454  1.00  0.00     0.031 C 
ATOM     47  C   UNL     1      -0.487  -9.271   3.086  1.00  0.00     0.029 A 
ATOM     48  N   UNL     1      -2.054 -10.261   4.335  1.00  0.00    -0.354 N 
ATOM     49  C   UNL     1      -6.220 -10.119   3.269  1.00  0.00     0.074 A 
ATOM     50  C   UNL     1      -6.414  -9.431   2.011  1.00  0.00     0.031 C 
ATOM     51  C   UNL     1       0.128  -9.816   4.149  1.00  0.00     0.029 A 
ATOM     52  C   UNL     1      -0.865 -10.476   4.992  1.00  0.00     0.049 A 
ATOM     53  H   UNL     1      -2.922 -10.580   4.675  1.00  0.00     0.167 HD
ATOM     54  C   UNL     1      -7.226 -10.653   4.004  1.00  0.00     0.037 A 
ATOM     55  C   UNL     1      -0.601 -11.141   6.134  1.00  0.00     0.037 A 
ATOM     56  C   UNL     1      -7.038 -11.399   5.220  1.00  0.00     0.049 A 
ATOM     57  C   UNL     1      -1.720 -11.815   6.880  1.00  0.00     0.074 A 
ATOM     58  C   UNL     1      -7.993 -12.012   6.015  1.00  0.00     0.029 A 
ATOM     59  N   UNL     1      -5.808 -11.658   5.803  1.00  0.00    -0.354 N 
ATOM     60  N   UNL     1      -3.005 -11.812   6.617  1.00  0.00    -0.248 NA
ATOM     61  C   UNL     1      -1.351 -12.597   8.069  1.00  0.00     0.031 C 
ATOM     62  C   UNL     1      -7.338 -12.640   7.082  1.00  0.00     0.029 A 
ATOM     63  C   UNL     1      -5.976 -12.434   6.938  1.00  0.00     0.049 A 
ATOM     64  H   UNL     1      -4.942 -11.337   5.462  1.00  0.00     0.167 HD
ATOM     65  C   UNL     1      -3.593 -12.610   7.592  1.00  0.00     0.074 A 
ATOM     66  C   UNL     1      -2.524 -13.088   8.445  1.00  0.00     0.031 C 
ATOM     67  C   UNL     1      -4.902 -12.918   7.766  1.00  0.00     0.037 A 
BRANCH  54  68
ATOM     68  C   UNL     1      -8.628 -10.451   3.499  1.00  0.00     0.058 A 
ATOM     69  C   UNL     1      -9.116 -11.151   2.384  1.00  0.00     0.135 A 
ATOM     70  C   UNL     1      -9.495  -9.549   4.137  1.00  0.00     0.135 A 
ATOM     71  F   UNL     1      -8.323 -12.013   1.728  1.00  0.00    -0.206 F 
ATOM     72  C   UNL     1     -10.399 -10.933   1.892  1.00  0.00     0.059 A 
ATOM     73  C   UNL     1     -10.791  -9.333   3.677  1.00  0.00     0.059 A 
ATOM     74  F   UNL     1      -9.081  -8.858   5.210  1.00  0.00    -0.206 F 
ATOM     75  C   UNL     1     -11.226 -10.014   2.540  1.00  0.00     0.060 A 
BRANCH  75  76
ATOM     76  S   UNL     1     -12.881  -9.715   1.882  1.00  0.00     0.124 S 
ATOM     77  O   UNL     1     -12.595  -8.789   0.790  1.00  0.00    -0.237 OA
ATOM     78  O   UNL     1     -13.311 -11.051   1.482  1.00  0.00    -0.237 OA
ATOM     79  O   UNL     1     -13.597  -9.146   3.019  1.00  0.00    -0.744 OA
ENDBRANCH  75  76
ENDBRANCH  54  68
BRANCH  55  80
ATOM     80  C   UNL     1       0.800 -11.253   6.616  1.00  0.00     0.058 A 
ATOM     81  C   UNL     1       1.515 -12.450   6.467  1.00  0.00     0.135 A 
ATOM     82  C   UNL     1       1.452 -10.169   7.219  1.00  0.00     0.135 A 
ATOM     83  F   UNL     1       0.928 -13.516   5.902  1.00  0.00    -0.206 F 
ATOM     84  C   UNL     1       2.827 -12.575   6.911  1.00  0.00     0.059 A 
ATOM     85  C   UNL     1       2.770 -10.263   7.655  1.00  0.00     0.059 A 
ATOM     86  F   UNL     1       0.812  -8.999   7.371  1.00  0.00    -0.206 F 
ATOM     87  C   UNL     1       3.447 -11.474   7.504  1.00  0.00     0.060 A 
BRANCH  87  88
ATOM     88  S   UNL     1       5.170 -11.620   8.026  1.00  0.00     0.124 S 
ATOM     89  O   UNL     1       5.032 -12.312   9.302  1.00  0.00    -0.237 OA
ATOM     90  O   UNL     1       5.761 -12.396   6.940  1.00  0.00    -0.237 OA
ATOM     91  O   UNL     1       5.612 -10.230   8.103  1.00  0.00    -0.744 OA
ENDBRANCH  87  88
ENDBRANCH  55  80
BRANCH  67  92
ATOM     92  C   UNL     1      -5.243 -13.847   8.894  1.00  0.00     0.058 A 
ATOM     93  C   UNL     1      -5.270 -13.406  10.226  1.00  0.00     0.135 A 
ATOM     94  C   UNL     1      -5.566 -15.188   8.637  1.00  0.00     0.135 A 
ATOM     95  F   UNL     1      -4.965 -12.133  10.522  1.00  0.00    -0.206 F 
ATOM     96  C   UNL     1      -5.577 -14.272  11.270  1.00  0.00     0.059 A 
ATOM     97  C   UNL     1      -5.893 -16.068   9.665  1.00  0.00     0.059 A 
ATOM     98  F   UNL     1      -5.563 -15.655   7.379  1.00  0.00    -0.206 F 
ATOM     99  C   UNL     1      -5.880 -15.604  10.980  1.00  0.00     0.060 A 
BRANCH  99 100
ATOM    100  S   UNL     1      -6.287 -16.726  12.336  1.00  0.00     0.124 S 
ATOM    101  O   UNL     1      -4.960 -17.102  12.812  1.00  0.00    -0.237 OA
ATOM    102  O   UNL     1      -7.064 -15.875  13.232  1.00  0.00    -0.237 OA
ATOM    103  O   UNL     1      -7.045 -17.786  11.678  1.00  0.00    -0.744 OA
ENDBRANCH  99 100
ENDBRANCH  67  92
ENDBRANCH  41  42
ENDBRANCH  33  36
ENDBRANCH  31  32
ENDBRANCH   1  31
TORSDOF 17
