REMARK SMILES N#C[C@@H]1CN(C(=O)NCCCC(=O)NCCCNC(=O)c2ccc(-c3c4nc(c(-c5c(F)cc(S(=O)(=O)[O-])cc5F)c5ccc([nH]5)c(-c5c(F)cc(S(=O)(=O)[O-])cc5F)c5nc(c(-c6c(F)cc(S(=O)(=O)[O-])cc6F)c6ccc3[nH]6)C=C5)C=C4)cc2)CCO1
REMARK SMILES IDX 15 1 14 2 12 3 13 4 11 6 10 7 9 8 8 9 6 10 7 11 5 13 3 14
REMARK SMILES IDX 4 15 89 16 88 17 87 18 2 19 1 20 16 21 17 22 18 23 19 24
REMARK SMILES IDX 20 26 21 27 22 28 86 29 23 30 85 31 24 32 25 33 26 34 79 35
REMARK SMILES IDX 27 36 84 37 78 38 80 39 28 40 83 41 77 42 76 43 29 45 63 46
REMARK SMILES IDX 42 47 62 48 43 49 46 50 61 51 81 52 44 53 45 54 60 56 82 57
REMARK SMILES IDX 47 58 30 59 31 60 40 61 32 62 33 63 39 64 41 65 34 66 35 67
REMARK SMILES IDX 36 68 37 69 38 70 64 71 65 72 74 73 66 74 67 75 73 76 75 77
REMARK SMILES IDX 68 78 69 79 70 80 71 81 72 82 48 83 49 84 58 85 50 86 51 87
REMARK SMILES IDX 57 88 59 89 52 90 53 91 54 92 55 93 56 94
REMARK H PARENT 14 5 8 12 18 25 80 44 46 55
REMARK Flexibility Score: inf
ROOT
ATOM      1  C   UNL     1       0.233   4.220  -2.121  1.00  0.00     0.117 C 
ENDROOT
BRANCH   1   2
ATOM      2  N   UNL     1       0.632   5.450  -1.452  1.00  0.00    -0.356 N 
ATOM      3  C   UNL     1       1.688   6.277  -1.674  1.00  0.00     0.220 C 
ATOM      4  O   UNL     1       1.873   7.216  -0.896  1.00  0.00    -0.275 OA
ATOM      5  H   UNL     1       0.040   5.728  -0.717  1.00  0.00     0.163 HD
BRANCH   3   6
ATOM      6  C   UNL     1       2.619   6.056  -2.847  1.00  0.00     0.102 C 
BRANCH   6   7
ATOM      7  C   UNL     1       3.977   5.490  -2.425  1.00  0.00     0.031 C 
BRANCH   7   8
ATOM      8  C   UNL     1       3.946   4.026  -1.995  1.00  0.00     0.118 C 
BRANCH   8   9
ATOM      9  N   UNL     1       3.533   3.135  -3.064  1.00  0.00    -0.338 N 
ATOM     10  C   UNL     1       3.619   1.808  -3.278  1.00  0.00     0.317 C 
ATOM     11  O   UNL     1       3.315   1.443  -4.417  1.00  0.00    -0.249 OA
ATOM     12  H   UNL     1       3.087   3.610  -3.802  1.00  0.00     0.165 HD
BRANCH  10  13
ATOM     13  N   UNL     1       4.037   0.932  -2.322  1.00  0.00    -0.319 N 
ATOM     14  C   UNL     1       3.694   0.047  -0.014  1.00  0.00     0.240 C 
ATOM     15  C   UNL     1       4.246   1.175  -0.891  1.00  0.00     0.169 C 
ATOM     16  O   UNL     1       4.223  -1.226  -0.440  1.00  0.00    -0.360 OA
ATOM     17  C   UNL     1       3.890  -1.514  -1.806  1.00  0.00     0.183 C 
ATOM     18  C   UNL     1       4.412  -0.427  -2.752  1.00  0.00     0.150 C 
BRANCH  14  19
ATOM     19  C   UNL     1       2.174   0.047  -0.014  1.00  0.00     0.096 C 
ATOM     20  N   UNL     1       0.913   0.047  -0.014  1.00  0.00    -0.195 NA
ENDBRANCH  14  19
ENDBRANCH  10  13
ENDBRANCH   8   9
ENDBRANCH   7   8
ENDBRANCH   6   7
ENDBRANCH   3   6
ENDBRANCH   1   2
BRANCH   1  21
ATOM     21  C   UNL     1       0.372   3.013  -1.198  1.00  0.00     0.042 C 
BRANCH  21  22
ATOM     22  C   UNL     1      -0.735   2.897  -0.151  1.00  0.00     0.118 C 
BRANCH  22  23
ATOM     23  N   UNL     1      -1.956   2.341  -0.707  1.00  0.00    -0.352 N 
ATOM     24  C   UNL     1      -2.650   1.200  -0.381  1.00  0.00     0.251 C 
ATOM     25  H   UNL     1      -2.353   2.868  -1.438  1.00  0.00     0.163 HD
ATOM     26  O   UNL     1      -3.537   0.827  -1.149  1.00  0.00    -0.269 OA
BRANCH  24  27
ATOM     27  C   UNL     1      -2.382   0.420   0.859  1.00  0.00     0.039 A 
ATOM     28  C   UNL     1      -2.607  -0.962   0.831  1.00  0.00     0.014 A 
ATOM     29  C   UNL     1      -2.014   1.021   2.066  1.00  0.00     0.014 A 
ATOM     30  C   UNL     1      -2.446  -1.733   1.988  1.00  0.00     0.010 A 
ATOM     31  C   UNL     1      -1.778   0.240   3.203  1.00  0.00     0.010 A 
ATOM     32  C   UNL     1      -2.016  -1.142   3.186  1.00  0.00    -0.014 A 
BRANCH  32  33
ATOM     33  C   UNL     1      -1.869  -1.949   4.429  1.00  0.00     0.031 A 
ATOM     34  C   UNL     1      -2.758  -1.683   5.619  1.00  0.00     0.074 A 
ATOM     35  C   UNL     1      -0.929  -2.913   4.504  1.00  0.00     0.049 A 
ATOM     36  N   UNL     1      -2.771  -2.267   6.792  1.00  0.00    -0.248 NA
ATOM     37  C   UNL     1      -3.747  -0.603   5.481  1.00  0.00     0.031 C 
ATOM     38  C   UNL     1       0.020  -3.252   3.442  1.00  0.00     0.029 A 
ATOM     39  N   UNL     1      -0.617  -3.786   5.518  1.00  0.00    -0.354 N 
ATOM     40  C   UNL     1      -3.755  -1.618   7.531  1.00  0.00     0.074 A 
ATOM     41  C   UNL     1      -4.279  -0.561   6.693  1.00  0.00     0.031 C 
ATOM     42  C   UNL     1       0.783  -4.281   3.846  1.00  0.00     0.029 A 
ATOM     43  C   UNL     1       0.401  -4.656   5.206  1.00  0.00     0.049 A 
ATOM     44  H   UNL     1      -1.080  -3.789   6.387  1.00  0.00     0.167 HD
ATOM     45  C   UNL     1      -4.203  -1.891   8.781  1.00  0.00     0.037 A 
ATOM     46  C   UNL     1       0.961  -5.646   5.928  1.00  0.00     0.037 A 
ATOM     47  C   UNL     1      -3.706  -2.963   9.604  1.00  0.00     0.049 A 
ATOM     48  C   UNL     1       0.443  -5.939   7.311  1.00  0.00     0.074 A 
ATOM     49  C   UNL     1      -4.124  -3.345  10.867  1.00  0.00     0.029 A 
ATOM     50  N   UNL     1      -2.683  -3.828   9.244  1.00  0.00    -0.354 N 
ATOM     51  N   UNL     1      -0.518  -5.342   7.975  1.00  0.00    -0.248 NA
ATOM     52  C   UNL     1       1.079  -7.046   8.040  1.00  0.00     0.031 C 
ATOM     53  C   UNL     1      -3.333  -4.422  11.284  1.00  0.00     0.029 A 
ATOM     54  C   UNL     1      -2.449  -4.736  10.264  1.00  0.00     0.049 A 
ATOM     55  H   UNL     1      -2.196  -3.801   8.389  1.00  0.00     0.167 HD
ATOM     56  C   UNL     1      -0.622  -6.020   9.185  1.00  0.00     0.074 A 
ATOM     57  C   UNL     1       0.370  -7.075   9.160  1.00  0.00     0.031 C 
ATOM     58  C   UNL     1      -1.466  -5.790  10.222  1.00  0.00     0.037 A 
BRANCH  45  59
ATOM     59  C   UNL     1      -5.295  -1.013   9.332  1.00  0.00     0.058 A 
ATOM     60  C   UNL     1      -6.607  -1.070   8.834  1.00  0.00     0.135 A 
ATOM     61  C   UNL     1      -5.033  -0.115  10.379  1.00  0.00     0.135 A 
ATOM     62  F   UNL     1      -6.911  -1.902   7.825  1.00  0.00    -0.206 F 
ATOM     63  C   UNL     1      -7.609  -0.239   9.324  1.00  0.00     0.059 A 
ATOM     64  C   UNL     1      -6.027   0.706  10.905  1.00  0.00     0.059 A 
ATOM     65  F   UNL     1      -3.798  -0.022  10.898  1.00  0.00    -0.206 F 
ATOM     66  C   UNL     1      -7.308   0.651  10.356  1.00  0.00     0.060 A 
BRANCH  66  67
ATOM     67  S   UNL     1      -8.613   1.737  10.970  1.00  0.00     0.124 S 
ATOM     68  O   UNL     1      -8.693   2.727   9.901  1.00  0.00    -0.237 OA
ATOM     69  O   UNL     1      -9.752   0.830  11.080  1.00  0.00    -0.237 OA
ATOM     70  O   UNL     1      -8.080   2.223  12.239  1.00  0.00    -0.744 OA
ENDBRANCH  66  67
ENDBRANCH  45  59
BRANCH  46  71
ATOM     71  C   UNL     1       2.053  -6.466   5.338  1.00  0.00     0.058 A 
ATOM     72  C   UNL     1       1.824  -7.794   4.947  1.00  0.00     0.135 A 
ATOM     73  C   UNL     1       3.336  -5.935   5.133  1.00  0.00     0.135 A 
ATOM     74  F   UNL     1       0.617  -8.348   5.132  1.00  0.00    -0.206 F 
ATOM     75  C   UNL     1       2.830  -8.572   4.384  1.00  0.00     0.059 A 
ATOM     76  C   UNL     1       4.352  -6.686   4.551  1.00  0.00     0.059 A 
ATOM     77  F   UNL     1       3.601  -4.665   5.477  1.00  0.00    -0.206 F 
ATOM     78  C   UNL     1       4.092  -8.007   4.186  1.00  0.00     0.060 A 
BRANCH  78  79
ATOM     79  S   UNL     1       5.376  -9.004   3.399  1.00  0.00     0.124 S 
ATOM     80  O   UNL     1       5.752  -9.906   4.481  1.00  0.00    -0.237 OA
ATOM     81  O   UNL     1       4.655  -9.610   2.283  1.00  0.00    -0.237 OA
ATOM     82  O   UNL     1       6.382  -8.016   3.021  1.00  0.00    -0.744 OA
ENDBRANCH  78  79
ENDBRANCH  46  71
BRANCH  58  83
ATOM     83  C   UNL     1      -1.384  -6.717  11.402  1.00  0.00     0.058 A 
ATOM     84  C   UNL     1      -0.326  -6.651  12.322  1.00  0.00     0.135 A 
ATOM     85  C   UNL     1      -2.405  -7.651  11.644  1.00  0.00     0.135 A 
ATOM     86  F   UNL     1       0.678  -5.779  12.134  1.00  0.00    -0.206 F 
ATOM     87  C   UNL     1      -0.271  -7.492  13.429  1.00  0.00     0.059 A 
ATOM     88  C   UNL     1      -2.383  -8.486  12.757  1.00  0.00     0.059 A 
ATOM     89  F   UNL     1      -3.445  -7.748  10.800  1.00  0.00    -0.206 F 
ATOM     90  C   UNL     1      -1.306  -8.407  13.638  1.00  0.00     0.060 A 
BRANCH  90  91
ATOM     91  S   UNL     1      -1.242  -9.471  15.095  1.00  0.00     0.124 S 
ATOM     92  O   UNL     1      -0.239 -10.453  14.698  1.00  0.00    -0.237 OA
ATOM     93  O   UNL     1      -0.837  -8.542  16.146  1.00  0.00    -0.237 OA
ATOM     94  O   UNL     1      -2.607  -9.976  15.207  1.00  0.00    -0.744 OA
ENDBRANCH  90  91
ENDBRANCH  58  83
ENDBRANCH  32  33
ENDBRANCH  24  27
ENDBRANCH  22  23
ENDBRANCH  21  22
ENDBRANCH   1  21
TORSDOF 18
