REMARK SMILES CC[NH2+][C@]1(C(=O)NCCCNC(=O)c2ccc(-c3c4nc(c(-c5c(F)cc(S(=O)(=O)[O-])cc5F)c5ccc([nH]5)c(-c5c(F)cc(S(=O)(=O)[O-])cc5F)c5nc(c(-c6c(F)cc(S(=O)(=O)[O-])cc6F)c6ccc3[nH]6)C=C5)C=C4)cc2)CCC[C@@H]1CC[N@H+]1C[C@H](C)OC[C@@H]1C
REMARK SMILES IDX 9 1 8 2 7 3 5 4 6 5 4 7 80 8 83 9 81 10 82 11 3 12 2 15 1 16
REMARK SMILES IDX 84 17 85 18 86 19 87 20 92 21 88 23 91 24 93 25 90 26 89 27
REMARK SMILES IDX 10 28 11 29 12 30 13 32 14 33 15 34 79 35 16 36 78 37 17 38
REMARK SMILES IDX 18 39 19 40 72 41 20 42 77 43 71 44 73 45 21 46 76 47 70 48
REMARK SMILES IDX 69 49 22 51 56 52 35 53 55 54 36 55 39 56 54 57 74 58 37 59
REMARK SMILES IDX 38 60 53 62 75 63 40 64 23 65 24 66 33 67 25 68 26 69 32 70
REMARK SMILES IDX 34 71 27 72 28 73 29 74 30 75 31 76 57 77 58 78 67 79 59 80
REMARK SMILES IDX 60 81 66 82 68 83 61 84 62 85 63 86 64 87 65 88 41 89 42 90
REMARK SMILES IDX 51 91 43 92 44 93 50 94 52 95 45 96 46 97 47 98 48 99 49 100
REMARK H PARENT 7 6 3 13 3 14 86 22 11 31 73 50 39 61
REMARK Flexibility Score: inf
ROOT
ATOM      1  C   UNL     1       1.774  -2.737  -0.899  1.00  0.00     0.042 C 
ENDROOT
BRANCH   1   2
ATOM      2  C   UNL     1       1.782  -2.442   0.588  1.00  0.00     0.118 C 
BRANCH   2   3
ATOM      3  N   UNL     1       0.984  -1.303   1.009  1.00  0.00    -0.351 N 
ATOM      4  C   UNL     1       0.579  -0.835   2.228  1.00  0.00     0.281 C 
ATOM      5  O   UNL     1       0.072   0.302   2.185  1.00  0.00    -0.268 OA
ATOM      6  H   UNL     1       0.668  -0.752   0.257  1.00  0.00     0.163 HD
BRANCH   4   7
ATOM      7  C   UNL     1       0.526  -1.644   3.592  1.00  0.00     0.178 C 
ATOM      8  C   UNL     1      -0.965  -2.090   3.655  1.00  0.00     0.079 C 
ATOM      9  C   UNL     1       1.245  -3.006   3.674  1.00  0.00     0.066 C 
ATOM     10  C   UNL     1      -1.035  -3.297   4.574  1.00  0.00     0.008 C 
ATOM     11  C   UNL     1       0.379  -3.876   4.622  1.00  0.00     0.011 C 
BRANCH   7  12
ATOM     12  N   UNL     1       0.786  -0.687   4.707  1.00  0.00    -0.334 N 
ATOM     13  H   UNL     1       1.621  -0.159   4.452  1.00  0.00     0.347 HD
ATOM     14  H   UNL     1      -0.092  -0.173   4.782  1.00  0.00     0.347 HD
BRANCH  12  15
ATOM     15  C   UNL     1       0.998  -1.176   6.055  1.00  0.00     0.257 C 
ATOM     16  C   UNL     1       1.369  -0.060   7.024  1.00  0.00     0.071 C 
ENDBRANCH  12  15
ENDBRANCH   7  12
BRANCH   9  17
ATOM     17  C   UNL     1       2.765  -3.129   3.970  1.00  0.00     0.072 C 
BRANCH  17  18
ATOM     18  C   UNL     1       3.829  -2.174   3.366  1.00  0.00     0.263 C 
BRANCH  18  19
ATOM     19  N   UNL     1       3.600  -0.739   3.554  1.00  0.00    -0.329 N 
ATOM     20  C   UNL     1       4.215  -0.248   4.807  1.00  0.00     0.294 C 
ATOM     21  C   UNL     1       4.053   0.121   2.429  1.00  0.00     0.207 C 
ATOM     22  H   UNL     1       2.585  -0.658   3.598  1.00  0.00     0.348 HD
ATOM     23  C   UNL     1       5.745  -0.031   4.714  1.00  0.00     0.170 C 
ATOM     24  C   UNL     1       5.585   0.305   2.385  1.00  0.00     0.225 C 
ATOM     25  C   UNL     1       3.371   1.502   2.493  1.00  0.00     0.078 C 
ATOM     26  O   UNL     1       6.089   0.832   3.620  1.00  0.00    -0.366 OA
ATOM     27  C   UNL     1       6.271   0.609   5.991  1.00  0.00     0.045 C 
ENDBRANCH  18  19
ENDBRANCH  17  18
ENDBRANCH   9  17
ENDBRANCH   4   7
ENDBRANCH   2   3
ENDBRANCH   1   2
BRANCH   1  28
ATOM     28  C   UNL     1       2.679  -1.810  -1.694  1.00  0.00     0.118 C 
BRANCH  28  29
ATOM     29  N   UNL     1       4.104  -1.980  -1.392  1.00  0.00    -0.352 N 
ATOM     30  C   UNL     1       5.108  -2.711  -1.995  1.00  0.00     0.251 C 
ATOM     31  H   UNL     1       4.403  -1.472  -0.603  1.00  0.00     0.163 HD
ATOM     32  O   UNL     1       6.188  -2.814  -1.433  1.00  0.00    -0.269 OA
BRANCH  30  33
ATOM     33  C   UNL     1       4.872  -3.399  -3.286  1.00  0.00     0.039 A 
ATOM     34  C   UNL     1       5.450  -4.651  -3.523  1.00  0.00     0.014 A 
ATOM     35  C   UNL     1       4.075  -2.818  -4.264  1.00  0.00     0.014 A 
ATOM     36  C   UNL     1       5.120  -5.358  -4.685  1.00  0.00     0.010 A 
ATOM     37  C   UNL     1       3.624  -3.580  -5.331  1.00  0.00     0.010 A 
ATOM     38  C   UNL     1       4.147  -4.858  -5.564  1.00  0.00    -0.014 A 
BRANCH  38  39
ATOM     39  C   UNL     1       3.646  -5.636  -6.729  1.00  0.00     0.031 A 
ATOM     40  C   UNL     1       3.675  -5.033  -8.112  1.00  0.00     0.074 A 
ATOM     41  C   UNL     1       3.040  -6.824  -6.526  1.00  0.00     0.049 A 
ATOM     42  N   UNL     1       3.151  -5.484  -9.223  1.00  0.00    -0.248 NA
ATOM     43  C   UNL     1       4.323  -3.718  -8.250  1.00  0.00     0.031 C 
ATOM     44  C   UNL     1       2.849  -7.468  -5.223  1.00  0.00     0.029 A 
ATOM     45  N   UNL     1       2.453  -7.693  -7.410  1.00  0.00    -0.354 N 
ATOM     46  C   UNL     1       3.361  -4.488 -10.171  1.00  0.00     0.074 A 
ATOM     47  C   UNL     1       3.996  -3.384  -9.488  1.00  0.00     0.031 C 
ATOM     48  C   UNL     1       2.221  -8.640  -5.397  1.00  0.00     0.029 A 
ATOM     49  C   UNL     1       1.926  -8.815  -6.815  1.00  0.00     0.049 A 
ATOM     50  H   UNL     1       2.412  -7.528  -8.380  1.00  0.00     0.167 HD
ATOM     51  C   UNL     1       3.080  -4.503 -11.496  1.00  0.00     0.037 A 
ATOM     52  C   UNL     1       1.274  -9.866  -7.348  1.00  0.00     0.037 A 
ATOM     53  C   UNL     1       2.513  -5.635 -12.178  1.00  0.00     0.049 A 
ATOM     54  C   UNL     1       1.059  -9.910  -8.834  1.00  0.00     0.074 A 
ATOM     55  C   UNL     1       2.302  -5.809 -13.533  1.00  0.00     0.029 A 
ATOM     56  N   UNL     1       2.071  -6.792 -11.551  1.00  0.00    -0.354 N 
ATOM     57  N   UNL     1       1.353  -9.002  -9.734  1.00  0.00    -0.248 NA
ATOM     58  C   UNL     1       0.437 -11.123  -9.379  1.00  0.00     0.031 C 
ATOM     59  C   UNL     1       1.697  -7.057 -13.723  1.00  0.00     0.029 A 
ATOM     60  C   UNL     1       1.570  -7.678 -12.490  1.00  0.00     0.049 A 
ATOM     61  H   UNL     1       2.108  -6.958 -10.581  1.00  0.00     0.167 HD
ATOM     62  C   UNL     1       0.960  -9.536 -10.955  1.00  0.00     0.074 A 
ATOM     63  C   UNL     1       0.428 -10.856 -10.678  1.00  0.00     0.031 C 
ATOM     64  C   UNL     1       1.032  -8.983 -12.192  1.00  0.00     0.037 A 
BRANCH  51  65
ATOM     65  C   UNL     1       3.397  -3.258 -12.284  1.00  0.00     0.058 A 
ATOM     66  C   UNL     1       4.719  -2.830 -12.495  1.00  0.00     0.135 A 
ATOM     67  C   UNL     1       2.365  -2.469 -12.815  1.00  0.00     0.135 A 
ATOM     68  F   UNL     1       5.747  -3.538 -12.000  1.00  0.00    -0.206 F 
ATOM     69  C   UNL     1       5.003  -1.634 -13.146  1.00  0.00     0.059 A 
ATOM     70  C   UNL     1       2.628  -1.286 -13.502  1.00  0.00     0.059 A 
ATOM     71  F   UNL     1       1.083  -2.831 -12.652  1.00  0.00    -0.206 F 
ATOM     72  C   UNL     1       3.949  -0.863 -13.637  1.00  0.00     0.060 A 
BRANCH  72  73
ATOM     73  S   UNL     1       4.330   0.707 -14.443  1.00  0.00     0.124 S 
ATOM     74  O   UNL     1       4.635   1.554 -13.294  1.00  0.00    -0.237 OA
ATOM     75  O   UNL     1       5.465   0.358 -15.291  1.00  0.00    -0.237 OA
ATOM     76  O   UNL     1       3.097   1.030 -15.153  1.00  0.00    -0.744 OA
ENDBRANCH  72  73
ENDBRANCH  51  65
BRANCH  52  77
ATOM     77  C   UNL     1       0.830 -10.973  -6.461  1.00  0.00     0.058 A 
ATOM     78  C   UNL     1       1.524 -12.191  -6.430  1.00  0.00     0.135 A 
ATOM     79  C   UNL     1      -0.242 -10.807  -5.569  1.00  0.00     0.135 A 
ATOM     80  F   UNL     1       2.552 -12.397  -7.266  1.00  0.00    -0.206 F 
ATOM     81  C   UNL     1       1.179 -13.204  -5.541  1.00  0.00     0.059 A 
ATOM     82  C   UNL     1      -0.593 -11.798  -4.657  1.00  0.00     0.059 A 
ATOM     83  F   UNL     1      -0.924  -9.652  -5.546  1.00  0.00    -0.206 F 
ATOM     84  C   UNL     1       0.125 -12.993  -4.650  1.00  0.00     0.060 A 
BRANCH  84  85
ATOM     85  S   UNL     1      -0.243 -14.272  -3.428  1.00  0.00     0.124 S 
ATOM     86  O   UNL     1      -0.888 -15.288  -4.250  1.00  0.00    -0.237 OA
ATOM     87  O   UNL     1       1.085 -14.605  -2.924  1.00  0.00    -0.237 OA
ATOM     88  O   UNL     1      -1.110 -13.584  -2.475  1.00  0.00    -0.744 OA
ENDBRANCH  84  85
ENDBRANCH  52  77
BRANCH  64  89
ATOM     89  C   UNL     1       0.526  -9.808 -13.341  1.00  0.00     0.058 A 
ATOM     90  C   UNL     1      -0.847 -10.015 -13.545  1.00  0.00     0.135 A 
ATOM     91  C   UNL     1       1.420 -10.360 -14.271  1.00  0.00     0.135 A 
ATOM     92  F   UNL     1      -1.743  -9.513 -12.680  1.00  0.00    -0.206 F 
ATOM     93  C   UNL     1      -1.315 -10.764 -14.619  1.00  0.00     0.059 A 
ATOM     94  C   UNL     1       0.973 -11.090 -15.367  1.00  0.00     0.059 A 
ATOM     95  F   UNL     1       2.743 -10.181 -14.126  1.00  0.00    -0.206 F 
ATOM     96  C   UNL     1      -0.397 -11.298 -15.524  1.00  0.00     0.060 A 
BRANCH  96  97
ATOM     97  S   UNL     1      -1.016 -12.249 -16.928  1.00  0.00     0.124 S 
ATOM     98  O   UNL     1      -1.380 -13.509 -16.289  1.00  0.00    -0.237 OA
ATOM     99  O   UNL     1      -2.131 -11.430 -17.395  1.00  0.00    -0.237 OA
ATOM    100  O   UNL     1       0.130 -12.309 -17.829  1.00  0.00    -0.744 OA
ENDBRANCH  96  97
ENDBRANCH  64  89
ENDBRANCH  38  39
ENDBRANCH  30  33
ENDBRANCH  28  29
ENDBRANCH   1  28
TORSDOF 18
