REMARK SMILES N#C[C@H]1CN(c2cc(C(=O)NCCCNC(=O)c3ccc(-c4c5nc(c(-c6c(F)cc(S(=O)(=O)[O-])cc6F)c6ccc([nH]6)c(-c6c(F)cc(S(=O)(=O)[O-])cc6F)c6nc(c(-c7c(F)cc(S(=O)(=O)[O-])cc7F)c7ccc4[nH]7)C=C6)C=C5)cc3)c(N)cc2F)CCO1
REMARK SMILES IDX 13 1 12 2 11 3 9 4 10 5 8 7 6 8 7 9 87 10 86 11 88 12 84 13
REMARK SMILES IDX 5 14 3 15 4 16 91 17 90 18 89 19 2 20 1 21 85 22 14 25 15 26
REMARK SMILES IDX 16 27 17 29 18 30 19 31 83 32 20 33 82 34 21 35 22 36 23 37
REMARK SMILES IDX 76 38 24 39 81 40 75 41 77 42 25 43 80 44 74 45 73 46 26 48
REMARK SMILES IDX 60 49 39 50 59 51 40 52 43 53 58 54 78 55 41 56 42 57 57 59
REMARK SMILES IDX 79 60 44 61 27 62 28 63 37 64 29 65 30 66 36 67 38 68 31 69
REMARK SMILES IDX 32 70 33 71 34 72 35 73 61 74 62 75 71 76 63 77 64 78 70 79
REMARK SMILES IDX 72 80 65 81 66 82 67 83 68 84 69 85 45 86 46 87 55 88 47 89
REMARK SMILES IDX 48 90 54 91 56 92 49 93 50 94 51 95 52 96 53 97
REMARK H PARENT 11 6 85 23 85 24 15 28 77 47 43 58
REMARK Flexibility Score: inf
ROOT
ATOM      1  C   UNL     1       0.502   6.714  -5.871  1.00  0.00     0.042 C 
ENDROOT
BRANCH   1   2
ATOM      2  C   UNL     1       1.298   5.447  -6.096  1.00  0.00     0.118 C 
BRANCH   2   3
ATOM      3  N   UNL     1       2.683   5.479  -5.665  1.00  0.00    -0.352 N 
ATOM      4  C   UNL     1       3.472   4.484  -5.131  1.00  0.00     0.253 C 
ATOM      5  O   UNL     1       4.655   4.755  -4.915  1.00  0.00    -0.269 OA
ATOM      6  H   UNL     1       3.130   6.350  -5.772  1.00  0.00     0.163 HD
BRANCH   4   7
ATOM      7  C   UNL     1       2.951   3.138  -4.732  1.00  0.00     0.065 A 
ATOM      8  C   UNL     1       3.222   1.295  -3.131  1.00  0.00     0.074 A 
ATOM      9  C   UNL     1       3.594   2.553  -3.614  1.00  0.00     0.045 A 
ATOM     10  C   UNL     1       2.062   0.726  -3.671  1.00  0.00     0.148 A 
ATOM     11  C   UNL     1       1.424   1.272  -4.774  1.00  0.00     0.067 A 
ATOM     12  F   UNL     1       1.585  -0.425  -3.171  1.00  0.00    -0.205 F 
ATOM     13  C   UNL     1       1.943   2.410  -5.394  1.00  0.00     0.047 A 
BRANCH   8  14
ATOM     14  N   UNL     1       4.030   0.601  -2.258  1.00  0.00    -0.363 N 
ATOM     15  C   UNL     1       3.858   0.016   0.128  1.00  0.00     0.240 C 
ATOM     16  C   UNL     1       4.354   1.061  -0.905  1.00  0.00     0.164 C 
ATOM     17  O   UNL     1       4.343  -1.315  -0.192  1.00  0.00    -0.360 OA
ATOM     18  C   UNL     1       3.892  -1.723  -1.495  1.00  0.00     0.183 C 
ATOM     19  C   UNL     1       4.419  -0.778  -2.578  1.00  0.00     0.145 C 
BRANCH  15  20
ATOM     20  C   UNL     1       4.316   0.394   1.478  1.00  0.00     0.096 C 
ATOM     21  N   UNL     1       4.676   0.699   2.537  1.00  0.00    -0.195 NA
ENDBRANCH  15  20
ENDBRANCH   8  14
BRANCH  13  22
ATOM     22  N   UNL     1       1.486   2.683  -6.675  1.00  0.00    -0.398 N 
ATOM     23  H   UNL     1       1.819   3.474  -7.159  1.00  0.00     0.156 HD
ATOM     24  H   UNL     1       0.828   2.087  -7.101  1.00  0.00     0.156 HD
ENDBRANCH  13  22
ENDBRANCH   4   7
ENDBRANCH   2   3
ENDBRANCH   1   2
BRANCH   1  25
ATOM     25  C   UNL     1       1.033   7.950  -6.571  1.00  0.00     0.118 C 
BRANCH  25  26
ATOM     26  N   UNL     1       1.037   7.856  -8.027  1.00  0.00    -0.352 N 
ATOM     27  C   UNL     1       0.262   8.478  -8.982  1.00  0.00     0.251 C 
ATOM     28  H   UNL     1       1.713   7.240  -8.392  1.00  0.00     0.163 HD
ATOM     29  O   UNL     1       0.375   8.135 -10.157  1.00  0.00    -0.269 OA
BRANCH  27  30
ATOM     30  C   UNL     1      -0.730   9.512  -8.606  1.00  0.00     0.039 A 
ATOM     31  C   UNL     1      -1.960   9.548  -9.269  1.00  0.00     0.014 A 
ATOM     32  C   UNL     1      -0.468  10.440  -7.600  1.00  0.00     0.014 A 
ATOM     33  C   UNL     1      -2.950  10.441  -8.848  1.00  0.00     0.010 A 
ATOM     34  C   UNL     1      -1.497  11.223  -7.089  1.00  0.00     0.010 A 
ATOM     35  C   UNL     1      -2.750  11.243  -7.713  1.00  0.00    -0.014 A 
BRANCH  35  36
ATOM     36  C   UNL     1      -3.836  12.102  -7.167  1.00  0.00     0.031 A 
ATOM     37  C   UNL     1      -3.637  13.590  -7.032  1.00  0.00     0.074 A 
ATOM     38  C   UNL     1      -4.982  11.532  -6.740  1.00  0.00     0.049 A 
ATOM     39  N   UNL     1      -4.456  14.491  -6.555  1.00  0.00    -0.248 NA
ATOM     40  C   UNL     1      -2.338  14.136  -7.461  1.00  0.00     0.031 C 
ATOM     41  C   UNL     1      -5.269  10.095  -6.754  1.00  0.00     0.029 A 
ATOM     42  N   UNL     1      -6.120  12.088  -6.211  1.00  0.00    -0.354 N 
ATOM     43  C   UNL     1      -3.772  15.700  -6.617  1.00  0.00     0.074 A 
ATOM     44  C   UNL     1      -2.445  15.408  -7.110  1.00  0.00     0.031 C 
ATOM     45  C   UNL     1      -6.515   9.888  -6.301  1.00  0.00     0.029 A 
ATOM     46  C   UNL     1      -7.099  11.168  -5.914  1.00  0.00     0.049 A 
ATOM     47  H   UNL     1      -6.226  13.055  -6.059  1.00  0.00     0.167 HD
ATOM     48  C   UNL     1      -4.217  16.944  -6.322  1.00  0.00     0.037 A 
ATOM     49  C   UNL     1      -8.327  11.332  -5.383  1.00  0.00     0.037 A 
ATOM     50  C   UNL     1      -5.546  17.228  -5.847  1.00  0.00     0.049 A 
ATOM     51  C   UNL     1      -8.794  12.724  -5.050  1.00  0.00     0.074 A 
ATOM     52  C   UNL     1      -6.117  18.459  -5.576  1.00  0.00     0.029 A 
ATOM     53  N   UNL     1      -6.509  16.270  -5.564  1.00  0.00    -0.354 N 
ATOM     54  N   UNL     1      -8.161  13.864  -5.196  1.00  0.00    -0.248 NA
ATOM     55  C   UNL     1     -10.145  12.853  -4.488  1.00  0.00     0.031 C 
ATOM     56  C   UNL     1      -7.399  18.241  -5.063  1.00  0.00     0.029 A 
ATOM     57  C   UNL     1      -7.658  16.880  -5.086  1.00  0.00     0.049 A 
ATOM     58  H   UNL     1      -6.394  15.300  -5.684  1.00  0.00     0.167 HD
ATOM     59  C   UNL     1      -9.046  14.848  -4.769  1.00  0.00     0.074 A 
ATOM     60  C   UNL     1     -10.265  14.169  -4.381  1.00  0.00     0.031 C 
ATOM     61  C   UNL     1      -8.866  16.191  -4.701  1.00  0.00     0.037 A 
BRANCH  48  62
ATOM     62  C   UNL     1      -3.260  18.095  -6.503  1.00  0.00     0.058 A 
ATOM     63  C   UNL     1      -2.814  18.496  -7.774  1.00  0.00     0.135 A 
ATOM     64  C   UNL     1      -2.816  18.834  -5.394  1.00  0.00     0.135 A 
ATOM     65  F   UNL     1      -3.191  17.818  -8.870  1.00  0.00    -0.206 F 
ATOM     66  C   UNL     1      -1.941  19.568  -7.935  1.00  0.00     0.059 A 
ATOM     67  C   UNL     1      -1.972  19.932  -5.536  1.00  0.00     0.059 A 
ATOM     68  F   UNL     1      -3.207  18.496  -4.155  1.00  0.00    -0.206 F 
ATOM     69  C   UNL     1      -1.529  20.282  -6.810  1.00  0.00     0.060 A 
BRANCH  69  70
ATOM     70  S   UNL     1      -0.409  21.679  -7.042  1.00  0.00     0.124 S 
ATOM     71  O   UNL     1       0.822  21.003  -7.437  1.00  0.00    -0.237 OA
ATOM     72  O   UNL     1      -1.079  22.441  -8.091  1.00  0.00    -0.237 OA
ATOM     73  O   UNL     1      -0.381  22.316  -5.729  1.00  0.00    -0.744 OA
ENDBRANCH  69  70
ENDBRANCH  48  62
BRANCH  49  74
ATOM     74  C   UNL     1      -9.204  10.152  -5.148  1.00  0.00     0.058 A 
ATOM     75  C   UNL     1     -10.384   9.965  -5.884  1.00  0.00     0.135 A 
ATOM     76  C   UNL     1      -8.875   9.181  -4.188  1.00  0.00     0.135 A 
ATOM     77  F   UNL     1     -10.748  10.866  -6.809  1.00  0.00    -0.206 F 
ATOM     78  C   UNL     1     -11.216   8.871  -5.665  1.00  0.00     0.059 A 
ATOM     79  C   UNL     1      -9.674   8.062  -3.974  1.00  0.00     0.059 A 
ATOM     80  F   UNL     1      -7.749   9.300  -3.468  1.00  0.00    -0.206 F 
ATOM     81  C   UNL     1     -10.849   7.922  -4.710  1.00  0.00     0.060 A 
BRANCH  81  82
ATOM     82  S   UNL     1     -11.911   6.481  -4.469  1.00  0.00     0.124 S 
ATOM     83  O   UNL     1     -13.079   7.080  -3.834  1.00  0.00    -0.237 OA
ATOM     84  O   UNL     1     -12.098   6.009  -5.837  1.00  0.00    -0.237 OA
ATOM     85  O   UNL     1     -11.107   5.610  -3.617  1.00  0.00    -0.744 OA
ENDBRANCH  81  82
ENDBRANCH  49  74
BRANCH  61  86
ATOM     86  C   UNL     1     -10.025  17.021  -4.219  1.00  0.00     0.058 A 
ATOM     87  C   UNL     1     -10.463  16.982  -2.886  1.00  0.00     0.135 A 
ATOM     88  C   UNL     1     -10.683  17.899  -5.097  1.00  0.00     0.135 A 
ATOM     89  F   UNL     1      -9.875  16.157  -2.005  1.00  0.00    -0.206 F 
ATOM     90  C   UNL     1     -11.534  17.755  -2.449  1.00  0.00     0.059 A 
ATOM     91  C   UNL     1     -11.731  18.710  -4.673  1.00  0.00     0.059 A 
ATOM     92  F   UNL     1     -10.298  17.988  -6.380  1.00  0.00    -0.206 F 
ATOM     93  C   UNL     1     -12.160  18.618  -3.350  1.00  0.00     0.060 A 
BRANCH  93  94
ATOM     94  S   UNL     1     -13.534  19.629  -2.764  1.00  0.00     0.124 S 
ATOM     95  O   UNL     1     -14.578  18.627  -2.576  1.00  0.00    -0.237 OA
ATOM     96  O   UNL     1     -12.990  20.214  -1.542  1.00  0.00    -0.237 OA
ATOM     97  O   UNL     1     -13.757  20.570  -3.857  1.00  0.00    -0.744 OA
ENDBRANCH  93  94
ENDBRANCH  61  86
ENDBRANCH  35  36
ENDBRANCH  27  30
ENDBRANCH  25  26
ENDBRANCH   1  25
TORSDOF 16
