REMARK SMILES O=C(NCCCNC(=O)c1ccc(-c2c3nc(c(-c4c(F)cc(S(=O)(=O)[O-])cc4F)c4ccc([nH]4)c(-c4c(F)cc(S(=O)(=O)[O-])cc4F)c4nc(c(-c5c(F)cc(S(=O)(=O)[O-])cc5F)c5ccc2[nH]5)C=C4)C=C3)cc1)C1=Cc2cc(S(F)(F)(F)(F)F)cc(Br)c2O[C@H]1C(F)(F)F
REMARK SMILES IDX 6 1 5 2 4 3 3 4 1 5 2 6 76 8 77 9 92 10 78 11 91 12 79 13
REMARK SMILES IDX 90 14 80 15 88 16 87 17 89 18 93 19 94 20 95 21 96 22 81 23
REMARK SMILES IDX 82 24 83 25 84 26 85 27 86 28 7 29 8 30 9 32 10 33 11 34
REMARK SMILES IDX 75 35 12 36 74 37 13 38 14 39 15 40 68 41 16 42 73 43 67 44
REMARK SMILES IDX 69 45 17 46 72 47 66 48 65 49 18 51 52 52 31 53 51 54 32 55
REMARK SMILES IDX 35 56 50 57 70 58 33 59 34 60 49 62 71 63 36 64 19 65 20 66
REMARK SMILES IDX 29 67 21 68 22 69 28 70 30 71 23 72 24 73 25 74 26 75 27 76
REMARK SMILES IDX 53 77 54 78 63 79 55 80 56 81 62 82 64 83 57 84 58 85 59 86
REMARK SMILES IDX 60 87 61 88 37 89 38 90 47 91 39 92 40 93 46 94 48 95 41 96
REMARK SMILES IDX 42 97 43 98 44 99 45 100
REMARK H PARENT 3 7 7 31 69 50 35 61
REMARK Flexibility Score: inf
ROOT
ATOM      1  C   UNL     1       4.426  -2.111   2.972  1.00  0.00     0.118 C 
ENDROOT
BRANCH   1   2
ATOM      2  C   UNL     1       4.932  -0.952   2.129  1.00  0.00     0.042 C 
BRANCH   2   3
ATOM      3  C   UNL     1       4.426  -1.103   0.704  1.00  0.00     0.118 C 
BRANCH   3   4
ATOM      4  N   UNL     1       2.956  -1.103   0.704  1.00  0.00    -0.352 N 
ATOM      5  O   UNL     1       0.950  -0.074  -0.045  1.00  0.00    -0.270 OA
ATOM      6  C   UNL     1       2.221  -0.074  -0.045  1.00  0.00     0.251 C 
ATOM      7  H   UNL     1       2.463  -1.792   1.206  1.00  0.00     0.163 HD
BRANCH   6   8
ATOM      8  C   UNL     1       2.981   0.991  -0.820  1.00  0.00     0.067 C 
ATOM      9  C   UNL     1       4.341   0.991  -0.820  1.00  0.00     0.025 C 
ATOM     10  C   UNL     1       2.221   2.055  -1.594  1.00  0.00     0.314 C 
ATOM     11  C   UNL     1       5.101  -0.074  -0.045  1.00  0.00     0.020 A 
ATOM     12  O   UNL     1       3.509  -1.732  -0.650  1.00  0.00    -0.474 OA
ATOM     13  C   UNL     1       6.240   0.342   0.624  1.00  0.00     0.036 A 
ATOM     14  C   UNL     1       4.762  -1.357  -0.097  1.00  0.00     0.142 A 
ATOM     15  C   UNL     1       7.121  -0.712   0.966  1.00  0.00     0.109 A 
ATOM     16  C   UNL     1       5.613  -2.325   0.380  1.00  0.00     0.062 A 
ATOM     17  C   UNL     1       6.784  -1.988   1.000  1.00  0.00     0.044 A 
ATOM     18  Br  UNL     1       5.141  -4.215   0.167  1.00  0.00    -0.047 Br
BRANCH  10  19
ATOM     19  C   UNL     1       0.726   1.831  -1.431  1.00  0.00     0.429 C 
ATOM     20  F   UNL     1       0.243   2.795  -0.653  1.00  0.00    -0.167 F 
ATOM     21  F   UNL     1       0.188   1.928  -2.643  1.00  0.00    -0.167 F 
ATOM     22  F   UNL     1       0.426   0.646  -0.906  1.00  0.00    -0.167 F 
ENDBRANCH  10  19
BRANCH  15  23
ATOM     23  S   UNL     1       8.828  -0.280   1.386  1.00  0.00     0.310 S 
ATOM     24  F   UNL     1       8.510  -0.299   2.940  1.00  0.00    -0.094 F 
ATOM     25  F   UNL     1       8.407   1.239   1.389  1.00  0.00    -0.094 F 
ATOM     26  F   UNL     1      10.291   0.097   1.752  1.00  0.00    -0.094 F 
ATOM     27  F   UNL     1       9.197  -1.810   1.516  1.00  0.00    -0.094 F 
ATOM     28  F   UNL     1       7.321  -0.680   1.126  1.00  0.00    -0.094 F 
ENDBRANCH  15  23
ENDBRANCH   6   8
ENDBRANCH   3   4
ENDBRANCH   2   3
ENDBRANCH   1   2
BRANCH   1  29
ATOM     29  N   UNL     1       4.916  -3.378   2.409  1.00  0.00    -0.352 N 
ATOM     30  C   UNL     1       5.761  -4.265   3.221  1.00  0.00     0.251 C 
ATOM     31  H   UNL     1       4.678  -3.632   1.488  1.00  0.00     0.163 HD
ATOM     32  O   UNL     1       6.184  -5.360   2.735  1.00  0.00    -0.269 OA
BRANCH  30  33
ATOM     33  C   UNL     1       6.128  -3.873   4.643  1.00  0.00     0.039 A 
ATOM     34  C   UNL     1       7.411  -4.106   5.110  1.00  0.00     0.014 A 
ATOM     35  C   UNL     1       5.181  -3.395   5.442  1.00  0.00     0.014 A 
ATOM     36  C   UNL     1       7.523  -4.075   6.520  1.00  0.00     0.010 A 
ATOM     37  C   UNL     1       5.405  -3.264   6.792  1.00  0.00     0.010 A 
ATOM     38  C   UNL     1       6.632  -3.534   7.330  1.00  0.00    -0.014 A 
BRANCH  38  39
ATOM     39  C   UNL     1       6.954  -3.227   8.784  1.00  0.00     0.031 A 
ATOM     40  C   UNL     1       6.180  -3.853   9.762  1.00  0.00     0.074 A 
ATOM     41  C   UNL     1       8.034  -2.406   9.059  1.00  0.00     0.049 A 
ATOM     42  N   UNL     1       6.349  -3.808  11.085  1.00  0.00    -0.248 NA
ATOM     43  C   UNL     1       5.011  -4.697   9.474  1.00  0.00     0.031 C 
ATOM     44  C   UNL     1       8.825  -1.778   8.077  1.00  0.00     0.029 A 
ATOM     45  N   UNL     1       8.534  -2.051  10.292  1.00  0.00    -0.354 N 
ATOM     46  C   UNL     1       5.421  -4.550  11.694  1.00  0.00     0.074 A 
ATOM     47  C   UNL     1       4.544  -5.127  10.666  1.00  0.00     0.031 C 
ATOM     48  C   UNL     1       9.780  -1.046   8.709  1.00  0.00     0.029 A 
ATOM     49  C   UNL     1       9.602  -1.205  10.097  1.00  0.00     0.049 A 
ATOM     50  H   UNL     1       8.186  -2.351  11.164  1.00  0.00     0.167 HD
ATOM     51  C   UNL     1       5.274  -4.769  13.064  1.00  0.00     0.037 A 
ATOM     52  C   UNL     1      10.389  -0.594  11.061  1.00  0.00     0.037 A 
ATOM     53  C   UNL     1       6.088  -4.192  14.026  1.00  0.00     0.049 A 
ATOM     54  C   UNL     1      10.205  -0.767  12.435  1.00  0.00     0.074 A 
ATOM     55  C   UNL     1       5.957  -4.409  15.412  1.00  0.00     0.029 A 
ATOM     56  N   UNL     1       7.141  -3.327  13.832  1.00  0.00    -0.354 N 
ATOM     57  N   UNL     1       9.303  -1.540  13.041  1.00  0.00    -0.248 NA
ATOM     58  C   UNL     1      11.012  -0.100  13.465  1.00  0.00     0.031 C 
ATOM     59  C   UNL     1       6.912  -3.676  16.044  1.00  0.00     0.029 A 
ATOM     60  C   UNL     1       7.655  -2.990  15.064  1.00  0.00     0.049 A 
ATOM     61  H   UNL     1       7.470  -3.004  12.961  1.00  0.00     0.167 HD
ATOM     62  C   UNL     1       9.446  -1.462  14.365  1.00  0.00     0.074 A 
ATOM     63  C   UNL     1      10.543  -0.528  14.658  1.00  0.00     0.031 C 
ATOM     64  C   UNL     1       8.709  -2.134  15.342  1.00  0.00     0.037 A 
BRANCH  51  65
ATOM     65  C   UNL     1       4.157  -5.691  13.527  1.00  0.00     0.058 A 
ATOM     66  C   UNL     1       4.105  -7.007  13.098  1.00  0.00     0.135 A 
ATOM     67  C   UNL     1       3.228  -5.191  14.333  1.00  0.00     0.135 A 
ATOM     68  F   UNL     1       5.128  -7.619  12.508  1.00  0.00    -0.206 F 
ATOM     69  C   UNL     1       2.865  -7.641  13.346  1.00  0.00     0.059 A 
ATOM     70  C   UNL     1       2.105  -5.920  14.642  1.00  0.00     0.059 A 
ATOM     71  F   UNL     1       3.386  -3.975  14.847  1.00  0.00    -0.206 F 
ATOM     72  C   UNL     1       1.959  -7.207  14.203  1.00  0.00     0.060 A 
BRANCH  72  73
ATOM     73  S   UNL     1       0.598  -8.258  14.767  1.00  0.00     0.124 S 
ATOM     74  O   UNL     1      -0.245  -8.690  13.565  1.00  0.00    -0.237 OA
ATOM     75  O   UNL     1       1.165  -9.497  15.463  1.00  0.00    -0.237 OA
ATOM     76  O   UNL     1      -0.380  -7.385  15.864  1.00  0.00    -0.744 OA
ENDBRANCH  72  73
ENDBRANCH  51  65
BRANCH  52  77
ATOM     77  C   UNL     1      11.515   0.315  10.597  1.00  0.00     0.058 A 
ATOM     78  C   UNL     1      12.833   0.029  10.917  1.00  0.00     0.135 A 
ATOM     79  C   UNL     1      11.199   1.375   9.863  1.00  0.00     0.135 A 
ATOM     80  F   UNL     1      13.220  -1.138  11.424  1.00  0.00    -0.206 F 
ATOM     81  C   UNL     1      13.729   1.093  10.655  1.00  0.00     0.059 A 
ATOM     82  C   UNL     1      12.154   2.305   9.529  1.00  0.00     0.059 A 
ATOM     83  F   UNL     1       9.946   1.538   9.447  1.00  0.00    -0.206 F 
ATOM     84  C   UNL     1      13.466   2.117   9.865  1.00  0.00     0.060 A 
BRANCH  84  85
ATOM     85  S   UNL     1      14.772   3.213   9.258  1.00  0.00     0.124 S 
ATOM     86  O   UNL     1      15.481   3.868  10.445  1.00  0.00    -0.237 OA
ATOM     87  O   UNL     1      15.783   2.401   8.444  1.00  0.00    -0.237 OA
ATOM     88  O   UNL     1      14.084   4.425   8.266  1.00  0.00    -0.744 OA
ENDBRANCH  84  85
ENDBRANCH  52  77
BRANCH  64  89
ATOM     89  C   UNL     1       9.085  -1.913  16.798  1.00  0.00     0.058 A 
ATOM     90  C   UNL     1       9.070  -0.630  17.320  1.00  0.00     0.135 A 
ATOM     91  C   UNL     1       9.462  -2.952  17.534  1.00  0.00     0.135 A 
ATOM     92  F   UNL     1       8.470   0.391  16.717  1.00  0.00    -0.206 F 
ATOM     93  C   UNL     1       9.752  -0.506  18.554  1.00  0.00     0.059 A 
ATOM     94  C   UNL     1       9.995  -2.766  18.787  1.00  0.00     0.059 A 
ATOM     95  F   UNL     1       9.323  -4.185  17.054  1.00  0.00    -0.206 F 
ATOM     96  C   UNL     1      10.066  -1.518  19.342  1.00  0.00     0.060 A 
BRANCH  96  97
ATOM     97  S   UNL     1      10.562  -1.268  21.064  1.00  0.00     0.124 S 
ATOM     98  O   UNL     1      11.817  -0.393  21.111  1.00  0.00    -0.237 OA
ATOM     99  O   UNL     1       9.430  -0.576  21.827  1.00  0.00    -0.237 OA
ATOM    100  O   UNL     1      10.896  -2.781  21.787  1.00  0.00    -0.744 OA
ENDBRANCH  96  97
ENDBRANCH  64  89
ENDBRANCH  38  39
ENDBRANCH  30  33
ENDBRANCH   1  29
TORSDOF 15
