REMARK SMILES O=C(C[C@H]1CN(S(=O)(=O)N2CCCCC2)CCO1)NCCCNC(=O)c1ccc(-c2c3nc(c(-c4c(F)cc(S(=O)(=O)[O-])cc4F)c4ccc([nH]4)c(-c4c(F)cc(S(=O)(=O)[O-])cc4F)c4nc(c(-c5c(F)cc(S(=O)(=O)[O-])cc5F)c5ccc2[nH]5)C=C4)C=C3)cc1
REMARK SMILES IDX 21 1 20 2 19 3 1 4 2 5 3 7 4 8 5 9 18 10 6 11 17 12 16 13
REMARK SMILES IDX 7 14 8 15 9 16 10 17 11 18 15 19 12 20 14 21 13 22 22 23
REMARK SMILES IDX 23 24 24 25 25 27 26 28 27 29 91 30 28 31 90 32 29 33 30 34
REMARK SMILES IDX 31 35 84 36 32 37 89 38 83 39 85 40 33 41 88 42 82 43 81 44
REMARK SMILES IDX 34 46 68 47 47 48 67 49 48 50 51 51 66 52 86 53 49 54 50 55
REMARK SMILES IDX 65 57 87 58 52 59 35 60 36 61 45 62 37 63 38 64 44 65 46 66
REMARK SMILES IDX 39 67 40 68 41 69 42 70 43 71 69 72 70 73 79 74 71 75 72 76
REMARK SMILES IDX 78 77 80 78 73 79 74 80 75 81 76 82 77 83 53 84 54 85 63 86
REMARK SMILES IDX 55 87 56 88 62 89 64 90 57 91 58 92 59 93 60 94 61 95
REMARK H PARENT 19 6 23 26 85 45 51 56
REMARK Flexibility Score: inf
ROOT
ATOM      1  C   UNL     1       2.565   3.397  -3.640  1.00  0.00     0.042 C 
ENDROOT
BRANCH   1   2
ATOM      2  C   UNL     1       3.786   2.508  -3.462  1.00  0.00     0.117 C 
BRANCH   2   3
ATOM      3  N   UNL     1       3.558   1.378  -2.592  1.00  0.00    -0.356 N 
ATOM      4  O   UNL     1       2.167   0.253  -4.011  1.00  0.00    -0.275 OA
ATOM      5  C   UNL     1       2.831   0.281  -2.979  1.00  0.00     0.222 C 
ATOM      6  H   UNL     1       3.941   1.396  -1.685  1.00  0.00     0.163 HD
BRANCH   5   7
ATOM      7  C   UNL     1       2.785  -0.841  -1.961  1.00  0.00     0.133 C 
BRANCH   7   8
ATOM      8  C   UNL     1       4.063  -1.205  -1.180  1.00  0.00     0.142 C 
ATOM      9  C   UNL     1       4.490  -2.687  -1.213  1.00  0.00     0.136 C 
ATOM     10  O   UNL     1       5.193  -0.338  -1.371  1.00  0.00    -0.375 OA
ATOM     11  N   UNL     1       5.294  -3.086  -2.400  1.00  0.00    -0.184 NA
ATOM     12  C   UNL     1       5.976  -0.676  -2.530  1.00  0.00     0.177 C 
ATOM     13  C   UNL     1       6.455  -2.131  -2.509  1.00  0.00     0.132 C 
BRANCH  11  14
ATOM     14  S   UNL     1       4.589  -3.449  -3.895  1.00  0.00     0.282 S 
ATOM     15  O   UNL     1       3.843  -2.291  -4.319  1.00  0.00    -0.195 OA
ATOM     16  O   UNL     1       5.653  -3.965  -4.725  1.00  0.00    -0.195 OA
BRANCH  14  17
ATOM     17  N   UNL     1       3.515  -4.708  -3.596  1.00  0.00    -0.189 NA
ATOM     18  C   UNL     1       4.091  -6.046  -3.375  1.00  0.00     0.103 C 
ATOM     19  C   UNL     1       2.200  -4.425  -2.983  1.00  0.00     0.103 C 
ATOM     20  C   UNL     1       3.047  -7.128  -3.638  1.00  0.00     0.017 C 
ATOM     21  C   UNL     1       1.204  -5.571  -3.104  1.00  0.00     0.017 C 
ATOM     22  C   UNL     1       1.830  -6.911  -2.755  1.00  0.00     0.003 C 
ENDBRANCH  14  17
ENDBRANCH  11  14
ENDBRANCH   7   8
ENDBRANCH   5   7
ENDBRANCH   2   3
ENDBRANCH   1   2
BRANCH   1  23
ATOM     23  C   UNL     1       1.904   3.811  -2.333  1.00  0.00     0.118 C 
BRANCH  23  24
ATOM     24  N   UNL     1       2.812   4.511  -1.435  1.00  0.00    -0.352 N 
ATOM     25  C   UNL     1       2.690   5.740  -0.839  1.00  0.00     0.251 C 
ATOM     26  H   UNL     1       3.641   4.027  -1.222  1.00  0.00     0.163 HD
ATOM     27  O   UNL     1       3.651   6.221  -0.244  1.00  0.00    -0.269 OA
BRANCH  25  28
ATOM     28  C   UNL     1       1.417   6.489  -0.923  1.00  0.00     0.039 A 
ATOM     29  C   UNL     1       1.463   7.870  -1.123  1.00  0.00     0.014 A 
ATOM     30  C   UNL     1       0.186   5.843  -0.781  1.00  0.00     0.014 A 
ATOM     31  C   UNL     1       0.273   8.594  -1.218  1.00  0.00     0.010 A 
ATOM     32  C   UNL     1      -0.998   6.550  -0.975  1.00  0.00     0.010 A 
ATOM     33  C   UNL     1      -0.969   7.937  -1.169  1.00  0.00    -0.014 A 
BRANCH  33  34
ATOM     34  C   UNL     1      -2.237   8.702  -1.282  1.00  0.00     0.031 A 
ATOM     35  C   UNL     1      -3.214   8.724  -0.135  1.00  0.00     0.074 A 
ATOM     36  C   UNL     1      -2.518   9.361  -2.424  1.00  0.00     0.049 A 
ATOM     37  N   UNL     1      -4.360   9.348  -0.038  1.00  0.00    -0.248 NA
ATOM     38  C   UNL     1      -2.872   7.920   1.050  1.00  0.00     0.031 C 
ATOM     39  C   UNL     1      -1.679   9.365  -3.625  1.00  0.00     0.029 A 
ATOM     40  N   UNL     1      -3.583  10.158  -2.761  1.00  0.00    -0.354 N 
ATOM     41  C   UNL     1      -4.875   9.008   1.208  1.00  0.00     0.074 A 
ATOM     42  C   UNL     1      -3.951   8.069   1.804  1.00  0.00     0.031 C 
ATOM     43  C   UNL     1      -2.240  10.160  -4.551  1.00  0.00     0.029 A 
ATOM     44  C   UNL     1      -3.494  10.691  -4.026  1.00  0.00     0.049 A 
ATOM     45  H   UNL     1      -4.338  10.331  -2.155  1.00  0.00     0.167 HD
ATOM     46  C   UNL     1      -5.997   9.461   1.816  1.00  0.00     0.037 A 
ATOM     47  C   UNL     1      -4.328  11.518  -4.686  1.00  0.00     0.037 A 
ATOM     48  C   UNL     1      -6.904  10.410   1.222  1.00  0.00     0.049 A 
ATOM     49  C   UNL     1      -5.567  12.012  -3.988  1.00  0.00     0.074 A 
ATOM     50  C   UNL     1      -8.045  10.969   1.768  1.00  0.00     0.029 A 
ATOM     51  N   UNL     1      -6.774  10.938  -0.055  1.00  0.00    -0.354 N 
ATOM     52  N   UNL     1      -6.004  11.732  -2.782  1.00  0.00    -0.248 NA
ATOM     53  C   UNL     1      -6.416  12.950  -4.733  1.00  0.00     0.031 C 
ATOM     54  C   UNL     1      -8.635  11.792   0.803  1.00  0.00     0.029 A 
ATOM     55  C   UNL     1      -7.824  11.801  -0.321  1.00  0.00     0.049 A 
ATOM     56  H   UNL     1      -6.043  10.729  -0.681  1.00  0.00     0.167 HD
ATOM     57  C   UNL     1      -7.159  12.489  -2.611  1.00  0.00     0.074 A 
ATOM     58  C   UNL     1      -7.341  13.248  -3.832  1.00  0.00     0.031 C 
ATOM     59  C   UNL     1      -7.990  12.554  -1.540  1.00  0.00     0.037 A 
BRANCH  46  60
ATOM     60  C   UNL     1      -6.306   8.937   3.195  1.00  0.00     0.058 A 
ATOM     61  C   UNL     1      -5.510   9.261   4.306  1.00  0.00     0.135 A 
ATOM     62  C   UNL     1      -7.431   8.126   3.415  1.00  0.00     0.135 A 
ATOM     63  F   UNL     1      -4.412  10.019   4.155  1.00  0.00    -0.206 F 
ATOM     64  C   UNL     1      -5.798   8.774   5.578  1.00  0.00     0.059 A 
ATOM     65  C   UNL     1      -7.758   7.655   4.684  1.00  0.00     0.059 A 
ATOM     66  F   UNL     1      -8.228   7.781   2.392  1.00  0.00    -0.206 F 
ATOM     67  C   UNL     1      -6.926   7.972   5.757  1.00  0.00     0.060 A 
BRANCH  67  68
ATOM     68  S   UNL     1      -7.289   7.355   7.414  1.00  0.00     0.124 S 
ATOM     69  O   UNL     1      -6.225   6.373   7.599  1.00  0.00    -0.237 OA
ATOM     70  O   UNL     1      -7.183   8.563   8.226  1.00  0.00    -0.237 OA
ATOM     71  O   UNL     1      -8.634   6.804   7.286  1.00  0.00    -0.744 OA
ENDBRANCH  67  68
ENDBRANCH  46  60
BRANCH  47  72
ATOM     72  C   UNL     1      -4.001  11.958  -6.070  1.00  0.00     0.058 A 
ATOM     73  C   UNL     1      -3.658  13.290  -6.347  1.00  0.00     0.135 A 
ATOM     74  C   UNL     1      -4.021  11.054  -7.144  1.00  0.00     0.135 A 
ATOM     75  F   UNL     1      -3.628  14.194  -5.356  1.00  0.00    -0.206 F 
ATOM     76  C   UNL     1      -3.371  13.717  -7.639  1.00  0.00     0.059 A 
ATOM     77  C   UNL     1      -3.707  11.450  -8.441  1.00  0.00     0.059 A 
ATOM     78  F   UNL     1      -4.325   9.764  -6.932  1.00  0.00    -0.206 F 
ATOM     79  C   UNL     1      -3.396  12.787  -8.680  1.00  0.00     0.060 A 
BRANCH  79  80
ATOM     80  S   UNL     1      -2.984  13.344 -10.348  1.00  0.00     0.124 S 
ATOM     81  O   UNL     1      -4.154  14.144 -10.688  1.00  0.00    -0.237 OA
ATOM     82  O   UNL     1      -1.746  14.085 -10.125  1.00  0.00    -0.237 OA
ATOM     83  O   UNL     1      -2.834  12.097 -11.091  1.00  0.00    -0.744 OA
ENDBRANCH  79  80
ENDBRANCH  47  72
BRANCH  59  84
ATOM     84  C   UNL     1      -9.142  13.521  -1.621  1.00  0.00     0.058 A 
ATOM     85  C   UNL     1     -10.222  13.327  -2.497  1.00  0.00     0.135 A 
ATOM     86  C   UNL     1      -9.166  14.659  -0.797  1.00  0.00     0.135 A 
ATOM     87  F   UNL     1     -10.253  12.256  -3.306  1.00  0.00    -0.206 F 
ATOM     88  C   UNL     1     -11.256  14.254  -2.592  1.00  0.00     0.059 A 
ATOM     89  C   UNL     1     -10.208  15.579  -0.849  1.00  0.00     0.059 A 
ATOM     90  F   UNL     1      -8.168  14.887   0.072  1.00  0.00    -0.206 F 
ATOM     91  C   UNL     1     -11.236  15.380  -1.768  1.00  0.00     0.060 A 
BRANCH  91  92
ATOM     92  S   UNL     1     -12.574  16.582  -1.911  1.00  0.00     0.124 S 
ATOM     93  O   UNL     1     -12.254  17.228  -3.180  1.00  0.00    -0.237 OA
ATOM     94  O   UNL     1     -13.760  15.732  -1.915  1.00  0.00    -0.237 OA
ATOM     95  O   UNL     1     -12.412  17.416  -0.724  1.00  0.00    -0.744 OA
ENDBRANCH  91  92
ENDBRANCH  59  84
ENDBRANCH  33  34
ENDBRANCH  25  28
ENDBRANCH  23  24
ENDBRANCH   1  23
TORSDOF 16
