REMARK SMILES O=C(NCCCNC(=O)[C@H](CO)NC(=O)[C@H](Cc1c[nH]c2ccccc12)NC(=O)c1ccc(F)cc1)c1ccc(-c2c3nc(c(-c4c(F)cc(S(=O)(=O)[O-])cc4F)c4ccc([nH]4)c(-c4c(F)cc(S(=O)(=O)[O-])cc4F)c4nc(c(-c5c(F)cc(S(=O)(=O)[O-])cc5F)c5ccc2[nH]5)C=C4)C=C3)cc1
REMARK SMILES IDX 5 1 4 2 3 3 1 4 2 5 37 7 38 8 102 9 39 10 101 11 40 12 41 13
REMARK SMILES IDX 42 14 95 15 43 16 100 17 94 18 96 19 44 20 99 21 93 22 92 23
REMARK SMILES IDX 45 25 79 26 58 27 78 28 59 29 62 30 77 31 97 32 60 33 61 34
REMARK SMILES IDX 76 36 98 37 63 38 46 39 47 40 56 41 48 42 49 43 55 44 57 45
REMARK SMILES IDX 50 46 51 47 52 48 53 49 54 50 80 51 81 52 90 53 82 54 83 55
REMARK SMILES IDX 89 56 91 57 84 58 85 59 86 60 87 61 88 62 64 63 65 64 74 65
REMARK SMILES IDX 66 66 67 67 73 68 75 69 68 70 69 71 70 72 71 73 72 74 6 75
REMARK SMILES IDX 7 76 8 77 9 79 10 80 13 81 14 82 15 84 16 85 27 86 28 87
REMARK SMILES IDX 29 89 30 90 31 91 36 92 32 93 35 94 33 95 34 96 17 97 18 98
REMARK SMILES IDX 19 99 26 100 20 101 21 102 25 103 22 105 24 106 23 107
REMARK SMILES IDX 11 108 12 109
REMARK H PARENT 3 6 96 24 62 35 7 78 13 83 27 88 20 104 12 110
REMARK Flexibility Score: inf
ROOT
ATOM      1  C   UNL     1       3.813   0.329  -2.130  1.00  0.00     0.042 C 
ENDROOT
BRANCH   1   2
ATOM      2  C   UNL     1       2.749   0.564  -1.105  1.00  0.00     0.118 C 
BRANCH   2   3
ATOM      3  N   UNL     1       1.992  -0.673  -0.932  1.00  0.00    -0.352 N 
ATOM      4  O   UNL     1       1.953  -2.850  -0.324  1.00  0.00    -0.269 OA
ATOM      5  C   UNL     1       2.276  -1.699  -0.058  1.00  0.00     0.251 C 
ATOM      6  H   UNL     1       1.196  -0.785  -1.500  1.00  0.00     0.163 HD
BRANCH   5   7
ATOM      7  C   UNL     1       2.970  -1.354   1.196  1.00  0.00     0.039 A 
ATOM      8  C   UNL     1       2.765  -0.080   1.716  1.00  0.00     0.014 A 
ATOM      9  C   UNL     1       3.817  -2.250   1.845  1.00  0.00     0.014 A 
ATOM     10  C   UNL     1       3.595   0.400   2.695  1.00  0.00     0.010 A 
ATOM     11  C   UNL     1       4.450  -1.842   3.022  1.00  0.00     0.010 A 
ATOM     12  C   UNL     1       4.340  -0.508   3.449  1.00  0.00    -0.014 A 
BRANCH  12  13
ATOM     13  C   UNL     1       4.820  -0.023   4.760  1.00  0.00     0.031 A 
ATOM     14  C   UNL     1       6.271  -0.039   5.110  1.00  0.00     0.074 A 
ATOM     15  C   UNL     1       3.896   0.515   5.588  1.00  0.00     0.049 A 
ATOM     16  N   UNL     1       6.839   0.390   6.205  1.00  0.00    -0.248 NA
ATOM     17  C   UNL     1       7.207  -0.613   4.129  1.00  0.00     0.031 C 
ATOM     18  C   UNL     1       2.449   0.576   5.319  1.00  0.00     0.029 A 
ATOM     19  N   UNL     1       4.021   1.166   6.785  1.00  0.00    -0.354 N 
ATOM     20  C   UNL     1       8.191   0.121   6.058  1.00  0.00     0.074 A 
ATOM     21  C   UNL     1       8.361  -0.535   4.781  1.00  0.00     0.031 C 
ATOM     22  C   UNL     1       1.849   1.319   6.252  1.00  0.00     0.029 A 
ATOM     23  C   UNL     1       2.830   1.666   7.263  1.00  0.00     0.049 A 
ATOM     24  H   UNL     1       4.878   1.267   7.258  1.00  0.00     0.167 HD
ATOM     25  C   UNL     1       9.191   0.413   6.920  1.00  0.00     0.037 A 
ATOM     26  C   UNL     1       2.547   2.301   8.412  1.00  0.00     0.037 A 
ATOM     27  C   UNL     1       8.988   1.082   8.180  1.00  0.00     0.049 A 
ATOM     28  C   UNL     1       3.674   2.545   9.367  1.00  0.00     0.074 A 
ATOM     29  C   UNL     1       9.937   1.431   9.124  1.00  0.00     0.029 A 
ATOM     30  N   UNL     1       7.760   1.504   8.672  1.00  0.00    -0.354 N 
ATOM     31  N   UNL     1       4.951   2.289   9.210  1.00  0.00    -0.248 NA
ATOM     32  C   UNL     1       3.327   3.148  10.656  1.00  0.00     0.031 C 
ATOM     33  C   UNL     1       9.277   2.005  10.213  1.00  0.00     0.029 A 
ATOM     34  C   UNL     1       7.925   2.084   9.919  1.00  0.00     0.049 A 
ATOM     35  H   UNL     1       6.899   1.406   8.204  1.00  0.00     0.167 HD
ATOM     36  C   UNL     1       5.566   2.721  10.376  1.00  0.00     0.074 A 
ATOM     37  C   UNL     1       4.523   3.284  11.210  1.00  0.00     0.031 C 
ATOM     38  C   UNL     1       6.872   2.647  10.729  1.00  0.00     0.037 A 
BRANCH  25  39
ATOM     39  C   UNL     1      10.592   0.019   6.551  1.00  0.00     0.058 A 
ATOM     40  C   UNL     1      11.271  -0.961   7.294  1.00  0.00     0.135 A 
ATOM     41  C   UNL     1      11.305   0.692   5.546  1.00  0.00     0.135 A 
ATOM     42  F   UNL     1      10.632  -1.645   8.255  1.00  0.00    -0.206 F 
ATOM     43  C   UNL     1      12.620  -1.225   7.087  1.00  0.00     0.059 A 
ATOM     44  C   UNL     1      12.648   0.423   5.302  1.00  0.00     0.059 A 
ATOM     45  F   UNL     1      10.694   1.615   4.787  1.00  0.00    -0.206 F 
ATOM     46  C   UNL     1      13.303  -0.519   6.095  1.00  0.00     0.060 A 
BRANCH  46  47
ATOM     47  S   UNL     1      15.062  -0.849   5.866  1.00  0.00     0.124 S 
ATOM     48  O   UNL     1      15.621  -0.395   7.135  1.00  0.00    -0.237 OA
ATOM     49  O   UNL     1      15.072  -2.292   5.645  1.00  0.00    -0.237 OA
ATOM     50  O   UNL     1      15.409  -0.041   4.701  1.00  0.00    -0.744 OA
ENDBRANCH  46  47
ENDBRANCH  25  39
BRANCH  26  51
ATOM     51  C   UNL     1       1.151   2.711   8.723  1.00  0.00     0.058 A 
ATOM     52  C   UNL     1       0.123   1.764   8.869  1.00  0.00     0.135 A 
ATOM     53  C   UNL     1       0.813   4.064   8.873  1.00  0.00     0.135 A 
ATOM     54  F   UNL     1       0.381   0.455   8.715  1.00  0.00    -0.206 F 
ATOM     55  C   UNL     1      -1.186   2.141   9.136  1.00  0.00     0.059 A 
ATOM     56  C   UNL     1      -0.482   4.465   9.185  1.00  0.00     0.059 A 
ATOM     57  F   UNL     1       1.758   5.008   8.741  1.00  0.00    -0.206 F 
ATOM     58  C   UNL     1      -1.477   3.495   9.305  1.00  0.00     0.060 A 
BRANCH  58  59
ATOM     59  S   UNL     1      -3.174   3.956   9.707  1.00  0.00     0.124 S 
ATOM     60  O   UNL     1      -3.873   3.603   8.476  1.00  0.00    -0.237 OA
ATOM     61  O   UNL     1      -3.451   3.109  10.862  1.00  0.00    -0.237 OA
ATOM     62  O   UNL     1      -3.077   5.385   9.987  1.00  0.00    -0.744 OA
ENDBRANCH  58  59
ENDBRANCH  26  51
BRANCH  38  63
ATOM     63  C   UNL     1       7.251   3.220  12.065  1.00  0.00     0.058 A 
ATOM     64  C   UNL     1       8.067   4.359  12.143  1.00  0.00     0.135 A 
ATOM     65  C   UNL     1       6.848   2.616  13.267  1.00  0.00     0.135 A 
ATOM     66  F   UNL     1       8.487   4.971  11.024  1.00  0.00    -0.206 F 
ATOM     67  C   UNL     1       8.482   4.872  13.365  1.00  0.00     0.059 A 
ATOM     68  C   UNL     1       7.216   3.138  14.502  1.00  0.00     0.059 A 
ATOM     69  F   UNL     1       6.057   1.531  13.247  1.00  0.00    -0.206 F 
ATOM     70  C   UNL     1       8.045   4.258  14.539  1.00  0.00     0.060 A 
BRANCH  70  71
ATOM     71  S   UNL     1       8.561   4.966  16.116  1.00  0.00     0.124 S 
ATOM     72  O   UNL     1       9.994   4.695  16.111  1.00  0.00    -0.237 OA
ATOM     73  O   UNL     1       8.178   6.366  15.960  1.00  0.00    -0.237 OA
ATOM     74  O   UNL     1       7.783   4.215  17.096  1.00  0.00    -0.744 OA
ENDBRANCH  70  71
ENDBRANCH  38  63
ENDBRANCH  12  13
ENDBRANCH   5   7
ENDBRANCH   2   3
ENDBRANCH   1   2
BRANCH   1  75
ATOM     75  C   UNL     1       3.156   0.303  -3.511  1.00  0.00     0.117 C 
BRANCH  75  76
ATOM     76  N   UNL     1       2.910   1.654  -4.147  1.00  0.00    -0.354 N 
ATOM     77  C   UNL     1       3.497   2.567  -5.038  1.00  0.00     0.244 C 
ATOM     78  H   UNL     1       2.050   2.014  -3.829  1.00  0.00     0.163 HD
ATOM     79  O   UNL     1       2.823   3.582  -5.267  1.00  0.00    -0.273 OA
BRANCH  77  80
ATOM     80  C   UNL     1       5.094   2.353  -5.889  1.00  0.00     0.197 C 
BRANCH  80  81
ATOM     81  N   UNL     1       4.964   3.479  -7.126  1.00  0.00    -0.340 N 
ATOM     82  C   UNL     1       5.336   3.413  -8.463  1.00  0.00     0.243 C 
ATOM     83  H   UNL     1       4.553   4.332  -6.859  1.00  0.00     0.164 HD
ATOM     84  O   UNL     1       5.273   4.442  -9.146  1.00  0.00    -0.273 OA
BRANCH  82  85
ATOM     85  C   UNL     1       5.944   2.095  -9.104  1.00  0.00     0.176 C 
BRANCH  85  86
ATOM     86  N   UNL     1       7.390   2.043  -9.432  1.00  0.00    -0.340 N 
ATOM     87  C   UNL     1       7.886   1.187 -10.389  1.00  0.00     0.251 C 
ATOM     88  H   UNL     1       8.012   2.638  -8.953  1.00  0.00     0.164 HD
ATOM     89  O   UNL     1       8.826   0.439 -10.157  1.00  0.00    -0.269 OA
BRANCH  87  90
ATOM     90  C   UNL     1       7.205   1.193 -11.693  1.00  0.00     0.040 A 
ATOM     91  C   UNL     1       6.737   2.417 -12.187  1.00  0.00     0.017 A 
ATOM     92  C   UNL     1       6.995   0.001 -12.391  1.00  0.00     0.017 A 
ATOM     93  C   UNL     1       5.996   2.445 -13.358  1.00  0.00     0.040 A 
ATOM     94  C   UNL     1       6.265   0.040 -13.578  1.00  0.00     0.040 A 
ATOM     95  C   UNL     1       5.764   1.257 -14.040  1.00  0.00     0.123 A 
ATOM     96  F   UNL     1       5.037   1.285 -15.164  1.00  0.00    -0.207 F 
ENDBRANCH  87  90
ENDBRANCH  85  86
BRANCH  85  97
ATOM     97  C   UNL     1       5.734   0.872  -8.254  1.00  0.00     0.072 C 
BRANCH  97  98
ATOM     98  C   UNL     1       6.272   1.181  -6.878  1.00  0.00    -0.020 A 
ATOM     99  C   UNL     1       5.389   0.505  -5.460  1.00  0.00     0.087 A 
ATOM    100  C   UNL     1       7.009   2.904  -6.310  1.00  0.00     0.003 A 
ATOM    101  N   UNL     1       5.451   1.825  -4.117  1.00  0.00    -0.361 N 
ATOM    102  C   UNL     1       6.380   3.272  -4.704  1.00  0.00     0.046 A 
ATOM    103  C   UNL     1       7.904   3.868  -6.817  1.00  0.00     0.010 A 
ATOM    104  H   UNL     1       5.039   1.743  -3.226  1.00  0.00     0.166 HD
ATOM    105  C   UNL     1       6.760   4.434  -4.045  1.00  0.00     0.026 A 
ATOM    106  C   UNL     1       8.242   4.966  -5.997  1.00  0.00     0.001 A 
ATOM    107  C   UNL     1       7.706   5.231  -4.710  1.00  0.00     0.002 A 
ENDBRANCH  97  98
ENDBRANCH  85  97
ENDBRANCH  82  85
ENDBRANCH  80  81
BRANCH  80 108
ATOM    108  C   UNL     1       6.993   1.417  -5.074  1.00  0.00     0.191 C 
BRANCH 108 109
ATOM    109  O   UNL     1       7.074   0.487  -3.756  1.00  0.00    -0.394 OA
ATOM    110  H   UNL     1       6.908   1.028  -2.968  1.00  0.00     0.210 HD
ENDBRANCH 108 109
ENDBRANCH  80 108
ENDBRANCH  77  80
ENDBRANCH  75  76
ENDBRANCH   1  75
TORSDOF 21
