REMARK SMILES Cc1cscc1-c1noc(SCC(=O)NCCCNC(=O)c2ccc(-c3c4nc(c(-c5c(F)cc(S(=O)(=O)[O-])cc5F)c5ccc([nH]5)c(-c5c(F)cc(S(=O)(=O)[O-])cc5F)c5nc(c(-c6c(F)cc(S(=O)(=O)[O-])cc6F)c6ccc3[nH]6)C=C5)C=C4)cc2)n1
REMARK SMILES IDX 17 1 16 2 15 3 13 4 14 5 12 7 11 8 10 9 7 10 8 11 88 12 9 13
REMARK SMILES IDX 6 14 1 15 2 16 3 17 4 18 5 19 18 20 19 21 20 22 21 24 22 25
REMARK SMILES IDX 23 26 87 27 24 28 86 29 25 30 26 31 27 32 80 33 28 34 85 35
REMARK SMILES IDX 79 36 81 37 29 38 84 39 78 40 77 41 30 43 64 44 43 45 63 46
REMARK SMILES IDX 44 47 47 48 62 49 82 50 45 51 46 52 61 54 83 55 48 56 31 57
REMARK SMILES IDX 32 58 41 59 33 60 34 61 40 62 42 63 35 64 36 65 37 66 38 67
REMARK SMILES IDX 39 68 65 69 66 70 75 71 67 72 68 73 74 74 76 75 69 76 70 77
REMARK SMILES IDX 71 78 72 79 73 80 49 81 50 82 59 83 51 84 52 85 58 86 60 87
REMARK SMILES IDX 53 88 54 89 55 90 56 91 57 92
REMARK H PARENT 15 6 19 23 81 42 47 53
REMARK Flexibility Score: inf
ROOT
ATOM      1  C   UNL     1       6.968   3.941  -0.103  1.00  0.00     0.042 C 
ENDROOT
BRANCH   1   2
ATOM      2  C   UNL     1       6.925   3.819  -1.624  1.00  0.00     0.117 C 
BRANCH   2   3
ATOM      3  N   UNL     1       6.107   2.699  -2.055  1.00  0.00    -0.355 N 
ATOM      4  C   UNL     1       4.868   2.681  -2.625  1.00  0.00     0.230 C 
ATOM      5  O   UNL     1       4.408   1.581  -2.943  1.00  0.00    -0.274 OA
ATOM      6  H   UNL     1       6.511   1.813  -1.914  1.00  0.00     0.163 HD
BRANCH   4   7
ATOM      7  C   UNL     1       4.146   3.967  -2.978  1.00  0.00     0.179 C 
BRANCH   7   8
ATOM      8  S   UNL     1       3.731   5.009  -1.564  1.00  0.00    -0.055 SA
BRANCH   8   9
ATOM      9  C   UNL     1       2.612   4.031  -0.672  1.00  0.00     0.286 A 
ATOM     10  C   UNL     1       1.329   2.521  -0.011  1.00  0.00     0.204 A 
ATOM     11  N   UNL     1       1.107   3.502   0.869  1.00  0.00    -0.056 NA
ATOM     12  N   UNL     1       2.252   2.808  -0.983  1.00  0.00    -0.181 NA
ATOM     13  O   UNL     1       1.980   4.503   0.447  1.00  0.00    -0.327 OA
BRANCH  10  14
ATOM     14  C   UNL     1       0.584   1.262  -0.022  1.00  0.00     0.036 A 
ATOM     15  C   UNL     1       2.666  -0.307  -0.095  1.00  0.00     0.046 C 
ATOM     16  C   UNL     1       1.196  -0.038  -0.073  1.00  0.00    -0.029 A 
ATOM     17  C   UNL     1       0.229  -1.028  -0.066  1.00  0.00     0.069 A 
ATOM     18  S   UNL     1      -1.364  -0.411   0.004  1.00  0.00    -0.151 S 
ATOM     19  C   UNL     1      -0.793   1.196   0.044  1.00  0.00     0.077 A 
ENDBRANCH  10  14
ENDBRANCH   8   9
ENDBRANCH   7   8
ENDBRANCH   4   7
ENDBRANCH   2   3
ENDBRANCH   1   2
BRANCH   1  20
ATOM     20  C   UNL     1       7.621   2.754   0.601  1.00  0.00     0.118 C 
BRANCH  20  21
ATOM     21  N   UNL     1       9.033   2.612   0.275  1.00  0.00    -0.352 N 
ATOM     22  C   UNL     1      10.131   2.592   1.097  1.00  0.00     0.251 C 
ATOM     23  H   UNL     1       9.230   2.515  -0.685  1.00  0.00     0.163 HD
ATOM     24  O   UNL     1      11.255   2.643   0.596  1.00  0.00    -0.269 OA
BRANCH  22  25
ATOM     25  C   UNL     1       9.980   2.532   2.568  1.00  0.00     0.039 A 
ATOM     26  C   UNL     1      10.815   3.321   3.363  1.00  0.00     0.014 A 
ATOM     27  C   UNL     1       9.041   1.688   3.168  1.00  0.00     0.014 A 
ATOM     28  C   UNL     1      10.664   3.314   4.753  1.00  0.00     0.010 A 
ATOM     29  C   UNL     1       8.840   1.740   4.547  1.00  0.00     0.010 A 
ATOM     30  C   UNL     1       9.649   2.553   5.355  1.00  0.00    -0.014 A 
BRANCH  30  31
ATOM     31  C   UNL     1       9.412   2.607   6.822  1.00  0.00     0.031 A 
ATOM     32  C   UNL     1       9.576   1.373   7.668  1.00  0.00     0.074 A 
ATOM     33  C   UNL     1       8.986   3.757   7.384  1.00  0.00     0.049 A 
ATOM     34  N   UNL     1       9.348   1.212   8.947  1.00  0.00    -0.248 NA
ATOM     35  C   UNL     1      10.032   0.153   6.984  1.00  0.00     0.031 C 
ATOM     36  C   UNL     1       8.742   5.010   6.665  1.00  0.00     0.029 A 
ATOM     37  N   UNL     1       8.668   4.058   8.686  1.00  0.00    -0.354 N 
ATOM     38  C   UNL     1       9.619  -0.125   9.217  1.00  0.00     0.074 A 
ATOM     39  C   UNL     1       9.979  -0.743   7.959  1.00  0.00     0.031 C 
ATOM     40  C   UNL     1       8.334   5.946   7.536  1.00  0.00     0.029 A 
ATOM     41  C   UNL     1       8.243   5.354   8.867  1.00  0.00     0.049 A 
ATOM     42  H   UNL     1       8.738   3.407   9.421  1.00  0.00     0.167 HD
ATOM     43  C   UNL     1       9.591  -0.772  10.407  1.00  0.00     0.037 A 
ATOM     44  C   UNL     1       7.815   5.991   9.974  1.00  0.00     0.037 A 
ATOM     45  C   UNL     1       9.250  -0.146  11.659  1.00  0.00     0.049 A 
ATOM     46  C   UNL     1       7.785   5.248  11.283  1.00  0.00     0.074 A 
ATOM     47  C   UNL     1       9.250  -0.702  12.926  1.00  0.00     0.029 A 
ATOM     48  N   UNL     1       8.843   1.173  11.803  1.00  0.00    -0.354 N 
ATOM     49  N   UNL     1       8.110   4.002  11.530  1.00  0.00    -0.248 NA
ATOM     50  C   UNL     1       7.337   5.999  12.464  1.00  0.00     0.031 C 
ATOM     51  C   UNL     1       8.793   0.263  13.829  1.00  0.00     0.029 A 
ATOM     52  C   UNL     1       8.565   1.440  13.134  1.00  0.00     0.049 A 
ATOM     53  H   UNL     1       8.763   1.823  11.068  1.00  0.00     0.167 HD
ATOM     54  C   UNL     1       7.933   3.827  12.899  1.00  0.00     0.074 A 
ATOM     55  C   UNL     1       7.485   5.099  13.427  1.00  0.00     0.031 C 
ATOM     56  C   UNL     1       8.126   2.714  13.649  1.00  0.00     0.037 A 
BRANCH  43  57
ATOM     57  C   UNL     1       9.937  -2.238  10.417  1.00  0.00     0.058 A 
ATOM     58  C   UNL     1      11.245  -2.689  10.175  1.00  0.00     0.135 A 
ATOM     59  C   UNL     1       8.960  -3.201  10.718  1.00  0.00     0.135 A 
ATOM     60  F   UNL     1      12.217  -1.815   9.868  1.00  0.00    -0.206 F 
ATOM     61  C   UNL     1      11.565  -4.043  10.203  1.00  0.00     0.059 A 
ATOM     62  C   UNL     1       9.265  -4.558  10.782  1.00  0.00     0.059 A 
ATOM     63  F   UNL     1       7.694  -2.827  10.959  1.00  0.00    -0.206 F 
ATOM     64  C   UNL     1      10.568  -4.970  10.509  1.00  0.00     0.060 A 
BRANCH  64  65
ATOM     65  S   UNL     1      11.004  -6.721  10.551  1.00  0.00     0.124 S 
ATOM     66  O   UNL     1      11.197  -7.006   9.132  1.00  0.00    -0.237 OA
ATOM     67  O   UNL     1      12.214  -6.721  11.366  1.00  0.00    -0.237 OA
ATOM     68  O   UNL     1       9.838  -7.349  11.163  1.00  0.00    -0.744 OA
ENDBRANCH  64  65
ENDBRANCH  43  57
BRANCH  44  69
ATOM     69  C   UNL     1       7.393   7.416   9.894  1.00  0.00     0.058 A 
ATOM     70  C   UNL     1       8.158   8.431  10.487  1.00  0.00     0.135 A 
ATOM     71  C   UNL     1       6.226   7.793   9.212  1.00  0.00     0.135 A 
ATOM     72  F   UNL     1       9.280   8.122  11.156  1.00  0.00    -0.206 F 
ATOM     73  C   UNL     1       7.774   9.767  10.422  1.00  0.00     0.059 A 
ATOM     74  C   UNL     1       5.835   9.124   9.109  1.00  0.00     0.059 A 
ATOM     75  F   UNL     1       5.466   6.862   8.613  1.00  0.00    -0.206 F 
ATOM     76  C   UNL     1       6.612  10.104   9.726  1.00  0.00     0.060 A 
BRANCH  76  77
ATOM     77  S   UNL     1       6.151  11.846   9.605  1.00  0.00     0.124 S 
ATOM     78  O   UNL     1       5.705  12.128  10.964  1.00  0.00    -0.237 OA
ATOM     79  O   UNL     1       7.408  12.467   9.202  1.00  0.00    -0.237 OA
ATOM     80  O   UNL     1       5.106  11.846   8.585  1.00  0.00    -0.744 OA
ENDBRANCH  76  77
ENDBRANCH  44  69
BRANCH  56  81
ATOM     81  C   UNL     1       7.891   2.826  15.132  1.00  0.00     0.058 A 
ATOM     82  C   UNL     1       6.601   2.949  15.672  1.00  0.00     0.135 A 
ATOM     83  C   UNL     1       8.971   2.754  16.028  1.00  0.00     0.135 A 
ATOM     84  F   UNL     1       5.534   3.029  14.861  1.00  0.00    -0.206 F 
ATOM     85  C   UNL     1       6.393   3.022  17.045  1.00  0.00     0.059 A 
ATOM     86  C   UNL     1       8.783   2.794  17.405  1.00  0.00     0.059 A 
ATOM     87  F   UNL     1      10.226   2.626  15.566  1.00  0.00    -0.206 F 
ATOM     88  C   UNL     1       7.490   2.940  17.905  1.00  0.00     0.060 A 
BRANCH  88  89
ATOM     89  S   UNL     1       7.201   3.001  19.686  1.00  0.00     0.124 S 
ATOM     90  O   UNL     1       6.861   4.406  19.881  1.00  0.00    -0.237 OA
ATOM     91  O   UNL     1       6.104   2.054  19.856  1.00  0.00    -0.237 OA
ATOM     92  O   UNL     1       8.479   2.579  20.253  1.00  0.00    -0.744 OA
ENDBRANCH  88  89
ENDBRANCH  56  81
ENDBRANCH  30  31
ENDBRANCH  22  25
ENDBRANCH  20  21
ENDBRANCH   1  20
TORSDOF 16
