REMARK SMILES CN1C(=O)CCC[C@H](C(=O)NCCCNC(=O)c2ccc(-c3c4nc(c(-c5c(F)cc(S(=O)(=O)[O-])cc5F)c5ccc([nH]5)c(-c5c(F)cc(S(=O)(=O)[O-])cc5F)c5nc(c(-c6c(F)cc(S(=O)(=O)[O-])cc6F)c6ccc3[nH]6)C=C5)C=C4)cc2)[C@@H]1c1cccc(C2CC2)c1
REMARK SMILES IDX 13 1 12 2 11 3 9 4 10 5 8 7 84 8 2 9 1 10 3 11 4 12 85 14
REMARK SMILES IDX 86 15 93 16 87 17 89 18 88 19 90 20 91 21 92 22 7 23 6 24
REMARK SMILES IDX 5 25 14 27 15 28 16 29 17 31 18 32 19 33 83 34 20 35 82 36
REMARK SMILES IDX 21 37 22 38 23 39 76 40 24 41 81 42 75 43 77 44 25 45 80 46
REMARK SMILES IDX 74 47 73 48 26 50 60 51 39 52 59 53 40 54 43 55 58 56 78 57
REMARK SMILES IDX 41 58 42 59 57 61 79 62 44 63 27 64 28 65 37 66 29 67 30 68
REMARK SMILES IDX 36 69 38 70 31 71 32 72 33 73 34 74 35 75 61 76 62 77 71 78
REMARK SMILES IDX 63 79 64 80 70 81 72 82 65 83 66 84 67 85 68 86 69 87 45 88
REMARK SMILES IDX 46 89 55 90 47 91 48 92 54 93 56 94 49 95 50 96 51 97 52 98
REMARK SMILES IDX 53 99
REMARK H PARENT 11 6 15 30 77 49 43 60
REMARK Flexibility Score: 100.00
ROOT
ATOM      1  C   UNL     1       3.812  -4.958   2.295  1.00  0.00     0.042 C 
ENDROOT
BRANCH   1   2
ATOM      2  C   UNL     1       3.463  -3.880   3.314  1.00  0.00     0.117 C 
BRANCH   2   3
ATOM      3  N   UNL     1       3.570  -2.556   2.732  1.00  0.00    -0.356 N 
ATOM      4  C   UNL     1       2.611  -1.688   2.305  1.00  0.00     0.225 C 
ATOM      5  O   UNL     1       3.022  -0.696   1.709  1.00  0.00    -0.275 OA
ATOM      6  H   UNL     1       4.493  -2.229   2.628  1.00  0.00     0.163 HD
BRANCH   4   7
ATOM      7  C   UNL     1       1.151  -1.934   2.691  1.00  0.00     0.105 C 
BRANCH   7   8
ATOM      8  C   UNL     1       0.067  -1.281   1.773  1.00  0.00     0.127 C 
BRANCH   8   9
ATOM      9  N   UNL     1       0.381   0.134   1.425  1.00  0.00    -0.338 N 
ATOM     10  C   UNL     1       1.023   0.508   0.167  1.00  0.00     0.147 C 
BRANCH   9  11
ATOM     11  C   UNL     1       0.354   1.176   2.342  1.00  0.00     0.222 CG0
ATOM     12  O   UNL     1       0.086   2.331   2.000  1.00  0.00    -0.275 OA
ATOM     13  G   UNL     1       0.940   0.921   3.720  1.00  0.00     0.000 G0
ENDBRANCH   9  11
ENDBRANCH   8   9
BRANCH   8  14
ATOM     14  C   UNL     1      -0.417  -2.236   0.653  1.00  0.00    -0.024 A 
ATOM     15  C   UNL     1      -0.675  -3.593   0.923  1.00  0.00     0.006 A 
ATOM     16  C   UNL     1      -0.657  -1.823  -0.662  1.00  0.00     0.010 A 
ATOM     17  C   UNL     1      -0.954  -4.500  -0.102  1.00  0.00     0.001 A 
ATOM     18  C   UNL     1      -0.807  -2.714  -1.739  1.00  0.00    -0.045 A 
ATOM     19  C   UNL     1      -0.964  -4.068  -1.425  1.00  0.00     0.004 A 
BRANCH  18  20
ATOM     20  C   UNL     1      -0.703  -2.261  -3.182  1.00  0.00     0.019 C 
ATOM     21  C   UNL     1      -0.321  -0.859  -3.604  1.00  0.00     0.009 C 
ATOM     22  C   UNL     1       0.697  -1.953  -3.686  1.00  0.00     0.009 C 
ENDBRANCH  18  20
ENDBRANCH   8  14
ENDBRANCH   7   8
BRANCH   7  23
ATOM     23  C   UNL     1       0.945  -1.591   4.183  1.00  0.00     0.016 C 
BRANCH  23  24
ATOM     24  C   UNL     1       0.341  -0.224   4.505  1.00  0.00     0.011 C 
BRANCH  24  25
ATOM     25  C   UNL     1       0.940   0.921   3.720  1.00  0.00     0.100 CG0
ATOM     26  G   UNL     1       0.354   1.176   2.342  1.00  0.00     0.000 G0
ENDBRANCH  24  25
ENDBRANCH  23  24
ENDBRANCH   7  23
ENDBRANCH   4   7
ENDBRANCH   2   3
ENDBRANCH   1   2
BRANCH   1  27
ATOM     27  C   UNL     1       5.189  -4.787   1.653  1.00  0.00     0.118 C 
BRANCH  27  28
ATOM     28  N   UNL     1       6.268  -4.745   2.631  1.00  0.00    -0.352 N 
ATOM     29  C   UNL     1       7.387  -5.534   2.746  1.00  0.00     0.251 C 
ATOM     30  H   UNL     1       6.182  -4.043   3.316  1.00  0.00     0.163 HD
ATOM     31  O   UNL     1       8.086  -5.450   3.748  1.00  0.00    -0.269 OA
BRANCH  29  32
ATOM     32  C   UNL     1       7.727  -6.496   1.676  1.00  0.00     0.039 A 
ATOM     33  C   UNL     1       8.125  -7.787   2.033  1.00  0.00     0.014 A 
ATOM     34  C   UNL     1       7.660  -6.129   0.329  1.00  0.00     0.014 A 
ATOM     35  C   UNL     1       8.386  -8.730   1.037  1.00  0.00     0.010 A 
ATOM     36  C   UNL     1       7.843  -7.091  -0.660  1.00  0.00     0.010 A 
ATOM     37  C   UNL     1       8.207  -8.402  -0.318  1.00  0.00    -0.014 A 
BRANCH  37  38
ATOM     38  C   UNL     1       8.384  -9.420  -1.386  1.00  0.00     0.031 A 
ATOM     39  C   UNL     1       9.453  -9.246  -2.431  1.00  0.00     0.074 A 
ATOM     40  C   UNL     1       7.539 -10.469  -1.450  1.00  0.00     0.049 A 
ATOM     41  N   UNL     1       9.715  -9.991  -3.474  1.00  0.00    -0.248 NA
ATOM     42  C   UNL     1      10.324  -8.067  -2.303  1.00  0.00     0.031 C 
ATOM     43  C   UNL     1       6.433 -10.722  -0.523  1.00  0.00     0.029 A 
ATOM     44  N   UNL     1       7.469 -11.512  -2.339  1.00  0.00    -0.354 N 
ATOM     45  C   UNL     1      10.769  -9.367  -4.131  1.00  0.00     0.074 A 
ATOM     46  C   UNL     1      11.062  -8.154  -3.399  1.00  0.00     0.031 C 
ATOM     47  C   UNL     1       5.811 -11.857  -0.878  1.00  0.00     0.029 A 
ATOM     48  C   UNL     1       6.442 -12.391  -2.081  1.00  0.00     0.049 A 
ATOM     49  H   UNL     1       8.094 -11.621  -3.091  1.00  0.00     0.167 HD
ATOM     50  C   UNL     1      11.445  -9.779  -5.230  1.00  0.00     0.037 A 
ATOM     51  C   UNL     1       6.046 -13.495  -2.743  1.00  0.00     0.037 A 
ATOM     52  C   UNL     1      11.160 -10.999  -5.941  1.00  0.00     0.049 A 
ATOM     53  C   UNL     1       6.806 -13.927  -3.968  1.00  0.00     0.074 A 
ATOM     54  C   UNL     1      11.825 -11.534  -7.030  1.00  0.00     0.029 A 
ATOM     55  N   UNL     1      10.122 -11.870  -5.640  1.00  0.00    -0.354 N 
ATOM     56  N   UNL     1       7.845 -13.360  -4.536  1.00  0.00    -0.248 NA
ATOM     57  C   UNL     1       6.347 -15.151  -4.639  1.00  0.00     0.031 C 
ATOM     58  C   UNL     1      11.157 -12.699  -7.421  1.00  0.00     0.029 A 
ATOM     59  C   UNL     1      10.113 -12.924  -6.539  1.00  0.00     0.049 A 
ATOM     60  H   UNL     1       9.486 -11.755  -4.897  1.00  0.00     0.167 HD
ATOM     61  C   UNL     1       8.181 -14.174  -5.613  1.00  0.00     0.074 A 
ATOM     62  C   UNL     1       7.243 -15.278  -5.609  1.00  0.00     0.031 C 
ATOM     63  C   UNL     1       9.177 -14.021  -6.520  1.00  0.00     0.037 A 
BRANCH  50  64
ATOM     64  C   UNL     1      12.562  -8.905  -5.734  1.00  0.00     0.058 A 
ATOM     65  C   UNL     1      13.761  -8.750  -5.019  1.00  0.00     0.135 A 
ATOM     66  C   UNL     1      12.451  -8.245  -6.970  1.00  0.00     0.135 A 
ATOM     67  F   UNL     1      13.918  -9.345  -3.825  1.00  0.00    -0.206 F 
ATOM     68  C   UNL     1      14.795  -7.950  -5.495  1.00  0.00     0.059 A 
ATOM     69  C   UNL     1      13.485  -7.466  -7.480  1.00  0.00     0.059 A 
ATOM     70  F   UNL     1      11.328  -8.357  -7.697  1.00  0.00    -0.206 F 
ATOM     71  C   UNL     1      14.648  -7.313  -6.727  1.00  0.00     0.060 A 
BRANCH  71  72
ATOM     72  S   UNL     1      16.005  -6.287  -7.333  1.00  0.00     0.124 S 
ATOM     73  O   UNL     1      15.923  -5.139  -6.435  1.00  0.00    -0.237 OA
ATOM     74  O   UNL     1      17.161  -7.157  -7.145  1.00  0.00    -0.237 OA
ATOM     75  O   UNL     1      15.640  -6.024  -8.721  1.00  0.00    -0.744 OA
ENDBRANCH  71  72
ENDBRANCH  50  64
BRANCH  51  76
ATOM     76  C   UNL     1       4.881 -14.280  -2.251  1.00  0.00     0.058 A 
ATOM     77  C   UNL     1       5.051 -15.558  -1.700  1.00  0.00     0.135 A 
ATOM     78  C   UNL     1       3.577 -13.762  -2.310  1.00  0.00     0.135 A 
ATOM     79  F   UNL     1       6.276 -16.099  -1.627  1.00  0.00    -0.206 F 
ATOM     80  C   UNL     1       3.970 -16.304  -1.239  1.00  0.00     0.059 A 
ATOM     81  C   UNL     1       2.484 -14.477  -1.830  1.00  0.00     0.059 A 
ATOM     82  F   UNL     1       3.361 -12.537  -2.812  1.00  0.00    -0.206 F 
ATOM     83  C   UNL     1       2.690 -15.752  -1.306  1.00  0.00     0.060 A 
BRANCH  83  84
ATOM     84  S   UNL     1       1.300 -16.708  -0.659  1.00  0.00     0.124 S 
ATOM     85  O   UNL     1       1.166 -17.751  -1.669  1.00  0.00    -0.237 OA
ATOM     86  O   UNL     1       1.805 -17.137   0.642  1.00  0.00    -0.237 OA
ATOM     87  O   UNL     1       0.216 -15.731  -0.610  1.00  0.00    -0.744 OA
ENDBRANCH  83  84
ENDBRANCH  51  76
BRANCH  63  88
ATOM     88  C   UNL     1       9.333 -15.092  -7.567  1.00  0.00     0.058 A 
ATOM     89  C   UNL     1       8.416 -15.241  -8.618  1.00  0.00     0.135 A 
ATOM     90  C   UNL     1      10.449 -15.945  -7.545  1.00  0.00     0.135 A 
ATOM     91  F   UNL     1       7.328 -14.456  -8.682  1.00  0.00    -0.206 F 
ATOM     92  C   UNL     1       8.585 -16.214  -9.598  1.00  0.00     0.059 A 
ATOM     93  C   UNL     1      10.655 -16.904  -8.532  1.00  0.00     0.059 A 
ATOM     94  F   UNL     1      11.363 -15.839  -6.568  1.00  0.00    -0.206 F 
ATOM     95  C   UNL     1       9.711 -17.039  -9.548  1.00  0.00     0.060 A 
BRANCH  95  96
ATOM     96  S   UNL     1       9.936 -18.273 -10.846  1.00  0.00     0.124 S 
ATOM     97  O   UNL     1       8.914 -19.254 -10.499  1.00  0.00    -0.237 OA
ATOM     98  O   UNL     1       9.688 -17.499 -12.058  1.00  0.00    -0.237 OA
ATOM     99  O   UNL     1      11.316 -18.713 -10.662  1.00  0.00    -0.744 OA
ENDBRANCH  95  96
ENDBRANCH  63  88
ENDBRANCH  37  38
ENDBRANCH  29  32
ENDBRANCH  27  28
ENDBRANCH   1  27
TORSDOF 15
