REMARK SMILES CC1=Nc2ncnn2[C@H](c2ccc(F)cc2)[C@@H]1C(=O)NCCCNC(=O)c1ccc(-c2c3nc(c(-c4c(F)cc(S(=O)(=O)[O-])cc4F)c4ccc([nH]4)c(-c4c(F)cc(S(=O)(=O)[O-])cc4F)c4nc(c(-c5c(F)cc(S(=O)(=O)[O-])cc5F)c5ccc2[nH]5)C=C4)C=C3)cc1
REMARK SMILES IDX 23 1 22 2 21 3 20 4 18 5 19 6 17 8 1 9 2 10 3 11 4 12 9 13
REMARK SMILES IDX 5 14 8 15 6 16 7 17 10 18 11 19 16 20 12 21 15 22 13 23
REMARK SMILES IDX 14 24 24 25 25 26 26 28 27 29 28 30 92 31 29 32 91 33 30 34
REMARK SMILES IDX 31 35 32 36 85 37 33 38 90 39 84 40 86 41 34 42 89 43 83 44
REMARK SMILES IDX 82 45 35 47 69 48 48 49 68 50 49 51 52 52 67 53 87 54 50 55
REMARK SMILES IDX 51 56 66 58 88 59 53 60 36 61 37 62 46 63 38 64 39 65 45 66
REMARK SMILES IDX 47 67 40 68 41 69 42 70 43 71 44 72 70 73 71 74 80 75 72 76
REMARK SMILES IDX 73 77 79 78 81 79 74 80 75 81 76 82 77 83 78 84 54 85 55 86
REMARK SMILES IDX 64 87 56 88 57 89 63 90 65 91 58 92 59 93 60 94 61 95 62 96
REMARK H PARENT 20 7 24 27 86 46 52 57
REMARK Flexibility Score: inf
ROOT
ATOM      1  C   UNL     1       6.453  -2.072   1.211  1.00  0.00     0.118 C 
ENDROOT
BRANCH   1   2
ATOM      2  C   UNL     1       5.486  -2.336   0.064  1.00  0.00     0.042 C 
BRANCH   2   3
ATOM      3  C   UNL     1       4.273  -3.163   0.498  1.00  0.00     0.117 C 
BRANCH   3   4
ATOM      4  N   UNL     1       3.427  -2.406   1.406  1.00  0.00    -0.355 N 
ATOM      5  C   UNL     1       2.186  -1.884   1.234  1.00  0.00     0.231 C 
ATOM      6  O   UNL     1       1.779  -1.086   2.078  1.00  0.00    -0.274 OA
ATOM      7  H   UNL     1       3.820  -2.245   2.294  1.00  0.00     0.163 HD
BRANCH   5   8
ATOM      8  C   UNL     1       1.325  -2.313   0.069  1.00  0.00     0.152 C 
ATOM      9  C   UNL     1       0.733   0.193  -0.370  1.00  0.00     0.063 C 
ATOM     10  C   UNL     1       0.283  -1.254  -0.292  1.00  0.00     0.034 C 
ATOM     11  N   UNL     1      -0.950  -1.489  -0.612  1.00  0.00    -0.220 NA
ATOM     12  C   UNL     1      -1.386  -2.763  -0.645  1.00  0.00     0.248 A 
ATOM     13  C   UNL     1       0.746  -3.746   0.227  1.00  0.00     0.159 C 
ATOM     14  N   UNL     1      -2.527  -3.228  -1.111  1.00  0.00    -0.198 NA
ATOM     15  N   UNL     1      -0.635  -3.830  -0.231  1.00  0.00    -0.221 N 
ATOM     16  C   UNL     1      -2.398  -4.580  -1.010  1.00  0.00     0.248 A 
ATOM     17  N   UNL     1      -1.228  -5.007  -0.536  1.00  0.00    -0.157 NA
BRANCH  13  18
ATOM     18  C   UNL     1       0.939  -4.571   1.511  1.00  0.00    -0.022 A 
ATOM     19  C   UNL     1       1.130  -5.966   1.387  1.00  0.00     0.009 A 
ATOM     20  C   UNL     1       0.936  -4.036   2.810  1.00  0.00     0.009 A 
ATOM     21  C   UNL     1       1.397  -6.769   2.498  1.00  0.00     0.039 A 
ATOM     22  C   UNL     1       1.264  -4.829   3.917  1.00  0.00     0.039 A 
ATOM     23  C   UNL     1       1.497  -6.186   3.750  1.00  0.00     0.123 A 
ATOM     24  F   UNL     1       1.806  -6.944   4.810  1.00  0.00    -0.207 F 
ENDBRANCH  13  18
ENDBRANCH   5   8
ENDBRANCH   3   4
ENDBRANCH   2   3
ENDBRANCH   1   2
BRANCH   1  25
ATOM     25  N   UNL     1       7.170  -3.271   1.646  1.00  0.00    -0.352 N 
ATOM     26  C   UNL     1       8.181  -3.352   2.592  1.00  0.00     0.251 C 
ATOM     27  H   UNL     1       6.905  -4.117   1.217  1.00  0.00     0.163 HD
ATOM     28  O   UNL     1       8.937  -4.306   2.618  1.00  0.00    -0.269 OA
BRANCH  26  29
ATOM     29  C   UNL     1       8.303  -2.253   3.570  1.00  0.00     0.039 A 
ATOM     30  C   UNL     1       9.542  -1.725   3.941  1.00  0.00     0.014 A 
ATOM     31  C   UNL     1       7.121  -1.724   4.077  1.00  0.00     0.014 A 
ATOM     32  C   UNL     1       9.568  -0.606   4.773  1.00  0.00     0.010 A 
ATOM     33  C   UNL     1       7.143  -0.524   4.731  1.00  0.00     0.010 A 
ATOM     34  C   UNL     1       8.359  -0.000   5.149  1.00  0.00    -0.014 A 
BRANCH  34  35
ATOM     35  C   UNL     1       8.326   1.249   5.901  1.00  0.00     0.031 A 
ATOM     36  C   UNL     1       9.085   2.365   5.273  1.00  0.00     0.074 A 
ATOM     37  C   UNL     1       7.482   1.441   6.941  1.00  0.00     0.049 A 
ATOM     38  N   UNL     1      10.169   2.924   5.697  1.00  0.00    -0.248 NA
ATOM     39  C   UNL     1       8.681   2.808   3.927  1.00  0.00     0.031 C 
ATOM     40  C   UNL     1       6.465   0.522   7.476  1.00  0.00     0.029 A 
ATOM     41  N   UNL     1       7.287   2.556   7.693  1.00  0.00    -0.354 N 
ATOM     42  C   UNL     1      10.442   3.956   4.802  1.00  0.00     0.074 A 
ATOM     43  C   UNL     1       9.630   3.702   3.642  1.00  0.00     0.031 C 
ATOM     44  C   UNL     1       5.622   1.193   8.291  1.00  0.00     0.029 A 
ATOM     45  C   UNL     1       6.144   2.530   8.488  1.00  0.00     0.049 A 
ATOM     46  H   UNL     1       7.905   3.322   7.677  1.00  0.00     0.167 HD
ATOM     47  C   UNL     1      11.114   5.073   5.199  1.00  0.00     0.037 A 
ATOM     48  C   UNL     1       5.665   3.533   9.265  1.00  0.00     0.037 A 
ATOM     49  C   UNL     1      11.780   4.853   6.459  1.00  0.00     0.049 A 
ATOM     50  C   UNL     1       6.814   4.434   9.533  1.00  0.00     0.074 A 
ATOM     51  C   UNL     1      12.771   4.001   6.904  1.00  0.00     0.029 A 
ATOM     52  N   UNL     1      11.147   5.316   7.587  1.00  0.00    -0.354 N 
ATOM     53  N   UNL     1       7.877   4.073  10.200  1.00  0.00    -0.248 NA
ATOM     54  C   UNL     1       6.986   5.581   8.657  1.00  0.00     0.031 C 
ATOM     55  C   UNL     1      12.381   3.638   8.227  1.00  0.00     0.029 A 
ATOM     56  C   UNL     1      11.214   4.338   8.546  1.00  0.00     0.049 A 
ATOM     57  H   UNL     1      10.719   6.197   7.689  1.00  0.00     0.167 HD
ATOM     58  C   UNL     1       8.939   4.660   9.526  1.00  0.00     0.074 A 
ATOM     59  C   UNL     1       8.320   5.649   8.643  1.00  0.00     0.031 C 
ATOM     60  C   UNL     1      10.186   4.100   9.541  1.00  0.00     0.037 A 
BRANCH  47  61
ATOM     61  C   UNL     1      10.851   6.465   4.665  1.00  0.00     0.058 A 
ATOM     62  C   UNL     1       9.650   6.855   4.030  1.00  0.00     0.135 A 
ATOM     63  C   UNL     1      11.703   7.525   5.047  1.00  0.00     0.135 A 
ATOM     64  F   UNL     1       8.700   5.978   3.690  1.00  0.00    -0.206 F 
ATOM     65  C   UNL     1       9.313   8.182   3.801  1.00  0.00     0.059 A 
ATOM     66  C   UNL     1      11.357   8.868   4.875  1.00  0.00     0.059 A 
ATOM     67  F   UNL     1      12.866   7.275   5.669  1.00  0.00    -0.206 F 
ATOM     68  C   UNL     1      10.154   9.185   4.256  1.00  0.00     0.060 A 
BRANCH  68  69
ATOM     69  S   UNL     1       9.586  10.886   4.102  1.00  0.00     0.124 S 
ATOM     70  O   UNL     1       9.596  11.066   2.654  1.00  0.00    -0.237 OA
ATOM     71  O   UNL     1       8.268  10.818   4.726  1.00  0.00    -0.237 OA
ATOM     72  O   UNL     1      10.591  11.644   4.840  1.00  0.00    -0.744 OA
ENDBRANCH  68  69
ENDBRANCH  47  61
BRANCH  48  73
ATOM     73  C   UNL     1       4.245   3.954   9.430  1.00  0.00     0.058 A 
ATOM     74  C   UNL     1       3.291   3.710   8.421  1.00  0.00     0.135 A 
ATOM     75  C   UNL     1       3.857   4.850  10.443  1.00  0.00     0.135 A 
ATOM     76  F   UNL     1       3.576   2.913   7.380  1.00  0.00    -0.206 F 
ATOM     77  C   UNL     1       2.048   4.342   8.394  1.00  0.00     0.059 A 
ATOM     78  C   UNL     1       2.613   5.498  10.438  1.00  0.00     0.059 A 
ATOM     79  F   UNL     1       4.712   5.159  11.430  1.00  0.00    -0.206 F 
ATOM     80  C   UNL     1       1.724   5.255   9.393  1.00  0.00     0.060 A 
BRANCH  80  81
ATOM     81  S   UNL     1       0.160   6.153   9.249  1.00  0.00     0.124 S 
ATOM     82  O   UNL     1       0.344   6.877   7.995  1.00  0.00    -0.237 OA
ATOM     83  O   UNL     1      -0.812   5.064   9.212  1.00  0.00    -0.237 OA
ATOM     84  O   UNL     1       0.126   6.979  10.451  1.00  0.00    -0.744 OA
ENDBRANCH  80  81
ENDBRANCH  48  73
BRANCH  60  85
ATOM     85  C   UNL     1      10.466   2.994  10.534  1.00  0.00     0.058 A 
ATOM     86  C   UNL     1      11.485   3.200  11.475  1.00  0.00     0.135 A 
ATOM     87  C   UNL     1       9.918   1.699  10.462  1.00  0.00     0.135 A 
ATOM     88  F   UNL     1      12.084   4.398  11.563  1.00  0.00    -0.206 F 
ATOM     89  C   UNL     1      11.960   2.172  12.286  1.00  0.00     0.059 A 
ATOM     90  C   UNL     1      10.358   0.659  11.287  1.00  0.00     0.059 A 
ATOM     91  F   UNL     1       8.997   1.392   9.540  1.00  0.00    -0.206 F 
ATOM     92  C   UNL     1      11.397   0.901  12.181  1.00  0.00     0.060 A 
BRANCH  92  93
ATOM     93  S   UNL     1      12.085  -0.422  13.199  1.00  0.00     0.124 S 
ATOM     94  O   UNL     1      13.430  -0.560  12.646  1.00  0.00    -0.237 OA
ATOM     95  O   UNL     1      12.013   0.148  14.541  1.00  0.00    -0.237 OA
ATOM     96  O   UNL     1      11.194  -1.553  12.954  1.00  0.00    -0.744 OA
ENDBRANCH  92  93
ENDBRANCH  60  85
ENDBRANCH  34  35
ENDBRANCH  26  29
ENDBRANCH   1  25
TORSDOF 14
