REMARK SMILES O=C(NCCCNC(=O)c1cccnc1C(=O)Nc1ccc(Cl)cn1)c1ccc(-c2c3nc(c(-c4c(F)cc(S(=O)(=O)[O-])cc4F)c4ccc([nH]4)c(-c4c(F)cc(S(=O)(=O)[O-])cc4F)c4nc(c(-c5c(F)cc(S(=O)(=O)[O-])cc5F)c5ccc2[nH]5)C=C4)C=C3)cc1
REMARK SMILES IDX 4 1 3 2 1 3 2 4 26 6 27 7 91 8 28 9 90 10 29 11 30 12 31 13
REMARK SMILES IDX 84 14 32 15 89 16 83 17 85 18 33 19 88 20 82 21 81 22 34 24
REMARK SMILES IDX 68 25 47 26 67 27 48 28 51 29 66 30 86 31 49 32 50 33 65 35
REMARK SMILES IDX 87 36 52 37 35 38 36 39 45 40 37 41 38 42 44 43 46 44 39 45
REMARK SMILES IDX 40 46 41 47 42 48 43 49 69 50 70 51 79 52 71 53 72 54 78 55
REMARK SMILES IDX 80 56 73 57 74 58 75 59 76 60 77 61 53 62 54 63 63 64 55 65
REMARK SMILES IDX 56 66 62 67 64 68 57 69 58 70 59 71 60 72 61 73 5 74 6 75
REMARK SMILES IDX 7 76 8 77 9 79 10 80 11 81 15 82 12 83 14 84 13 85 16 86
REMARK SMILES IDX 17 87 18 88 19 90 20 91 25 92 21 93 24 94 22 95 23 96
REMARK H PARENT 3 5 85 23 51 34 7 78 18 89
REMARK Flexibility Score: inf
ROOT
ATOM      1  C   UNL     1       4.326  -1.646   0.154  1.00  0.00     0.118 C 
ENDROOT
BRANCH   1   2
ATOM      2  N   UNL     1       2.970  -1.317  -0.249  1.00  0.00    -0.352 N 
ATOM      3  O   UNL     1       1.109  -0.028  -0.316  1.00  0.00    -0.269 OA
ATOM      4  C   UNL     1       2.277  -0.153   0.029  1.00  0.00     0.251 C 
ATOM      5  H   UNL     1       2.493  -1.996  -0.778  1.00  0.00     0.163 HD
BRANCH   4   6
ATOM      6  C   UNL     1       2.959   0.923   0.786  1.00  0.00     0.039 A 
ATOM      7  C   UNL     1       4.172   1.443   0.330  1.00  0.00     0.014 A 
ATOM      8  C   UNL     1       2.409   1.369   1.990  1.00  0.00     0.014 A 
ATOM      9  C   UNL     1       4.909   2.293   1.152  1.00  0.00     0.010 A 
ATOM     10  C   UNL     1       3.124   2.274   2.784  1.00  0.00     0.010 A 
ATOM     11  C   UNL     1       4.404   2.704   2.398  1.00  0.00    -0.014 A 
BRANCH  11  12
ATOM     12  C   UNL     1       5.236   3.566   3.284  1.00  0.00     0.031 A 
ATOM     13  C   UNL     1       5.745   3.051   4.608  1.00  0.00     0.074 A 
ATOM     14  C   UNL     1       5.567   4.808   2.880  1.00  0.00     0.049 A 
ATOM     15  N   UNL     1       6.513   3.645   5.487  1.00  0.00    -0.248 NA
ATOM     16  C   UNL     1       5.334   1.694   5.000  1.00  0.00     0.031 C 
ATOM     17  C   UNL     1       5.135   5.428   1.626  1.00  0.00     0.029 A 
ATOM     18  N   UNL     1       6.352   5.767   3.470  1.00  0.00    -0.354 N 
ATOM     19  C   UNL     1       6.661   2.749   6.540  1.00  0.00     0.074 A 
ATOM     20  C   UNL     1       5.878   1.579   6.204  1.00  0.00     0.031 C 
ATOM     21  C   UNL     1       5.690   6.645   1.523  1.00  0.00     0.029 A 
ATOM     22  C   UNL     1       6.476   6.915   2.724  1.00  0.00     0.049 A 
ATOM     23  H   UNL     1       6.786   5.644   4.346  1.00  0.00     0.167 HD
ATOM     24  C   UNL     1       7.388   2.883   7.678  1.00  0.00     0.037 A 
ATOM     25  C   UNL     1       7.138   8.061   2.977  1.00  0.00     0.037 A 
ATOM     26  C   UNL     1       8.177   4.046   8.002  1.00  0.00     0.049 A 
ATOM     27  C   UNL     1       7.920   8.192   4.254  1.00  0.00     0.074 A 
ATOM     28  C   UNL     1       8.981   4.258   9.110  1.00  0.00     0.029 A 
ATOM     29  N   UNL     1       8.258   5.195   7.229  1.00  0.00    -0.354 N 
ATOM     30  N   UNL     1       8.082   7.316   5.217  1.00  0.00    -0.248 NA
ATOM     31  C   UNL     1       8.616   9.466   4.477  1.00  0.00     0.031 C 
ATOM     32  C   UNL     1       9.502   5.554   9.034  1.00  0.00     0.029 A 
ATOM     33  C   UNL     1       9.078   6.127   7.847  1.00  0.00     0.049 A 
ATOM     34  H   UNL     1       7.800   5.329   6.368  1.00  0.00     0.167 HD
ATOM     35  C   UNL     1       8.928   7.920   6.142  1.00  0.00     0.074 A 
ATOM     36  C   UNL     1       9.249   9.231   5.618  1.00  0.00     0.031 C 
ATOM     37  C   UNL     1       9.400   7.428   7.315  1.00  0.00     0.037 A 
BRANCH  24  38
ATOM     38  C   UNL     1       7.348   1.754   8.677  1.00  0.00     0.058 A 
ATOM     39  C   UNL     1       7.959   0.515   8.426  1.00  0.00     0.135 A 
ATOM     40  C   UNL     1       6.726   1.932   9.925  1.00  0.00     0.135 A 
ATOM     41  F   UNL     1       8.558   0.283   7.247  1.00  0.00    -0.206 F 
ATOM     42  C   UNL     1       7.927  -0.516   9.360  1.00  0.00     0.059 A 
ATOM     43  C   UNL     1       6.707   0.924  10.886  1.00  0.00     0.059 A 
ATOM     44  F   UNL     1       6.130   3.097  10.223  1.00  0.00    -0.206 F 
ATOM     45  C   UNL     1       7.296  -0.303  10.587  1.00  0.00     0.060 A 
BRANCH  45  46
ATOM     46  S   UNL     1       7.253  -1.656  11.782  1.00  0.00     0.124 S 
ATOM     47  O   UNL     1       6.298  -2.565  11.155  1.00  0.00    -0.237 OA
ATOM     48  O   UNL     1       8.641  -2.106  11.794  1.00  0.00    -0.237 OA
ATOM     49  O   UNL     1       6.793  -1.013  13.009  1.00  0.00    -0.744 OA
ENDBRANCH  45  46
ENDBRANCH  24  38
BRANCH  25  50
ATOM     50  C   UNL     1       7.101   9.171   1.987  1.00  0.00     0.058 A 
ATOM     51  C   UNL     1       8.246   9.535   1.265  1.00  0.00     0.135 A 
ATOM     52  C   UNL     1       5.916   9.882   1.736  1.00  0.00     0.135 A 
ATOM     53  F   UNL     1       9.404   8.890   1.474  1.00  0.00    -0.206 F 
ATOM     54  C   UNL     1       8.226  10.575   0.341  1.00  0.00     0.059 A 
ATOM     55  C   UNL     1       5.863  10.905   0.795  1.00  0.00     0.059 A 
ATOM     56  F   UNL     1       4.788   9.562   2.390  1.00  0.00    -0.206 F 
ATOM     57  C   UNL     1       7.027  11.251   0.111  1.00  0.00     0.060 A 
BRANCH  57  58
ATOM     58  S   UNL     1       6.999  12.567  -1.125  1.00  0.00     0.124 S 
ATOM     59  O   UNL     1       7.738  13.624  -0.444  1.00  0.00    -0.237 OA
ATOM     60  O   UNL     1       7.677  11.939  -2.255  1.00  0.00    -0.237 OA
ATOM     61  O   UNL     1       5.574  12.816  -1.318  1.00  0.00    -0.744 OA
ENDBRANCH  57  58
ENDBRANCH  25  50
BRANCH  37  62
ATOM     62  C   UNL     1      10.364   8.289   8.088  1.00  0.00     0.058 A 
ATOM     63  C   UNL     1       9.958   9.464   8.741  1.00  0.00     0.135 A 
ATOM     64  C   UNL     1      11.714   7.915   8.197  1.00  0.00     0.135 A 
ATOM     65  F   UNL     1       8.681   9.873   8.666  1.00  0.00    -0.206 F 
ATOM     66  C   UNL     1      10.863  10.257   9.441  1.00  0.00     0.059 A 
ATOM     67  C   UNL     1      12.629   8.674   8.919  1.00  0.00     0.059 A 
ATOM     68  F   UNL     1      12.155   6.794   7.604  1.00  0.00    -0.206 F 
ATOM     69  C   UNL     1      12.197   9.854   9.523  1.00  0.00     0.060 A 
BRANCH  69  70
ATOM     70  S   UNL     1      13.360  10.884  10.443  1.00  0.00     0.124 S 
ATOM     71  O   UNL     1      13.539  12.010   9.533  1.00  0.00    -0.237 OA
ATOM     72  O   UNL     1      12.621  11.170  11.669  1.00  0.00    -0.237 OA
ATOM     73  O   UNL     1      14.524  10.018  10.608  1.00  0.00    -0.744 OA
ENDBRANCH  69  70
ENDBRANCH  37  62
ENDBRANCH  11  12
ENDBRANCH   4   6
ENDBRANCH   1   2
BRANCH   1  74
ATOM     74  C   UNL     1       4.714  -3.125   0.228  1.00  0.00     0.042 C 
BRANCH  74  75
ATOM     75  C   UNL     1       3.900  -4.163  -0.535  1.00  0.00     0.118 C 
BRANCH  75  76
ATOM     76  N   UNL     1       4.101  -4.219  -1.979  1.00  0.00    -0.352 N 
ATOM     77  C   UNL     1       4.891  -5.051  -2.753  1.00  0.00     0.253 C 
ATOM     78  H   UNL     1       3.589  -3.551  -2.490  1.00  0.00     0.163 HD
ATOM     79  O   UNL     1       4.728  -5.108  -3.966  1.00  0.00    -0.269 OA
BRANCH  77  80
ATOM     80  C   UNL     1       5.849  -5.961  -2.128  1.00  0.00     0.071 A 
ATOM     81  C   UNL     1       5.236  -7.018  -1.417  1.00  0.00     0.018 A 
ATOM     82  C   UNL     1       7.235  -5.969  -2.277  1.00  0.00     0.141 A 
ATOM     83  C   UNL     1       5.992  -8.004  -0.803  1.00  0.00     0.021 A 
ATOM     84  N   UNL     1       7.967  -6.933  -1.616  1.00  0.00    -0.250 NA
ATOM     85  C   UNL     1       7.355  -7.911  -0.919  1.00  0.00     0.112 A 
BRANCH  82  86
ATOM     86  C   UNL     1       8.175  -5.193  -3.202  1.00  0.00     0.276 C 
ATOM     87  O   UNL     1       9.357  -5.567  -3.259  1.00  0.00    -0.267 OA
ATOM     88  N   UNL     1       7.852  -4.252  -4.138  1.00  0.00    -0.305 N 
ATOM     89  H   UNL     1       8.434  -4.306  -4.929  1.00  0.00     0.171 HD
BRANCH  88  90
ATOM     90  C   UNL     1       6.918  -3.248  -4.254  1.00  0.00     0.132 A 
ATOM     91  C   UNL     1       6.442  -2.526  -3.174  1.00  0.00     0.049 A 
ATOM     92  N   UNL     1       6.540  -3.004  -5.526  1.00  0.00    -0.238 NA
ATOM     93  C   UNL     1       5.397  -1.628  -3.401  1.00  0.00     0.026 A 
ATOM     94  C   UNL     1       5.484  -2.179  -5.706  1.00  0.00     0.134 A 
ATOM     95  C   UNL     1       4.865  -1.500  -4.676  1.00  0.00     0.059 A 
ATOM     96  Cl  UNL     1       3.460  -0.556  -4.944  1.00  0.00    -0.083 Cl
ENDBRANCH  88  90
ENDBRANCH  82  86
ENDBRANCH  77  80
ENDBRANCH  75  76
ENDBRANCH  74  75
ENDBRANCH   1  74
TORSDOF 15
