REMARK SMILES Cc1cc(C)c(S(=O)(=O)Nc2ccc(N3CC[NH+](C)CC3)c(C(=O)NCCCNC(=O)c3ccc(-c4c5nc(c(-c6c(F)cc(S(=O)(=O)[O-])cc6F)c6ccc([nH]6)c(-c6c(F)cc(S(=O)(=O)[O-])cc6F)c6nc(c(-c7c(F)cc(S(=O)(=O)[O-])cc7F)c7ccc4[nH]7)C=C6)C=C5)cc3)c2)c(C)c1
REMARK SMILES IDX 27 1 26 2 25 3 23 4 24 5 22 7 11 8 12 9 98 10 13 11 14 12
REMARK SMILES IDX 10 13 7 15 8 16 9 17 6 18 1 19 2 20 3 21 101 22 4 23 99 24
REMARK SMILES IDX 5 25 100 26 15 27 16 28 21 29 17 30 20 31 18 32 19 33 28 35
REMARK SMILES IDX 29 36 30 37 31 39 32 40 33 41 97 42 34 43 96 44 35 45 36 46
REMARK SMILES IDX 37 47 90 48 38 49 95 50 89 51 91 52 39 53 94 54 88 55 87 56
REMARK SMILES IDX 40 58 74 59 53 60 73 61 54 62 57 63 72 64 92 65 55 66 56 67
REMARK SMILES IDX 71 69 93 70 58 71 41 72 42 73 51 74 43 75 44 76 50 77 52 78
REMARK SMILES IDX 45 79 46 80 47 81 48 82 49 83 75 84 76 85 85 86 77 87 78 88
REMARK SMILES IDX 84 89 86 90 79 91 80 92 81 93 82 94 83 95 59 96 60 97 69 98
REMARK SMILES IDX 61 99 62 100 68 101 70 102 63 103 64 104 65 105 66 106
REMARK SMILES IDX 67 107
REMARK H PARENT 25 6 10 14 18 34 29 38 91 57 57 68
REMARK Flexibility Score: inf
ROOT
ATOM      1  C   UNL     1      -0.078  -1.205   3.656  1.00  0.00     0.042 C 
ENDROOT
BRANCH   1   2
ATOM      2  C   UNL     1       1.020  -1.077   2.601  1.00  0.00     0.118 C 
BRANCH   2   3
ATOM      3  N   UNL     1       2.134  -1.951   2.899  1.00  0.00    -0.352 N 
ATOM      4  C   UNL     1       2.486  -3.213   2.486  1.00  0.00     0.253 C 
ATOM      5  O   UNL     1       3.436  -3.703   3.097  1.00  0.00    -0.269 OA
ATOM      6  H   UNL     1       2.777  -1.558   3.532  1.00  0.00     0.163 HD
BRANCH   4   7
ATOM      7  C   UNL     1       1.787  -3.965   1.387  1.00  0.00     0.065 A 
ATOM      8  C   UNL     1      -0.225  -4.345   0.073  1.00  0.00     0.050 A 
ATOM      9  C   UNL     1       0.430  -5.319  -0.670  1.00  0.00     0.029 A 
ATOM     10  C   UNL     1       0.402  -3.809   1.192  1.00  0.00     0.042 A 
ATOM     11  C   UNL     1       1.785  -5.543  -0.457  1.00  0.00     0.029 A 
ATOM     12  C   UNL     1       2.514  -4.790   0.484  1.00  0.00     0.050 A 
BRANCH   8  13
ATOM     13  N   UNL     1      -1.449  -3.870  -0.465  1.00  0.00    -0.280 N 
ATOM     14  H   UNL     1      -1.924  -4.480  -1.074  1.00  0.00     0.180 HD
BRANCH  13  15
ATOM     15  S   UNL     1      -2.174  -2.393  -0.181  1.00  0.00     0.262 S 
ATOM     16  O   UNL     1      -2.451  -2.346   1.245  1.00  0.00    -0.201 OA
ATOM     17  O   UNL     1      -3.237  -2.308  -1.156  1.00  0.00    -0.201 OA
BRANCH  15  18
ATOM     18  C   UNL     1      -1.072  -1.004  -0.529  1.00  0.00     0.093 A 
ATOM     19  C   UNL     1       1.850   2.177  -0.172  1.00  0.00     0.044 C 
ATOM     20  C   UNL     1       0.819   1.101  -0.348  1.00  0.00    -0.051 A 
ATOM     21  C   UNL     1      -0.476   1.278   0.128  1.00  0.00     0.008 A 
ATOM     22  C   UNL     1       1.109  -0.066  -1.054  1.00  0.00     0.008 A 
ATOM     23  C   UNL     1      -1.432   0.247   0.045  1.00  0.00    -0.030 A 
ATOM     24  C   UNL     1       0.164  -1.110  -1.199  1.00  0.00    -0.030 A 
ATOM     25  C   UNL     1      -2.824   0.610   0.507  1.00  0.00     0.046 C 
ATOM     26  C   UNL     1       0.582  -2.224  -2.110  1.00  0.00     0.046 C 
ENDBRANCH  15  18
ENDBRANCH  13  15
ENDBRANCH   8  13
BRANCH  12  27
ATOM     27  N   UNL     1       3.893  -4.770   0.356  1.00  0.00    -0.360 N 
ATOM     28  C   UNL     1       4.772  -5.461   1.307  1.00  0.00     0.178 C 
ATOM     29  C   UNL     1       4.496  -4.566  -0.967  1.00  0.00     0.178 C 
ATOM     30  C   UNL     1       6.090  -4.654   1.438  1.00  0.00     0.283 C 
ATOM     31  C   UNL     1       5.834  -3.810  -0.821  1.00  0.00     0.283 C 
ATOM     32  N   UNL     1       6.772  -4.455   0.128  1.00  0.00    -0.334 N 
ATOM     33  C   UNL     1       7.961  -3.622   0.295  1.00  0.00     0.332 C 
ATOM     34  H   UNL     1       7.059  -5.362  -0.240  1.00  0.00     0.347 HD
ENDBRANCH  12  27
ENDBRANCH   4   7
ENDBRANCH   2   3
ENDBRANCH   1   2
BRANCH   1  35
ATOM     35  C   UNL     1       0.315  -0.603   4.999  1.00  0.00     0.118 C 
BRANCH  35  36
ATOM     36  N   UNL     1       0.362   0.850   4.948  1.00  0.00    -0.352 N 
ATOM     37  C   UNL     1      -0.201   1.764   5.802  1.00  0.00     0.251 C 
ATOM     38  H   UNL     1       0.869   1.231   4.195  1.00  0.00     0.163 HD
ATOM     39  O   UNL     1      -0.229   2.950   5.482  1.00  0.00    -0.269 OA
BRANCH  37  40
ATOM     40  C   UNL     1      -0.781   1.325   7.091  1.00  0.00     0.039 A 
ATOM     41  C   UNL     1      -1.981   1.901   7.518  1.00  0.00     0.014 A 
ATOM     42  C   UNL     1      -0.132   0.383   7.896  1.00  0.00     0.014 A 
ATOM     43  C   UNL     1      -2.543   1.513   8.736  1.00  0.00     0.010 A 
ATOM     44  C   UNL     1      -0.728  -0.052   9.077  1.00  0.00     0.010 A 
ATOM     45  C   UNL     1      -1.927   0.524   9.519  1.00  0.00    -0.014 A 
BRANCH  45  46
ATOM     46  C   UNL     1      -2.500   0.118  10.826  1.00  0.00     0.031 A 
ATOM     47  C   UNL     1      -1.750   0.414  12.097  1.00  0.00     0.074 A 
ATOM     48  C   UNL     1      -3.664  -0.559  10.867  1.00  0.00     0.049 A 
ATOM     49  N   UNL     1      -2.053   0.096  13.329  1.00  0.00    -0.248 NA
ATOM     50  C   UNL     1      -0.475   1.136  11.961  1.00  0.00     0.031 C 
ATOM     51  C   UNL     1      -4.453  -0.958   9.700  1.00  0.00     0.029 A 
ATOM     52  N   UNL     1      -4.381  -1.038  11.933  1.00  0.00    -0.354 N 
ATOM     53  C   UNL     1      -0.995   0.548  14.109  1.00  0.00     0.074 A 
ATOM     54  C   UNL     1      -0.024   1.130  13.207  1.00  0.00     0.031 C 
ATOM     55  C   UNL     1      -5.556  -1.603  10.115  1.00  0.00     0.029 A 
ATOM     56  C   UNL     1      -5.541  -1.681  11.573  1.00  0.00     0.049 A 
ATOM     57  H   UNL     1      -4.093  -0.931  12.868  1.00  0.00     0.167 HD
ATOM     58  C   UNL     1      -0.853   0.503  15.455  1.00  0.00     0.037 A 
ATOM     59  C   UNL     1      -6.488  -2.261  12.334  1.00  0.00     0.037 A 
ATOM     60  C   UNL     1      -1.844  -0.029  16.352  1.00  0.00     0.049 A 
ATOM     61  C   UNL     1      -6.348  -2.231  13.830  1.00  0.00     0.074 A 
ATOM     62  C   UNL     1      -1.829  -0.061  17.735  1.00  0.00     0.029 A 
ATOM     63  N   UNL     1      -3.037  -0.612  15.951  1.00  0.00    -0.354 N 
ATOM     64  N   UNL     1      -5.367  -1.747  14.555  1.00  0.00    -0.248 NA
ATOM     65  C   UNL     1      -7.448  -2.810  14.613  1.00  0.00     0.031 C 
ATOM     66  C   UNL     1      -3.008  -0.678  18.171  1.00  0.00     0.029 A 
ATOM     67  C   UNL     1      -3.767  -1.007  17.059  1.00  0.00     0.049 A 
ATOM     68  H   UNL     1      -3.323  -0.728  15.016  1.00  0.00     0.167 HD
ATOM     69  C   UNL     1      -5.739  -1.947  15.879  1.00  0.00     0.074 A 
ATOM     70  C   UNL     1      -7.040  -2.585  15.855  1.00  0.00     0.031 C 
ATOM     71  C   UNL     1      -5.065  -1.632  17.012  1.00  0.00     0.037 A 
BRANCH  58  72
ATOM     72  C   UNL     1       0.421   1.052  16.032  1.00  0.00     0.058 A 
ATOM     73  C   UNL     1       0.676   2.433  16.068  1.00  0.00     0.135 A 
ATOM     74  C   UNL     1       1.399   0.191  16.554  1.00  0.00     0.135 A 
ATOM     75  F   UNL     1      -0.219   3.298  15.566  1.00  0.00    -0.206 F 
ATOM     76  C   UNL     1       1.872   2.938  16.566  1.00  0.00     0.059 A 
ATOM     77  C   UNL     1       2.594   0.677  17.079  1.00  0.00     0.059 A 
ATOM     78  F   UNL     1       1.206  -1.137  16.544  1.00  0.00    -0.206 F 
ATOM     79  C   UNL     1       2.829   2.051  17.062  1.00  0.00     0.060 A 
BRANCH  79  80
ATOM     80  S   UNL     1       4.386   2.715  17.689  1.00  0.00     0.124 S 
ATOM     81  O   UNL     1       5.116   2.962  16.450  1.00  0.00    -0.237 OA
ATOM     82  O   UNL     1       3.955   3.905  18.417  1.00  0.00    -0.237 OA
ATOM     83  O   UNL     1       4.905   1.632  18.519  1.00  0.00    -0.744 OA
ENDBRANCH  79  80
ENDBRANCH  58  72
BRANCH  59  84
ATOM     84  C   UNL     1      -7.676  -2.876  11.689  1.00  0.00     0.058 A 
ATOM     85  C   UNL     1      -8.919  -2.228  11.709  1.00  0.00     0.135 A 
ATOM     86  C   UNL     1      -7.585  -4.102  11.013  1.00  0.00     0.135 A 
ATOM     87  F   UNL     1      -9.053  -1.055  12.347  1.00  0.00    -0.206 F 
ATOM     88  C   UNL     1     -10.036  -2.777  11.090  1.00  0.00     0.059 A 
ATOM     89  C   UNL     1      -8.685  -4.663  10.371  1.00  0.00     0.059 A 
ATOM     90  F   UNL     1      -6.412  -4.751  10.952  1.00  0.00    -0.206 F 
ATOM     91  C   UNL     1      -9.909  -3.996  10.421  1.00  0.00     0.060 A 
BRANCH  91  92
ATOM     92  S   UNL     1     -11.349  -4.673   9.566  1.00  0.00     0.124 S 
ATOM     93  O   UNL     1     -12.109  -5.238  10.674  1.00  0.00    -0.237 OA
ATOM     94  O   UNL     1     -11.923  -3.487   8.938  1.00  0.00    -0.237 OA
ATOM     95  O   UNL     1     -10.763  -5.639   8.642  1.00  0.00    -0.744 OA
ENDBRANCH  91  92
ENDBRANCH  59  84
BRANCH  71  96
ATOM     96  C   UNL     1      -5.734  -1.948  18.317  1.00  0.00     0.058 A 
ATOM     97  C   UNL     1      -5.780  -3.257  18.818  1.00  0.00     0.135 A 
ATOM     98  C   UNL     1      -6.300  -0.924  19.092  1.00  0.00     0.135 A 
ATOM     99  F   UNL     1      -5.257  -4.271  18.109  1.00  0.00    -0.206 F 
ATOM    100  C   UNL     1      -6.383  -3.545  20.038  1.00  0.00     0.059 A 
ATOM    101  C   UNL     1      -6.891  -1.186  20.323  1.00  0.00     0.059 A 
ATOM    102  F   UNL     1      -6.272   0.346  18.658  1.00  0.00    -0.206 F 
ATOM    103  C   UNL     1      -6.939  -2.503  20.782  1.00  0.00     0.060 A 
BRANCH 103 104
ATOM    104  S   UNL     1      -7.696  -2.878  22.377  1.00  0.00     0.124 S 
ATOM    105  O   UNL     1      -9.003  -3.383  21.970  1.00  0.00    -0.237 OA
ATOM    106  O   UNL     1      -6.781  -3.867  22.939  1.00  0.00    -0.237 OA
ATOM    107  O   UNL     1      -7.704  -1.586  23.058  1.00  0.00    -0.744 OA
ENDBRANCH 103 104
ENDBRANCH  71  96
ENDBRANCH  45  46
ENDBRANCH  37  40
ENDBRANCH  35  36
ENDBRANCH   1  35
TORSDOF 17
