REMARK SMILES CC[NH2+][C@@]1(C(=O)NCCCNC(=O)c2ccc(-c3c4nc(c(-c5c(F)cc(S(=O)(=O)[O-])cc5F)c5ccc([nH]5)c(-c5c(F)cc(S(=O)(=O)[O-])cc5F)c5nc(c(-c6c(F)cc(S(=O)(=O)[O-])cc6F)c6ccc3[nH]6)C=C5)C=C4)cc2)CC[C@H]([NH+]2CCC(C(C)(C)C)CC2)C1
REMARK SMILES IDX 9 1 8 2 7 3 5 4 6 5 4 7 80 8 93 9 81 10 82 11 3 12 2 15 1 16
REMARK SMILES IDX 83 17 84 18 92 19 85 21 91 22 86 23 87 24 88 25 89 26 90 27
REMARK SMILES IDX 10 28 11 29 12 30 13 32 14 33 15 34 79 35 16 36 78 37 17 38
REMARK SMILES IDX 18 39 19 40 72 41 20 42 77 43 71 44 73 45 21 46 76 47 70 48
REMARK SMILES IDX 69 49 22 51 56 52 35 53 55 54 36 55 39 56 54 57 74 58 37 59
REMARK SMILES IDX 38 60 53 62 75 63 40 64 23 65 24 66 33 67 25 68 26 69 32 70
REMARK SMILES IDX 34 71 27 72 28 73 29 74 30 75 31 76 57 77 58 78 67 79 59 80
REMARK SMILES IDX 60 81 66 82 68 83 61 84 62 85 63 86 64 87 65 88 41 89 42 90
REMARK SMILES IDX 51 91 43 92 44 93 50 94 52 95 45 96 46 97 47 98 48 99 49 100
REMARK H PARENT 7 6 3 13 3 14 83 20 11 31 73 50 39 61
REMARK Flexibility Score: inf
ROOT
ATOM      1  C   UNL     1       0.375   0.825   6.737  1.00  0.00     0.042 C 
ENDROOT
BRANCH   1   2
ATOM      2  C   UNL     1       1.545   1.049   5.772  1.00  0.00     0.118 C 
BRANCH   2   3
ATOM      3  N   UNL     1       1.065   1.092   4.378  1.00  0.00    -0.351 N 
ATOM      4  C   UNL     1       1.450   2.083   3.490  1.00  0.00     0.281 C 
ATOM      5  O   UNL     1       2.546   2.636   3.616  1.00  0.00    -0.268 OA
ATOM      6  H   UNL     1       0.449   0.390   4.067  1.00  0.00     0.163 HD
BRANCH   4   7
ATOM      7  C   UNL     1       0.462   2.442   2.284  1.00  0.00     0.181 C 
ATOM      8  C   UNL     1       0.693   3.903   1.794  1.00  0.00     0.085 C 
ATOM      9  C   UNL     1      -1.058   2.446   2.584  1.00  0.00     0.144 C 
ATOM     10  C   UNL     1      -0.521   4.761   2.180  1.00  0.00     0.072 C 
ATOM     11  C   UNL     1      -1.478   3.897   2.999  1.00  0.00     0.191 C 
BRANCH   7  12
ATOM     12  N   UNL     1       0.877   1.607   1.129  1.00  0.00    -0.334 N 
ATOM     13  H   UNL     1       0.511   2.051   0.286  1.00  0.00     0.347 HD
ATOM     14  H   UNL     1       1.893   1.561   1.199  1.00  0.00     0.347 HD
BRANCH  12  15
ATOM     15  C   UNL     1       0.452   0.220   1.104  1.00  0.00     0.257 C 
ATOM     16  C   UNL     1       1.009  -0.414  -0.166  1.00  0.00     0.071 C 
ENDBRANCH  12  15
ENDBRANCH   7  12
BRANCH  11  17
ATOM     17  N   UNL     1      -1.626   4.173   4.437  1.00  0.00    -0.332 N 
ATOM     18  C   UNL     1      -2.012   5.503   4.903  1.00  0.00     0.262 C 
ATOM     19  C   UNL     1      -0.623   3.654   5.322  1.00  0.00     0.262 C 
ATOM     20  H   UNL     1      -2.470   3.605   4.501  1.00  0.00     0.348 HD
ATOM     21  C   UNL     1      -0.864   6.477   5.280  1.00  0.00     0.066 C 
ATOM     22  C   UNL     1       0.651   4.462   5.292  1.00  0.00     0.066 C 
ATOM     23  C   UNL     1       0.431   5.846   5.869  1.00  0.00     0.005 C 
BRANCH  23  24
ATOM     24  C   UNL     1       1.738   6.722   5.746  1.00  0.00    -0.035 C 
ATOM     25  C   UNL     1       1.608   7.928   6.689  1.00  0.00     0.011 C 
ATOM     26  C   UNL     1       3.003   5.931   6.173  1.00  0.00     0.011 C 
ATOM     27  C   UNL     1       2.001   7.224   4.310  1.00  0.00     0.011 C 
ENDBRANCH  23  24
ENDBRANCH  11  17
ENDBRANCH   4   7
ENDBRANCH   2   3
ENDBRANCH   1   2
BRANCH   1  28
ATOM     28  C   UNL     1       0.582   1.183   8.206  1.00  0.00     0.118 C 
BRANCH  28  29
ATOM     29  N   UNL     1       0.818   2.580   8.572  1.00  0.00    -0.352 N 
ATOM     30  C   UNL     1       0.422   3.270   9.716  1.00  0.00     0.251 C 
ATOM     31  H   UNL     1       1.329   3.108   7.917  1.00  0.00     0.163 HD
ATOM     32  O   UNL     1       0.777   4.439   9.871  1.00  0.00    -0.269 OA
BRANCH  30  33
ATOM     33  C   UNL     1      -0.471   2.635  10.727  1.00  0.00     0.039 A 
ATOM     34  C   UNL     1      -1.457   3.383  11.386  1.00  0.00     0.014 A 
ATOM     35  C   UNL     1      -0.384   1.274  10.987  1.00  0.00     0.014 A 
ATOM     36  C   UNL     1      -2.411   2.736  12.191  1.00  0.00     0.010 A 
ATOM     37  C   UNL     1      -1.431   0.619  11.614  1.00  0.00     0.010 A 
ATOM     38  C   UNL     1      -2.444   1.335  12.262  1.00  0.00    -0.014 A 
BRANCH  38  39
ATOM     39  C   UNL     1      -3.452   0.560  13.044  1.00  0.00     0.031 A 
ATOM     40  C   UNL     1      -2.970  -0.481  14.033  1.00  0.00     0.074 A 
ATOM     41  C   UNL     1      -4.771   0.683  12.787  1.00  0.00     0.049 A 
ATOM     42  N   UNL     1      -3.640  -1.421  14.649  1.00  0.00    -0.248 NA
ATOM     43  C   UNL     1      -1.520  -0.523  14.297  1.00  0.00     0.031 C 
ATOM     44  C   UNL     1      -5.370   1.586  11.801  1.00  0.00     0.029 A 
ATOM     45  N   UNL     1      -5.852   0.032  13.329  1.00  0.00    -0.354 N 
ATOM     46  C   UNL     1      -2.687  -2.190  15.311  1.00  0.00     0.074 A 
ATOM     47  C   UNL     1      -1.392  -1.675  14.934  1.00  0.00     0.031 C 
ATOM     48  C   UNL     1      -6.707   1.468  11.846  1.00  0.00     0.029 A 
ATOM     49  C   UNL     1      -7.063   0.451  12.829  1.00  0.00     0.049 A 
ATOM     50  H   UNL     1      -5.768  -0.671  14.014  1.00  0.00     0.167 HD
ATOM     51  C   UNL     1      -2.866  -3.196  16.201  1.00  0.00     0.037 A 
ATOM     52  C   UNL     1      -8.317   0.063  13.138  1.00  0.00     0.037 A 
ATOM     53  C   UNL     1      -4.163  -3.628  16.647  1.00  0.00     0.049 A 
ATOM     54  C   UNL     1      -8.504  -0.998  14.191  1.00  0.00     0.074 A 
ATOM     55  C   UNL     1      -4.477  -4.573  17.605  1.00  0.00     0.029 A 
ATOM     56  N   UNL     1      -5.364  -3.112  16.179  1.00  0.00    -0.354 N 
ATOM     57  N   UNL     1      -7.593  -1.683  14.843  1.00  0.00    -0.248 NA
ATOM     58  C   UNL     1      -9.886  -1.329  14.562  1.00  0.00     0.031 C 
ATOM     59  C   UNL     1      -5.871  -4.648  17.698  1.00  0.00     0.029 A 
ATOM     60  C   UNL     1      -6.423  -3.716  16.832  1.00  0.00     0.049 A 
ATOM     61  H   UNL     1      -5.449  -2.420  15.485  1.00  0.00     0.167 HD
ATOM     62  C   UNL     1      -8.290  -2.496  15.731  1.00  0.00     0.074 A 
ATOM     63  C   UNL     1      -9.697  -2.212  15.534  1.00  0.00     0.031 C 
ATOM     64  C   UNL     1      -7.813  -3.394  16.629  1.00  0.00     0.037 A 
BRANCH  51  65
ATOM     65  C   UNL     1      -1.635  -3.853  16.773  1.00  0.00     0.058 A 
ATOM     66  C   UNL     1      -0.733  -3.150  17.593  1.00  0.00     0.135 A 
ATOM     67  C   UNL     1      -1.341  -5.197  16.492  1.00  0.00     0.135 A 
ATOM     68  F   UNL     1      -0.951  -1.858  17.887  1.00  0.00    -0.206 F 
ATOM     69  C   UNL     1       0.439  -3.735  18.061  1.00  0.00     0.059 A 
ATOM     70  C   UNL     1      -0.193  -5.815  16.984  1.00  0.00     0.059 A 
ATOM     71  F   UNL     1      -2.165  -5.923  15.720  1.00  0.00    -0.206 F 
ATOM     72  C   UNL     1       0.703  -5.068  17.747  1.00  0.00     0.060 A 
BRANCH  72  73
ATOM     73  S   UNL     1       2.235  -5.806  18.351  1.00  0.00     0.124 S 
ATOM     74  O   UNL     1       3.223  -5.177  17.479  1.00  0.00    -0.237 OA
ATOM     75  O   UNL     1       2.259  -5.379  19.746  1.00  0.00    -0.237 OA
ATOM     76  O   UNL     1       2.030  -7.235  18.139  1.00  0.00    -0.744 OA
ENDBRANCH  72  73
ENDBRANCH  51  65
BRANCH  52  77
ATOM     77  C   UNL     1      -9.487   0.734  12.505  1.00  0.00     0.058 A 
ATOM     78  C   UNL     1     -10.302   1.602  13.249  1.00  0.00     0.135 A 
ATOM     79  C   UNL     1      -9.804   0.548  11.150  1.00  0.00     0.135 A 
ATOM     80  F   UNL     1     -10.045   1.812  14.549  1.00  0.00    -0.206 F 
ATOM     81  C   UNL     1     -11.398   2.246  12.682  1.00  0.00     0.059 A 
ATOM     82  C   UNL     1     -10.880   1.202  10.553  1.00  0.00     0.059 A 
ATOM     83  F   UNL     1      -9.047  -0.255  10.387  1.00  0.00    -0.206 F 
ATOM     84  C   UNL     1     -11.677   2.042  11.330  1.00  0.00     0.060 A 
BRANCH  84  85
ATOM     85  S   UNL     1     -13.071   2.925  10.593  1.00  0.00     0.124 S 
ATOM     86  O   UNL     1     -14.207   2.228  11.185  1.00  0.00    -0.237 OA
ATOM     87  O   UNL     1     -12.848   4.291  11.057  1.00  0.00    -0.237 OA
ATOM     88  O   UNL     1     -12.880   2.718   9.161  1.00  0.00    -0.744 OA
ENDBRANCH  84  85
ENDBRANCH  52  77
BRANCH  64  89
ATOM     89  C   UNL     1      -8.815  -4.085  17.509  1.00  0.00     0.058 A 
ATOM     90  C   UNL     1      -9.676  -5.076  17.016  1.00  0.00     0.135 A 
ATOM     91  C   UNL     1      -8.873  -3.784  18.880  1.00  0.00     0.135 A 
ATOM     92  F   UNL     1      -9.659  -5.400  15.713  1.00  0.00    -0.206 F 
ATOM     93  C   UNL     1     -10.586  -5.721  17.846  1.00  0.00     0.059 A 
ATOM     94  C   UNL     1      -9.753  -4.438  19.733  1.00  0.00     0.059 A 
ATOM     95  F   UNL     1      -8.057  -2.854  19.404  1.00  0.00    -0.206 F 
ATOM     96  C   UNL     1     -10.617  -5.395  19.203  1.00  0.00     0.060 A 
BRANCH  96  97
ATOM     97  S   UNL     1     -11.789  -6.254  20.273  1.00  0.00     0.124 S 
ATOM     98  O   UNL     1     -13.049  -5.628  19.889  1.00  0.00    -0.237 OA
ATOM     99  O   UNL     1     -11.622  -7.646  19.865  1.00  0.00    -0.237 OA
ATOM    100  O   UNL     1     -11.315  -5.940  21.617  1.00  0.00    -0.744 OA
ENDBRANCH  96  97
ENDBRANCH  64  89
ENDBRANCH  38  39
ENDBRANCH  30  33
ENDBRANCH  28  29
ENDBRANCH   1  28
TORSDOF 17
