REMARK SMILES CC(C)c1cccc2c1N[C@H](c1ccc(C(=O)NCCCNC(=O)c3ccc(-c4c5nc(c(-c6c(F)cc(S(=O)(=O)[O-])cc6F)c6ccc([nH]6)c(-c6c(F)cc(S(=O)(=O)[O-])cc6F)c6nc(c(-c7c(F)cc(S(=O)(=O)[O-])cc7F)c7ccc4[nH]7)C=C6)C=C5)cc3)cc1)[C@H]1CC=C[C@H]21
REMARK SMILES IDX 20 1 19 2 18 3 16 4 17 5 15 7 12 8 13 9 92 10 14 11 91 12
REMARK SMILES IDX 11 13 4 14 5 15 9 16 6 17 8 18 10 19 7 20 97 21 93 23 96 24
REMARK SMILES IDX 94 25 95 26 2 27 1 28 3 29 21 30 22 31 23 32 24 34 25 35
REMARK SMILES IDX 26 36 90 37 27 38 89 39 28 40 29 41 30 42 83 43 31 44 88 45
REMARK SMILES IDX 82 46 84 47 32 48 87 49 81 50 80 51 33 53 67 54 46 55 66 56
REMARK SMILES IDX 47 57 50 58 65 59 85 60 48 61 49 62 64 64 86 65 51 66 34 67
REMARK SMILES IDX 35 68 44 69 36 70 37 71 43 72 45 73 38 74 39 75 40 76 41 77
REMARK SMILES IDX 42 78 68 79 69 80 78 81 70 82 71 83 77 84 79 85 72 86 73 87
REMARK SMILES IDX 74 88 75 89 76 90 52 91 53 92 62 93 54 94 55 95 61 96 63 97
REMARK SMILES IDX 56 98 57 99 58 100 59 101 60 102
REMARK H PARENT 18 6 10 22 22 33 84 52 50 63
REMARK Flexibility Score: inf
ROOT
ATOM      1  C   UNL     1      -1.439   5.733   5.038  1.00  0.00     0.042 C 
ENDROOT
BRANCH   1   2
ATOM      2  C   UNL     1      -1.363   6.316   3.636  1.00  0.00     0.118 C 
BRANCH   2   3
ATOM      3  N   UNL     1      -0.018   6.708   3.222  1.00  0.00    -0.352 N 
ATOM      4  C   UNL     1       0.672   6.419   2.064  1.00  0.00     0.251 C 
ATOM      5  O   UNL     1       1.827   6.812   1.925  1.00  0.00    -0.269 OA
ATOM      6  H   UNL     1       0.471   7.264   3.870  1.00  0.00     0.163 HD
BRANCH   4   7
ATOM      7  C   UNL     1       0.044   5.591   1.010  1.00  0.00     0.039 A 
ATOM      8  C   UNL     1      -1.273   3.663  -0.597  1.00  0.00    -0.025 A 
ATOM      9  C   UNL     1       0.117   3.618  -0.383  1.00  0.00     0.006 A 
ATOM     10  C   UNL     1      -1.911   4.846  -0.188  1.00  0.00     0.006 A 
ATOM     11  C   UNL     1       0.770   4.555   0.431  1.00  0.00     0.014 A 
ATOM     12  C   UNL     1      -1.265   5.803   0.600  1.00  0.00     0.014 A 
BRANCH   8  13
ATOM     13  C   UNL     1      -2.051   2.510  -1.270  1.00  0.00     0.114 C 
ATOM     14  C   UNL     1      -1.034  -1.163  -0.620  1.00  0.00    -0.022 A 
ATOM     15  C   UNL     1      -1.698  -2.396  -0.402  1.00  0.00     0.006 A 
ATOM     16  C   UNL     1      -1.833  -0.028  -0.942  1.00  0.00     0.042 A 
ATOM     17  C   UNL     1      -3.082  -2.524  -0.466  1.00  0.00     0.001 A 
ATOM     18  C   UNL     1      -3.247  -0.175  -0.965  1.00  0.00    -0.017 A 
ATOM     19  N   UNL     1      -1.281   1.237  -1.180  1.00  0.00    -0.377 N 
ATOM     20  C   UNL     1      -3.856  -1.416  -0.746  1.00  0.00     0.006 A 
ATOM     21  C   UNL     1      -4.050   1.023  -1.368  1.00  0.00     0.049 C 
ATOM     22  H   UNL     1      -0.305   1.290  -1.298  1.00  0.00     0.161 HD
ATOM     23  C   UNL     1      -3.460   2.261  -0.680  1.00  0.00     0.031 C 
ATOM     24  C   UNL     1      -5.498   1.141  -0.997  1.00  0.00    -0.023 C 
ATOM     25  C   UNL     1      -4.591   3.287  -0.840  1.00  0.00     0.034 C 
ATOM     26  C   UNL     1      -5.808   2.420  -0.753  1.00  0.00    -0.030 C 
BRANCH  14  27
ATOM     27  C   UNL     1       0.504  -1.136  -0.542  1.00  0.00     0.015 C 
ATOM     28  C   UNL     1       1.060  -0.066   0.405  1.00  0.00     0.012 C 
ATOM     29  C   UNL     1       1.166  -2.468  -0.125  1.00  0.00     0.012 C 
ENDBRANCH  14  27
ENDBRANCH   8  13
ENDBRANCH   4   7
ENDBRANCH   2   3
ENDBRANCH   1   2
BRANCH   1  30
ATOM     30  C   UNL     1      -1.076   6.703   6.151  1.00  0.00     0.118 C 
BRANCH  30  31
ATOM     31  N   UNL     1      -2.051   7.771   6.343  1.00  0.00    -0.352 N 
ATOM     32  C   UNL     1      -3.032   7.968   7.294  1.00  0.00     0.251 C 
ATOM     33  H   UNL     1      -2.000   8.485   5.668  1.00  0.00     0.163 HD
ATOM     34  O   UNL     1      -3.805   8.909   7.160  1.00  0.00    -0.269 OA
BRANCH  32  35
ATOM     35  C   UNL     1      -3.198   7.037   8.438  1.00  0.00     0.039 A 
ATOM     36  C   UNL     1      -2.103   6.480   9.091  1.00  0.00     0.014 A 
ATOM     37  C   UNL     1      -4.489   6.713   8.873  1.00  0.00     0.014 A 
ATOM     38  C   UNL     1      -2.288   5.424   9.977  1.00  0.00     0.010 A 
ATOM     39  C   UNL     1      -4.674   5.740   9.865  1.00  0.00     0.010 A 
ATOM     40  C   UNL     1      -3.576   5.030  10.372  1.00  0.00    -0.014 A 
BRANCH  40  41
ATOM     41  C   UNL     1      -3.735   3.860  11.283  1.00  0.00     0.031 A 
ATOM     42  C   UNL     1      -4.504   2.637  10.839  1.00  0.00     0.074 A 
ATOM     43  C   UNL     1      -3.112   3.857  12.479  1.00  0.00     0.049 A 
ATOM     44  N   UNL     1      -4.724   1.522  11.489  1.00  0.00    -0.248 NA
ATOM     45  C   UNL     1      -5.109   2.670   9.497  1.00  0.00     0.031 C 
ATOM     46  C   UNL     1      -2.326   4.968  13.023  1.00  0.00     0.029 A 
ATOM     47  N   UNL     1      -3.003   2.880  13.437  1.00  0.00    -0.354 N 
ATOM     48  C   UNL     1      -5.509   0.736  10.651  1.00  0.00     0.074 A 
ATOM     49  C   UNL     1      -5.754   1.512   9.456  1.00  0.00     0.031 C 
ATOM     50  C   UNL     1      -1.755   4.585  14.174  1.00  0.00     0.029 A 
ATOM     51  C   UNL     1      -2.195   3.231  14.493  1.00  0.00     0.049 A 
ATOM     52  H   UNL     1      -3.461   2.011  13.374  1.00  0.00     0.167 HD
ATOM     53  C   UNL     1      -5.970  -0.522  10.850  1.00  0.00     0.037 A 
ATOM     54  C   UNL     1      -1.853   2.550  15.604  1.00  0.00     0.037 A 
ATOM     55  C   UNL     1      -5.690  -1.312  12.021  1.00  0.00     0.049 A 
ATOM     56  C   UNL     1      -2.406   1.171  15.818  1.00  0.00     0.074 A 
ATOM     57  C   UNL     1      -6.094  -2.606  12.302  1.00  0.00     0.029 A 
ATOM     58  N   UNL     1      -4.926  -0.889  13.099  1.00  0.00    -0.354 N 
ATOM     59  N   UNL     1      -3.162   0.457  15.019  1.00  0.00    -0.248 NA
ATOM     60  C   UNL     1      -2.081   0.514  17.091  1.00  0.00     0.031 C 
ATOM     61  C   UNL     1      -5.605  -2.953  13.566  1.00  0.00     0.029 A 
ATOM     62  C   UNL     1      -4.865  -1.889  14.056  1.00  0.00     0.049 A 
ATOM     63  H   UNL     1      -4.493  -0.009  13.173  1.00  0.00     0.167 HD
ATOM     64  C   UNL     1      -3.406  -0.733  15.694  1.00  0.00     0.074 A 
ATOM     65  C   UNL     1      -2.695  -0.654  16.954  1.00  0.00     0.031 C 
ATOM     66  C   UNL     1      -4.161  -1.791  15.309  1.00  0.00     0.037 A 
BRANCH  53  67
ATOM     67  C   UNL     1      -6.834  -1.133   9.780  1.00  0.00     0.058 A 
ATOM     68  C   UNL     1      -6.294  -1.586   8.566  1.00  0.00     0.135 A 
ATOM     69  C   UNL     1      -8.209  -1.322   9.996  1.00  0.00     0.135 A 
ATOM     70  F   UNL     1      -4.989  -1.416   8.302  1.00  0.00    -0.206 F 
ATOM     71  C   UNL     1      -7.089  -2.191   7.597  1.00  0.00     0.059 A 
ATOM     72  C   UNL     1      -9.019  -1.945   9.050  1.00  0.00     0.059 A 
ATOM     73  F   UNL     1      -8.777  -0.907  11.139  1.00  0.00    -0.206 F 
ATOM     74  C   UNL     1      -8.451  -2.368   7.849  1.00  0.00     0.060 A 
BRANCH  74  75
ATOM     75  S   UNL     1      -9.465  -3.169   6.587  1.00  0.00     0.124 S 
ATOM     76  O   UNL     1      -9.527  -2.132   5.562  1.00  0.00    -0.237 OA
ATOM     77  O   UNL     1      -8.670  -4.345   6.250  1.00  0.00    -0.237 OA
ATOM     78  O   UNL     1     -10.720  -3.441   7.280  1.00  0.00    -0.744 OA
ENDBRANCH  74  75
ENDBRANCH  53  67
BRANCH  54  79
ATOM     79  C   UNL     1      -0.952   3.178  16.607  1.00  0.00     0.058 A 
ATOM     80  C   UNL     1       0.358   2.715  16.791  1.00  0.00     0.135 A 
ATOM     81  C   UNL     1      -1.373   4.275  17.376  1.00  0.00     0.135 A 
ATOM     82  F   UNL     1       0.804   1.664  16.086  1.00  0.00    -0.206 F 
ATOM     83  C   UNL     1       1.221   3.316  17.702  1.00  0.00     0.059 A 
ATOM     84  C   UNL     1      -0.522   4.908  18.274  1.00  0.00     0.059 A 
ATOM     85  F   UNL     1      -2.615   4.763  17.227  1.00  0.00    -0.206 F 
ATOM     86  C   UNL     1       0.773   4.417  18.435  1.00  0.00     0.060 A 
BRANCH  86  87
ATOM     87  S   UNL     1       1.921   5.232  19.566  1.00  0.00     0.124 S 
ATOM     88  O   UNL     1       1.987   4.271  20.660  1.00  0.00    -0.237 OA
ATOM     89  O   UNL     1       3.123   5.353  18.747  1.00  0.00    -0.237 OA
ATOM     90  O   UNL     1       1.251   6.493  19.871  1.00  0.00    -0.744 OA
ENDBRANCH  86  87
ENDBRANCH  54  79
BRANCH  66  91
ATOM     91  C   UNL     1      -4.266  -2.946  16.262  1.00  0.00     0.058 A 
ATOM     92  C   UNL     1      -5.074  -2.873  17.406  1.00  0.00     0.135 A 
ATOM     93  C   UNL     1      -3.608  -4.158  15.996  1.00  0.00     0.135 A 
ATOM     94  F   UNL     1      -5.716  -1.733  17.708  1.00  0.00    -0.206 F 
ATOM     95  C   UNL     1      -5.219  -3.958  18.263  1.00  0.00     0.059 A 
ATOM     96  C   UNL     1      -3.756  -5.264  16.827  1.00  0.00     0.059 A 
ATOM     97  F   UNL     1      -2.830  -4.280  14.909  1.00  0.00    -0.206 F 
ATOM     98  C   UNL     1      -4.559  -5.152  17.962  1.00  0.00     0.060 A 
BRANCH  98  99
ATOM     99  S   UNL     1      -4.795  -6.567  19.057  1.00  0.00     0.124 S 
ATOM    100  O   UNL     1      -4.015  -6.169  20.225  1.00  0.00    -0.237 OA
ATOM    101  O   UNL     1      -6.244  -6.583  19.238  1.00  0.00    -0.237 OA
ATOM    102  O   UNL     1      -4.252  -7.685  18.291  1.00  0.00    -0.744 OA
ENDBRANCH  98  99
ENDBRANCH  66  91
ENDBRANCH  40  41
ENDBRANCH  32  35
ENDBRANCH  30  31
ENDBRANCH   1  30
TORSDOF 15
