REMARK SMILES CC(C)(O)CC[C@@]1(C(=O)NCCCNC(=O)c2ccc(-c3c4nc(c(-c5c(F)cc(S(=O)(=O)[O-])cc5F)c5ccc([nH]5)c(-c5c(F)cc(S(=O)(=O)[O-])cc5F)c5nc(c(-c6c(F)cc(S(=O)(=O)[O-])cc6F)c6ccc3[nH]6)C=C5)C=C4)cc2)CCc2ccccc21
REMARK SMILES IDX 11 1 10 2 8 3 9 4 7 6 83 7 90 8 84 9 85 10 89 11 86 12 88 13
REMARK SMILES IDX 87 14 6 15 5 16 2 17 1 18 3 19 4 20 12 22 13 23 14 24 15 25
REMARK SMILES IDX 16 27 17 28 18 29 82 30 19 31 81 32 20 33 21 34 22 35 75 36
REMARK SMILES IDX 23 37 80 38 74 39 76 40 24 41 79 42 73 43 72 44 25 46 59 47
REMARK SMILES IDX 38 48 58 49 39 50 42 51 57 52 77 53 40 54 41 55 56 57 78 58
REMARK SMILES IDX 43 59 26 60 27 61 36 62 28 63 29 64 35 65 37 66 30 67 31 68
REMARK SMILES IDX 32 69 33 70 34 71 60 72 61 73 70 74 62 75 63 76 69 77 71 78
REMARK SMILES IDX 64 79 65 80 66 81 67 82 68 83 44 84 45 85 54 86 46 87 47 88
REMARK SMILES IDX 53 89 55 90 48 91 49 92 50 93 51 94 52 95
REMARK H PARENT 10 5 4 21 14 26 76 45 42 56
REMARK Flexibility Score: inf
ROOT
ATOM      1  C   UNL     1       0.808  -1.928  -0.068  1.00  0.00     0.117 C 
ENDROOT
BRANCH   1   2
ATOM      2  N   UNL     1       0.234  -1.723  -1.430  1.00  0.00    -0.355 N 
ATOM      3  C   UNL     1       0.302  -0.887  -2.528  1.00  0.00     0.230 C 
ATOM      4  O   UNL     1      -0.335  -1.313  -3.507  1.00  0.00    -0.274 OA
ATOM      5  H   UNL     1      -0.423  -2.434  -1.610  1.00  0.00     0.163 HD
BRANCH   3   6
ATOM      6  C   UNL     1       1.085   0.471  -2.669  1.00  0.00     0.075 C 
ATOM      7  C   UNL     1       0.408   1.587  -3.558  1.00  0.00     0.026 C 
ATOM      8  C   UNL     1       2.298   0.375  -3.663  1.00  0.00    -0.029 A 
ATOM      9  C   UNL     1       1.493   2.605  -3.917  1.00  0.00     0.037 C 
ATOM     10  C   UNL     1       2.512   1.611  -4.329  1.00  0.00    -0.044 A 
ATOM     11  C   UNL     1       2.867  -0.749  -4.251  1.00  0.00     0.005 A 
ATOM     12  C   UNL     1       3.316   1.782  -5.450  1.00  0.00     0.004 A 
ATOM     13  C   UNL     1       3.627  -0.606  -5.437  1.00  0.00     0.000 A 
ATOM     14  C   UNL     1       3.862   0.648  -6.023  1.00  0.00     0.000 A 
BRANCH   6  15
ATOM     15  C   UNL     1       1.260   1.124  -1.292  1.00  0.00     0.025 C 
BRANCH  15  16
ATOM     16  C   UNL     1       0.003   1.877  -0.702  1.00  0.00     0.036 C 
BRANCH  16  17
ATOM     17  C   UNL     1      -1.493   1.388  -0.827  1.00  0.00     0.059 C 
ATOM     18  C   UNL     1      -2.285   1.598  -2.126  1.00  0.00     0.042 C 
ATOM     19  C   UNL     1      -2.305   2.046   0.294  1.00  0.00     0.042 C 
BRANCH  17  20
ATOM     20  O   UNL     1      -1.540   0.004  -0.598  1.00  0.00    -0.390 OA
ATOM     21  H   UNL     1      -2.456  -0.305  -0.673  1.00  0.00     0.211 HD
ENDBRANCH  17  20
ENDBRANCH  16  17
ENDBRANCH  15  16
ENDBRANCH   6  15
ENDBRANCH   3   6
ENDBRANCH   1   2
BRANCH   1  22
ATOM     22  C   UNL     1       0.259  -1.244   1.233  1.00  0.00     0.042 C 
BRANCH  22  23
ATOM     23  C   UNL     1      -1.227  -1.305   1.671  1.00  0.00     0.118 C 
BRANCH  23  24
ATOM     24  N   UNL     1      -1.625  -2.311   2.634  1.00  0.00    -0.352 N 
ATOM     25  C   UNL     1      -2.669  -2.252   3.546  1.00  0.00     0.251 C 
ATOM     26  H   UNL     1      -1.089  -3.138   2.642  1.00  0.00     0.163 HD
ATOM     27  O   UNL     1      -2.976  -3.267   4.160  1.00  0.00    -0.269 OA
BRANCH  25  28
ATOM     28  C   UNL     1      -3.397  -0.980   3.853  1.00  0.00     0.039 A 
ATOM     29  C   UNL     1      -3.490  -0.600   5.197  1.00  0.00     0.014 A 
ATOM     30  C   UNL     1      -4.060  -0.207   2.892  1.00  0.00     0.014 A 
ATOM     31  C   UNL     1      -4.192   0.558   5.571  1.00  0.00     0.010 A 
ATOM     32  C   UNL     1      -4.736   0.976   3.267  1.00  0.00     0.010 A 
ATOM     33  C   UNL     1      -4.811   1.377   4.612  1.00  0.00    -0.014 A 
BRANCH  33  34
ATOM     34  C   UNL     1      -5.494   2.641   5.050  1.00  0.00     0.031 A 
ATOM     35  C   UNL     1      -6.992   2.811   4.963  1.00  0.00     0.074 A 
ATOM     36  C   UNL     1      -4.764   3.647   5.577  1.00  0.00     0.049 A 
ATOM     37  N   UNL     1      -7.746   3.777   5.432  1.00  0.00    -0.248 NA
ATOM     38  C   UNL     1      -7.739   1.770   4.245  1.00  0.00     0.031 C 
ATOM     39  C   UNL     1      -3.305   3.656   5.687  1.00  0.00     0.029 A 
ATOM     40  N   UNL     1      -5.143   4.846   6.138  1.00  0.00    -0.354 N 
ATOM     41  C   UNL     1      -9.054   3.458   5.078  1.00  0.00     0.074 A 
ATOM     42  C   UNL     1      -8.980   2.237   4.301  1.00  0.00     0.031 C 
ATOM     43  C   UNL     1      -2.917   4.774   6.321  1.00  0.00     0.029 A 
ATOM     44  C   UNL     1      -4.093   5.580   6.642  1.00  0.00     0.049 A 
ATOM     45  H   UNL     1      -6.079   5.151   6.176  1.00  0.00     0.167 HD
ATOM     46  C   UNL     1     -10.210   4.102   5.385  1.00  0.00     0.037 A 
ATOM     47  C   UNL     1      -4.068   6.757   7.301  1.00  0.00     0.037 A 
ATOM     48  C   UNL     1     -10.290   5.323   6.152  1.00  0.00     0.049 A 
ATOM     49  C   UNL     1      -5.358   7.464   7.621  1.00  0.00     0.074 A 
ATOM     50  C   UNL     1     -11.420   6.013   6.561  1.00  0.00     0.029 A 
ATOM     51  N   UNL     1      -9.200   6.050   6.611  1.00  0.00    -0.354 N 
ATOM     52  N   UNL     1      -6.589   7.095   7.356  1.00  0.00    -0.248 NA
ATOM     53  C   UNL     1      -5.255   8.743   8.338  1.00  0.00     0.031 C 
ATOM     54  C   UNL     1     -11.014   7.184   7.211  1.00  0.00     0.029 A 
ATOM     55  C   UNL     1      -9.630   7.197   7.264  1.00  0.00     0.049 A 
ATOM     56  H   UNL     1      -8.258   5.790   6.491  1.00  0.00     0.167 HD
ATOM     57  C   UNL     1      -7.407   8.087   7.891  1.00  0.00     0.074 A 
ATOM     58  C   UNL     1      -6.531   9.059   8.513  1.00  0.00     0.031 C 
ATOM     59  C   UNL     1      -8.761   8.179   7.867  1.00  0.00     0.037 A 
BRANCH  46  60
ATOM     60  C   UNL     1     -11.498   3.498   4.878  1.00  0.00     0.058 A 
ATOM     61  C   UNL     1     -11.986   2.275   5.368  1.00  0.00     0.135 A 
ATOM     62  C   UNL     1     -12.268   4.160   3.906  1.00  0.00     0.135 A 
ATOM     63  F   UNL     1     -11.295   1.596   6.298  1.00  0.00    -0.206 F 
ATOM     64  C   UNL     1     -13.156   1.704   4.875  1.00  0.00     0.059 A 
ATOM     65  C   UNL     1     -13.459   3.623   3.422  1.00  0.00     0.059 A 
ATOM     66  F   UNL     1     -11.863   5.339   3.409  1.00  0.00    -0.206 F 
ATOM     67  C   UNL     1     -13.882   2.382   3.895  1.00  0.00     0.060 A 
BRANCH  67  68
ATOM     68  S   UNL     1     -15.376   1.610   3.238  1.00  0.00     0.124 S 
ATOM     69  O   UNL     1     -14.813   0.531   2.431  1.00  0.00    -0.237 OA
ATOM     70  O   UNL     1     -16.073   1.196   4.451  1.00  0.00    -0.237 OA
ATOM     71  O   UNL     1     -16.014   2.686   2.487  1.00  0.00    -0.744 OA
ENDBRANCH  67  68
ENDBRANCH  46  60
BRANCH  47  72
ATOM     72  C   UNL     1      -2.763   7.325   7.744  1.00  0.00     0.058 A 
ATOM     73  C   UNL     1      -2.412   7.363   9.102  1.00  0.00     0.135 A 
ATOM     74  C   UNL     1      -1.830   7.813   6.816  1.00  0.00     0.135 A 
ATOM     75  F   UNL     1      -3.276   6.925  10.031  1.00  0.00    -0.206 F 
ATOM     76  C   UNL     1      -1.183   7.860   9.525  1.00  0.00     0.059 A 
ATOM     77  C   UNL     1      -0.584   8.290   7.212  1.00  0.00     0.059 A 
ATOM     78  F   UNL     1      -2.113   7.793   5.504  1.00  0.00    -0.206 F 
ATOM     79  C   UNL     1      -0.271   8.311   8.570  1.00  0.00     0.060 A 
BRANCH  79  80
ATOM     80  S   UNL     1       1.355   8.872   9.123  1.00  0.00     0.124 S 
ATOM     81  O   UNL     1       1.028  10.137   9.770  1.00  0.00    -0.237 OA
ATOM     82  O   UNL     1       1.766   7.787  10.009  1.00  0.00    -0.237 OA
ATOM     83  O   UNL     1       2.115   8.976   7.880  1.00  0.00    -0.744 OA
ENDBRANCH  79  80
ENDBRANCH  47  72
BRANCH  59  84
ATOM     84  C   UNL     1      -9.386   9.375   8.541  1.00  0.00     0.058 A 
ATOM     85  C   UNL     1      -9.257  10.672   8.016  1.00  0.00     0.135 A 
ATOM     86  C   UNL     1     -10.139   9.223   9.717  1.00  0.00     0.135 A 
ATOM     87  F   UNL     1      -8.546  10.881   6.897  1.00  0.00    -0.206 F 
ATOM     88  C   UNL     1      -9.817  11.777   8.653  1.00  0.00     0.059 A 
ATOM     89  C   UNL     1     -10.735  10.309  10.354  1.00  0.00     0.059 A 
ATOM     90  F   UNL     1     -10.308   8.006  10.260  1.00  0.00    -0.206 F 
ATOM     91  C   UNL     1     -10.552  11.585   9.824  1.00  0.00     0.060 A 
BRANCH  91  92
ATOM     92  S   UNL     1     -11.276  13.026  10.638  1.00  0.00     0.124 S 
ATOM     93  O   UNL     1     -10.096  13.663  11.213  1.00  0.00    -0.237 OA
ATOM     94  O   UNL     1     -11.899  13.735   9.524  1.00  0.00    -0.237 OA
ATOM     95  O   UNL     1     -12.206  12.443  11.600  1.00  0.00    -0.744 OA
ENDBRANCH  91  92
ENDBRANCH  59  84
ENDBRANCH  33  34
ENDBRANCH  25  28
ENDBRANCH  23  24
ENDBRANCH  22  23
ENDBRANCH   1  22
TORSDOF 17
