REMARK SMILES COc1cccc(-c2c([C@H]3c4ccccc4C(=O)N3CC(=O)NCCCNC(=O)c3ccc(-c4c5nc(c(-c6c(F)cc(S(=O)(=O)[O-])cc6F)c6ccc([nH]6)c(-c6c(F)cc(S(=O)(=O)[O-])cc6F)c6nc(c(-c7c(F)cc(S(=O)(=O)[O-])cc7F)c7ccc4[nH]7)C=C6)C=C5)cc3)c3ccccc3n2C)c1
REMARK SMILES IDX 24 1 23 2 21 3 22 4 20 6 19 7 10 8 11 9 12 10 16 11 17 12
REMARK SMILES IDX 13 13 15 14 18 15 14 16 9 17 8 18 102 19 96 20 101 21 103 22
REMARK SMILES IDX 97 23 100 24 98 25 99 26 7 27 3 28 4 29 104 30 5 31 6 32
REMARK SMILES IDX 2 33 1 34 25 35 26 36 27 37 28 38 29 40 30 41 31 42 95 43
REMARK SMILES IDX 32 44 94 45 33 46 34 47 35 48 88 49 36 50 93 51 87 52 89 53
REMARK SMILES IDX 37 54 92 55 86 56 85 57 38 59 72 60 51 61 71 62 52 63 55 64
REMARK SMILES IDX 70 65 90 66 53 67 54 68 69 70 91 71 56 72 39 73 40 74 49 75
REMARK SMILES IDX 41 76 42 77 48 78 50 79 43 80 44 81 45 82 46 83 47 84 73 85
REMARK SMILES IDX 74 86 83 87 75 88 76 89 82 90 84 91 77 92 78 93 79 94 80 95
REMARK SMILES IDX 81 96 57 97 58 98 67 99 59 100 60 101 66 102 68 103 61 104
REMARK SMILES IDX 62 105 63 106 64 107 65 108
REMARK H PARENT 23 5 27 39 89 58 55 69
REMARK Flexibility Score: inf
ROOT
ATOM      1  C   UNL     1       6.718  -1.015  -2.997  1.00  0.00     0.117 C 
ENDROOT
BRANCH   1   2
ATOM      2  N   UNL     1       7.466  -0.656  -1.804  1.00  0.00    -0.354 N 
ATOM      3  C   UNL     1       7.111  -0.917  -0.511  1.00  0.00     0.239 C 
ATOM      4  O   UNL     1       7.630  -0.267   0.398  1.00  0.00    -0.273 OA
ATOM      5  H   UNL     1       8.314  -0.175  -1.941  1.00  0.00     0.163 HD
BRANCH   3   6
ATOM      6  C   UNL     1       6.120  -2.035  -0.223  1.00  0.00     0.220 C 
BRANCH   6   7
ATOM      7  N   UNL     1       4.704  -1.704  -0.050  1.00  0.00    -0.318 N 
ATOM      8  C   UNL     1       4.088  -2.175   1.181  1.00  0.00     0.150 C 
ATOM      9  C   UNL     1       3.485  -3.467   0.681  1.00  0.00    -0.008 A 
ATOM     10  C   UNL     1       3.535  -4.745   1.212  1.00  0.00     0.007 A 
ATOM     11  C   UNL     1       3.187  -3.315  -0.672  1.00  0.00     0.045 A 
ATOM     12  C   UNL     1       3.862  -2.095  -1.111  1.00  0.00     0.255 C 
ATOM     13  C   UNL     1       3.261  -5.830   0.361  1.00  0.00     0.000 A 
ATOM     14  C   UNL     1       2.860  -4.357  -1.522  1.00  0.00     0.014 A 
ATOM     15  O   UNL     1       3.859  -1.747  -2.275  1.00  0.00    -0.269 OA
ATOM     16  C   UNL     1       2.908  -5.638  -0.989  1.00  0.00     0.001 A 
BRANCH   8  17
ATOM     17  C   UNL     1       2.939  -1.291   1.646  1.00  0.00     0.013 A 
ATOM     18  C   UNL     1       2.177  -1.512   2.801  1.00  0.00     0.055 A 
ATOM     19  N   UNL     1       1.069  -0.693   2.714  1.00  0.00    -0.343 N 
ATOM     20  C   UNL     1       2.495  -0.017   1.135  1.00  0.00     0.006 A 
ATOM     21  C   UNL     1       1.305   0.311   1.794  1.00  0.00     0.049 A 
ATOM     22  C   UNL     1      -0.151  -0.830   3.481  1.00  0.00     0.150 C 
ATOM     23  C   UNL     1       2.986   0.894   0.171  1.00  0.00     0.011 A 
ATOM     24  C   UNL     1       0.575   1.474   1.478  1.00  0.00     0.027 A 
ATOM     25  C   UNL     1       2.282   2.065  -0.130  1.00  0.00     0.001 A 
ATOM     26  C   UNL     1       1.083   2.342   0.509  1.00  0.00     0.002 A 
BRANCH  18  27
ATOM     27  C   UNL     1       2.536  -2.411   3.904  1.00  0.00     0.002 A 
ATOM     28  C   UNL     1       4.388  -3.259   5.247  1.00  0.00     0.119 A 
ATOM     29  C   UNL     1       3.577  -4.308   5.673  1.00  0.00     0.046 A 
ATOM     30  C   UNL     1       3.837  -2.279   4.428  1.00  0.00     0.056 A 
ATOM     31  C   UNL     1       2.249  -4.397   5.241  1.00  0.00     0.005 A 
ATOM     32  C   UNL     1       1.735  -3.464   4.336  1.00  0.00     0.010 A 
BRANCH  28  33
ATOM     33  O   UNL     1       5.695  -3.307   5.648  1.00  0.00    -0.497 OA
ATOM     34  C   UNL     1       6.608  -2.480   4.923  1.00  0.00     0.278 C 
ENDBRANCH  28  33
ENDBRANCH  18  27
ENDBRANCH   8  17
ENDBRANCH   6   7
ENDBRANCH   3   6
ENDBRANCH   1   2
BRANCH   1  35
ATOM     35  C   UNL     1       5.644   0.031  -3.264  1.00  0.00     0.042 C 
BRANCH  35  36
ATOM     36  C   UNL     1       6.205   1.304  -3.859  1.00  0.00     0.118 C 
BRANCH  36  37
ATOM     37  N   UNL     1       6.372   1.156  -5.295  1.00  0.00    -0.352 N 
ATOM     38  C   UNL     1       5.482   1.431  -6.304  1.00  0.00     0.251 C 
ATOM     39  H   UNL     1       7.247   0.810  -5.585  1.00  0.00     0.163 HD
ATOM     40  O   UNL     1       5.631   0.869  -7.388  1.00  0.00    -0.269 OA
BRANCH  38  41
ATOM     41  C   UNL     1       4.369   2.397  -6.117  1.00  0.00     0.039 A 
ATOM     42  C   UNL     1       3.208   2.248  -6.885  1.00  0.00     0.014 A 
ATOM     43  C   UNL     1       4.496   3.513  -5.286  1.00  0.00     0.014 A 
ATOM     44  C   UNL     1       2.194   3.209  -6.820  1.00  0.00     0.010 A 
ATOM     45  C   UNL     1       3.441   4.408  -5.135  1.00  0.00     0.010 A 
ATOM     46  C   UNL     1       2.302   4.298  -5.941  1.00  0.00    -0.014 A 
BRANCH  46  47
ATOM     47  C   UNL     1       1.290   5.386  -5.917  1.00  0.00     0.031 A 
ATOM     48  C   UNL     1       1.699   6.792  -6.288  1.00  0.00     0.074 A 
ATOM     49  C   UNL     1       0.030   5.131  -5.516  1.00  0.00     0.049 A 
ATOM     50  N   UNL     1       1.000   7.897  -6.245  1.00  0.00    -0.248 NA
ATOM     51  C   UNL     1       3.090   6.987  -6.732  1.00  0.00     0.031 C 
ATOM     52  C   UNL     1      -0.473   3.826  -5.083  1.00  0.00     0.029 A 
ATOM     53  N   UNL     1      -1.054   5.962  -5.397  1.00  0.00    -0.354 N 
ATOM     54  C   UNL     1       1.872   8.915  -6.617  1.00  0.00     0.074 A 
ATOM     55  C   UNL     1       3.164   8.306  -6.838  1.00  0.00     0.031 C 
ATOM     56  C   UNL     1      -1.773   3.941  -4.766  1.00  0.00     0.029 A 
ATOM     57  C   UNL     1      -2.186   5.330  -4.940  1.00  0.00     0.049 A 
ATOM     58  H   UNL     1      -1.025   6.921  -5.618  1.00  0.00     0.167 HD
ATOM     59  C   UNL     1       1.616  10.234  -6.785  1.00  0.00     0.037 A 
ATOM     60  C   UNL     1      -3.416   5.817  -4.685  1.00  0.00     0.037 A 
ATOM     61  C   UNL     1       0.314  10.824  -6.626  1.00  0.00     0.049 A 
ATOM     62  C   UNL     1      -3.691   7.276  -4.930  1.00  0.00     0.074 A 
ATOM     63  C   UNL     1      -0.071  12.134  -6.851  1.00  0.00     0.029 A 
ATOM     64  N   UNL     1      -0.819  10.138  -6.213  1.00  0.00    -0.354 N 
ATOM     65  N   UNL     1      -2.868   8.213  -5.338  1.00  0.00    -0.248 NA
ATOM     66  C   UNL     1      -5.063   7.744  -4.689  1.00  0.00     0.031 C 
ATOM     67  C   UNL     1      -1.432  12.246  -6.545  1.00  0.00     0.029 A 
ATOM     68  C   UNL     1      -1.901  10.998  -6.165  1.00  0.00     0.049 A 
ATOM     69  H   UNL     1      -0.848   9.180  -5.987  1.00  0.00     0.167 HD
ATOM     70  C   UNL     1      -3.626   9.375  -5.423  1.00  0.00     0.074 A 
ATOM     71  C   UNL     1      -4.977   9.021  -5.037  1.00  0.00     0.031 C 
ATOM     72  C   UNL     1      -3.240  10.622  -5.787  1.00  0.00     0.037 A 
BRANCH  59  73
ATOM     73  C   UNL     1       2.763  11.127  -7.174  1.00  0.00     0.058 A 
ATOM     74  C   UNL     1       3.333  11.081  -8.456  1.00  0.00     0.135 A 
ATOM     75  C   UNL     1       3.277  12.064  -6.263  1.00  0.00     0.135 A 
ATOM     76  F   UNL     1       2.891  10.193  -9.361  1.00  0.00    -0.206 F 
ATOM     77  C   UNL     1       4.390  11.912  -8.813  1.00  0.00     0.059 A 
ATOM     78  C   UNL     1       4.317  12.924  -6.607  1.00  0.00     0.059 A 
ATOM     79  F   UNL     1       2.770  12.151  -5.023  1.00  0.00    -0.206 F 
ATOM     80  C   UNL     1       4.877  12.829  -7.881  1.00  0.00     0.060 A 
BRANCH  80  81
ATOM     81  S   UNL     1       6.243  13.908  -8.361  1.00  0.00     0.124 S 
ATOM     82  O   UNL     1       7.374  12.986  -8.307  1.00  0.00    -0.237 OA
ATOM     83  O   UNL     1       5.846  14.344  -9.696  1.00  0.00    -0.237 OA
ATOM     84  O   UNL     1       6.232  14.947  -7.336  1.00  0.00    -0.744 OA
ENDBRANCH  80  81
ENDBRANCH  59  73
BRANCH  60  85
ATOM     85  C   UNL     1      -4.484   4.908  -4.193  1.00  0.00     0.058 A 
ATOM     86  C   UNL     1      -5.542   4.522  -5.029  1.00  0.00     0.135 A 
ATOM     87  C   UNL     1      -4.456   4.390  -2.890  1.00  0.00     0.135 A 
ATOM     88  F   UNL     1      -5.614   4.995  -6.282  1.00  0.00    -0.206 F 
ATOM     89  C   UNL     1      -6.545   3.666  -4.585  1.00  0.00     0.059 A 
ATOM     90  C   UNL     1      -5.435   3.514  -2.431  1.00  0.00     0.059 A 
ATOM     91  F   UNL     1      -3.455   4.716  -2.057  1.00  0.00    -0.206 F 
ATOM     92  C   UNL     1      -6.482   3.166  -3.284  1.00  0.00     0.060 A 
BRANCH  92  93
ATOM     93  S   UNL     1      -7.761   2.017  -2.731  1.00  0.00     0.124 S 
ATOM     94  O   UNL     1      -8.884   2.918  -2.497  1.00  0.00    -0.237 OA
ATOM     95  O   UNL     1      -7.889   1.121  -3.876  1.00  0.00    -0.237 OA
ATOM     96  O   UNL     1      -7.176   1.414  -1.536  1.00  0.00    -0.744 OA
ENDBRANCH  92  93
ENDBRANCH  60  85
BRANCH  72  97
ATOM     97  C   UNL     1      -4.295  11.691  -5.814  1.00  0.00     0.058 A 
ATOM     98  C   UNL     1      -4.790  12.263  -4.633  1.00  0.00     0.135 A 
ATOM     99  C   UNL     1      -4.771  12.188  -7.038  1.00  0.00     0.135 A 
ATOM    100  F   UNL     1      -4.369  11.818  -3.438  1.00  0.00    -0.206 F 
ATOM    101  C   UNL     1      -5.739  13.279  -4.663  1.00  0.00     0.059 A 
ATOM    102  C   UNL     1      -5.703  13.219  -7.091  1.00  0.00     0.059 A 
ATOM    103  F   UNL     1      -4.320  11.681  -8.196  1.00  0.00    -0.206 F 
ATOM    104  C   UNL     1      -6.188  13.752  -5.897  1.00  0.00     0.060 A 
BRANCH 104 105
ATOM    105  S   UNL     1      -7.392  15.096  -5.926  1.00  0.00     0.124 S 
ATOM    106  O   UNL     1      -8.624  14.395  -5.581  1.00  0.00    -0.237 OA
ATOM    107  O   UNL     1      -6.874  16.005  -4.907  1.00  0.00    -0.237 OA
ATOM    108  O   UNL     1      -7.314  15.593  -7.296  1.00  0.00    -0.744 OA
ENDBRANCH 104 105
ENDBRANCH  72  97
ENDBRANCH  46  47
ENDBRANCH  38  41
ENDBRANCH  36  37
ENDBRANCH  35  36
ENDBRANCH   1  35
TORSDOF 17
