REMARK SMILES Cn1c(-c2ccccc2)c(C(=O)NCCCNC(=O)c2ccc(-c3c4nc(c(-c5c(F)cc(S(=O)(=O)[O-])cc5F)c5ccc([nH]5)c(-c5c(F)cc(S(=O)(=O)[O-])cc5F)c5nc(c(-c6c(F)cc(S(=O)(=O)[O-])cc6F)c6ccc3[nH]6)C=C5)C=C4)cc2)c2ccccc21
REMARK SMILES IDX 16 1 15 2 14 3 13 4 11 5 12 6 10 8 1 9 2 10 3 11 91 12 86 13
REMARK SMILES IDX 90 14 87 15 89 16 88 17 4 18 5 19 9 20 6 21 8 22 7 23 17 24
REMARK SMILES IDX 18 25 19 27 20 28 21 29 85 30 22 31 84 32 23 33 24 34 25 35
REMARK SMILES IDX 78 36 26 37 83 38 77 39 79 40 27 41 82 42 76 43 75 44 28 46
REMARK SMILES IDX 62 47 41 48 61 49 42 50 45 51 60 52 80 53 43 54 44 55 59 57
REMARK SMILES IDX 81 58 46 59 29 60 30 61 39 62 31 63 32 64 38 65 40 66 33 67
REMARK SMILES IDX 34 68 35 69 36 70 37 71 63 72 64 73 73 74 65 75 66 76 72 77
REMARK SMILES IDX 74 78 67 79 68 80 69 81 70 82 71 83 47 84 48 85 57 86 49 87
REMARK SMILES IDX 50 88 56 89 58 90 51 91 52 92 53 93 54 94 55 95
REMARK H PARENT 13 7 17 26 79 45 45 56
REMARK Flexibility Score: inf
ROOT
ATOM      1  C   UNL     1       4.127  -5.929   1.283  1.00  0.00     0.118 C 
ENDROOT
BRANCH   1   2
ATOM      2  C   UNL     1       3.771  -4.523   1.720  1.00  0.00     0.042 C 
BRANCH   2   3
ATOM      3  C   UNL     1       3.162  -3.642   0.654  1.00  0.00     0.118 C 
BRANCH   3   4
ATOM      4  N   UNL     1       1.829  -3.930   0.212  1.00  0.00    -0.352 N 
ATOM      5  C   UNL     1       0.872  -3.064  -0.270  1.00  0.00     0.254 C 
ATOM      6  O   UNL     1      -0.146  -3.622  -0.697  1.00  0.00    -0.269 OA
ATOM      7  H   UNL     1       1.561  -4.876   0.261  1.00  0.00     0.163 HD
BRANCH   5   8
ATOM      8  C   UNL     1       0.964  -1.582  -0.239  1.00  0.00     0.073 A 
ATOM      9  C   UNL     1       2.256   1.853  -0.244  1.00  0.00     0.150 C 
ATOM     10  N   UNL     1       1.513   0.606  -0.229  1.00  0.00    -0.343 N 
ATOM     11  C   UNL     1       2.043  -0.675  -0.303  1.00  0.00     0.062 A 
ATOM     12  C   UNL     1       0.140   0.577  -0.141  1.00  0.00     0.049 A 
ATOM     13  C   UNL     1      -0.236  -0.762  -0.153  1.00  0.00     0.013 A 
ATOM     14  C   UNL     1      -0.794   1.625  -0.050  1.00  0.00     0.027 A 
ATOM     15  C   UNL     1      -1.621  -1.055  -0.066  1.00  0.00     0.011 A 
ATOM     16  C   UNL     1      -2.150   1.303   0.027  1.00  0.00     0.002 A 
ATOM     17  C   UNL     1      -2.562  -0.022   0.020  1.00  0.00     0.001 A 
BRANCH  11  18
ATOM     18  C   UNL     1       3.498  -0.866  -0.398  1.00  0.00    -0.001 A 
ATOM     19  C   UNL     1       4.086  -1.425  -1.537  1.00  0.00     0.010 A 
ATOM     20  C   UNL     1       4.307  -0.576   0.719  1.00  0.00     0.010 A 
ATOM     21  C   UNL     1       5.444  -1.768  -1.523  1.00  0.00     0.001 A 
ATOM     22  C   UNL     1       5.658  -0.924   0.731  1.00  0.00     0.001 A 
ATOM     23  C   UNL     1       6.220  -1.538  -0.385  1.00  0.00     0.000 A 
ENDBRANCH  11  18
ENDBRANCH   5   8
ENDBRANCH   3   4
ENDBRANCH   2   3
ENDBRANCH   1   2
BRANCH   1  24
ATOM     24  N   UNL     1       5.135  -6.001   0.228  1.00  0.00    -0.352 N 
ATOM     25  C   UNL     1       6.482  -6.301   0.224  1.00  0.00     0.251 C 
ATOM     26  H   UNL     1       4.779  -5.791  -0.665  1.00  0.00     0.163 HD
ATOM     27  O   UNL     1       7.104  -6.183  -0.824  1.00  0.00    -0.269 OA
BRANCH  25  28
ATOM     28  C   UNL     1       7.200  -6.713   1.457  1.00  0.00     0.039 A 
ATOM     29  C   UNL     1       8.547  -6.357   1.612  1.00  0.00     0.014 A 
ATOM     30  C   UNL     1       6.585  -7.455   2.459  1.00  0.00     0.014 A 
ATOM     31  C   UNL     1       9.222  -6.657   2.802  1.00  0.00     0.010 A 
ATOM     32  C   UNL     1       7.200  -7.612   3.695  1.00  0.00     0.010 A 
ATOM     33  C   UNL     1       8.534  -7.233   3.882  1.00  0.00    -0.014 A 
BRANCH  33  34
ATOM     34  C   UNL     1       9.181  -7.478   5.200  1.00  0.00     0.031 A 
ATOM     35  C   UNL     1       9.187  -8.867   5.793  1.00  0.00     0.074 A 
ATOM     36  C   UNL     1       9.683  -6.442   5.905  1.00  0.00     0.049 A 
ATOM     37  N   UNL     1       9.593  -9.261   6.973  1.00  0.00    -0.248 NA
ATOM     38  C   UNL     1       8.618  -9.948   4.970  1.00  0.00     0.031 C 
ATOM     39  C   UNL     1       9.674  -5.040   5.478  1.00  0.00     0.029 A 
ATOM     40  N   UNL     1      10.289  -6.405   7.136  1.00  0.00    -0.354 N 
ATOM     41  C   UNL     1       9.299 -10.620   7.041  1.00  0.00     0.074 A 
ATOM     42  C   UNL     1       8.615 -10.966   5.817  1.00  0.00     0.031 C 
ATOM     43  C   UNL     1      10.283  -4.290   6.410  1.00  0.00     0.029 A 
ATOM     44  C   UNL     1      10.683  -5.145   7.522  1.00  0.00     0.049 A 
ATOM     45  H   UNL     1      10.429  -7.206   7.691  1.00  0.00     0.167 HD
ATOM     46  C   UNL     1       9.604 -11.509   8.016  1.00  0.00     0.037 A 
ATOM     47  C   UNL     1      11.296  -4.724   8.645  1.00  0.00     0.037 A 
ATOM     48  C   UNL     1      10.333 -11.169   9.209  1.00  0.00     0.049 A 
ATOM     49  C   UNL     1      11.655  -5.734   9.701  1.00  0.00     0.074 A 
ATOM     50  C   UNL     1      10.758 -12.005  10.227  1.00  0.00     0.029 A 
ATOM     51  N   UNL     1      10.753  -9.889   9.540  1.00  0.00    -0.354 N 
ATOM     52  N   UNL     1      11.426  -7.026   9.717  1.00  0.00    -0.248 NA
ATOM     53  C   UNL     1      12.364  -5.233  10.885  1.00  0.00     0.031 C 
ATOM     54  C   UNL     1      11.400 -11.223  11.193  1.00  0.00     0.029 A 
ATOM     55  C   UNL     1      11.420  -9.909  10.753  1.00  0.00     0.049 A 
ATOM     56  H   UNL     1      10.599  -9.085   8.994  1.00  0.00     0.167 HD
ATOM     57  C   UNL     1      11.986  -7.496  10.900  1.00  0.00     0.074 A 
ATOM     58  C   UNL     1      12.579  -6.352  11.563  1.00  0.00     0.031 C 
ATOM     59  C   UNL     1      12.009  -8.759  11.393  1.00  0.00     0.037 A 
BRANCH  46  60
ATOM     60  C   UNL     1       9.168 -12.938   7.821  1.00  0.00     0.058 A 
ATOM     61  C   UNL     1       9.738 -13.754   6.830  1.00  0.00     0.135 A 
ATOM     62  C   UNL     1       8.186 -13.507   8.648  1.00  0.00     0.135 A 
ATOM     63  F   UNL     1      10.669 -13.259   5.998  1.00  0.00    -0.206 F 
ATOM     64  C   UNL     1       9.326 -15.069   6.642  1.00  0.00     0.059 A 
ATOM     65  C   UNL     1       7.782 -14.831   8.499  1.00  0.00     0.059 A 
ATOM     66  F   UNL     1       7.606 -12.775   9.612  1.00  0.00    -0.206 F 
ATOM     67  C   UNL     1       8.346 -15.599   7.482  1.00  0.00     0.060 A 
BRANCH  67  68
ATOM     68  S   UNL     1       7.827 -17.309   7.227  1.00  0.00     0.124 S 
ATOM     69  O   UNL     1       7.045 -17.195   6.000  1.00  0.00    -0.237 OA
ATOM     70  O   UNL     1       9.103 -18.007   7.102  1.00  0.00    -0.237 OA
ATOM     71  O   UNL     1       7.063 -17.616   8.432  1.00  0.00    -0.744 OA
ENDBRANCH  67  68
ENDBRANCH  46  60
BRANCH  47  72
ATOM     72  C   UNL     1      11.645  -3.286   8.810  1.00  0.00     0.058 A 
ATOM     73  C   UNL     1      12.981  -2.860   8.761  1.00  0.00     0.135 A 
ATOM     74  C   UNL     1      10.655  -2.310   9.002  1.00  0.00     0.135 A 
ATOM     75  F   UNL     1      13.964  -3.756   8.584  1.00  0.00    -0.206 F 
ATOM     76  C   UNL     1      13.326  -1.521   8.912  1.00  0.00     0.059 A 
ATOM     77  C   UNL     1      10.974  -0.961   9.129  1.00  0.00     0.059 A 
ATOM     78  F   UNL     1       9.361  -2.661   9.037  1.00  0.00    -0.206 F 
ATOM     79  C   UNL     1      12.314  -0.577   9.093  1.00  0.00     0.060 A 
BRANCH  79  80
ATOM     80  S   UNL     1      12.770   1.165   9.237  1.00  0.00     0.124 S 
ATOM     81  O   UNL     1      13.352   1.207  10.573  1.00  0.00    -0.237 OA
ATOM     82  O   UNL     1      13.703   1.329   8.127  1.00  0.00    -0.237 OA
ATOM     83  O   UNL     1      11.495   1.859   9.081  1.00  0.00    -0.744 OA
ENDBRANCH  79  80
ENDBRANCH  47  72
BRANCH  59  84
ATOM     84  C   UNL     1      12.729  -8.977  12.695  1.00  0.00     0.058 A 
ATOM     85  C   UNL     1      12.203  -8.527  13.915  1.00  0.00     0.135 A 
ATOM     86  C   UNL     1      13.942  -9.685  12.724  1.00  0.00     0.135 A 
ATOM     87  F   UNL     1      11.049  -7.841  13.941  1.00  0.00    -0.206 F 
ATOM     88  C   UNL     1      12.870  -8.742  15.116  1.00  0.00     0.059 A 
ATOM     89  C   UNL     1      14.611  -9.938  13.916  1.00  0.00     0.059 A 
ATOM     90  F   UNL     1      14.482 -10.150  11.586  1.00  0.00    -0.206 F 
ATOM     91  C   UNL     1      14.074  -9.449  15.106  1.00  0.00     0.060 A 
BRANCH  91  92
ATOM     92  S   UNL     1      14.919  -9.739  16.674  1.00  0.00     0.124 S 
ATOM     93  O   UNL     1      15.464  -8.417  16.963  1.00  0.00    -0.237 OA
ATOM     94  O   UNL     1      13.830 -10.179  17.540  1.00  0.00    -0.237 OA
ATOM     95  O   UNL     1      15.903 -10.766  16.345  1.00  0.00    -0.744 OA
ENDBRANCH  91  92
ENDBRANCH  59  84
ENDBRANCH  33  34
ENDBRANCH  25  28
ENDBRANCH   1  24
TORSDOF 14
