REMARK SMILES Cc1cccc(NC(=O)C[C@@H]2CCCCO2)c1C(=O)NCCCNC(=O)c1ccc(-c2c3nc(c(-c4c(F)cc(S(=O)(=O)[O-])cc4F)c4ccc([nH]4)c(-c4c(F)cc(S(=O)(=O)[O-])cc4F)c4nc(c(-c5c(F)cc(S(=O)(=O)[O-])cc5F)c5ccc2[nH]5)C=C4)C=C3)cc1
REMARK SMILES IDX 22 1 21 2 20 3 18 4 19 5 17 7 1 8 2 9 3 10 4 11 6 12 5 13
REMARK SMILES IDX 7 14 8 15 9 17 10 18 11 19 12 20 16 21 13 22 15 23 14 24
REMARK SMILES IDX 23 25 24 26 25 27 26 29 27 30 28 31 92 32 29 33 91 34 30 35
REMARK SMILES IDX 31 36 32 37 85 38 33 39 90 40 84 41 86 42 34 43 89 44 83 45
REMARK SMILES IDX 82 46 35 48 69 49 48 50 68 51 49 52 52 53 67 54 87 55 50 56
REMARK SMILES IDX 51 57 66 59 88 60 53 61 36 62 37 63 46 64 38 65 39 66 45 67
REMARK SMILES IDX 47 68 40 69 41 70 42 71 43 72 44 73 70 74 71 75 80 76 72 77
REMARK SMILES IDX 73 78 79 79 81 80 74 81 75 82 76 83 77 84 78 85 54 86 55 87
REMARK SMILES IDX 64 88 56 89 57 90 63 91 65 92 58 93 59 94 60 95 61 96 62 97
REMARK H PARENT 20 6 7 16 24 28 86 47 52 58
REMARK Flexibility Score: inf
ROOT
ATOM      1  C   UNL     1       4.613  -0.065   0.382  1.00  0.00     0.042 C 
ENDROOT
BRANCH   1   2
ATOM      2  C   UNL     1       3.356   0.649   1.127  1.00  0.00     0.118 C 
BRANCH   2   3
ATOM      3  N   UNL     1       2.505   1.599   0.353  1.00  0.00    -0.352 N 
ATOM      4  C   UNL     1       1.153   1.790   0.127  1.00  0.00     0.253 C 
ATOM      5  O   UNL     1       0.692   2.820  -0.360  1.00  0.00    -0.269 OA
ATOM      6  H   UNL     1       3.049   2.267  -0.124  1.00  0.00     0.163 HD
BRANCH   4   7
ATOM      7  C   UNL     1       0.209   0.735   0.525  1.00  0.00     0.066 A 
ATOM      8  C   UNL     1       1.441  -1.007  -0.846  1.00  0.00     0.045 C 
ATOM      9  C   UNL     1       0.557  -0.606   0.308  1.00  0.00    -0.036 A 
ATOM     10  C   UNL     1      -0.059  -1.582   1.088  1.00  0.00     0.004 A 
ATOM     11  C   UNL     1      -1.097  -1.227   1.947  1.00  0.00     0.002 A 
ATOM     12  C   UNL     1      -1.060   1.024   1.064  1.00  0.00     0.054 A 
ATOM     13  C   UNL     1      -1.639   0.059   1.885  1.00  0.00     0.027 A 
BRANCH  12  14
ATOM     14  N   UNL     1      -1.778   2.170   0.624  1.00  0.00    -0.325 N 
ATOM     15  C   UNL     1      -3.076   2.280   0.159  1.00  0.00     0.227 C 
ATOM     16  H   UNL     1      -1.273   3.014   0.655  1.00  0.00     0.169 HD
ATOM     17  O   UNL     1      -3.497   3.384  -0.204  1.00  0.00    -0.275 OA
BRANCH  15  18
ATOM     18  C   UNL     1      -4.012   1.081   0.072  1.00  0.00     0.132 C 
BRANCH  18  19
ATOM     19  C   UNL     1      -4.302   0.497  -1.331  1.00  0.00     0.127 C 
ATOM     20  C   UNL     1      -4.972  -0.887  -1.231  1.00  0.00     0.033 C 
ATOM     21  O   UNL     1      -3.204   0.379  -2.233  1.00  0.00    -0.378 OA
ATOM     22  C   UNL     1      -3.993  -1.948  -0.728  1.00  0.00     0.005 C 
ATOM     23  C   UNL     1      -2.206  -0.560  -1.866  1.00  0.00     0.160 C 
ATOM     24  C   UNL     1      -2.729  -1.959  -1.577  1.00  0.00     0.029 C 
ENDBRANCH  18  19
ENDBRANCH  15  18
ENDBRANCH  12  14
ENDBRANCH   4   7
ENDBRANCH   2   3
ENDBRANCH   1   2
BRANCH   1  25
ATOM     25  C   UNL     1       6.058   0.558   0.683  1.00  0.00     0.118 C 
BRANCH  25  26
ATOM     26  N   UNL     1       7.427   0.229  -0.019  1.00  0.00    -0.352 N 
ATOM     27  C   UNL     1       8.662   0.969  -0.312  1.00  0.00     0.251 C 
ATOM     28  H   UNL     1       7.465  -0.701  -0.340  1.00  0.00     0.163 HD
ATOM     29  O   UNL     1       9.636   0.578   0.358  1.00  0.00    -0.269 OA
BRANCH  27  30
ATOM     30  C   UNL     1       9.039   2.124  -1.351  1.00  0.00     0.039 A 
ATOM     31  C   UNL     1       9.979   3.149  -1.004  1.00  0.00     0.014 A 
ATOM     32  C   UNL     1       8.450   2.361  -2.582  1.00  0.00     0.014 A 
ATOM     33  C   UNL     1       9.795   4.516  -1.470  1.00  0.00     0.010 A 
ATOM     34  C   UNL     1       8.272   3.702  -3.050  1.00  0.00     0.010 A 
ATOM     35  C   UNL     1       8.728   4.816  -2.330  1.00  0.00    -0.014 A 
BRANCH  35  36
ATOM     36  C   UNL     1       7.947   6.133  -2.357  1.00  0.00     0.031 A 
ATOM     37  C   UNL     1       8.151   7.096  -3.434  1.00  0.00     0.074 A 
ATOM     38  C   UNL     1       6.891   6.547  -1.584  1.00  0.00     0.049 A 
ATOM     39  N   UNL     1       8.355   8.363  -3.268  1.00  0.00    -0.248 NA
ATOM     40  C   UNL     1       8.008   6.671  -4.813  1.00  0.00     0.031 C 
ATOM     41  C   UNL     1       5.969   7.700  -1.651  1.00  0.00     0.029 A 
ATOM     42  N   UNL     1       6.317   5.909  -0.508  1.00  0.00    -0.354 N 
ATOM     43  C   UNL     1       8.041   8.941  -4.480  1.00  0.00     0.074 A 
ATOM     44  C   UNL     1       8.052   7.849  -5.437  1.00  0.00     0.031 C 
ATOM     45  C   UNL     1       5.305   7.827  -0.476  1.00  0.00     0.029 A 
ATOM     46  C   UNL     1       5.792   6.799   0.421  1.00  0.00     0.049 A 
ATOM     47  H   UNL     1       6.282   4.930  -0.408  1.00  0.00     0.167 HD
ATOM     48  C   UNL     1       7.494  10.193  -4.567  1.00  0.00     0.037 A 
ATOM     49  C   UNL     1       6.381   6.882   1.659  1.00  0.00     0.037 A 
ATOM     50  C   UNL     1       7.040  10.697  -3.256  1.00  0.00     0.049 A 
ATOM     51  C   UNL     1       7.150   8.173   1.756  1.00  0.00     0.074 A 
ATOM     52  C   UNL     1       5.790  10.958  -2.706  1.00  0.00     0.029 A 
ATOM     53  N   UNL     1       7.913  10.734  -2.183  1.00  0.00    -0.354 N 
ATOM     54  N   UNL     1       6.956   9.170   0.944  1.00  0.00    -0.248 NA
ATOM     55  C   UNL     1       8.251   8.423   2.683  1.00  0.00     0.031 C 
ATOM     56  C   UNL     1       5.939  11.171  -1.302  1.00  0.00     0.029 A 
ATOM     57  C   UNL     1       7.280  11.061  -0.995  1.00  0.00     0.049 A 
ATOM     58  H   UNL     1       8.877  10.549  -2.256  1.00  0.00     0.167 HD
ATOM     59  C   UNL     1       7.952  10.086   1.090  1.00  0.00     0.074 A 
ATOM     60  C   UNL     1       8.710   9.606   2.234  1.00  0.00     0.031 C 
ATOM     61  C   UNL     1       8.084  11.131   0.222  1.00  0.00     0.037 A 
BRANCH  48  62
ATOM     62  C   UNL     1       7.091  10.820  -5.897  1.00  0.00     0.058 A 
ATOM     63  C   UNL     1       6.179  11.893  -5.974  1.00  0.00     0.135 A 
ATOM     64  C   UNL     1       7.633  10.436  -7.146  1.00  0.00     0.135 A 
ATOM     65  F   UNL     1       5.697  12.486  -4.875  1.00  0.00    -0.206 F 
ATOM     66  C   UNL     1       5.753  12.448  -7.186  1.00  0.00     0.059 A 
ATOM     67  C   UNL     1       7.165  10.914  -8.372  1.00  0.00     0.059 A 
ATOM     68  F   UNL     1       8.709   9.639  -7.227  1.00  0.00    -0.206 F 
ATOM     69  C   UNL     1       6.228  11.932  -8.383  1.00  0.00     0.060 A 
BRANCH  69  70
ATOM     70  S   UNL     1       5.697  12.677  -9.936  1.00  0.00     0.124 S 
ATOM     71  O   UNL     1       4.244  12.573  -9.852  1.00  0.00    -0.237 OA
ATOM     72  O   UNL     1       6.246  14.024  -9.825  1.00  0.00    -0.237 OA
ATOM     73  O   UNL     1       6.322  11.832 -10.951  1.00  0.00    -0.744 OA
ENDBRANCH  69  70
ENDBRANCH  48  62
BRANCH  49  74
ATOM     74  C   UNL     1       6.834   5.542   2.293  1.00  0.00     0.058 A 
ATOM     75  C   UNL     1       5.774   4.651   2.533  1.00  0.00     0.135 A 
ATOM     76  C   UNL     1       7.870   4.940   1.604  1.00  0.00     0.135 A 
ATOM     77  F   UNL     1       5.067   4.746   3.666  1.00  0.00    -0.206 F 
ATOM     78  C   UNL     1       5.396   3.701   1.582  1.00  0.00     0.059 A 
ATOM     79  C   UNL     1       7.518   3.973   0.657  1.00  0.00     0.059 A 
ATOM     80  F   UNL     1       9.068   5.543   1.507  1.00  0.00    -0.206 F 
ATOM     81  C   UNL     1       6.218   3.537   0.486  1.00  0.00     0.060 A 
BRANCH  81  82
ATOM     82  S   UNL     1       5.421   3.058  -1.283  1.00  0.00     0.124 S 
ATOM     83  O   UNL     1       4.033   2.939  -0.879  1.00  0.00    -0.237 OA
ATOM     84  O   UNL     1       5.625   4.172  -2.163  1.00  0.00    -0.237 OA
ATOM     85  O   UNL     1       6.011   1.796  -1.716  1.00  0.00    -0.744 OA
ENDBRANCH  81  82
ENDBRANCH  49  74
BRANCH  61  86
ATOM     86  C   UNL     1       9.028  12.282   0.428  1.00  0.00     0.058 A 
ATOM     87  C   UNL     1       9.356  12.770   1.704  1.00  0.00     0.135 A 
ATOM     88  C   UNL     1       9.534  13.033  -0.659  1.00  0.00     0.135 A 
ATOM     89  F   UNL     1       8.805  12.249   2.812  1.00  0.00    -0.206 F 
ATOM     90  C   UNL     1      10.228  13.840   1.889  1.00  0.00     0.059 A 
ATOM     91  C   UNL     1      10.366  14.130  -0.498  1.00  0.00     0.059 A 
ATOM     92  F   UNL     1       9.246  12.738  -1.932  1.00  0.00    -0.206 F 
ATOM     93  C   UNL     1      10.741  14.503   0.780  1.00  0.00     0.060 A 
BRANCH  93  94
ATOM     94  S   UNL     1      11.876  15.874   1.017  1.00  0.00     0.124 S 
ATOM     95  O   UNL     1      11.235  16.626   2.092  1.00  0.00    -0.237 OA
ATOM     96  O   UNL     1      13.103  15.173   1.380  1.00  0.00    -0.237 OA
ATOM     97  O   UNL     1      11.891  16.537  -0.282  1.00  0.00    -0.744 OA
ENDBRANCH  93  94
ENDBRANCH  61  86
ENDBRANCH  35  36
ENDBRANCH  27  30
ENDBRANCH  25  26
ENDBRANCH   1  25
TORSDOF 16
