REMARK SMILES Cc1ccc(N2CCC[C@@H](Cn3cc(C(=O)NCCCNC(=O)c4ccc(-c5c6nc(c(-c7c(F)cc(S(=O)(=O)[O-])cc7F)c7ccc([nH]7)c(-c7c(F)cc(S(=O)(=O)[O-])cc7F)c7nc(c(-c8c(F)cc(S(=O)(=O)[O-])cc8F)c8ccc5[nH]8)C=C7)C=C6)cc4)nn3)C2)nn1
REMARK SMILES IDX 19 1 18 2 17 3 15 4 16 5 14 7 12 8 13 9 91 10 90 11 11 12
REMARK SMILES IDX 10 13 6 14 7 15 92 16 8 17 9 18 5 19 1 20 2 21 3 22 94 23
REMARK SMILES IDX 4 24 93 25 20 26 21 27 22 28 23 30 24 31 25 32 89 33 26 34
REMARK SMILES IDX 88 35 27 36 28 37 29 38 82 39 30 40 87 41 81 42 83 43 31 44
REMARK SMILES IDX 86 45 80 46 79 47 32 49 66 50 45 51 65 52 46 53 49 54 64 55
REMARK SMILES IDX 84 56 47 57 48 58 63 60 85 61 50 62 33 63 34 64 43 65 35 66
REMARK SMILES IDX 36 67 42 68 44 69 37 70 38 71 39 72 40 73 41 74 67 75 68 76
REMARK SMILES IDX 77 77 69 78 70 79 76 80 78 81 71 82 72 83 73 84 74 85 75 86
REMARK SMILES IDX 51 87 52 88 61 89 53 90 54 91 60 92 62 93 55 94 56 95 57 96
REMARK SMILES IDX 58 97 59 98
REMARK H PARENT 17 6 21 29 83 48 49 59
REMARK Flexibility Score: inf
ROOT
ATOM      1  C   UNL     1      -3.003  -2.572   6.268  1.00  0.00     0.042 C 
ENDROOT
BRANCH   1   2
ATOM      2  C   UNL     1      -1.901  -3.579   6.605  1.00  0.00     0.118 C 
BRANCH   2   3
ATOM      3  N   UNL     1      -2.236  -4.432   7.732  1.00  0.00    -0.351 N 
ATOM      4  C   UNL     1      -2.682  -5.740   7.771  1.00  0.00     0.273 C 
ATOM      5  O   UNL     1      -2.676  -6.306   8.856  1.00  0.00    -0.267 OA
ATOM      6  H   UNL     1      -2.128  -4.008   8.614  1.00  0.00     0.163 HD
BRANCH   4   7
ATOM      7  C   UNL     1      -3.081  -6.421   6.541  1.00  0.00     0.170 A 
ATOM      8  N   UNL     1      -3.521  -6.966   4.500  1.00  0.00    -0.251 N 
ATOM      9  C   UNL     1      -3.614  -5.921   5.369  1.00  0.00     0.145 A 
ATOM     10  N   UNL     1      -3.239  -8.108   5.140  1.00  0.00    -0.067 NA
ATOM     11  N   UNL     1      -2.941  -7.787   6.392  1.00  0.00    -0.125 NA
BRANCH   8  12
ATOM     12  C   UNL     1      -3.450  -6.900   3.056  1.00  0.00     0.151 C 
BRANCH  12  13
ATOM     13  C   UNL     1      -2.044  -6.568   2.510  1.00  0.00     0.030 C 
ATOM     14  N   UNL     1      -0.283  -4.929   2.330  1.00  0.00    -0.355 N 
ATOM     15  C   UNL     1       0.782  -5.777   2.845  1.00  0.00     0.118 C 
ATOM     16  C   UNL     1      -1.598  -5.147   2.897  1.00  0.00     0.123 C 
ATOM     17  C   UNL     1       0.441  -7.213   2.457  1.00  0.00     0.022 C 
ATOM     18  C   UNL     1      -0.969  -7.603   2.921  1.00  0.00     0.009 C 
BRANCH  14  19
ATOM     19  C   UNL     1       0.035  -3.681   1.835  1.00  0.00     0.151 A 
ATOM     20  C   UNL     1       0.822   0.119   0.134  1.00  0.00     0.069 C 
ATOM     21  C   UNL     1       0.558  -1.234   0.713  1.00  0.00     0.060 A 
ATOM     22  C   UNL     1       1.013  -2.371   0.070  1.00  0.00     0.029 A 
ATOM     23  N   UNL     1      -0.140  -1.318   1.864  1.00  0.00    -0.154 NA
ATOM     24  C   UNL     1       0.759  -3.605   0.652  1.00  0.00     0.051 A 
ATOM     25  N   UNL     1      -0.419  -2.551   2.414  1.00  0.00    -0.133 NA
ENDBRANCH  14  19
ENDBRANCH  12  13
ENDBRANCH   8  12
ENDBRANCH   4   7
ENDBRANCH   2   3
ENDBRANCH   1   2
BRANCH   1  26
ATOM     26  C   UNL     1      -2.951  -1.357   7.181  1.00  0.00     0.118 C 
BRANCH  26  27
ATOM     27  N   UNL     1      -1.778  -0.533   6.912  1.00  0.00    -0.352 N 
ATOM     28  C   UNL     1      -1.331   0.585   7.579  1.00  0.00     0.251 C 
ATOM     29  H   UNL     1      -1.228  -0.816   6.146  1.00  0.00     0.163 HD
ATOM     30  O   UNL     1      -0.549   1.349   7.021  1.00  0.00    -0.269 OA
BRANCH  28  31
ATOM     31  C   UNL     1      -1.805   0.873   8.945  1.00  0.00     0.039 A 
ATOM     32  C   UNL     1      -2.015   2.198   9.335  1.00  0.00     0.014 A 
ATOM     33  C   UNL     1      -2.013  -0.170   9.851  1.00  0.00     0.014 A 
ATOM     34  C   UNL     1      -2.498   2.458  10.611  1.00  0.00     0.010 A 
ATOM     35  C   UNL     1      -2.594   0.077  11.076  1.00  0.00     0.010 A 
ATOM     36  C   UNL     1      -2.808   1.391  11.470  1.00  0.00    -0.014 A 
BRANCH  36  37
ATOM     37  C   UNL     1      -3.465   1.663  12.741  1.00  0.00     0.031 A 
ATOM     38  C   UNL     1      -4.741   2.413  12.625  1.00  0.00     0.074 A 
ATOM     39  C   UNL     1      -3.067   1.169  13.929  1.00  0.00     0.049 A 
ATOM     40  N   UNL     1      -4.940   3.657  12.902  1.00  0.00    -0.248 NA
ATOM     41  C   UNL     1      -5.888   1.753  11.985  1.00  0.00     0.031 C 
ATOM     42  C   UNL     1      -2.028   0.178  14.212  1.00  0.00     0.029 A 
ATOM     43  N   UNL     1      -3.592   1.419  15.159  1.00  0.00    -0.354 N 
ATOM     44  C   UNL     1      -6.296   3.886  12.694  1.00  0.00     0.074 A 
ATOM     45  C   UNL     1      -6.778   2.749  11.954  1.00  0.00     0.031 C 
ATOM     46  C   UNL     1      -2.139  -0.235  15.495  1.00  0.00     0.029 A 
ATOM     47  C   UNL     1      -3.147   0.570  16.163  1.00  0.00     0.049 A 
ATOM     48  H   UNL     1      -4.237   2.145  15.325  1.00  0.00     0.167 HD
ATOM     49  C   UNL     1      -6.946   4.888  13.352  1.00  0.00     0.037 A 
ATOM     50  C   UNL     1      -3.594   0.527  17.444  1.00  0.00     0.037 A 
ATOM     51  C   UNL     1      -6.004   5.813  13.940  1.00  0.00     0.049 A 
ATOM     52  C   UNL     1      -4.181   1.865  17.732  1.00  0.00     0.074 A 
ATOM     53  C   UNL     1      -4.976   6.592  13.442  1.00  0.00     0.029 A 
ATOM     54  N   UNL     1      -5.785   5.735  15.296  1.00  0.00    -0.354 N 
ATOM     55  N   UNL     1      -3.481   2.969  17.784  1.00  0.00    -0.248 NA
ATOM     56  C   UNL     1      -5.607   2.046  17.508  1.00  0.00     0.031 C 
ATOM     57  C   UNL     1      -3.942   6.502  14.420  1.00  0.00     0.029 A 
ATOM     58  C   UNL     1      -4.426   5.742  15.486  1.00  0.00     0.049 A 
ATOM     59  H   UNL     1      -6.473   5.683  15.998  1.00  0.00     0.167 HD
ATOM     60  C   UNL     1      -4.282   3.927  17.178  1.00  0.00     0.074 A 
ATOM     61  C   UNL     1      -5.611   3.322  17.112  1.00  0.00     0.031 C 
ATOM     62  C   UNL     1      -3.746   5.007  16.534  1.00  0.00     0.037 A 
BRANCH  49  63
ATOM     63  C   UNL     1      -8.396   4.846  13.777  1.00  0.00     0.058 A 
ATOM     64  C   UNL     1      -8.971   5.995  14.363  1.00  0.00     0.135 A 
ATOM     65  C   UNL     1      -9.155   3.662  13.898  1.00  0.00     0.135 A 
ATOM     66  F   UNL     1      -8.343   7.181  14.307  1.00  0.00    -0.206 F 
ATOM     67  C   UNL     1     -10.159   5.950  15.092  1.00  0.00     0.059 A 
ATOM     68  C   UNL     1     -10.370   3.607  14.573  1.00  0.00     0.059 A 
ATOM     69  F   UNL     1      -8.718   2.478  13.456  1.00  0.00    -0.206 F 
ATOM     70  C   UNL     1     -10.841   4.744  15.207  1.00  0.00     0.060 A 
BRANCH  70  71
ATOM     71  S   UNL     1     -12.312   4.657  16.241  1.00  0.00     0.124 S 
ATOM     72  O   UNL     1     -11.743   4.851  17.569  1.00  0.00    -0.237 OA
ATOM     73  O   UNL     1     -13.112   5.760  15.719  1.00  0.00    -0.237 OA
ATOM     74  O   UNL     1     -12.837   3.324  15.966  1.00  0.00    -0.744 OA
ENDBRANCH  70  71
ENDBRANCH  49  63
BRANCH  50  75
ATOM     75  C   UNL     1      -3.846  -0.677  18.287  1.00  0.00     0.058 A 
ATOM     76  C   UNL     1      -4.244  -0.549  19.632  1.00  0.00     0.135 A 
ATOM     77  C   UNL     1      -3.980  -1.965  17.728  1.00  0.00     0.135 A 
ATOM     78  F   UNL     1      -4.163   0.639  20.250  1.00  0.00    -0.206 F 
ATOM     79  C   UNL     1      -4.803  -1.612  20.353  1.00  0.00     0.059 A 
ATOM     80  C   UNL     1      -4.522  -3.041  18.430  1.00  0.00     0.059 A 
ATOM     81  F   UNL     1      -3.674  -2.202  16.444  1.00  0.00    -0.206 F 
ATOM     82  C   UNL     1      -4.962  -2.850  19.733  1.00  0.00     0.060 A 
BRANCH  82  83
ATOM     83  S   UNL     1      -5.854  -4.169  20.591  1.00  0.00     0.124 S 
ATOM     84  O   UNL     1      -4.942  -4.490  21.684  1.00  0.00    -0.237 OA
ATOM     85  O   UNL     1      -7.095  -3.503  20.971  1.00  0.00    -0.237 OA
ATOM     86  O   UNL     1      -5.993  -5.205  19.571  1.00  0.00    -0.744 OA
ENDBRANCH  82  83
ENDBRANCH  50  75
BRANCH  62  87
ATOM     87  C   UNL     1      -2.282   5.326  16.717  1.00  0.00     0.058 A 
ATOM     88  C   UNL     1      -1.229   4.496  16.293  1.00  0.00     0.135 A 
ATOM     89  C   UNL     1      -1.942   6.623  17.136  1.00  0.00     0.135 A 
ATOM     90  F   UNL     1      -1.467   3.276  15.795  1.00  0.00    -0.206 F 
ATOM     91  C   UNL     1       0.098   4.934  16.291  1.00  0.00     0.059 A 
ATOM     92  C   UNL     1      -0.631   7.091  17.113  1.00  0.00     0.059 A 
ATOM     93  F   UNL     1      -2.906   7.484  17.505  1.00  0.00    -0.206 F 
ATOM     94  C   UNL     1       0.386   6.240  16.688  1.00  0.00     0.060 A 
BRANCH  94  95
ATOM     95  S   UNL     1       2.084   6.845  16.557  1.00  0.00     0.124 S 
ATOM     96  O   UNL     1       2.766   6.078  17.594  1.00  0.00    -0.237 OA
ATOM     97  O   UNL     1       2.436   6.504  15.181  1.00  0.00    -0.237 OA
ATOM     98  O   UNL     1       1.959   8.277  16.821  1.00  0.00    -0.744 OA
ENDBRANCH  94  95
ENDBRANCH  62  87
ENDBRANCH  36  37
ENDBRANCH  28  31
ENDBRANCH  26  27
ENDBRANCH   1  26
TORSDOF 16
