REMARK SMILES COc1ccc(/C=N/NC(=O)c2cc(C)nc3ccccc23)c(C(=O)NCCCNC(=O)c2ccc(-c3c4nc(c(-c5c(F)cc(S(=O)(=O)[O-])cc5F)c5ccc([nH]5)c(-c5c(F)cc(S(=O)(=O)[O-])cc5F)c5nc(c(-c6c(F)cc(S(=O)(=O)[O-])cc6F)c6ccc3[nH]6)C=C5)C=C4)cc2)c1OC
REMARK SMILES IDX 28 1 27 2 26 3 24 4 25 5 23 7 3 8 4 9 99 10 5 11 6 12 2 13
REMARK SMILES IDX 1 14 100 15 101 16 7 17 8 18 9 19 10 20 11 22 12 23 13 24
REMARK SMILES IDX 22 25 14 26 17 27 21 28 15 29 16 30 18 31 20 32 19 33 29 34
REMARK SMILES IDX 30 35 31 36 32 38 33 39 34 40 98 41 35 42 97 43 36 44 37 45
REMARK SMILES IDX 38 46 91 47 39 48 96 49 90 50 92 51 40 52 95 53 89 54 88 55
REMARK SMILES IDX 41 57 75 58 54 59 74 60 55 61 58 62 73 63 93 64 56 65 57 66
REMARK SMILES IDX 72 68 94 69 59 70 42 71 43 72 52 73 44 74 45 75 51 76 53 77
REMARK SMILES IDX 46 78 47 79 48 80 49 81 50 82 76 83 77 84 86 85 78 86 79 87
REMARK SMILES IDX 85 88 87 89 80 90 81 91 82 92 83 93 84 94 60 95 61 96 70 97
REMARK SMILES IDX 62 98 63 99 69 100 71 101 64 102 65 103 66 104 67 105 68 106
REMARK H PARENT 26 6 9 21 30 37 92 56 58 67
REMARK Flexibility Score: inf
ROOT
ATOM      1  C   UNL     1       5.867  -0.354  -2.054  1.00  0.00     0.042 C 
ENDROOT
BRANCH   1   2
ATOM      2  C   UNL     1       4.962   0.802  -1.754  1.00  0.00     0.118 C 
BRANCH   2   3
ATOM      3  N   UNL     1       5.178   2.068  -2.375  1.00  0.00    -0.352 N 
ATOM      4  C   UNL     1       4.234   3.050  -2.581  1.00  0.00     0.255 C 
ATOM      5  O   UNL     1       4.698   4.157  -2.852  1.00  0.00    -0.269 OA
ATOM      6  H   UNL     1       6.092   2.259  -2.686  1.00  0.00     0.163 HD
BRANCH   4   7
ATOM      7  C   UNL     1       2.738   2.799  -2.610  1.00  0.00     0.094 A 
ATOM      8  C   UNL     1       0.733   1.458  -2.026  1.00  0.00     0.161 A 
ATOM      9  C   UNL     1       0.075   2.047  -3.108  1.00  0.00     0.051 A 
ATOM     10  C   UNL     1       2.059   1.836  -1.744  1.00  0.00     0.174 A 
ATOM     11  C   UNL     1       0.675   3.073  -3.865  1.00  0.00     0.015 A 
ATOM     12  C   UNL     1       2.004   3.490  -3.634  1.00  0.00     0.011 A 
BRANCH   8  13
ATOM     13  O   UNL     1       0.063   0.415  -1.439  1.00  0.00    -0.493 OA
ATOM     14  C   UNL     1      -0.311   0.574  -0.071  1.00  0.00     0.278 C 
ENDBRANCH   8  13
BRANCH  10  15
ATOM     15  O   UNL     1       2.674   1.413  -0.574  1.00  0.00    -0.492 OA
ATOM     16  C   UNL     1       2.597   0.015  -0.198  1.00  0.00     0.278 C 
ENDBRANCH  10  15
BRANCH  12  17
ATOM     17  C   UNL     1       2.536   4.692  -4.464  1.00  0.00     0.142 C 
ATOM     18  N   UNL     1       1.816   5.287  -5.362  1.00  0.00    -0.180 NA
BRANCH  18  19
ATOM     19  N   UNL     1       2.090   6.409  -6.114  1.00  0.00    -0.243 N 
ATOM     20  C   UNL     1       2.956   7.430  -6.520  1.00  0.00     0.272 C 
ATOM     21  H   UNL     1       1.261   6.574  -6.619  1.00  0.00     0.194 HD
ATOM     22  O   UNL     1       2.348   8.209  -7.280  1.00  0.00    -0.267 OA
BRANCH  20  23
ATOM     23  C   UNL     1       4.414   7.801  -6.284  1.00  0.00     0.052 A 
ATOM     24  C   UNL     1       5.285   7.003  -5.528  1.00  0.00     0.038 A 
ATOM     25  C   UNL     1       4.979   9.040  -6.925  1.00  0.00     0.013 A 
ATOM     26  C   UNL     1       6.604   7.430  -5.352  1.00  0.00     0.039 A 
ATOM     27  C   UNL     1       6.339   9.295  -6.661  1.00  0.00     0.071 A 
ATOM     28  C   UNL     1       4.416  10.052  -7.795  1.00  0.00     0.011 A 
ATOM     29  C   UNL     1       7.705   6.719  -4.642  1.00  0.00     0.067 C 
ATOM     30  N   UNL     1       7.090   8.552  -5.892  1.00  0.00    -0.253 NA
ATOM     31  C   UNL     1       7.070  10.343  -7.192  1.00  0.00     0.029 A 
ATOM     32  C   UNL     1       5.160  11.138  -8.327  1.00  0.00     0.001 A 
ATOM     33  C   UNL     1       6.502  11.275  -8.032  1.00  0.00     0.002 A 
ENDBRANCH  20  23
ENDBRANCH  18  19
ENDBRANCH  12  17
ENDBRANCH   4   7
ENDBRANCH   2   3
ENDBRANCH   1   2
BRANCH   1  34
ATOM     34  C   UNL     1       7.302  -0.128  -1.665  1.00  0.00     0.118 C 
BRANCH  34  35
ATOM     35  N   UNL     1       7.504   0.047  -0.231  1.00  0.00    -0.352 N 
ATOM     36  C   UNL     1       8.089  -0.782   0.706  1.00  0.00     0.251 C 
ATOM     37  H   UNL     1       7.167   0.899   0.129  1.00  0.00     0.163 HD
ATOM     38  O   UNL     1       8.033  -0.495   1.888  1.00  0.00    -0.269 OA
BRANCH  36  39
ATOM     39  C   UNL     1       8.731  -2.046   0.271  1.00  0.00     0.039 A 
ATOM     40  C   UNL     1       8.549  -3.196   1.041  1.00  0.00     0.014 A 
ATOM     41  C   UNL     1       9.455  -2.114  -0.918  1.00  0.00     0.014 A 
ATOM     42  C   UNL     1       8.989  -4.426   0.550  1.00  0.00     0.010 A 
ATOM     43  C   UNL     1       9.745  -3.350  -1.478  1.00  0.00     0.010 A 
ATOM     44  C   UNL     1       9.516  -4.521  -0.749  1.00  0.00    -0.014 A 
BRANCH  44  45
ATOM     45  C   UNL     1       9.806  -5.835  -1.372  1.00  0.00     0.031 A 
ATOM     46  C   UNL     1      11.195  -6.159  -1.848  1.00  0.00     0.074 A 
ATOM     47  C   UNL     1       8.797  -6.707  -1.568  1.00  0.00     0.049 A 
ATOM     48  N   UNL     1      11.623  -7.229  -2.464  1.00  0.00    -0.248 NA
ATOM     49  C   UNL     1      12.236  -5.141  -1.622  1.00  0.00     0.031 C 
ATOM     50  C   UNL     1       7.399  -6.481  -1.189  1.00  0.00     0.029 A 
ATOM     51  N   UNL     1       8.785  -7.956  -2.137  1.00  0.00    -0.354 N 
ATOM     52  C   UNL     1      12.975  -7.015  -2.701  1.00  0.00     0.074 A 
ATOM     53  C   UNL     1      13.284  -5.687  -2.220  1.00  0.00     0.031 C 
ATOM     54  C   UNL     1       6.677  -7.568  -1.498  1.00  0.00     0.029 A 
ATOM     55  C   UNL     1       7.539  -8.539  -2.161  1.00  0.00     0.049 A 
ATOM     56  H   UNL     1       9.591  -8.393  -2.494  1.00  0.00     0.167 HD
ATOM     57  C   UNL     1      13.879  -7.860  -3.249  1.00  0.00     0.037 A 
ATOM     58  C   UNL     1       7.130  -9.713  -2.680  1.00  0.00     0.037 A 
ATOM     59  C   UNL     1      13.554  -9.179  -3.728  1.00  0.00     0.049 A 
ATOM     60  C   UNL     1       8.144 -10.606  -3.340  1.00  0.00     0.074 A 
ATOM     61  C   UNL     1      14.405 -10.129  -4.262  1.00  0.00     0.029 A 
ATOM     62  N   UNL     1      12.279  -9.726  -3.752  1.00  0.00    -0.354 N 
ATOM     63  N   UNL     1       9.436 -10.425  -3.476  1.00  0.00    -0.248 NA
ATOM     64  C   UNL     1       7.648 -11.862  -3.917  1.00  0.00     0.031 C 
ATOM     65  C   UNL     1      13.635 -11.214  -4.688  1.00  0.00     0.029 A 
ATOM     66  C   UNL     1      12.314 -10.981  -4.340  1.00  0.00     0.049 A 
ATOM     67  H   UNL     1      11.469  -9.289  -3.404  1.00  0.00     0.167 HD
ATOM     68  C   UNL     1       9.909 -11.553  -4.136  1.00  0.00     0.074 A 
ATOM     69  C   UNL     1       8.770 -12.423  -4.343  1.00  0.00     0.031 C 
ATOM     70  C   UNL     1      11.171 -11.839  -4.542  1.00  0.00     0.037 A 
BRANCH  57  71
ATOM     71  C   UNL     1      15.301  -7.382  -3.380  1.00  0.00     0.058 A 
ATOM     72  C   UNL     1      16.112  -7.140  -2.259  1.00  0.00     0.135 A 
ATOM     73  C   UNL     1      15.879  -7.214  -4.650  1.00  0.00     0.135 A 
ATOM     74  F   UNL     1      15.612  -7.271  -1.020  1.00  0.00    -0.206 F 
ATOM     75  C   UNL     1      17.432  -6.722  -2.391  1.00  0.00     0.059 A 
ATOM     76  C   UNL     1      17.209  -6.837  -4.806  1.00  0.00     0.059 A 
ATOM     77  F   UNL     1      15.152  -7.428  -5.758  1.00  0.00    -0.206 F 
ATOM     78  C   UNL     1      17.973  -6.581  -3.670  1.00  0.00     0.060 A 
BRANCH  78  79
ATOM     79  S   UNL     1      19.695  -6.061  -3.819  1.00  0.00     0.124 S 
ATOM     80  O   UNL     1      19.633  -4.696  -3.306  1.00  0.00    -0.237 OA
ATOM     81  O   UNL     1      20.381  -7.027  -2.968  1.00  0.00    -0.237 OA
ATOM     82  O   UNL     1      19.966  -6.181  -5.248  1.00  0.00    -0.744 OA
ENDBRANCH  78  79
ENDBRANCH  57  71
BRANCH  58  83
ATOM     83  C   UNL     1       5.695 -10.102  -2.609  1.00  0.00     0.058 A 
ATOM     84  C   UNL     1       5.280 -11.217  -1.866  1.00  0.00     0.135 A 
ATOM     85  C   UNL     1       4.707  -9.365  -3.284  1.00  0.00     0.135 A 
ATOM     86  F   UNL     1       6.184 -11.960  -1.209  1.00  0.00    -0.206 F 
ATOM     87  C   UNL     1       3.944 -11.600  -1.810  1.00  0.00     0.059 A 
ATOM     88  C   UNL     1       3.361  -9.704  -3.210  1.00  0.00     0.059 A 
ATOM     89  F   UNL     1       5.045  -8.280  -3.999  1.00  0.00    -0.206 F 
ATOM     90  C   UNL     1       2.990 -10.831  -2.478  1.00  0.00     0.060 A 
BRANCH  90  91
ATOM     91  S   UNL     1       1.254 -11.304  -2.347  1.00  0.00     0.124 S 
ATOM     92  O   UNL     1       1.236 -12.568  -3.074  1.00  0.00    -0.237 OA
ATOM     93  O   UNL     1       1.076 -11.393  -0.901  1.00  0.00    -0.237 OA
ATOM     94  O   UNL     1       0.554 -10.196  -2.990  1.00  0.00    -0.744 OA
ENDBRANCH  90  91
ENDBRANCH  58  83
BRANCH  70  95
ATOM     95  C   UNL     1      11.397 -13.153  -5.241  1.00  0.00     0.058 A 
ATOM     96  C   UNL     1      10.883 -13.404  -6.523  1.00  0.00     0.135 A 
ATOM     97  C   UNL     1      12.194 -14.149  -4.651  1.00  0.00     0.135 A 
ATOM     98  F   UNL     1      10.108 -12.491  -7.132  1.00  0.00    -0.206 F 
ATOM     99  C   UNL     1      11.132 -14.601  -7.185  1.00  0.00     0.059 A 
ATOM    100  C   UNL     1      12.491 -15.336  -5.312  1.00  0.00     0.059 A 
ATOM    101  F   UNL     1      12.719 -13.961  -3.429  1.00  0.00    -0.206 F 
ATOM    102  C   UNL     1      11.948 -15.555  -6.577  1.00  0.00     0.060 A 
BRANCH 102 103
ATOM    103  S   UNL     1      12.312 -17.073  -7.481  1.00  0.00     0.124 S 
ATOM    104  O   UNL     1      11.002 -17.716  -7.521  1.00  0.00    -0.237 OA
ATOM    105  O   UNL     1      12.805 -16.560  -8.755  1.00  0.00    -0.237 OA
ATOM    106  O   UNL     1      13.310 -17.737  -6.648  1.00  0.00    -0.744 OA
ENDBRANCH 102 103
ENDBRANCH  70  95
ENDBRANCH  44  45
ENDBRANCH  36  39
ENDBRANCH  34  35
ENDBRANCH   1  34
TORSDOF 18
