REMARK SMILES C[NH2+][C@@]1(C(=O)NCCCNC(=O)c2ccc(-c3c4nc(c(-c5c(F)cc(S(=O)(=O)[O-])cc5F)c5ccc([nH]5)c(-c5c(F)cc(S(=O)(=O)[O-])cc5F)c5nc(c(-c6c(F)cc(S(=O)(=O)[O-])cc6F)c6ccc3[nH]6)C=C5)C=C4)cc2)CCC[C@H]1CCSc1nccc(=O)[nH]1
REMARK SMILES IDX 7 1 6 2 4 3 5 4 3 6 79 7 82 8 80 9 81 10 2 11 1 12 83 15
REMARK SMILES IDX 84 16 85 17 86 18 87 19 92 20 88 21 90 22 89 24 91 25 8 26
REMARK SMILES IDX 9 27 10 28 11 29 12 31 13 32 14 33 78 34 15 35 77 36 16 37
REMARK SMILES IDX 17 38 18 39 71 40 19 41 76 42 70 43 72 44 20 45 75 46 69 47
REMARK SMILES IDX 68 48 21 50 55 51 34 52 54 53 35 54 38 55 53 56 73 57 36 58
REMARK SMILES IDX 37 59 52 61 74 62 39 63 22 64 23 65 32 66 24 67 25 68 31 69
REMARK SMILES IDX 33 70 26 71 27 72 28 73 29 74 30 75 56 76 57 77 66 78 58 79
REMARK SMILES IDX 59 80 65 81 67 82 60 83 61 84 62 85 63 86 64 87 40 88 41 89
REMARK SMILES IDX 50 90 42 91 43 92 49 93 51 94 44 95 45 96 46 97 47 98 48 99
REMARK H PARENT 6 5 2 13 2 14 92 23 10 30 72 49 38 60
REMARK Flexibility Score: inf
ROOT
ATOM      1  C   UNL     1      -4.050   0.895  -0.259  1.00  0.00     0.118 C 
ENDROOT
BRANCH   1   2
ATOM      2  N   UNL     1      -2.783   1.117   0.393  1.00  0.00    -0.351 N 
ATOM      3  C   UNL     1      -1.574   1.471  -0.116  1.00  0.00     0.281 C 
ATOM      4  O   UNL     1      -0.952   2.248   0.628  1.00  0.00    -0.268 OA
ATOM      5  H   UNL     1      -2.796   0.991   1.369  1.00  0.00     0.163 HD
BRANCH   3   6
ATOM      6  C   UNL     1      -0.969   1.037  -1.530  1.00  0.00     0.178 C 
ATOM      7  C   UNL     1      -1.400   2.098  -2.578  1.00  0.00     0.079 C 
ATOM      8  C   UNL     1      -1.467  -0.316  -2.157  1.00  0.00     0.061 C 
ATOM      9  C   UNL     1      -2.626   1.589  -3.301  1.00  0.00     0.008 C 
ATOM     10  C   UNL     1      -2.602   0.077  -3.158  1.00  0.00     0.011 C 
BRANCH   6  11
ATOM     11  N   UNL     1       0.528   1.225  -1.479  1.00  0.00    -0.336 N 
ATOM     12  C   UNL     1       1.266   0.684  -0.341  1.00  0.00     0.331 C 
ATOM     13  H   UNL     1       0.913   0.793  -2.319  1.00  0.00     0.346 HD
ATOM     14  H   UNL     1       0.647   2.234  -1.394  1.00  0.00     0.346 HD
ENDBRANCH   6  11
BRANCH   8  15
ATOM     15  C   UNL     1      -0.486  -1.171  -3.006  1.00  0.00     0.022 C 
BRANCH  15  16
ATOM     16  C   UNL     1       0.585  -2.051  -2.363  1.00  0.00     0.079 C 
BRANCH  16  17
ATOM     17  S   UNL     1       0.005  -3.544  -1.510  1.00  0.00    -0.088 SA
BRANCH  17  18
ATOM     18  C   UNL     1      -0.653  -2.987  -0.010  1.00  0.00     0.168 A 
ATOM     19  N   UNL     1      -0.402  -1.842   0.525  1.00  0.00    -0.233 NA
ATOM     20  N   UNL     1      -1.476  -3.915   0.544  1.00  0.00    -0.301 N 
ATOM     21  C   UNL     1      -1.035  -1.562   1.709  1.00  0.00     0.120 A 
ATOM     22  C   UNL     1      -2.146  -3.685   1.703  1.00  0.00     0.251 A 
ATOM     23  H   UNL     1      -1.591  -4.782   0.090  1.00  0.00     0.172 HD
ATOM     24  C   UNL     1      -1.889  -2.381   2.329  1.00  0.00     0.091 A 
ATOM     25  O   UNL     1      -2.927  -4.485   2.205  1.00  0.00    -0.269 OA
ENDBRANCH  17  18
ENDBRANCH  16  17
ENDBRANCH  15  16
ENDBRANCH   8  15
ENDBRANCH   3   6
ENDBRANCH   1   2
BRANCH   1  26
ATOM     26  C   UNL     1      -4.710  -0.426   0.085  1.00  0.00     0.042 C 
BRANCH  26  27
ATOM     27  C   UNL     1      -5.312  -0.457   1.482  1.00  0.00     0.118 C 
BRANCH  27  28
ATOM     28  N   UNL     1      -6.308   0.591   1.688  1.00  0.00    -0.352 N 
ATOM     29  C   UNL     1      -7.675   0.529   1.798  1.00  0.00     0.251 C 
ATOM     30  H   UNL     1      -5.935   1.499   1.759  1.00  0.00     0.163 HD
ATOM     31  O   UNL     1      -8.329   1.565   1.713  1.00  0.00    -0.269 OA
BRANCH  29  32
ATOM     32  C   UNL     1      -8.359  -0.764   2.014  1.00  0.00     0.039 A 
ATOM     33  C   UNL     1      -9.605  -0.987   1.421  1.00  0.00     0.014 A 
ATOM     34  C   UNL     1      -7.793  -1.742   2.832  1.00  0.00     0.014 A 
ATOM     35  C   UNL     1     -10.247  -2.215   1.599  1.00  0.00     0.010 A 
ATOM     36  C   UNL     1      -8.376  -3.000   2.915  1.00  0.00     0.010 A 
ATOM     37  C   UNL     1      -9.618  -3.246   2.316  1.00  0.00    -0.014 A 
BRANCH  37  38
ATOM     38  C   UNL     1     -10.248  -4.580   2.481  1.00  0.00     0.031 A 
ATOM     39  C   UNL     1     -10.565  -5.093   3.862  1.00  0.00     0.074 A 
ATOM     40  C   UNL     1     -10.461  -5.355   1.400  1.00  0.00     0.049 A 
ATOM     41  N   UNL     1     -11.030  -6.261   4.223  1.00  0.00    -0.248 NA
ATOM     42  C   UNL     1     -10.290  -4.186   4.989  1.00  0.00     0.031 C 
ATOM     43  C   UNL     1     -10.144  -4.986   0.018  1.00  0.00     0.029 A 
ATOM     44  N   UNL     1     -10.982  -6.619   1.293  1.00  0.00    -0.354 N 
ATOM     45  C   UNL     1     -11.081  -6.236   5.612  1.00  0.00     0.074 A 
ATOM     46  C   UNL     1     -10.542  -4.962   6.032  1.00  0.00     0.031 C 
ATOM     47  C   UNL     1     -10.505  -5.989  -0.799  1.00  0.00     0.029 A 
ATOM     48  C   UNL     1     -11.033  -7.088   0.001  1.00  0.00     0.049 A 
ATOM     49  H   UNL     1     -11.292  -7.142   2.068  1.00  0.00     0.167 HD
ATOM     50  C   UNL     1     -11.559  -7.178   6.459  1.00  0.00     0.037 A 
ATOM     51  C   UNL     1     -11.449  -8.275  -0.482  1.00  0.00     0.037 A 
ATOM     52  C   UNL     1     -12.120  -8.431   6.026  1.00  0.00     0.049 A 
ATOM     53  C   UNL     1     -11.976  -9.307   0.478  1.00  0.00     0.074 A 
ATOM     54  C   UNL     1     -12.692  -9.428   6.795  1.00  0.00     0.029 A 
ATOM     55  N   UNL     1     -12.175  -8.860   4.707  1.00  0.00    -0.354 N 
ATOM     56  N   UNL     1     -12.084  -9.239   1.785  1.00  0.00    -0.248 NA
ATOM     57  C   UNL     1     -12.444 -10.574  -0.099  1.00  0.00     0.031 C 
ATOM     58  C   UNL     1     -13.044 -10.483   5.947  1.00  0.00     0.029 A 
ATOM     59  C   UNL     1     -12.750 -10.118   4.643  1.00  0.00     0.049 A 
ATOM     60  H   UNL     1     -11.854  -8.345   3.932  1.00  0.00     0.167 HD
ATOM     61  C   UNL     1     -12.663 -10.439   2.182  1.00  0.00     0.074 A 
ATOM     62  C   UNL     1     -12.891 -11.209   0.976  1.00  0.00     0.031 C 
ATOM     63  C   UNL     1     -12.979 -10.865   3.430  1.00  0.00     0.037 A 
BRANCH  50  64
ATOM     64  C   UNL     1     -11.497  -6.889   7.936  1.00  0.00     0.058 A 
ATOM     65  C   UNL     1     -12.284  -5.888   8.529  1.00  0.00     0.135 A 
ATOM     66  C   UNL     1     -10.660  -7.642   8.776  1.00  0.00     0.135 A 
ATOM     67  F   UNL     1     -13.091  -5.125   7.774  1.00  0.00    -0.206 F 
ATOM     68  C   UNL     1     -12.219  -5.621   9.893  1.00  0.00     0.059 A 
ATOM     69  C   UNL     1     -10.604  -7.415  10.148  1.00  0.00     0.059 A 
ATOM     70  F   UNL     1      -9.885  -8.611   8.265  1.00  0.00    -0.206 F 
ATOM     71  C   UNL     1     -11.376  -6.391  10.695  1.00  0.00     0.060 A 
BRANCH  71  72
ATOM     72  S   UNL     1     -11.308  -6.035  12.463  1.00  0.00     0.124 S 
ATOM     73  O   UNL     1     -10.591  -4.763  12.476  1.00  0.00    -0.237 OA
ATOM     74  O   UNL     1     -12.721  -5.968  12.821  1.00  0.00    -0.237 OA
ATOM     75  O   UNL     1     -10.577  -7.172  13.013  1.00  0.00    -0.744 OA
ENDBRANCH  71  72
ENDBRANCH  50  64
BRANCH  51  76
ATOM     76  C   UNL     1     -11.410  -8.538  -1.946  1.00  0.00     0.058 A 
ATOM     77  C   UNL     1     -12.594  -8.643  -2.692  1.00  0.00     0.135 A 
ATOM     78  C   UNL     1     -10.193  -8.676  -2.632  1.00  0.00     0.135 A 
ATOM     79  F   UNL     1     -13.783  -8.523  -2.083  1.00  0.00    -0.206 F 
ATOM     80  C   UNL     1     -12.575  -8.893  -4.061  1.00  0.00     0.059 A 
ATOM     81  C   UNL     1     -10.147  -8.898  -4.005  1.00  0.00     0.059 A 
ATOM     82  F   UNL     1      -9.031  -8.566  -1.970  1.00  0.00    -0.206 F 
ATOM     83  C   UNL     1     -11.345  -9.016  -4.709  1.00  0.00     0.060 A 
BRANCH  83  84
ATOM     84  S   UNL     1     -11.332  -9.294  -6.494  1.00  0.00     0.124 S 
ATOM     85  O   UNL     1     -11.802 -10.672  -6.579  1.00  0.00    -0.237 OA
ATOM     86  O   UNL     1     -12.259  -8.272  -6.969  1.00  0.00    -0.237 OA
ATOM     87  O   UNL     1      -9.935  -9.080  -6.857  1.00  0.00    -0.744 OA
ENDBRANCH  83  84
ENDBRANCH  51  76
BRANCH  63  88
ATOM     88  C   UNL     1     -13.648 -12.206   3.557  1.00  0.00     0.058 A 
ATOM     89  C   UNL     1     -12.955 -13.406   3.335  1.00  0.00     0.135 A 
ATOM     90  C   UNL     1     -14.991 -12.290   3.962  1.00  0.00     0.135 A 
ATOM     91  F   UNL     1     -11.672 -13.383   2.940  1.00  0.00    -0.206 F 
ATOM     92  C   UNL     1     -13.576 -14.642   3.485  1.00  0.00     0.059 A 
ATOM     93  C   UNL     1     -15.622 -13.515   4.150  1.00  0.00     0.059 A 
ATOM     94  F   UNL     1     -15.697 -11.173   4.198  1.00  0.00    -0.206 F 
ATOM     95  C   UNL     1     -14.910 -14.686   3.897  1.00  0.00     0.060 A 
BRANCH  95  96
ATOM     96  S   UNL     1     -15.692 -16.296   4.122  1.00  0.00     0.124 S 
ATOM     97  O   UNL     1     -15.857 -16.738   2.741  1.00  0.00    -0.237 OA
ATOM     98  O   UNL     1     -14.696 -17.020   4.905  1.00  0.00    -0.237 OA
ATOM     99  O   UNL     1     -16.928 -15.979   4.831  1.00  0.00    -0.744 OA
ENDBRANCH  95  96
ENDBRANCH  63  88
ENDBRANCH  37  38
ENDBRANCH  29  32
ENDBRANCH  27  28
ENDBRANCH  26  27
ENDBRANCH   1  26
TORSDOF 18
