REMARK SMILES O=C(NCCCNC(=O)c1cc(-c2cccc(Cl)c2)oc1C(F)(F)F)c1ccc(-c2c3nc(c(-c4c(F)cc(S(=O)(=O)[O-])cc4F)c4ccc([nH]4)c(-c4c(F)cc(S(=O)(=O)[O-])cc4F)c4nc(c(-c5c(F)cc(S(=O)(=O)[O-])cc5F)c5ccc2[nH]5)C=C4)C=C3)cc1
REMARK SMILES IDX 4 1 3 2 1 3 2 4 26 6 27 7 91 8 28 9 90 10 29 11 30 12 31 13
REMARK SMILES IDX 84 14 32 15 89 16 83 17 85 18 33 19 88 20 82 21 81 22 34 24
REMARK SMILES IDX 68 25 47 26 67 27 48 28 51 29 66 30 86 31 49 32 50 33 65 35
REMARK SMILES IDX 87 36 52 37 35 38 36 39 45 40 37 41 38 42 44 43 46 44 39 45
REMARK SMILES IDX 40 46 41 47 42 48 43 49 69 50 70 51 79 52 71 53 72 54 78 55
REMARK SMILES IDX 80 56 73 57 74 58 75 59 76 60 77 61 53 62 54 63 63 64 55 65
REMARK SMILES IDX 56 66 62 67 64 68 57 69 58 70 59 71 60 72 61 73 5 74 6 75
REMARK SMILES IDX 7 76 8 77 9 79 10 80 11 81 21 82 12 83 20 84 22 85 23 86
REMARK SMILES IDX 24 87 25 88 13 89 14 90 19 91 15 92 17 93 16 94 18 95
REMARK H PARENT 3 5 85 23 51 34 7 78
REMARK Flexibility Score: inf
ROOT
ATOM      1  C   UNL     1       4.653  -1.213   0.481  1.00  0.00     0.118 C 
ENDROOT
BRANCH   1   2
ATOM      2  N   UNL     1       3.224  -1.113   0.224  1.00  0.00    -0.352 N 
ATOM      3  O   UNL     1       1.243  -0.140  -0.172  1.00  0.00    -0.269 OA
ATOM      4  C   UNL     1       2.468  -0.061  -0.232  1.00  0.00     0.251 C 
ATOM      5  H   UNL     1       2.715  -1.935   0.408  1.00  0.00     0.163 HD
BRANCH   4   6
ATOM      6  C   UNL     1       3.106   1.158  -0.776  1.00  0.00     0.039 A 
ATOM      7  C   UNL     1       4.218   1.083  -1.618  1.00  0.00     0.014 A 
ATOM      8  C   UNL     1       2.541   2.403  -0.480  1.00  0.00     0.014 A 
ATOM      9  C   UNL     1       4.845   2.249  -2.050  1.00  0.00     0.010 A 
ATOM     10  C   UNL     1       3.125   3.571  -0.979  1.00  0.00     0.010 A 
ATOM     11  C   UNL     1       4.301   3.505  -1.743  1.00  0.00    -0.014 A 
BRANCH  11  12
ATOM     12  C   UNL     1       4.943   4.740  -2.258  1.00  0.00     0.031 A 
ATOM     13  C   UNL     1       5.550   5.741  -1.315  1.00  0.00     0.074 A 
ATOM     14  C   UNL     1       4.969   4.961  -3.587  1.00  0.00     0.049 A 
ATOM     15  N   UNL     1       6.103   6.896  -1.583  1.00  0.00    -0.248 NA
ATOM     16  C   UNL     1       5.524   5.405   0.117  1.00  0.00     0.031 C 
ATOM     17  C   UNL     1       4.407   4.065  -4.601  1.00  0.00     0.029 A 
ATOM     18  N   UNL     1       5.486   6.002  -4.314  1.00  0.00    -0.354 N 
ATOM     19  C   UNL     1       6.469   7.438  -0.357  1.00  0.00     0.074 A 
ATOM     20  C   UNL     1       6.056   6.492   0.659  1.00  0.00     0.031 C 
ATOM     21  C   UNL     1       4.627   4.585  -5.817  1.00  0.00     0.029 A 
ATOM     22  C   UNL     1       5.295   5.874  -5.668  1.00  0.00     0.049 A 
ATOM     23  H   UNL     1       5.949   6.769  -3.904  1.00  0.00     0.167 HD
ATOM     24  C   UNL     1       7.094   8.613  -0.103  1.00  0.00     0.037 A 
ATOM     25  C   UNL     1       5.601   6.709  -6.680  1.00  0.00     0.037 A 
ATOM     26  C   UNL     1       7.515   9.541  -1.121  1.00  0.00     0.049 A 
ATOM     27  C   UNL     1       6.284   8.010  -6.376  1.00  0.00     0.074 A 
ATOM     28  C   UNL     1       8.182  10.744  -0.967  1.00  0.00     0.029 A 
ATOM     29  N   UNL     1       7.307   9.372  -2.483  1.00  0.00    -0.354 N 
ATOM     30  N   UNL     1       6.641   8.496  -5.212  1.00  0.00    -0.248 NA
ATOM     31  C   UNL     1       6.606   8.876  -7.518  1.00  0.00     0.031 C 
ATOM     32  C   UNL     1       8.347  11.318  -2.233  1.00  0.00     0.029 A 
ATOM     33  C   UNL     1       7.819  10.454  -3.179  1.00  0.00     0.049 A 
ATOM     34  H   UNL     1       6.861   8.596  -2.893  1.00  0.00     0.167 HD
ATOM     35  C   UNL     1       7.247   9.718  -5.480  1.00  0.00     0.074 A 
ATOM     36  C   UNL     1       7.213   9.892  -6.919  1.00  0.00     0.031 C 
ATOM     37  C   UNL     1       7.783  10.610  -4.613  1.00  0.00     0.037 A 
BRANCH  24  38
ATOM     38  C   UNL     1       7.335   8.970   1.337  1.00  0.00     0.058 A 
ATOM     39  C   UNL     1       8.308   8.316   2.109  1.00  0.00     0.135 A 
ATOM     40  C   UNL     1       6.586   9.987   1.952  1.00  0.00     0.135 A 
ATOM     41  F   UNL     1       9.042   7.327   1.575  1.00  0.00    -0.206 F 
ATOM     42  C   UNL     1       8.504   8.630   3.451  1.00  0.00     0.059 A 
ATOM     43  C   UNL     1       6.781  10.334   3.286  1.00  0.00     0.059 A 
ATOM     44  F   UNL     1       5.645  10.647   1.259  1.00  0.00    -0.206 F 
ATOM     45  C   UNL     1       7.728   9.634   4.033  1.00  0.00     0.060 A 
BRANCH  45  46
ATOM     46  S   UNL     1       7.966  10.010   5.783  1.00  0.00     0.124 S 
ATOM     47  O   UNL     1       7.271   8.892   6.414  1.00  0.00    -0.237 OA
ATOM     48  O   UNL     1       9.420  10.005   5.912  1.00  0.00    -0.237 OA
ATOM     49  O   UNL     1       7.330  11.314   5.939  1.00  0.00    -0.744 OA
ENDBRANCH  45  46
ENDBRANCH  24  38
BRANCH  25  50
ATOM     50  C   UNL     1       5.253   6.319  -8.070  1.00  0.00     0.058 A 
ATOM     51  C   UNL     1       6.242   5.897  -8.969  1.00  0.00     0.135 A 
ATOM     52  C   UNL     1       3.917   6.291  -8.500  1.00  0.00     0.135 A 
ATOM     53  F   UNL     1       7.532   5.912  -8.603  1.00  0.00    -0.206 F 
ATOM     54  C   UNL     1       5.919   5.453 -10.247  1.00  0.00     0.059 A 
ATOM     55  C   UNL     1       3.568   5.830  -9.765  1.00  0.00     0.059 A 
ATOM     56  F   UNL     1       2.935   6.669  -7.668  1.00  0.00    -0.206 F 
ATOM     57  C   UNL     1       4.577   5.414 -10.632  1.00  0.00     0.060 A 
BRANCH  57  58
ATOM     58  S   UNL     1       4.159   4.747 -12.258  1.00  0.00     0.124 S 
ATOM     59  O   UNL     1       4.535   5.850 -13.133  1.00  0.00    -0.237 OA
ATOM     60  O   UNL     1       5.004   3.558 -12.329  1.00  0.00    -0.237 OA
ATOM     61  O   UNL     1       2.728   4.481 -12.152  1.00  0.00    -0.744 OA
ENDBRANCH  57  58
ENDBRANCH  25  50
BRANCH  37  62
ATOM     62  C   UNL     1       8.410  11.845  -5.193  1.00  0.00     0.058 A 
ATOM     63  C   UNL     1       7.633  12.913  -5.664  1.00  0.00     0.135 A 
ATOM     64  C   UNL     1       9.807  11.986  -5.216  1.00  0.00     0.135 A 
ATOM     65  F   UNL     1       6.293  12.822  -5.671  1.00  0.00    -0.206 F 
ATOM     66  C   UNL     1       8.219  14.078  -6.148  1.00  0.00     0.059 A 
ATOM     67  C   UNL     1      10.414  13.150  -5.676  1.00  0.00     0.059 A 
ATOM     68  F   UNL     1      10.594  10.994  -4.770  1.00  0.00    -0.206 F 
ATOM     69  C   UNL     1       9.611  14.188  -6.147  1.00  0.00     0.060 A 
BRANCH  69  70
ATOM     70  S   UNL     1      10.362  15.724  -6.727  1.00  0.00     0.124 S 
ATOM     71  O   UNL     1      10.231  15.586  -8.174  1.00  0.00    -0.237 OA
ATOM     72  O   UNL     1       9.517  16.741  -6.109  1.00  0.00    -0.237 OA
ATOM     73  O   UNL     1      11.725  15.652  -6.209  1.00  0.00    -0.744 OA
ENDBRANCH  69  70
ENDBRANCH  37  62
ENDBRANCH  11  12
ENDBRANCH   4   6
ENDBRANCH   1   2
BRANCH   1  74
ATOM     74  C   UNL     1       4.972  -1.349   1.965  1.00  0.00     0.042 C 
BRANCH  74  75
ATOM     75  C   UNL     1       4.389  -2.598   2.616  1.00  0.00     0.118 C 
BRANCH  75  76
ATOM     76  N   UNL     1       4.956  -3.829   2.076  1.00  0.00    -0.352 N 
ATOM     77  C   UNL     1       5.820  -4.723   2.654  1.00  0.00     0.255 C 
ATOM     78  H   UNL     1       4.676  -4.051   1.159  1.00  0.00     0.163 HD
ATOM     79  O   UNL     1       6.315  -5.622   1.978  1.00  0.00    -0.269 OA
BRANCH  77  80
ATOM     80  C   UNL     1       6.113  -4.578   4.060  1.00  0.00     0.091 A 
ATOM     81  C   UNL     1       5.203  -4.435   5.143  1.00  0.00     0.065 A 
ATOM     82  C   UNL     1       7.378  -4.591   4.624  1.00  0.00     0.221 A 
ATOM     83  C   UNL     1       5.960  -4.216   6.269  1.00  0.00     0.135 A 
ATOM     84  O   UNL     1       7.284  -4.330   5.971  1.00  0.00    -0.451 OA
BRANCH  82  85
ATOM     85  C   UNL     1       8.741  -4.782   4.065  1.00  0.00     0.450 C 
ATOM     86  F   UNL     1       9.633  -3.903   4.594  1.00  0.00    -0.163 F 
ATOM     87  F   UNL     1       9.222  -6.026   4.324  1.00  0.00    -0.163 F 
ATOM     88  F   UNL     1       8.792  -4.608   2.721  1.00  0.00    -0.163 F 
ENDBRANCH  82  85
BRANCH  83  89
ATOM     89  C   UNL     1       5.612  -3.870   7.632  1.00  0.00     0.019 A 
ATOM     90  C   UNL     1       4.598  -4.574   8.297  1.00  0.00     0.012 A 
ATOM     91  C   UNL     1       6.204  -2.767   8.257  1.00  0.00     0.032 A 
ATOM     92  C   UNL     1       4.174  -4.178   9.566  1.00  0.00     0.002 A 
ATOM     93  C   UNL     1       5.767  -2.366   9.518  1.00  0.00     0.041 A 
ATOM     94  C   UNL     1       4.754  -3.065  10.174  1.00  0.00     0.020 A 
ATOM     95  Cl  UNL     1       6.461  -0.980  10.263  1.00  0.00    -0.084 Cl
ENDBRANCH  83  89
ENDBRANCH  77  80
ENDBRANCH  75  76
ENDBRANCH  74  75
ENDBRANCH   1  74
TORSDOF 15
