REMARK SMILES O=C(CCN1C(=O)/C(=C/c2cc(Br)cc(Br)c2O)SC1=S)NCCCNC(=O)c1ccc(-c2c3nc(c(-c4c(F)cc(S(=O)(=O)[O-])cc4F)c4ccc([nH]4)c(-c4c(F)cc(S(=O)(=O)[O-])cc4F)c4nc(c(-c5c(F)cc(S(=O)(=O)[O-])cc5F)c5ccc2[nH]5)C=C4)C=C3)cc1
REMARK SMILES IDX 23 1 22 2 1 3 2 4 3 6 4 7 5 8 6 9 20 10 7 11 8 12 19 13
REMARK SMILES IDX 21 14 9 15 10 16 11 17 17 18 12 19 15 20 13 21 14 22 16 23
REMARK SMILES IDX 18 24 24 26 25 27 26 28 27 29 28 31 29 32 30 33 94 34 31 35
REMARK SMILES IDX 93 36 32 37 33 38 34 39 87 40 35 41 92 42 86 43 88 44 36 45
REMARK SMILES IDX 91 46 85 47 84 48 37 50 71 51 50 52 70 53 51 54 54 55 69 56
REMARK SMILES IDX 89 57 52 58 53 59 68 61 90 62 55 63 38 64 39 65 48 66 40 67
REMARK SMILES IDX 41 68 47 69 49 70 42 71 43 72 44 73 45 74 46 75 72 76 73 77
REMARK SMILES IDX 82 78 74 79 75 80 81 81 83 82 76 83 77 84 78 85 79 86 80 87
REMARK SMILES IDX 56 88 57 89 66 90 58 91 59 92 65 93 67 94 60 95 61 96 62 97
REMARK SMILES IDX 63 98 64 99
REMARK H PARENT 22 5 18 25 26 30 88 49 54 60
REMARK Flexibility Score: inf
ROOT
ATOM      1  C   UNL     1       1.922   1.664   1.583  1.00  0.00     0.117 C 
ENDROOT
BRANCH   1   2
ATOM      2  N   UNL     1       2.595   0.624   0.833  1.00  0.00    -0.356 N 
ATOM      3  O   UNL     1       0.812   0.054  -0.509  1.00  0.00    -0.275 OA
ATOM      4  C   UNL     1       1.986  -0.075  -0.184  1.00  0.00     0.221 C 
ATOM      5  H   UNL     1       3.528   0.407   1.060  1.00  0.00     0.163 HD
BRANCH   4   6
ATOM      6  C   UNL     1       2.909  -1.050  -0.877  1.00  0.00     0.122 C 
BRANCH   6   7
ATOM      7  C   UNL     1       3.840  -0.351  -1.870  1.00  0.00     0.137 C 
BRANCH   7   8
ATOM      8  N   UNL     1       4.869   0.490  -1.237  1.00  0.00    -0.292 N 
ATOM      9  C   UNL     1       4.753   1.872  -1.318  1.00  0.00     0.266 C 
ATOM     10  C   UNL     1       5.987   0.006  -0.588  1.00  0.00     0.148 C 
ATOM     11  O   UNL     1       3.876   2.487  -1.905  1.00  0.00    -0.268 OA
ATOM     12  C   UNL     1       5.858   2.529  -0.565  1.00  0.00     0.081 C 
ATOM     13  S   UNL     1       6.870   1.334   0.140  1.00  0.00    -0.054 SA
ATOM     14  S   UNL     1       6.485  -1.577  -0.432  1.00  0.00    -0.052 S 
ATOM     15  C   UNL     1       5.949   3.863  -0.457  1.00  0.00     0.033 C 
BRANCH  15  16
ATOM     16  C   UNL     1       6.927   4.621   0.349  1.00  0.00     0.020 A 
ATOM     17  C   UNL     1       8.304   4.381   0.257  1.00  0.00     0.027 A 
ATOM     18  C   UNL     1       6.480   5.604   1.246  1.00  0.00     0.137 A 
ATOM     19  C   UNL     1       9.194   5.043   1.106  1.00  0.00     0.019 A 
ATOM     20  C   UNL     1       7.378   6.269   2.091  1.00  0.00     0.061 A 
ATOM     21  Br  UNL     1      11.043   4.665   0.991  1.00  0.00    -0.051 Br
ATOM     22  C   UNL     1       8.738   5.973   2.036  1.00  0.00     0.035 A 
ATOM     23  Br  UNL     1       6.802   7.600   3.312  1.00  0.00    -0.047 Br
BRANCH  18  24
ATOM     24  O   UNL     1       5.136   5.879   1.280  1.00  0.00    -0.506 OA
ATOM     25  H   UNL     1       4.550   5.425   0.708  1.00  0.00     0.293 HD
ENDBRANCH  18  24
ENDBRANCH  15  16
ENDBRANCH   7   8
ENDBRANCH   6   7
ENDBRANCH   4   6
ENDBRANCH   1   2
BRANCH   1  26
ATOM     26  C   UNL     1       2.229   1.580   3.075  1.00  0.00     0.042 C 
BRANCH  26  27
ATOM     27  C   UNL     1       3.701   1.782   3.435  1.00  0.00     0.118 C 
BRANCH  27  28
ATOM     28  N   UNL     1       4.156   3.127   3.129  1.00  0.00    -0.352 N 
ATOM     29  C   UNL     1       4.622   4.097   3.979  1.00  0.00     0.251 C 
ATOM     30  H   UNL     1       4.126   3.378   2.177  1.00  0.00     0.163 HD
ATOM     31  O   UNL     1       4.503   5.273   3.637  1.00  0.00    -0.269 OA
BRANCH  29  32
ATOM     32  C   UNL     1       5.253   3.779   5.281  1.00  0.00     0.039 A 
ATOM     33  C   UNL     1       5.259   4.784   6.254  1.00  0.00     0.014 A 
ATOM     34  C   UNL     1       5.865   2.553   5.556  1.00  0.00     0.014 A 
ATOM     35  C   UNL     1       5.786   4.532   7.519  1.00  0.00     0.010 A 
ATOM     36  C   UNL     1       6.307   2.270   6.849  1.00  0.00     0.010 A 
ATOM     37  C   UNL     1       6.252   3.251   7.848  1.00  0.00    -0.014 A 
BRANCH  37  38
ATOM     38  C   UNL     1       6.601   2.922   9.253  1.00  0.00     0.031 A 
ATOM     39  C   UNL     1       7.995   2.516   9.633  1.00  0.00     0.074 A 
ATOM     40  C   UNL     1       5.622   2.955  10.181  1.00  0.00     0.049 A 
ATOM     41  N   UNL     1       8.464   2.190  10.810  1.00  0.00    -0.248 NA
ATOM     42  C   UNL     1       8.989   2.440   8.550  1.00  0.00     0.031 C 
ATOM     43  C   UNL     1       4.216   3.272   9.913  1.00  0.00     0.029 A 
ATOM     44  N   UNL     1       5.654   2.723  11.532  1.00  0.00    -0.354 N 
ATOM     45  C   UNL     1       9.799   1.862  10.611  1.00  0.00     0.074 A 
ATOM     46  C   UNL     1      10.054   1.979   9.191  1.00  0.00     0.031 C 
ATOM     47  C   UNL     1       3.531   3.257  11.067  1.00  0.00     0.029 A 
ATOM     48  C   UNL     1       4.435   2.886  12.148  1.00  0.00     0.049 A 
ATOM     49  H   UNL     1       6.472   2.465  12.015  1.00  0.00     0.167 HD
ATOM     50  C   UNL     1      10.731   1.517  11.533  1.00  0.00     0.037 A 
ATOM     51  C   UNL     1       4.083   2.751  13.441  1.00  0.00     0.037 A 
ATOM     52  C   UNL     1      10.467   1.421  12.946  1.00  0.00     0.049 A 
ATOM     53  C   UNL     1       5.139   2.385  14.444  1.00  0.00     0.074 A 
ATOM     54  C   UNL     1      11.352   1.130  13.970  1.00  0.00     0.029 A 
ATOM     55  N   UNL     1       9.225   1.612  13.537  1.00  0.00    -0.354 N 
ATOM     56  N   UNL     1       6.414   2.144  14.246  1.00  0.00    -0.248 NA
ATOM     57  C   UNL     1       4.715   2.281  15.846  1.00  0.00     0.031 C 
ATOM     58  C   UNL     1      10.638   1.103  15.173  1.00  0.00     0.029 A 
ATOM     59  C   UNL     1       9.317   1.427  14.907  1.00  0.00     0.049 A 
ATOM     60  H   UNL     1       8.400   1.844  13.052  1.00  0.00     0.167 HD
ATOM     61  C   UNL     1       6.949   1.882  15.502  1.00  0.00     0.074 A 
ATOM     62  C   UNL     1       5.863   2.012  16.452  1.00  0.00     0.031 C 
ATOM     63  C   UNL     1       8.223   1.562  15.838  1.00  0.00     0.037 A 
BRANCH  50  64
ATOM     64  C   UNL     1      12.123   1.222  11.041  1.00  0.00     0.058 A 
ATOM     65  C   UNL     1      12.958   2.234  10.542  1.00  0.00     0.135 A 
ATOM     66  C   UNL     1      12.642  -0.082  11.101  1.00  0.00     0.135 A 
ATOM     67  F   UNL     1      12.510   3.496  10.448  1.00  0.00    -0.206 F 
ATOM     68  C   UNL     1      14.245   1.961  10.091  1.00  0.00     0.059 A 
ATOM     69  C   UNL     1      13.937  -0.374  10.681  1.00  0.00     0.059 A 
ATOM     70  F   UNL     1      11.888  -1.089  11.569  1.00  0.00    -0.206 F 
ATOM     71  C   UNL     1      14.726   0.652  10.163  1.00  0.00     0.060 A 
BRANCH  71  72
ATOM     72  S   UNL     1      16.398   0.315   9.573  1.00  0.00     0.124 S 
ATOM     73  O   UNL     1      16.222   0.418   8.127  1.00  0.00    -0.237 OA
ATOM     74  O   UNL     1      17.171   1.386  10.194  1.00  0.00    -0.237 OA
ATOM     75  O   UNL     1      16.673  -1.027  10.077  1.00  0.00    -0.744 OA
ENDBRANCH  71  72
ENDBRANCH  50  64
BRANCH  51  76
ATOM     76  C   UNL     1       2.675   2.992  13.856  1.00  0.00     0.058 A 
ATOM     77  C   UNL     1       2.330   4.118  14.618  1.00  0.00     0.135 A 
ATOM     78  C   UNL     1       1.645   2.115  13.481  1.00  0.00     0.135 A 
ATOM     79  F   UNL     1       3.280   4.985  15.001  1.00  0.00    -0.206 F 
ATOM     80  C   UNL     1       1.018   4.357  15.011  1.00  0.00     0.059 A 
ATOM     81  C   UNL     1       0.321   2.348  13.840  1.00  0.00     0.059 A 
ATOM     82  F   UNL     1       1.919   1.035  12.733  1.00  0.00    -0.206 F 
ATOM     83  C   UNL     1       0.019   3.466  14.616  1.00  0.00     0.060 A 
BRANCH  83  84
ATOM     84  S   UNL     1      -1.688   3.809  15.094  1.00  0.00     0.124 S 
ATOM     85  O   UNL     1      -1.666   3.478  16.514  1.00  0.00    -0.237 OA
ATOM     86  O   UNL     1      -1.819   5.226  14.770  1.00  0.00    -0.237 OA
ATOM     87  O   UNL     1      -2.461   2.905  14.247  1.00  0.00    -0.744 OA
ENDBRANCH  83  84
ENDBRANCH  51  76
BRANCH  63  88
ATOM     88  C   UNL     1       8.516   1.361  17.299  1.00  0.00     0.058 A 
ATOM     89  C   UNL     1       8.060   0.231  17.994  1.00  0.00     0.135 A 
ATOM     90  C   UNL     1       9.287   2.300  18.003  1.00  0.00     0.135 A 
ATOM     91  F   UNL     1       7.312  -0.692  17.369  1.00  0.00    -0.206 F 
ATOM     92  C   UNL     1       8.332   0.053  19.347  1.00  0.00     0.059 A 
ATOM     93  C   UNL     1       9.596   2.127  19.348  1.00  0.00     0.059 A 
ATOM     94  F   UNL     1       9.757   3.393  17.382  1.00  0.00    -0.206 F 
ATOM     95  C   UNL     1       9.100   1.008  20.015  1.00  0.00     0.060 A 
BRANCH  95  96
ATOM     96  S   UNL     1       9.462   0.757  21.766  1.00  0.00     0.124 S 
ATOM     97  O   UNL     1       8.180   1.085  22.380  1.00  0.00    -0.237 OA
ATOM     98  O   UNL     1       9.842  -0.652  21.808  1.00  0.00    -0.237 OA
ATOM     99  O   UNL     1      10.544   1.700  22.027  1.00  0.00    -0.744 OA
ENDBRANCH  95  96
ENDBRANCH  63  88
ENDBRANCH  37  38
ENDBRANCH  29  32
ENDBRANCH  27  28
ENDBRANCH  26  27
ENDBRANCH   1  26
TORSDOF 17
