REMARK SMILES CC1(C)CCN(c2ncccc2C(=O)NCCCNC(=O)c2ccc(-c3c4nc(c(-c5c(F)cc(S(=O)(=O)[O-])cc5F)c5ccc([nH]5)c(-c5c(F)cc(S(=O)(=O)[O-])cc5F)c5nc(c(-c6c(F)cc(S(=O)(=O)[O-])cc6F)c6ccc3[nH]6)C=C5)C=C4)cc2)C1
REMARK SMILES IDX 18 1 17 2 16 3 15 4 13 5 14 6 12 8 7 9 8 10 9 11 11 12 10 13
REMARK SMILES IDX 6 14 1 15 2 16 3 17 4 18 88 19 5 20 19 21 20 22 21 24 22 25
REMARK SMILES IDX 23 26 87 27 24 28 86 29 25 30 26 31 27 32 80 33 28 34 85 35
REMARK SMILES IDX 79 36 81 37 29 38 84 39 78 40 77 41 30 43 64 44 43 45 63 46
REMARK SMILES IDX 44 47 47 48 62 49 82 50 45 51 46 52 61 54 83 55 48 56 31 57
REMARK SMILES IDX 32 58 41 59 33 60 34 61 40 62 42 63 35 64 36 65 37 66 38 67
REMARK SMILES IDX 39 68 65 69 66 70 75 71 67 72 68 73 74 74 76 75 69 76 70 77
REMARK SMILES IDX 71 78 72 79 73 80 49 81 50 82 59 83 51 84 52 85 58 86 60 87
REMARK SMILES IDX 53 88 54 89 55 90 56 91 57 92
REMARK H PARENT 15 7 19 23 81 42 47 53
REMARK Flexibility Score: inf
ROOT
ATOM      1  C   UNL     1       3.361   6.288   3.862  1.00  0.00     0.118 C 
ENDROOT
BRANCH   1   2
ATOM      2  C   UNL     1       4.096   5.813   2.605  1.00  0.00     0.042 C 
BRANCH   2   3
ATOM      3  C   UNL     1       4.548   4.355   2.678  1.00  0.00     0.118 C 
BRANCH   3   4
ATOM      4  N   UNL     1       3.406   3.467   2.754  1.00  0.00    -0.352 N 
ATOM      5  C   UNL     1       2.695   2.687   1.878  1.00  0.00     0.255 C 
ATOM      6  O   UNL     1       1.755   2.106   2.420  1.00  0.00    -0.269 OA
ATOM      7  H   UNL     1       3.050   3.407   3.670  1.00  0.00     0.163 HD
BRANCH   5   8
ATOM      8  C   UNL     1       3.036   2.500   0.424  1.00  0.00     0.082 A 
ATOM      9  C   UNL     1       2.579   1.368  -0.289  1.00  0.00     0.141 A 
ATOM     10  N   UNL     1       3.062   1.065  -1.528  1.00  0.00    -0.238 NA
ATOM     11  C   UNL     1       3.918   1.917  -2.121  1.00  0.00     0.113 A 
ATOM     12  C   UNL     1       3.858   3.397  -0.271  1.00  0.00     0.019 A 
ATOM     13  C   UNL     1       4.319   3.102  -1.551  1.00  0.00     0.021 A 
BRANCH   9  14
ATOM     14  N   UNL     1       1.559   0.551   0.151  1.00  0.00    -0.355 N 
ATOM     15  C   UNL     1      -1.077  -0.174  -1.623  1.00  0.00     0.013 C 
ATOM     16  C   UNL     1      -0.721  -0.104  -0.129  1.00  0.00    -0.016 C 
ATOM     17  C   UNL     1      -2.010  -0.037   0.695  1.00  0.00     0.013 C 
ATOM     18  C   UNL     1       0.156  -1.296   0.291  1.00  0.00     0.030 C 
ATOM     19  C   UNL     1       0.199   1.105   0.158  1.00  0.00     0.124 C 
ATOM     20  C   UNL     1       1.559  -0.870  -0.136  1.00  0.00     0.119 C 
ENDBRANCH   9  14
ENDBRANCH   5   8
ENDBRANCH   3   4
ENDBRANCH   2   3
ENDBRANCH   1   2
BRANCH   1  21
ATOM     21  N   UNL     1       4.212   6.250   5.044  1.00  0.00    -0.352 N 
ATOM     22  C   UNL     1       4.654   7.269   5.849  1.00  0.00     0.251 C 
ATOM     23  H   UNL     1       4.518   5.352   5.306  1.00  0.00     0.163 HD
ATOM     24  O   UNL     1       5.567   7.057   6.641  1.00  0.00    -0.269 OA
BRANCH  22  25
ATOM     25  C   UNL     1       4.042   8.613   5.766  1.00  0.00     0.039 A 
ATOM     26  C   UNL     1       4.869   9.738   5.839  1.00  0.00     0.014 A 
ATOM     27  C   UNL     1       2.656   8.768   5.673  1.00  0.00     0.014 A 
ATOM     28  C   UNL     1       4.310  11.016   5.761  1.00  0.00     0.010 A 
ATOM     29  C   UNL     1       2.107  10.040   5.529  1.00  0.00     0.010 A 
ATOM     30  C   UNL     1       2.928  11.177   5.576  1.00  0.00    -0.014 A 
BRANCH  30  31
ATOM     31  C   UNL     1       2.321  12.524   5.425  1.00  0.00     0.031 A 
ATOM     32  C   UNL     1       1.345  13.035   6.449  1.00  0.00     0.074 A 
ATOM     33  C   UNL     1       2.598  13.256   4.328  1.00  0.00     0.049 A 
ATOM     34  N   UNL     1       0.651  14.144   6.448  1.00  0.00    -0.248 NA
ATOM     35  C   UNL     1       1.094  12.173   7.616  1.00  0.00     0.031 C 
ATOM     36  C   UNL     1       3.491  12.845   3.242  1.00  0.00     0.029 A 
ATOM     37  N   UNL     1       2.145  14.490   3.935  1.00  0.00    -0.354 N 
ATOM     38  C   UNL     1      -0.130  14.106   7.597  1.00  0.00     0.074 A 
ATOM     39  C   UNL     1       0.141  12.842   8.248  1.00  0.00     0.031 C 
ATOM     40  C   UNL     1       3.534  13.817   2.316  1.00  0.00     0.029 A 
ATOM     41  C   UNL     1       2.645  14.901   2.722  1.00  0.00     0.049 A 
ATOM     42  H   UNL     1       1.522  15.031   4.472  1.00  0.00     0.167 HD
ATOM     43  C   UNL     1      -0.979  15.046   8.076  1.00  0.00     0.037 A 
ATOM     44  C   UNL     1       2.407  16.020   2.011  1.00  0.00     0.037 A 
ATOM     45  C   UNL     1      -1.222  16.313   7.435  1.00  0.00     0.049 A 
ATOM     46  C   UNL     1       1.470  17.056   2.569  1.00  0.00     0.074 A 
ATOM     47  C   UNL     1      -2.017  17.360   7.870  1.00  0.00     0.029 A 
ATOM     48  N   UNL     1      -0.673  16.706   6.223  1.00  0.00    -0.354 N 
ATOM     49  N   UNL     1       0.785  17.029   3.688  1.00  0.00    -0.248 NA
ATOM     50  C   UNL     1       1.277  18.275   1.773  1.00  0.00     0.031 C 
ATOM     51  C   UNL     1      -1.979  18.369   6.901  1.00  0.00     0.029 A 
ATOM     52  C   UNL     1      -1.124  17.971   5.886  1.00  0.00     0.049 A 
ATOM     53  H   UNL     1      -0.053  16.164   5.682  1.00  0.00     0.167 HD
ATOM     54  C   UNL     1       0.100  18.237   3.743  1.00  0.00     0.074 A 
ATOM     55  C   UNL     1       0.462  18.976   2.550  1.00  0.00     0.031 C 
ATOM     56  C   UNL     1      -0.749  18.695   4.696  1.00  0.00     0.037 A 
BRANCH  43  57
ATOM     57  C   UNL     1      -1.706  14.741   9.358  1.00  0.00     0.058 A 
ATOM     58  C   UNL     1      -1.037  14.694  10.592  1.00  0.00     0.135 A 
ATOM     59  C   UNL     1      -3.093  14.520   9.359  1.00  0.00     0.135 A 
ATOM     60  F   UNL     1       0.291  14.884  10.649  1.00  0.00    -0.206 F 
ATOM     61  C   UNL     1      -1.710  14.405  11.775  1.00  0.00     0.059 A 
ATOM     62  C   UNL     1      -3.792  14.257  10.534  1.00  0.00     0.059 A 
ATOM     63  F   UNL     1      -3.784  14.555   8.209  1.00  0.00    -0.206 F 
ATOM     64  C   UNL     1      -3.087  14.185  11.735  1.00  0.00     0.060 A 
BRANCH  64  65
ATOM     65  S   UNL     1      -3.945  13.808  13.278  1.00  0.00     0.124 S 
ATOM     66  O   UNL     1      -3.523  12.431  13.516  1.00  0.00    -0.237 OA
ATOM     67  O   UNL     1      -3.398  14.805  14.193  1.00  0.00    -0.237 OA
ATOM     68  O   UNL     1      -5.353  13.982  12.936  1.00  0.00    -0.744 OA
ENDBRANCH  64  65
ENDBRANCH  43  57
BRANCH  44  69
ATOM     69  C   UNL     1       3.091  16.227   0.708  1.00  0.00     0.058 A 
ATOM     70  C   UNL     1       4.114  17.177   0.574  1.00  0.00     0.135 A 
ATOM     71  C   UNL     1       2.758  15.462  -0.421  1.00  0.00     0.135 A 
ATOM     72  F   UNL     1       4.465  17.936   1.624  1.00  0.00    -0.206 F 
ATOM     73  C   UNL     1       4.776  17.371  -0.634  1.00  0.00     0.059 A 
ATOM     74  C   UNL     1       3.422  15.620  -1.633  1.00  0.00     0.059 A 
ATOM     75  F   UNL     1       1.799  14.527  -0.340  1.00  0.00    -0.206 F 
ATOM     76  C   UNL     1       4.425  16.584  -1.732  1.00  0.00     0.060 A 
BRANCH  76  77
ATOM     77  S   UNL     1       5.332  16.800  -3.279  1.00  0.00     0.124 S 
ATOM     78  O   UNL     1       4.788  18.063  -3.764  1.00  0.00    -0.237 OA
ATOM     79  O   UNL     1       6.718  16.834  -2.820  1.00  0.00    -0.237 OA
ATOM     80  O   UNL     1       4.966  15.616  -4.050  1.00  0.00    -0.744 OA
ENDBRANCH  76  77
ENDBRANCH  44  69
BRANCH  56  81
ATOM     81  C   UNL     1      -1.323  20.071   4.506  1.00  0.00     0.058 A 
ATOM     82  C   UNL     1      -2.322  20.328   3.555  1.00  0.00     0.135 A 
ATOM     83  C   UNL     1      -0.905  21.133   5.324  1.00  0.00     0.135 A 
ATOM     84  F   UNL     1      -2.752  19.349   2.744  1.00  0.00    -0.206 F 
ATOM     85  C   UNL     1      -2.872  21.597   3.406  1.00  0.00     0.059 A 
ATOM     86  C   UNL     1      -1.459  22.403   5.210  1.00  0.00     0.059 A 
ATOM     87  F   UNL     1       0.041  20.937   6.256  1.00  0.00    -0.206 F 
ATOM     88  C   UNL     1      -2.435  22.628   4.240  1.00  0.00     0.060 A 
BRANCH  88  89
ATOM     89  S   UNL     1      -3.182  24.262   4.062  1.00  0.00     0.124 S 
ATOM     90  O   UNL     1      -2.551  24.741   2.836  1.00  0.00    -0.237 OA
ATOM     91  O   UNL     1      -4.604  23.948   3.962  1.00  0.00    -0.237 OA
ATOM     92  O   UNL     1      -2.784  24.953   5.285  1.00  0.00    -0.744 OA
ENDBRANCH  88  89
ENDBRANCH  56  81
ENDBRANCH  30  31
ENDBRANCH  22  25
ENDBRANCH   1  21
TORSDOF 14
