REMARK SMILES COc1cccc(C[C@H](C(=O)NCCCNC(=O)c2ccc(-c3c4nc(c(-c5c(F)cc(S(=O)(=O)[O-])cc5F)c5ccc([nH]5)c(-c5c(F)cc(S(=O)(=O)[O-])cc5F)c5nc(c(-c6c(F)cc(S(=O)(=O)[O-])cc6F)c6ccc3[nH]6)C=C5)C=C4)cc2)[C@H]2CCCCC[C@@H]2O)c1
REMARK SMILES IDX 13 1 12 2 10 3 11 4 9 6 8 7 7 8 3 9 4 10 93 11 5 12 6 13
REMARK SMILES IDX 2 14 1 15 85 16 86 17 87 18 91 20 90 21 89 22 88 23 92 25
REMARK SMILES IDX 14 27 15 28 16 29 17 30 18 32 19 33 20 34 84 35 21 36 83 37
REMARK SMILES IDX 22 38 23 39 24 40 77 41 25 42 82 43 76 44 78 45 26 46 81 47
REMARK SMILES IDX 75 48 74 49 27 51 61 52 40 53 60 54 41 55 44 56 59 57 79 58
REMARK SMILES IDX 42 59 43 60 58 62 80 63 45 64 28 65 29 66 38 67 30 68 31 69
REMARK SMILES IDX 37 70 39 71 32 72 33 73 34 74 35 75 36 76 62 77 63 78 72 79
REMARK SMILES IDX 64 80 65 81 71 82 73 83 66 84 67 85 68 86 69 87 70 88 46 89
REMARK SMILES IDX 47 90 56 91 48 92 49 93 55 94 57 95 50 96 51 97 52 98 53 99
REMARK SMILES IDX 54 100
REMARK H PARENT 12 5 92 26 16 31 78 50 44 61
REMARK Flexibility Score: 90.00
ROOT
ATOM      1  C   UNL     1       5.042   0.075   6.206  1.00  0.00     0.117 C 
ENDROOT
BRANCH   1   2
ATOM      2  N   UNL     1       4.141   0.353   5.102  1.00  0.00    -0.356 N 
ATOM      3  C   UNL     1       4.011   1.444   4.306  1.00  0.00     0.223 C 
ATOM      4  O   UNL     1       3.197   1.371   3.381  1.00  0.00    -0.275 OA
ATOM      5  H   UNL     1       3.515  -0.378   4.895  1.00  0.00     0.163 HD
BRANCH   3   6
ATOM      6  C   UNL     1       4.792   2.736   4.542  1.00  0.00     0.088 C 
BRANCH   6   7
ATOM      7  C   UNL     1       4.227   3.403   5.834  1.00  0.00     0.049 C 
BRANCH   7   8
ATOM      8  C   UNL     1       3.752   4.831   5.650  1.00  0.00    -0.044 A 
ATOM      9  C   UNL     1       2.007   6.430   5.105  1.00  0.00     0.119 A 
ATOM     10  C   UNL     1       2.919   7.478   5.189  1.00  0.00     0.046 A 
ATOM     11  C   UNL     1       2.421   5.108   5.296  1.00  0.00     0.050 A 
ATOM     12  C   UNL     1       4.234   7.216   5.562  1.00  0.00     0.004 A 
ATOM     13  C   UNL     1       4.636   5.905   5.823  1.00  0.00     0.004 A 
BRANCH   9  14
ATOM     14  O   UNL     1       0.716   6.749   4.777  1.00  0.00    -0.497 OA
ATOM     15  C   UNL     1      -0.178   6.430   5.844  1.00  0.00     0.278 C 
ENDBRANCH   9  14
ENDBRANCH   7   8
ENDBRANCH   6   7
BRANCH   6  16
ATOM     16  C   UNL     1       6.359   2.611   4.517  1.00  0.00     0.030 C 
BRANCH  16  17
ATOM     17  C   UNL     1       6.941   1.380   3.774  1.00  0.00     0.007 C 
BRANCH  17  18
ATOM     18  C   UNL     1       6.561   1.257   2.304  1.00  0.00     0.000 CG0
ATOM     19  G   UNL     1       7.578   1.883   1.361  1.00  0.00     0.000 G0
ENDBRANCH  17  18
ENDBRANCH  16  17
BRANCH  16  20
ATOM     20  C   UNL     1       7.021   3.925   4.027  1.00  0.00     0.118 C 
BRANCH  20  21
ATOM     21  C   UNL     1       7.159   4.141   2.513  1.00  0.00     0.032 C 
BRANCH  21  22
ATOM     22  C   UNL     1       8.155   3.222   1.806  1.00  0.00     0.003 C 
BRANCH  22  23
ATOM     23  C   UNL     1       7.578   1.883   1.361  1.00  0.00     0.000 CG0
ATOM     24  G   UNL     1       6.561   1.257   2.304  1.00  0.00     0.000 G0
ENDBRANCH  22  23
ENDBRANCH  21  22
ENDBRANCH  20  21
BRANCH  20  25
ATOM     25  O   UNL     1       8.299   4.084   4.653  1.00  0.00    -0.393 OA
ATOM     26  H   UNL     1       8.895   3.380   4.354  1.00  0.00     0.210 HD
ENDBRANCH  20  25
ENDBRANCH  16  20
ENDBRANCH   6  16
ENDBRANCH   3   6
ENDBRANCH   1   2
BRANCH   1  27
ATOM     27  C   UNL     1       4.327  -0.408   7.450  1.00  0.00     0.042 C 
BRANCH  27  28
ATOM     28  C   UNL     1       3.495  -1.662   7.236  1.00  0.00     0.118 C 
BRANCH  28  29
ATOM     29  N   UNL     1       4.279  -2.826   6.837  1.00  0.00    -0.352 N 
ATOM     30  C   UNL     1       4.475  -4.025   7.484  1.00  0.00     0.251 C 
ATOM     31  H   UNL     1       4.739  -2.741   5.970  1.00  0.00     0.163 HD
ATOM     32  O   UNL     1       5.285  -4.834   7.039  1.00  0.00    -0.269 OA
BRANCH  30  33
ATOM     33  C   UNL     1       3.739  -4.314   8.733  1.00  0.00     0.039 A 
ATOM     34  C   UNL     1       4.420  -4.874   9.817  1.00  0.00     0.014 A 
ATOM     35  C   UNL     1       2.387  -3.993   8.848  1.00  0.00     0.014 A 
ATOM     36  C   UNL     1       3.764  -5.021  11.042  1.00  0.00     0.010 A 
ATOM     37  C   UNL     1       1.777  -4.021  10.094  1.00  0.00     0.010 A 
ATOM     38  C   UNL     1       2.452  -4.548  11.204  1.00  0.00    -0.014 A 
BRANCH  38  39
ATOM     39  C   UNL     1       1.744  -4.616  12.508  1.00  0.00     0.031 A 
ATOM     40  C   UNL     1       0.451  -5.380  12.615  1.00  0.00     0.074 A 
ATOM     41  C   UNL     1       2.209  -3.922  13.565  1.00  0.00     0.049 A 
ATOM     42  N   UNL     1      -0.377  -5.472  13.623  1.00  0.00    -0.248 NA
ATOM     43  C   UNL     1       0.007  -6.100  11.409  1.00  0.00     0.031 C 
ATOM     44  C   UNL     1       3.419  -3.097  13.575  1.00  0.00     0.029 A 
ATOM     45  N   UNL     1       1.712  -3.794  14.838  1.00  0.00    -0.354 N 
ATOM     46  C   UNL     1      -1.450  -6.226  13.162  1.00  0.00     0.074 A 
ATOM     47  C   UNL     1      -1.200  -6.508  11.766  1.00  0.00     0.031 C 
ATOM     48  C   UNL     1       3.591  -2.583  14.804  1.00  0.00     0.029 A 
ATOM     49  C   UNL     1       2.485  -3.006  15.657  1.00  0.00     0.049 A 
ATOM     50  H   UNL     1       0.879  -4.226  15.137  1.00  0.00     0.167 HD
ATOM     51  C   UNL     1      -2.531  -6.673  13.845  1.00  0.00     0.037 A 
ATOM     52  C   UNL     1       2.322  -2.666  16.950  1.00  0.00     0.037 A 
ATOM     53  C   UNL     1      -2.750  -6.427  15.245  1.00  0.00     0.049 A 
ATOM     54  C   UNL     1       1.129  -3.191  17.700  1.00  0.00     0.074 A 
ATOM     55  C   UNL     1      -3.772  -6.890  16.052  1.00  0.00     0.029 A 
ATOM     56  N   UNL     1      -1.926  -5.649  16.047  1.00  0.00    -0.354 N 
ATOM     57  N   UNL     1       0.153  -3.953  17.266  1.00  0.00    -0.248 NA
ATOM     58  C   UNL     1       1.018  -2.815  19.116  1.00  0.00     0.031 C 
ATOM     59  C   UNL     1      -3.587  -6.363  17.336  1.00  0.00     0.029 A 
ATOM     60  C   UNL     1      -2.424  -5.608  17.338  1.00  0.00     0.049 A 
ATOM     61  H   UNL     1      -1.108  -5.194  15.743  1.00  0.00     0.167 HD
ATOM     62  C   UNL     1      -0.672  -4.176  18.363  1.00  0.00     0.074 A 
ATOM     63  C   UNL     1      -0.078  -3.469  19.480  1.00  0.00     0.031 C 
ATOM     64  C   UNL     1      -1.813  -4.904  18.439  1.00  0.00     0.037 A 
BRANCH  51  65
ATOM     65  C   UNL     1      -3.548  -7.470  13.073  1.00  0.00     0.058 A 
ATOM     66  C   UNL     1      -3.257  -8.748  12.566  1.00  0.00     0.135 A 
ATOM     67  C   UNL     1      -4.820  -6.938  12.808  1.00  0.00     0.135 A 
ATOM     68  F   UNL     1      -2.051  -9.300  12.777  1.00  0.00    -0.206 F 
ATOM     69  C   UNL     1      -4.165  -9.442  11.773  1.00  0.00     0.059 A 
ATOM     70  C   UNL     1      -5.757  -7.629  12.045  1.00  0.00     0.059 A 
ATOM     71  F   UNL     1      -5.156  -5.723  13.271  1.00  0.00    -0.206 F 
ATOM     72  C   UNL     1      -5.409  -8.868  11.508  1.00  0.00     0.060 A 
BRANCH  72  73
ATOM     73  S   UNL     1      -6.559  -9.755  10.437  1.00  0.00     0.124 S 
ATOM     74  O   UNL     1      -5.977  -9.508   9.121  1.00  0.00    -0.237 OA
ATOM     75  O   UNL     1      -6.454 -11.126  10.928  1.00  0.00    -0.237 OA
ATOM     76  O   UNL     1      -7.836  -9.098  10.694  1.00  0.00    -0.744 OA
ENDBRANCH  72  73
ENDBRANCH  51  65
BRANCH  52  77
ATOM     77  C   UNL     1       3.354  -1.837  17.628  1.00  0.00     0.058 A 
ATOM     78  C   UNL     1       4.238  -2.416  18.551  1.00  0.00     0.135 A 
ATOM     79  C   UNL     1       3.513  -0.474  17.335  1.00  0.00     0.135 A 
ATOM     80  F   UNL     1       4.120  -3.714  18.868  1.00  0.00    -0.206 F 
ATOM     81  C   UNL     1       5.244  -1.675  19.160  1.00  0.00     0.059 A 
ATOM     82  C   UNL     1       4.526   0.284  17.916  1.00  0.00     0.059 A 
ATOM     83  F   UNL     1       2.703   0.122  16.447  1.00  0.00    -0.206 F 
ATOM     84  C   UNL     1       5.386  -0.326  18.829  1.00  0.00     0.060 A 
BRANCH  84  85
ATOM     85  S   UNL     1       6.750   0.604  19.563  1.00  0.00     0.124 S 
ATOM     86  O   UNL     1       6.296   0.755  20.940  1.00  0.00    -0.237 OA
ATOM     87  O   UNL     1       7.879  -0.298  19.358  1.00  0.00    -0.237 OA
ATOM     88  O   UNL     1       6.785   1.829  18.770  1.00  0.00    -0.744 OA
ENDBRANCH  84  85
ENDBRANCH  52  77
BRANCH  64  89
ATOM     89  C   UNL     1      -2.476  -5.011  19.784  1.00  0.00     0.058 A 
ATOM     90  C   UNL     1      -3.181  -3.937  20.348  1.00  0.00     0.135 A 
ATOM     91  C   UNL     1      -2.450  -6.225  20.490  1.00  0.00     0.135 A 
ATOM     92  F   UNL     1      -3.230  -2.754  19.716  1.00  0.00    -0.206 F 
ATOM     93  C   UNL     1      -3.821  -4.057  21.578  1.00  0.00     0.059 A 
ATOM     94  C   UNL     1      -3.105  -6.374  21.708  1.00  0.00     0.059 A 
ATOM     95  F   UNL     1      -1.798  -7.286  19.988  1.00  0.00    -0.206 F 
ATOM     96  C   UNL     1      -3.778  -5.280  22.249  1.00  0.00     0.060 A 
BRANCH  96  97
ATOM     97  S   UNL     1      -4.643  -5.434  23.827  1.00  0.00     0.124 S 
ATOM     98  O   UNL     1      -3.749  -4.709  24.723  1.00  0.00    -0.237 OA
ATOM     99  O   UNL     1      -5.922  -4.788  23.547  1.00  0.00    -0.237 OA
ATOM    100  O   UNL     1      -4.711  -6.877  24.037  1.00  0.00    -0.744 OA
ENDBRANCH  96  97
ENDBRANCH  64  89
ENDBRANCH  38  39
ENDBRANCH  30  33
ENDBRANCH  28  29
ENDBRANCH  27  28
ENDBRANCH   1  27
TORSDOF 18
