REMARK SMILES COc1cccc(O[C@@H](C)c2nnc(SCC(=O)NCCCNC(=O)c3ccc(-c4c5nc(c(-c6c(F)cc(S(=O)(=O)[O-])cc6F)c6ccc([nH]6)c(-c6c(F)cc(S(=O)(=O)[O-])cc6F)c6nc(c(-c7c(F)cc(S(=O)(=O)[O-])cc7F)c7ccc4[nH]7)C=C6)C=C5)cc3)n2C)c1
REMARK SMILES IDX 17 1 18 2 19 3 16 5 15 6 14 7 11 8 12 9 92 10 13 11 93 12
REMARK SMILES IDX 9 13 10 14 8 15 7 16 3 17 4 18 94 19 5 20 6 21 2 22 1 23
REMARK SMILES IDX 20 24 21 25 22 26 23 27 24 28 25 30 26 31 27 32 91 33 28 34
REMARK SMILES IDX 90 35 29 36 30 37 31 38 84 39 32 40 89 41 83 42 85 43 33 44
REMARK SMILES IDX 88 45 82 46 81 47 34 49 68 50 47 51 67 52 48 53 51 54 66 55
REMARK SMILES IDX 86 56 49 57 50 58 65 60 87 61 52 62 35 63 36 64 45 65 37 66
REMARK SMILES IDX 38 67 44 68 46 69 39 70 40 71 41 72 42 73 43 74 69 75 70 76
REMARK SMILES IDX 79 77 71 78 72 79 78 80 80 81 73 82 74 83 75 84 76 85 77 86
REMARK SMILES IDX 53 87 54 88 63 89 55 90 56 91 62 92 64 93 57 94 58 95 59 96
REMARK SMILES IDX 60 97 61 98
REMARK H PARENT 19 4 23 29 85 48 51 59
REMARK Flexibility Score: inf
ROOT
ATOM      1  C   UNL     1       2.926   2.679   0.902  1.00  0.00     0.230 C 
ATOM      2  O   UNL     1       2.258   2.321  -0.076  1.00  0.00    -0.274 OA
ATOM      3  N   UNL     1       3.924   3.574   0.668  1.00  0.00    -0.355 N 
ATOM      4  H   UNL     1       4.131   3.727  -0.282  1.00  0.00     0.163 HD
ENDROOT
BRANCH   1   5
ATOM      5  C   UNL     1       2.602   2.144   2.291  1.00  0.00     0.178 C 
BRANCH   5   6
ATOM      6  S   UNL     1       4.015   1.486   3.187  1.00  0.00    -0.076 SA
BRANCH   6   7
ATOM      7  C   UNL     1       4.241  -0.183   2.803  1.00  0.00     0.191 A 
ATOM      8  C   UNL     1       4.530  -2.129   1.808  1.00  0.00     0.174 A 
ATOM      9  N   UNL     1       4.854  -2.243   3.085  1.00  0.00    -0.130 NA
ATOM     10  N   UNL     1       4.195  -0.806   1.577  1.00  0.00    -0.306 N 
ATOM     11  N   UNL     1       4.678  -1.035   3.697  1.00  0.00    -0.123 NA
ATOM     12  C   UNL     1       3.861  -0.180   0.335  1.00  0.00     0.154 C 
BRANCH   8  13
ATOM     13  C   UNL     1       4.585  -3.300   0.861  1.00  0.00     0.238 C 
ATOM     14  C   UNL     1       4.836  -3.090  -0.621  1.00  0.00     0.062 C 
BRANCH  13  15
ATOM     15  O   UNL     1       3.520  -4.250   1.079  1.00  0.00    -0.483 OA
BRANCH  15  16
ATOM     16  C   UNL     1       2.220  -3.879   1.258  1.00  0.00     0.124 A 
ATOM     17  C   UNL     1       0.261  -2.473   0.996  1.00  0.00     0.122 A 
ATOM     18  C   UNL     1      -0.448  -3.327   1.846  1.00  0.00     0.046 A 
ATOM     19  C   UNL     1       1.587  -2.777   0.679  1.00  0.00     0.092 A 
ATOM     20  C   UNL     1       0.152  -4.471   2.367  1.00  0.00     0.008 A 
ATOM     21  C   UNL     1       1.486  -4.740   2.075  1.00  0.00     0.047 A 
BRANCH  17  22
ATOM     22  O   UNL     1      -0.450  -1.377   0.603  1.00  0.00    -0.497 OA
ATOM     23  C   UNL     1      -0.011  -0.575  -0.483  1.00  0.00     0.278 C 
ENDBRANCH  17  22
ENDBRANCH  15  16
ENDBRANCH  13  15
ENDBRANCH   8  13
ENDBRANCH   6   7
ENDBRANCH   5   6
ENDBRANCH   1   5
BRANCH   3  24
ATOM     24  C   UNL     1       4.731   4.340   1.603  1.00  0.00     0.117 C 
BRANCH  24  25
ATOM     25  C   UNL     1       6.166   3.835   1.742  1.00  0.00     0.042 C 
BRANCH  25  26
ATOM     26  C   UNL     1       6.972   3.800   0.449  1.00  0.00     0.118 C 
BRANCH  26  27
ATOM     27  N   UNL     1       7.121   5.112  -0.158  1.00  0.00    -0.352 N 
ATOM     28  C   UNL     1       8.219   5.932  -0.257  1.00  0.00     0.251 C 
ATOM     29  H   UNL     1       6.301   5.473  -0.565  1.00  0.00     0.163 HD
ATOM     30  O   UNL     1       8.059   7.094  -0.619  1.00  0.00    -0.269 OA
BRANCH  28  31
ATOM     31  C   UNL     1       9.575   5.441   0.080  1.00  0.00     0.039 A 
ATOM     32  C   UNL     1      10.444   6.291   0.771  1.00  0.00     0.014 A 
ATOM     33  C   UNL     1      10.016   4.177  -0.318  1.00  0.00     0.014 A 
ATOM     34  C   UNL     1      11.724   5.848   1.120  1.00  0.00     0.010 A 
ATOM     35  C   UNL     1      11.260   3.706   0.101  1.00  0.00     0.010 A 
ATOM     36  C   UNL     1      12.130   4.537   0.822  1.00  0.00    -0.014 A 
BRANCH  36  37
ATOM     37  C   UNL     1      13.453   4.020   1.264  1.00  0.00     0.031 A 
ATOM     38  C   UNL     1      14.481   3.587   0.253  1.00  0.00     0.074 A 
ATOM     39  C   UNL     1      13.705   3.883   2.582  1.00  0.00     0.049 A 
ATOM     40  N   UNL     1      15.660   3.054   0.449  1.00  0.00    -0.248 NA
ATOM     41  C   UNL     1      14.130   3.752  -1.167  1.00  0.00     0.031 C 
ATOM     42  C   UNL     1      12.772   4.219   3.660  1.00  0.00     0.029 A 
ATOM     43  N   UNL     1      14.814   3.415   3.241  1.00  0.00    -0.354 N 
ATOM     44  C   UNL     1      16.184   2.810  -0.816  1.00  0.00     0.074 A 
ATOM     45  C   UNL     1      15.173   3.203  -1.772  1.00  0.00     0.031 C 
ATOM     46  C   UNL     1      13.356   3.969   4.843  1.00  0.00     0.029 A 
ATOM     47  C   UNL     1      14.685   3.415   4.611  1.00  0.00     0.049 A 
ATOM     48  H   UNL     1      15.627   3.108   2.777  1.00  0.00     0.167 HD
ATOM     49  C   UNL     1      17.405   2.325  -1.149  1.00  0.00     0.037 A 
ATOM     50  C   UNL     1      15.536   3.005   5.572  1.00  0.00     0.037 A 
ATOM     51  C   UNL     1      18.415   1.955  -0.191  1.00  0.00     0.049 A 
ATOM     52  C   UNL     1      16.882   2.462   5.176  1.00  0.00     0.074 A 
ATOM     53  C   UNL     1      19.703   1.507  -0.428  1.00  0.00     0.029 A 
ATOM     54  N   UNL     1      18.252   1.986   1.187  1.00  0.00    -0.354 N 
ATOM     55  N   UNL     1      17.386   2.301   3.975  1.00  0.00    -0.248 NA
ATOM     56  C   UNL     1      17.779   2.049   6.264  1.00  0.00     0.031 C 
ATOM     57  C   UNL     1      20.301   1.219   0.802  1.00  0.00     0.029 A 
ATOM     58  C   UNL     1      19.407   1.542   1.811  1.00  0.00     0.049 A 
ATOM     59  H   UNL     1      17.436   2.279   1.653  1.00  0.00     0.167 HD
ATOM     60  C   UNL     1      18.668   1.797   4.165  1.00  0.00     0.074 A 
ATOM     61  C   UNL     1      18.867   1.693   5.595  1.00  0.00     0.031 C 
ATOM     62  C   UNL     1      19.596   1.451   3.238  1.00  0.00     0.037 A 
BRANCH  49  63
ATOM     63  C   UNL     1      17.722   2.168  -2.613  1.00  0.00     0.058 A 
ATOM     64  C   UNL     1      17.910   3.281  -3.450  1.00  0.00     0.135 A 
ATOM     65  C   UNL     1      17.888   0.893  -3.177  1.00  0.00     0.135 A 
ATOM     66  F   UNL     1      17.750   4.524  -2.969  1.00  0.00    -0.206 F 
ATOM     67  C   UNL     1      18.222   3.134  -4.798  1.00  0.00     0.059 A 
ATOM     68  C   UNL     1      18.230   0.723  -4.516  1.00  0.00     0.059 A 
ATOM     69  F   UNL     1      17.721  -0.206  -2.424  1.00  0.00    -0.206 F 
ATOM     70  C   UNL     1      18.381   1.850  -5.322  1.00  0.00     0.060 A 
BRANCH  70  71
ATOM     71  S   UNL     1      18.794   1.680  -7.071  1.00  0.00     0.124 S 
ATOM     72  O   UNL     1      17.537   2.063  -7.705  1.00  0.00    -0.237 OA
ATOM     73  O   UNL     1      19.895   2.626  -7.224  1.00  0.00    -0.237 OA
ATOM     74  O   UNL     1      19.158   0.272  -7.200  1.00  0.00    -0.744 OA
ENDBRANCH  70  71
ENDBRANCH  49  63
BRANCH  50  75
ATOM     75  C   UNL     1      15.148   3.109   7.006  1.00  0.00     0.058 A 
ATOM     76  C   UNL     1      15.781   4.023   7.861  1.00  0.00     0.135 A 
ATOM     77  C   UNL     1      14.136   2.302   7.548  1.00  0.00     0.135 A 
ATOM     78  F   UNL     1      16.759   4.813   7.392  1.00  0.00    -0.206 F 
ATOM     79  C   UNL     1      15.442   4.119   9.207  1.00  0.00     0.059 A 
ATOM     80  C   UNL     1      13.758   2.400   8.884  1.00  0.00     0.059 A 
ATOM     81  F   UNL     1      13.486   1.424   6.769  1.00  0.00    -0.206 F 
ATOM     82  C   UNL     1      14.427   3.303   9.709  1.00  0.00     0.060 A 
BRANCH  82  83
ATOM     83  S   UNL     1      13.970   3.465  11.448  1.00  0.00     0.124 S 
ATOM     84  O   UNL     1      15.114   2.850  12.111  1.00  0.00    -0.237 OA
ATOM     85  O   UNL     1      13.846   4.911  11.599  1.00  0.00    -0.237 OA
ATOM     86  O   UNL     1      12.715   2.724  11.536  1.00  0.00    -0.744 OA
ENDBRANCH  82  83
ENDBRANCH  50  75
BRANCH  62  87
ATOM     87  C   UNL     1      20.928   0.964   3.739  1.00  0.00     0.058 A 
ATOM     88  C   UNL     1      21.078  -0.296   4.341  1.00  0.00     0.135 A 
ATOM     89  C   UNL     1      22.080   1.749   3.570  1.00  0.00     0.135 A 
ATOM     90  F   UNL     1      20.008  -1.085   4.532  1.00  0.00    -0.206 F 
ATOM     91  C   UNL     1      22.317  -0.748   4.782  1.00  0.00     0.059 A 
ATOM     92  C   UNL     1      23.335   1.305   3.976  1.00  0.00     0.059 A 
ATOM     93  F   UNL     1      21.996   2.958   2.991  1.00  0.00    -0.206 F 
ATOM     94  C   UNL     1      23.441   0.059   4.592  1.00  0.00     0.060 A 
BRANCH  94  95
ATOM     95  S   UNL     1      25.048  -0.553   5.140  1.00  0.00     0.124 S 
ATOM     96  O   UNL     1      24.931  -0.433   6.590  1.00  0.00    -0.237 OA
ATOM     97  O   UNL     1      25.059  -1.915   4.616  1.00  0.00    -0.237 OA
ATOM     98  O   UNL     1      25.995   0.362   4.509  1.00  0.00    -0.744 OA
ENDBRANCH  94  95
ENDBRANCH  62  87
ENDBRANCH  36  37
ENDBRANCH  28  31
ENDBRANCH  26  27
ENDBRANCH  25  26
ENDBRANCH  24  25
ENDBRANCH   3  24
TORSDOF 19
