REMARK SMILES CC(C)C[N@@H+](Cc1ccc(C(=O)NCCCNC(=O)c2ccc(-c3c4nc(c(-c5c(F)cc(S(=O)(=O)[O-])cc5F)c5ccc([nH]5)c(-c5c(F)cc(S(=O)(=O)[O-])cc5F)c5nc(c(-c6c(F)cc(S(=O)(=O)[O-])cc6F)c6ccc3[nH]6)C=C5)C=C4)cc2)cn1)C1CC1
REMARK SMILES IDX 14 1 13 2 11 3 12 4 10 6 7 7 8 8 87 9 9 10 86 11 6 12 5 13
REMARK SMILES IDX 4 15 2 16 1 17 3 18 88 19 89 20 90 21 15 22 16 23 17 24
REMARK SMILES IDX 18 25 19 27 20 28 21 29 85 30 22 31 84 32 23 33 24 34 25 35
REMARK SMILES IDX 78 36 26 37 83 38 77 39 79 40 27 41 82 42 76 43 75 44 28 46
REMARK SMILES IDX 62 47 41 48 61 49 42 50 45 51 60 52 80 53 43 54 44 55 59 57
REMARK SMILES IDX 81 58 46 59 29 60 30 61 39 62 31 63 32 64 38 65 40 66 33 67
REMARK SMILES IDX 34 68 35 69 36 70 37 71 63 72 64 73 73 74 65 75 66 76 72 77
REMARK SMILES IDX 74 78 67 79 68 80 69 81 70 82 71 83 47 84 48 85 57 86 49 87
REMARK SMILES IDX 50 88 56 89 58 90 51 91 52 92 53 93 54 94 55 95
REMARK H PARENT 13 5 5 14 17 26 79 45 45 56
REMARK Flexibility Score: inf
ROOT
ATOM      1  C   UNL     1      -3.247  -4.556  -1.980  1.00  0.00     0.118 C 
ENDROOT
BRANCH   1   2
ATOM      2  N   UNL     1      -4.134  -3.998  -2.993  1.00  0.00    -0.352 N 
ATOM      3  C   UNL     1      -4.705  -2.753  -3.087  1.00  0.00     0.252 C 
ATOM      4  O   UNL     1      -5.311  -2.432  -4.107  1.00  0.00    -0.269 OA
ATOM      5  H   UNL     1      -4.359  -4.612  -3.728  1.00  0.00     0.163 HD
BRANCH   3   6
ATOM      6  C   UNL     1      -4.517  -1.760  -2.020  1.00  0.00     0.058 A 
ATOM      7  C   UNL     1      -3.644   0.057  -0.167  1.00  0.00     0.095 A 
ATOM      8  C   UNL     1      -4.316  -1.085   0.273  1.00  0.00     0.030 A 
ATOM      9  N   UNL     1      -3.579   0.394  -1.483  1.00  0.00    -0.255 NA
ATOM     10  C   UNL     1      -4.747  -2.015  -0.672  1.00  0.00     0.017 A 
ATOM     11  C   UNL     1      -4.021  -0.518  -2.379  1.00  0.00     0.125 A 
BRANCH   7  12
ATOM     12  C   UNL     1      -2.795   0.866   0.804  1.00  0.00     0.319 C 
BRANCH  12  13
ATOM     13  N   UNL     1      -1.329   0.676   0.679  1.00  0.00    -0.327 N 
ATOM     14  H   UNL     1      -0.918   1.342   1.334  1.00  0.00     0.348 HD
BRANCH  13  15
ATOM     15  C   UNL     1      -0.785   1.139  -0.604  1.00  0.00     0.265 C 
BRANCH  15  16
ATOM     16  C   UNL     1       0.635   1.767  -0.578  1.00  0.00     0.038 C 
ATOM     17  C   UNL     1       1.761   0.859  -0.089  1.00  0.00     0.013 C 
ATOM     18  C   UNL     1       0.985   2.246  -1.995  1.00  0.00     0.013 C 
ENDBRANCH  15  16
ENDBRANCH  13  15
BRANCH  13  19
ATOM     19  C   UNL     1      -0.762  -0.540   1.293  1.00  0.00     0.184 C 
ATOM     20  C   UNL     1      -1.315  -1.935   1.136  1.00  0.00     0.071 C 
ATOM     21  C   UNL     1      -0.018  -1.592   0.499  1.00  0.00     0.071 C 
ENDBRANCH  13  19
ENDBRANCH  12  13
ENDBRANCH   7  12
ENDBRANCH   3   6
ENDBRANCH   1   2
BRANCH   1  22
ATOM     22  C   UNL     1      -3.954  -5.595  -1.114  1.00  0.00     0.042 C 
BRANCH  22  23
ATOM     23  C   UNL     1      -4.335  -6.868  -1.865  1.00  0.00     0.118 C 
BRANCH  23  24
ATOM     24  N   UNL     1      -3.179  -7.680  -2.213  1.00  0.00    -0.352 N 
ATOM     25  C   UNL     1      -2.916  -9.002  -1.941  1.00  0.00     0.251 C 
ATOM     26  H   UNL     1      -2.477  -7.212  -2.720  1.00  0.00     0.163 HD
ATOM     27  O   UNL     1      -1.793  -9.445  -2.171  1.00  0.00    -0.269 OA
BRANCH  25  28
ATOM     28  C   UNL     1      -3.956  -9.885  -1.362  1.00  0.00     0.039 A 
ATOM     29  C   UNL     1      -3.579 -10.821  -0.393  1.00  0.00     0.014 A 
ATOM     30  C   UNL     1      -5.284  -9.831  -1.792  1.00  0.00     0.014 A 
ATOM     31  C   UNL     1      -4.540 -11.663   0.176  1.00  0.00     0.010 A 
ATOM     32  C   UNL     1      -6.254 -10.615  -1.168  1.00  0.00     0.010 A 
ATOM     33  C   UNL     1      -5.892 -11.549  -0.185  1.00  0.00    -0.014 A 
BRANCH  33  34
ATOM     34  C   UNL     1      -6.934 -12.413   0.433  1.00  0.00     0.031 A 
ATOM     35  C   UNL     1      -7.721 -13.375  -0.421  1.00  0.00     0.074 A 
ATOM     36  C   UNL     1      -7.213 -12.293   1.748  1.00  0.00     0.049 A 
ATOM     37  N   UNL     1      -8.720 -14.151  -0.085  1.00  0.00    -0.248 NA
ATOM     38  C   UNL     1      -7.356 -13.457  -1.845  1.00  0.00     0.031 C 
ATOM     39  C   UNL     1      -6.553 -11.369   2.673  1.00  0.00     0.029 A 
ATOM     40  N   UNL     1      -8.134 -12.942   2.533  1.00  0.00    -0.354 N 
ATOM     41  C   UNL     1      -9.114 -14.792  -1.254  1.00  0.00     0.074 A 
ATOM     42  C   UNL     1      -8.277 -14.284  -2.318  1.00  0.00     0.031 C 
ATOM     43  C   UNL     1      -7.077 -11.523   3.900  1.00  0.00     0.029 A 
ATOM     44  C   UNL     1      -8.136 -12.525   3.845  1.00  0.00     0.049 A 
ATOM     45  H   UNL     1      -8.736 -13.640   2.190  1.00  0.00     0.167 HD
ATOM     46  C   UNL     1     -10.073 -15.734  -1.422  1.00  0.00     0.037 A 
ATOM     47  C   UNL     1      -8.911 -12.899   4.882  1.00  0.00     0.037 A 
ATOM     48  C   UNL     1     -10.873 -16.270  -0.351  1.00  0.00     0.049 A 
ATOM     49  C   UNL     1      -9.962 -13.958   4.668  1.00  0.00     0.074 A 
ATOM     50  C   UNL     1     -11.821 -17.277  -0.409  1.00  0.00     0.029 A 
ATOM     51  N   UNL     1     -10.819 -15.847   0.968  1.00  0.00    -0.354 N 
ATOM     52  N   UNL     1     -10.273 -14.600   3.567  1.00  0.00    -0.248 NA
ATOM     53  C   UNL     1     -10.761 -14.350   5.838  1.00  0.00     0.031 C 
ATOM     54  C   UNL     1     -12.374 -17.431   0.866  1.00  0.00     0.029 A 
ATOM     55  C   UNL     1     -11.730 -16.560   1.730  1.00  0.00     0.049 A 
ATOM     56  H   UNL     1     -10.222 -15.144   1.313  1.00  0.00     0.167 HD
ATOM     57  C   UNL     1     -11.272 -15.501   3.923  1.00  0.00     0.074 A 
ATOM     58  C   UNL     1     -11.508 -15.325   5.340  1.00  0.00     0.031 C 
ATOM     59  C   UNL     1     -11.934 -16.394   3.146  1.00  0.00     0.037 A 
BRANCH  46  60
ATOM     60  C   UNL     1     -10.313 -16.266  -2.809  1.00  0.00     0.058 A 
ATOM     61  C   UNL     1      -9.392 -17.113  -3.445  1.00  0.00     0.135 A 
ATOM     62  C   UNL     1     -11.518 -15.991  -3.476  1.00  0.00     0.135 A 
ATOM     63  F   UNL     1      -8.217 -17.395  -2.860  1.00  0.00    -0.206 F 
ATOM     64  C   UNL     1      -9.653 -17.663  -4.696  1.00  0.00     0.059 A 
ATOM     65  C   UNL     1     -11.812 -16.552  -4.716  1.00  0.00     0.059 A 
ATOM     66  F   UNL     1     -12.433 -15.184  -2.916  1.00  0.00    -0.206 F 
ATOM     67  C   UNL     1     -10.870 -17.383  -5.320  1.00  0.00     0.060 A 
BRANCH  67  68
ATOM     68  S   UNL     1     -11.211 -18.144  -6.921  1.00  0.00     0.124 S 
ATOM     69  O   UNL     1     -10.302 -17.408  -7.793  1.00  0.00    -0.237 OA
ATOM     70  O   UNL     1     -10.866 -19.542  -6.681  1.00  0.00    -0.237 OA
ATOM     71  O   UNL     1     -12.631 -17.879  -7.129  1.00  0.00    -0.744 OA
ENDBRANCH  67  68
ENDBRANCH  46  60
BRANCH  47  72
ATOM     72  C   UNL     1      -8.727 -12.281   6.225  1.00  0.00     0.058 A 
ATOM     73  C   UNL     1      -8.248 -13.034   7.309  1.00  0.00     0.135 A 
ATOM     74  C   UNL     1      -9.058 -10.938   6.462  1.00  0.00     0.135 A 
ATOM     75  F   UNL     1      -7.920 -14.324   7.136  1.00  0.00    -0.206 F 
ATOM     76  C   UNL     1      -8.143 -12.492   8.585  1.00  0.00     0.059 A 
ATOM     77  C   UNL     1      -8.932 -10.364   7.723  1.00  0.00     0.059 A 
ATOM     78  F   UNL     1      -9.501 -10.166   5.457  1.00  0.00    -0.206 F 
ATOM     79  C   UNL     1      -8.493 -11.155   8.783  1.00  0.00     0.060 A 
BRANCH  79  80
ATOM     80  S   UNL     1      -8.350 -10.457  10.443  1.00  0.00     0.124 S 
ATOM     81  O   UNL     1      -9.487 -11.072  11.118  1.00  0.00    -0.237 OA
ATOM     82  O   UNL     1      -7.031 -10.922  10.859  1.00  0.00    -0.237 OA
ATOM     83  O   UNL     1      -8.455  -9.019  10.210  1.00  0.00    -0.744 OA
ENDBRANCH  79  80
ENDBRANCH  47  72
BRANCH  59  84
ATOM     84  C   UNL     1     -12.929 -17.299   3.819  1.00  0.00     0.058 A 
ATOM     85  C   UNL     1     -14.164 -16.828   4.291  1.00  0.00     0.135 A 
ATOM     86  C   UNL     1     -12.659 -18.672   3.947  1.00  0.00     0.135 A 
ATOM     87  F   UNL     1     -14.470 -15.524   4.197  1.00  0.00    -0.206 F 
ATOM     88  C   UNL     1     -15.084 -17.681   4.891  1.00  0.00     0.059 A 
ATOM     89  C   UNL     1     -13.577 -19.548   4.515  1.00  0.00     0.059 A 
ATOM     90  F   UNL     1     -11.498 -19.177   3.501  1.00  0.00    -0.206 F 
ATOM     91  C   UNL     1     -14.782 -19.040   4.998  1.00  0.00     0.060 A 
BRANCH  91  92
ATOM     92  S   UNL     1     -15.997 -20.140   5.754  1.00  0.00     0.124 S 
ATOM     93  O   UNL     1     -15.873 -19.791   7.165  1.00  0.00    -0.237 OA
ATOM     94  O   UNL     1     -17.238 -19.729   5.105  1.00  0.00    -0.237 OA
ATOM     95  O   UNL     1     -15.520 -21.472   5.393  1.00  0.00    -0.744 OA
ENDBRANCH  91  92
ENDBRANCH  59  84
ENDBRANCH  33  34
ENDBRANCH  25  28
ENDBRANCH  23  24
ENDBRANCH  22  23
ENDBRANCH   1  22
TORSDOF 18
