REMARK SMILES CC(=O)Nc1cc(NC(C)=O)cc(C(=O)Nc2ccc(Br)cc2C(=O)NCCCNC(=O)c2ccc(-c3c4nc(c(-c5c(F)cc(S(=O)(=O)[O-])cc5F)c5ccc([nH]5)c(-c5c(F)cc(S(=O)(=O)[O-])cc5F)c5nc(c(-c6c(F)cc(S(=O)(=O)[O-])cc6F)c6ccc3[nH]6)C=C5)C=C4)cc2)c1
REMARK SMILES IDX 28 1 27 2 26 3 24 4 25 5 23 7 17 8 18 9 19 10 22 11 20 12
REMARK SMILES IDX 21 13 16 14 14 15 15 16 13 18 5 19 6 20 99 21 7 22 12 23
REMARK SMILES IDX 4 24 1 25 2 26 3 27 8 29 9 30 10 32 11 33 29 34 30 35 31 36
REMARK SMILES IDX 32 38 33 39 34 40 98 41 35 42 97 43 36 44 37 45 38 46 91 47
REMARK SMILES IDX 39 48 96 49 90 50 92 51 40 52 95 53 89 54 88 55 41 57 75 58
REMARK SMILES IDX 54 59 74 60 55 61 58 62 73 63 93 64 56 65 57 66 72 68 94 69
REMARK SMILES IDX 59 70 42 71 43 72 52 73 44 74 45 75 51 76 53 77 46 78 47 79
REMARK SMILES IDX 48 80 49 81 50 82 76 83 77 84 86 85 78 86 79 87 85 88 87 89
REMARK SMILES IDX 80 90 81 91 82 92 83 93 84 94 60 95 61 96 70 97 62 98 63 99
REMARK SMILES IDX 69 100 71 101 64 102 65 103 66 104 67 105 68 106
REMARK H PARENT 26 6 16 17 4 28 8 31 30 37 92 56 58 67
REMARK Flexibility Score: inf
ROOT
ATOM      1  C   UNL     1       7.737  -2.665  -1.142  1.00  0.00     0.042 C 
ENDROOT
BRANCH   1   2
ATOM      2  C   UNL     1       6.414  -1.956  -0.938  1.00  0.00     0.118 C 
BRANCH   2   3
ATOM      3  N   UNL     1       5.407  -2.774  -0.286  1.00  0.00    -0.352 N 
ATOM      4  C   UNL     1       4.310  -2.399   0.439  1.00  0.00     0.253 C 
ATOM      5  O   UNL     1       3.599  -3.276   0.928  1.00  0.00    -0.269 OA
ATOM      6  H   UNL     1       5.534  -3.746  -0.381  1.00  0.00     0.163 HD
BRANCH   4   7
ATOM      7  C   UNL     1       4.007  -0.974   0.724  1.00  0.00     0.064 A 
ATOM      8  C   UNL     1       4.073   0.101  -0.185  1.00  0.00     0.054 A 
ATOM      9  C   UNL     1       3.991   1.409   0.325  1.00  0.00     0.028 A 
ATOM     10  C   UNL     1       3.686   1.643   1.668  1.00  0.00     0.018 A 
ATOM     11  C   UNL     1       3.664  -0.729   2.069  1.00  0.00     0.031 A 
ATOM     12  C   UNL     1       3.483   0.570   2.526  1.00  0.00     0.018 A 
ATOM     13  Br  UNL     1       2.964   0.878   4.315  1.00  0.00    -0.051 Br
BRANCH   8  14
ATOM     14  N   UNL     1       4.154   0.034  -1.597  1.00  0.00    -0.321 N 
ATOM     15  C   UNL     1       3.684  -0.891  -2.510  1.00  0.00     0.255 C 
ATOM     16  O   UNL     1       4.088  -0.858  -3.671  1.00  0.00    -0.269 OA
ATOM     17  H   UNL     1       4.638   0.788  -2.006  1.00  0.00     0.170 HD
BRANCH  15  18
ATOM     18  C   UNL     1       2.647  -1.880  -2.150  1.00  0.00     0.044 A 
ATOM     19  C   UNL     1       0.769  -2.498  -0.768  1.00  0.00     0.044 A 
ATOM     20  C   UNL     1       0.852  -3.799  -1.294  1.00  0.00     0.052 A 
ATOM     21  C   UNL     1       1.628  -1.530  -1.262  1.00  0.00     0.040 A 
ATOM     22  C   UNL     1       1.776  -4.129  -2.296  1.00  0.00     0.044 A 
ATOM     23  C   UNL     1       2.696  -3.162  -2.706  1.00  0.00     0.040 A 
BRANCH  19  24
ATOM     24  N   UNL     1      -0.113  -2.292   0.309  1.00  0.00    -0.326 N 
ATOM     25  C   UNL     1      -0.258   0.202   0.480  1.00  0.00     0.114 C 
ATOM     26  C   UNL     1      -0.511  -1.185   0.999  1.00  0.00     0.221 C 
ATOM     27  O   UNL     1      -1.129  -1.339   2.057  1.00  0.00    -0.275 OA
ATOM     28  H   UNL     1      -0.530  -3.123   0.633  1.00  0.00     0.169 HD
ENDBRANCH  19  24
BRANCH  22  29
ATOM     29  N   UNL     1       1.850  -5.397  -2.915  1.00  0.00    -0.326 N 
ATOM     30  C   UNL     1       0.990  -6.465  -2.737  1.00  0.00     0.221 C 
ATOM     31  H   UNL     1       2.596  -5.535  -3.542  1.00  0.00     0.169 HD
ATOM     32  C   UNL     1       1.346  -7.664  -3.581  1.00  0.00     0.114 C 
ATOM     33  O   UNL     1       0.002  -6.497  -2.010  1.00  0.00    -0.275 OA
ENDBRANCH  22  29
ENDBRANCH  15  18
ENDBRANCH   8  14
ENDBRANCH   4   7
ENDBRANCH   2   3
ENDBRANCH   1   2
BRANCH   1  34
ATOM     34  C   UNL     1       7.641  -3.950  -1.953  1.00  0.00     0.118 C 
BRANCH  34  35
ATOM     35  N   UNL     1       7.108  -3.786  -3.304  1.00  0.00    -0.352 N 
ATOM     36  C   UNL     1       7.699  -3.920  -4.539  1.00  0.00     0.251 C 
ATOM     37  H   UNL     1       6.156  -3.536  -3.336  1.00  0.00     0.163 HD
ATOM     38  O   UNL     1       7.037  -3.726  -5.556  1.00  0.00    -0.269 OA
BRANCH  36  39
ATOM     39  C   UNL     1       9.140  -4.231  -4.647  1.00  0.00     0.039 A 
ATOM     40  C   UNL     1       9.934  -3.488  -5.526  1.00  0.00     0.014 A 
ATOM     41  C   UNL     1       9.725  -5.200  -3.837  1.00  0.00     0.014 A 
ATOM     42  C   UNL     1      11.324  -3.624  -5.486  1.00  0.00     0.010 A 
ATOM     43  C   UNL     1      11.105  -5.229  -3.696  1.00  0.00     0.010 A 
ATOM     44  C   UNL     1      11.926  -4.439  -4.513  1.00  0.00    -0.014 A 
BRANCH  44  45
ATOM     45  C   UNL     1      13.400  -4.488  -4.314  1.00  0.00     0.031 A 
ATOM     46  C   UNL     1      14.114  -5.815  -4.350  1.00  0.00     0.074 A 
ATOM     47  C   UNL     1      14.075  -3.368  -3.981  1.00  0.00     0.049 A 
ATOM     48  N   UNL     1      15.344  -6.103  -4.011  1.00  0.00    -0.248 NA
ATOM     49  C   UNL     1      13.320  -6.984  -4.765  1.00  0.00     0.031 C 
ATOM     50  C   UNL     1      13.493  -2.031  -3.834  1.00  0.00     0.029 A 
ATOM     51  N   UNL     1      15.403  -3.178  -3.686  1.00  0.00    -0.354 N 
ATOM     52  C   UNL     1      15.451  -7.485  -4.119  1.00  0.00     0.074 A 
ATOM     53  C   UNL     1      14.148  -7.983  -4.499  1.00  0.00     0.031 C 
ATOM     54  C   UNL     1      14.461  -1.157  -3.515  1.00  0.00     0.029 A 
ATOM     55  C   UNL     1      15.725  -1.874  -3.388  1.00  0.00     0.049 A 
ATOM     56  H   UNL     1      16.064  -3.908  -3.688  1.00  0.00     0.167 HD
ATOM     57  C   UNL     1      16.543  -8.268  -3.948  1.00  0.00     0.037 A 
ATOM     58  C   UNL     1      16.904  -1.319  -3.047  1.00  0.00     0.037 A 
ATOM     59  C   UNL     1      17.855  -7.759  -3.658  1.00  0.00     0.049 A 
ATOM     60  C   UNL     1      18.122  -2.196  -2.949  1.00  0.00     0.074 A 
ATOM     61  C   UNL     1      19.047  -8.455  -3.557  1.00  0.00     0.029 A 
ATOM     62  N   UNL     1      18.152  -6.421  -3.445  1.00  0.00    -0.354 N 
ATOM     63  N   UNL     1      18.214  -3.496  -3.102  1.00  0.00    -0.248 NA
ATOM     64  C   UNL     1      19.395  -1.534  -2.636  1.00  0.00     0.031 C 
ATOM     65  C   UNL     1      20.063  -7.538  -3.267  1.00  0.00     0.029 A 
ATOM     66  C   UNL     1      19.509  -6.269  -3.216  1.00  0.00     0.049 A 
ATOM     67  H   UNL     1      17.496  -5.688  -3.456  1.00  0.00     0.167 HD
ATOM     68  C   UNL     1      19.558  -3.804  -2.929  1.00  0.00     0.074 A 
ATOM     69  C   UNL     1      20.243  -2.554  -2.669  1.00  0.00     0.031 C 
ATOM     70  C   UNL     1      20.170  -5.012  -2.978  1.00  0.00     0.037 A 
BRANCH  57  71
ATOM     71  C   UNL     1      16.361  -9.753  -4.101  1.00  0.00     0.058 A 
ATOM     72  C   UNL     1      16.104 -10.339  -5.351  1.00  0.00     0.135 A 
ATOM     73  C   UNL     1      16.451 -10.603  -2.986  1.00  0.00     0.135 A 
ATOM     74  F   UNL     1      15.991  -9.571  -6.446  1.00  0.00    -0.206 F 
ATOM     75  C   UNL     1      15.898 -11.707  -5.485  1.00  0.00     0.059 A 
ATOM     76  C   UNL     1      16.278 -11.979  -3.102  1.00  0.00     0.059 A 
ATOM     77  F   UNL     1      16.696 -10.097  -1.768  1.00  0.00    -0.206 F 
ATOM     78  C   UNL     1      15.981 -12.519  -4.353  1.00  0.00     0.060 A 
BRANCH  78  79
ATOM     79  S   UNL     1      15.699 -14.292  -4.540  1.00  0.00     0.124 S 
ATOM     80  O   UNL     1      14.244 -14.342  -4.653  1.00  0.00    -0.237 OA
ATOM     81  O   UNL     1      16.439 -14.602  -5.759  1.00  0.00    -0.237 OA
ATOM     82  O   UNL     1      16.254 -14.854  -3.313  1.00  0.00    -0.744 OA
ENDBRANCH  78  79
ENDBRANCH  57  71
BRANCH  58  83
ATOM     83  C   UNL     1      17.000   0.146  -2.817  1.00  0.00     0.058 A 
ATOM     84  C   UNL     1      17.624   0.978  -3.758  1.00  0.00     0.135 A 
ATOM     85  C   UNL     1      16.460   0.748  -1.670  1.00  0.00     0.135 A 
ATOM     86  F   UNL     1      18.159   0.448  -4.869  1.00  0.00    -0.206 F 
ATOM     87  C   UNL     1      17.725   2.352  -3.566  1.00  0.00     0.059 A 
ATOM     88  C   UNL     1      16.530   2.123  -1.464  1.00  0.00     0.059 A 
ATOM     89  F   UNL     1      15.834  -0.002  -0.749  1.00  0.00    -0.206 F 
ATOM     90  C   UNL     1      17.174   2.916  -2.415  1.00  0.00     0.060 A 
BRANCH  90  91
ATOM     91  S   UNL     1      17.262   4.707  -2.198  1.00  0.00     0.124 S 
ATOM     92  O   UNL     1      18.654   4.886  -1.802  1.00  0.00    -0.237 OA
ATOM     93  O   UNL     1      16.907   5.197  -3.526  1.00  0.00    -0.237 OA
ATOM     94  O   UNL     1      16.270   4.966  -1.159  1.00  0.00    -0.744 OA
ENDBRANCH  90  91
ENDBRANCH  58  83
BRANCH  70  95
ATOM     95  C   UNL     1      21.658  -5.038  -2.784  1.00  0.00     0.058 A 
ATOM     96  C   UNL     1      22.235  -4.890  -1.514  1.00  0.00     0.135 A 
ATOM     97  C   UNL     1      22.511  -5.277  -3.874  1.00  0.00     0.135 A 
ATOM     98  F   UNL     1      21.461  -4.654  -0.444  1.00  0.00    -0.206 F 
ATOM     99  C   UNL     1      23.612  -4.961  -1.333  1.00  0.00     0.059 A 
ATOM    100  C   UNL     1      23.888  -5.374  -3.712  1.00  0.00     0.059 A 
ATOM    101  F   UNL     1      22.004  -5.435  -5.107  1.00  0.00    -0.206 F 
ATOM    102  C   UNL     1      24.430  -5.205  -2.438  1.00  0.00     0.060 A 
BRANCH 102 103
ATOM    103  S   UNL     1      26.212  -5.339  -2.185  1.00  0.00     0.124 S 
ATOM    104  O   UNL     1      26.594  -3.938  -2.041  1.00  0.00    -0.237 OA
ATOM    105  O   UNL     1      26.298  -6.147  -0.972  1.00  0.00    -0.237 OA
ATOM    106  O   UNL     1      26.678  -5.997  -3.402  1.00  0.00    -0.744 OA
ENDBRANCH 102 103
ENDBRANCH  70  95
ENDBRANCH  44  45
ENDBRANCH  36  39
ENDBRANCH  34  35
ENDBRANCH   1  34
TORSDOF 17
