REMARK SMILES Cc1cc(O[C@@H](C)C(=O)NCCC(=O)NCCCNC(=O)c2ccc(-c3c4nc(c(-c5c(F)cc(S(=O)(=O)[O-])cc5F)c5ccc([nH]5)c(-c5c(F)cc(S(=O)(=O)[O-])cc5F)c5nc(c(-c6c(F)cc(S(=O)(=O)[O-])cc6F)c6ccc3[nH]6)C=C5)C=C4)cc2)c2c3c(c(=O)oc2c1)CCCC3
REMARK SMILES IDX 16 1 15 2 13 3 14 4 12 6 11 7 10 8 8 9 9 10 6 12 7 13 5 14
REMARK SMILES IDX 4 15 1 16 2 17 3 18 95 19 94 20 88 21 93 22 89 23 91 24
REMARK SMILES IDX 90 25 99 26 92 27 96 28 98 29 97 30 17 31 18 32 19 33 20 34
REMARK SMILES IDX 21 36 22 37 23 38 87 39 24 40 86 41 25 42 26 43 27 44 80 45
REMARK SMILES IDX 28 46 85 47 79 48 81 49 29 50 84 51 78 52 77 53 30 55 64 56
REMARK SMILES IDX 43 57 63 58 44 59 47 60 62 61 82 62 45 63 46 64 61 66 83 67
REMARK SMILES IDX 48 68 31 69 32 70 41 71 33 72 34 73 40 74 42 75 35 76 36 77
REMARK SMILES IDX 37 78 38 79 39 80 65 81 66 82 75 83 67 84 68 85 74 86 76 87
REMARK SMILES IDX 69 88 70 89 71 90 72 91 73 92 49 93 50 94 59 95 51 96 52 97
REMARK SMILES IDX 58 98 60 99 53 100 54 101 55 102 56 103 57 104
REMARK H PARENT 15 5 10 11 19 35 81 54 47 65
REMARK Flexibility Score: inf
ROOT
ATOM      1  C   UNL     1      -3.101   3.452  -0.954  1.00  0.00     0.117 C 
ENDROOT
BRANCH   1   2
ATOM      2  N   UNL     1      -3.020   2.005  -0.967  1.00  0.00    -0.356 N 
ATOM      3  C   UNL     1      -1.989   1.224  -0.548  1.00  0.00     0.221 C 
ATOM      4  O   UNL     1      -1.984   0.030  -0.850  1.00  0.00    -0.275 OA
ATOM      5  H   UNL     1      -3.806   1.530  -1.323  1.00  0.00     0.163 HD
BRANCH   3   6
ATOM      6  C   UNL     1      -0.893   1.827   0.296  1.00  0.00     0.121 C 
BRANCH   6   7
ATOM      7  C   UNL     1       0.268   2.403  -0.514  1.00  0.00     0.126 C 
BRANCH   7   8
ATOM      8  N   UNL     1       0.307   3.855  -0.465  1.00  0.00    -0.352 N 
ATOM      9  C   UNL     1       0.600   4.743   0.514  1.00  0.00     0.260 C 
ATOM     10  O   UNL     1       0.039   5.842   0.398  1.00  0.00    -0.271 OA
ATOM     11  H   UNL     1       0.072   4.281  -1.321  1.00  0.00     0.163 HD
BRANCH   9  12
ATOM     12  C   UNL     1       1.663   4.524   1.625  1.00  0.00     0.258 C 
ATOM     13  C   UNL     1       3.065   4.444   1.026  1.00  0.00     0.064 C 
BRANCH  12  14
ATOM     14  O   UNL     1       1.504   3.811   2.837  1.00  0.00    -0.480 OA
BRANCH  14  15
ATOM     15  C   UNL     1       1.248   2.485   2.951  1.00  0.00     0.132 A 
ATOM     16  C   UNL     1       1.997  -0.734   1.069  1.00  0.00     0.044 C 
ATOM     17  C   UNL     1       1.529   0.189   2.158  1.00  0.00    -0.044 A 
ATOM     18  C   UNL     1       1.889   1.543   2.138  1.00  0.00     0.050 A 
ATOM     19  C   UNL     1       0.601  -0.235   3.101  1.00  0.00     0.051 A 
ATOM     20  C   UNL     1       0.081   0.685   4.015  1.00  0.00     0.142 A 
ATOM     21  C   UNL     1       0.380   2.053   3.982  1.00  0.00     0.063 A 
ATOM     22  O   UNL     1      -0.773   0.126   4.980  1.00  0.00    -0.422 OA
ATOM     23  C   UNL     1      -0.219   2.903   5.050  1.00  0.00    -0.023 A 
ATOM     24  C   UNL     1      -1.227   0.865   6.051  1.00  0.00     0.339 A 
ATOM     25  C   UNL     1      -0.942   2.320   6.030  1.00  0.00     0.042 A 
ATOM     26  C   UNL     1       0.030   4.399   5.074  1.00  0.00     0.037 C 
ATOM     27  O   UNL     1      -1.855   0.338   6.964  1.00  0.00    -0.246 OA
ATOM     28  C   UNL     1      -1.526   3.072   7.201  1.00  0.00     0.043 C 
ATOM     29  C   UNL     1      -0.280   5.088   6.405  1.00  0.00     0.005 C 
ATOM     30  C   UNL     1      -1.577   4.583   7.006  1.00  0.00     0.005 C 
ENDBRANCH  14  15
ENDBRANCH  12  14
ENDBRANCH   9  12
ENDBRANCH   7   8
ENDBRANCH   6   7
ENDBRANCH   3   6
ENDBRANCH   1   2
BRANCH   1  31
ATOM     31  C   UNL     1      -2.471   4.020  -2.216  1.00  0.00     0.042 C 
BRANCH  31  32
ATOM     32  C   UNL     1      -3.242   3.673  -3.475  1.00  0.00     0.118 C 
BRANCH  32  33
ATOM     33  N   UNL     1      -4.490   4.409  -3.573  1.00  0.00    -0.352 N 
ATOM     34  C   UNL     1      -4.777   5.554  -4.279  1.00  0.00     0.251 C 
ATOM     35  H   UNL     1      -5.241   4.033  -3.059  1.00  0.00     0.163 HD
ATOM     36  O   UNL     1      -5.816   6.166  -4.046  1.00  0.00    -0.269 OA
BRANCH  34  37
ATOM     37  C   UNL     1      -3.819   6.056  -5.287  1.00  0.00     0.039 A 
ATOM     38  C   UNL     1      -3.164   5.170  -6.140  1.00  0.00     0.014 A 
ATOM     39  C   UNL     1      -3.552   7.425  -5.368  1.00  0.00     0.014 A 
ATOM     40  C   UNL     1      -2.093   5.611  -6.902  1.00  0.00     0.010 A 
ATOM     41  C   UNL     1      -2.567   7.886  -6.247  1.00  0.00     0.010 A 
ATOM     42  C   UNL     1      -1.792   6.978  -6.987  1.00  0.00    -0.014 A 
BRANCH  42  43
ATOM     43  C   UNL     1      -0.680   7.431  -7.865  1.00  0.00     0.031 A 
ATOM     44  C   UNL     1       0.484   8.204  -7.299  1.00  0.00     0.074 A 
ATOM     45  C   UNL     1      -0.697   7.095  -9.173  1.00  0.00     0.049 A 
ATOM     46  N   UNL     1       1.500   8.739  -7.928  1.00  0.00    -0.248 NA
ATOM     47  C   UNL     1       0.513   8.410  -5.841  1.00  0.00     0.031 C 
ATOM     48  C   UNL     1      -1.752   6.318  -9.834  1.00  0.00     0.029 A 
ATOM     49  N   UNL     1       0.204   7.338 -10.178  1.00  0.00    -0.354 N 
ATOM     50  C   UNL     1       2.274   9.357  -6.952  1.00  0.00     0.074 A 
ATOM     51  C   UNL     1       1.596   9.161  -5.689  1.00  0.00     0.031 C 
ATOM     52  C   UNL     1      -1.406   6.094 -11.109  1.00  0.00     0.029 A 
ATOM     53  C   UNL     1      -0.160   6.794 -11.388  1.00  0.00     0.049 A 
ATOM     54  H   UNL     1       1.032   7.853 -10.046  1.00  0.00     0.167 HD
ATOM     55  C   UNL     1       3.450  10.014  -7.096  1.00  0.00     0.037 A 
ATOM     56  C   UNL     1       0.422   6.877 -12.599  1.00  0.00     0.037 A 
ATOM     57  C   UNL     1       4.131  10.180  -8.355  1.00  0.00     0.049 A 
ATOM     58  C   UNL     1       1.680   7.685 -12.740  1.00  0.00     0.074 A 
ATOM     59  C   UNL     1       5.323  10.838  -8.607  1.00  0.00     0.029 A 
ATOM     60  N   UNL     1       3.692   9.672  -9.569  1.00  0.00    -0.354 N 
ATOM     61  N   UNL     1       2.377   8.294 -11.811  1.00  0.00    -0.248 NA
ATOM     62  C   UNL     1       2.222   7.834 -14.097  1.00  0.00     0.031 C 
ATOM     63  C   UNL     1       5.584  10.762  -9.979  1.00  0.00     0.029 A 
ATOM     64  C   UNL     1       4.582  10.014 -10.575  1.00  0.00     0.049 A 
ATOM     65  H   UNL     1       2.870   9.146  -9.698  1.00  0.00     0.167 HD
ATOM     66  C   UNL     1       3.451   8.881 -12.469  1.00  0.00     0.074 A 
ATOM     67  C   UNL     1       3.324   8.533 -13.869  1.00  0.00     0.031 C 
ATOM     68  C   UNL     1       4.447   9.648 -11.961  1.00  0.00     0.037 A 
BRANCH  55  69
ATOM     69  C   UNL     1       4.095  10.603  -5.870  1.00  0.00     0.058 A 
ATOM     70  C   UNL     1       4.723   9.792  -4.913  1.00  0.00     0.135 A 
ATOM     71  C   UNL     1       4.178  11.996  -5.705  1.00  0.00     0.135 A 
ATOM     72  F   UNL     1       4.658   8.455  -5.010  1.00  0.00    -0.206 F 
ATOM     73  C   UNL     1       5.414  10.340  -3.837  1.00  0.00     0.059 A 
ATOM     74  C   UNL     1       4.886  12.566  -4.649  1.00  0.00     0.059 A 
ATOM     75  F   UNL     1       3.592  12.817  -6.589  1.00  0.00    -0.206 F 
ATOM     76  C   UNL     1       5.501  11.729  -3.720  1.00  0.00     0.060 A 
BRANCH  76  77
ATOM     77  S   UNL     1       6.453  12.416  -2.349  1.00  0.00     0.124 S 
ATOM     78  O   UNL     1       5.636  12.030  -1.202  1.00  0.00    -0.237 OA
ATOM     79  O   UNL     1       7.728  11.719  -2.480  1.00  0.00    -0.237 OA
ATOM     80  O   UNL     1       6.489  13.846  -2.638  1.00  0.00    -0.744 OA
ENDBRANCH  76  77
ENDBRANCH  55  69
BRANCH  56  81
ATOM     81  C   UNL     1      -0.190   6.205 -13.777  1.00  0.00     0.058 A 
ATOM     82  C   UNL     1       0.470   5.152 -14.428  1.00  0.00     0.135 A 
ATOM     83  C   UNL     1      -1.435   6.610 -14.287  1.00  0.00     0.135 A 
ATOM     84  F   UNL     1       1.663   4.732 -13.982  1.00  0.00    -0.206 F 
ATOM     85  C   UNL     1      -0.066   4.544 -15.557  1.00  0.00     0.059 A 
ATOM     86  C   UNL     1      -2.008   5.993 -15.394  1.00  0.00     0.059 A 
ATOM     87  F   UNL     1      -2.117   7.602 -13.694  1.00  0.00    -0.206 F 
ATOM     88  C   UNL     1      -1.306   4.973 -16.034  1.00  0.00     0.060 A 
BRANCH  88  89
ATOM     89  S   UNL     1      -1.995   4.169 -17.495  1.00  0.00     0.124 S 
ATOM     90  O   UNL     1      -1.110   4.661 -18.544  1.00  0.00    -0.237 OA
ATOM     91  O   UNL     1      -1.861   2.755 -17.157  1.00  0.00    -0.237 OA
ATOM     92  O   UNL     1      -3.366   4.669 -17.539  1.00  0.00    -0.744 OA
ENDBRANCH  88  89
ENDBRANCH  56  81
BRANCH  68  93
ATOM     93  C   UNL     1       5.496  10.135 -12.921  1.00  0.00     0.058 A 
ATOM     94  C   UNL     1       5.220  11.134 -13.866  1.00  0.00     0.135 A 
ATOM     95  C   UNL     1       6.804   9.627 -12.863  1.00  0.00     0.135 A 
ATOM     96  F   UNL     1       3.982  11.646 -13.967  1.00  0.00    -0.206 F 
ATOM     97  C   UNL     1       6.197  11.596 -14.739  1.00  0.00     0.059 A 
ATOM     98  C   UNL     1       7.806  10.097 -13.706  1.00  0.00     0.059 A 
ATOM     99  F   UNL     1       7.123   8.677 -11.970  1.00  0.00    -0.206 F 
ATOM    100  C   UNL     1       7.489  11.073 -14.649  1.00  0.00     0.060 A 
BRANCH 100 101
ATOM    101  S   UNL     1       8.752  11.706 -15.772  1.00  0.00     0.124 S 
ATOM    102  O   UNL     1       8.316  11.151 -17.049  1.00  0.00    -0.237 OA
ATOM    103  O   UNL     1       8.604  13.150 -15.623  1.00  0.00    -0.237 OA
ATOM    104  O   UNL     1       9.992  11.149 -15.238  1.00  0.00    -0.744 OA
ENDBRANCH 100 101
ENDBRANCH  68  93
ENDBRANCH  42  43
ENDBRANCH  34  37
ENDBRANCH  32  33
ENDBRANCH  31  32
ENDBRANCH   1  31
TORSDOF 18
