REMARK SMILES O=C(NCCCNC(=O)[C@@]1(Cl)C=CC=C(c2ccccc2)[C@H]1Cl)c1ccc(-c2c3nc(c(-c4c(F)cc(S(=O)(=O)[O-])cc4F)c4ccc([nH]4)c(-c4c(F)cc(S(=O)(=O)[O-])cc4F)c4nc(c(-c5c(F)cc(S(=O)(=O)[O-])cc5F)c5ccc2[nH]5)C=C4)C=C3)cc1
REMARK SMILES IDX 4 1 3 2 1 3 2 4 24 6 25 7 89 8 26 9 88 10 27 11 28 12 29 13
REMARK SMILES IDX 82 14 30 15 87 16 81 17 83 18 31 19 86 20 80 21 79 22 32 24
REMARK SMILES IDX 66 25 45 26 65 27 46 28 49 29 64 30 84 31 47 32 48 33 63 35
REMARK SMILES IDX 85 36 50 37 33 38 34 39 43 40 35 41 36 42 42 43 44 44 37 45
REMARK SMILES IDX 38 46 39 47 40 48 41 49 67 50 68 51 77 52 69 53 70 54 76 55
REMARK SMILES IDX 78 56 71 57 72 58 73 59 74 60 75 61 51 62 52 63 61 64 53 65
REMARK SMILES IDX 54 66 60 67 62 68 55 69 56 70 57 71 58 72 59 73 5 74 6 75
REMARK SMILES IDX 7 76 8 77 9 79 10 80 11 81 12 82 22 83 13 84 15 85 23 86
REMARK SMILES IDX 14 87 16 88 17 89 21 90 18 91 20 92 19 93
REMARK H PARENT 3 5 83 23 49 34 7 78
REMARK Flexibility Score: inf
ROOT
ATOM      1  C   UNL     1       4.431  -0.916  -1.017  1.00  0.00     0.118 C 
ENDROOT
BRANCH   1   2
ATOM      2  N   UNL     1       3.039  -0.493  -0.981  1.00  0.00    -0.352 N 
ATOM      3  O   UNL     1       1.146   0.358  -0.121  1.00  0.00    -0.269 OA
ATOM      4  C   UNL     1       2.370   0.296  -0.074  1.00  0.00     0.251 C 
ATOM      5  H   UNL     1       2.488  -0.824  -1.726  1.00  0.00     0.163 HD
BRANCH   4   6
ATOM      6  C   UNL     1       3.113   1.045   0.965  1.00  0.00     0.039 A 
ATOM      7  C   UNL     1       4.305   1.702   0.661  1.00  0.00     0.014 A 
ATOM      8  C   UNL     1       2.594   1.114   2.262  1.00  0.00     0.014 A 
ATOM      9  C   UNL     1       5.063   2.268   1.680  1.00  0.00     0.010 A 
ATOM     10  C   UNL     1       3.308   1.777   3.266  1.00  0.00     0.010 A 
ATOM     11  C   UNL     1       4.572   2.322   2.994  1.00  0.00    -0.014 A 
BRANCH  11  12
ATOM     12  C   UNL     1       5.389   2.985   4.045  1.00  0.00     0.031 A 
ATOM     13  C   UNL     1       5.915   2.213   5.226  1.00  0.00     0.074 A 
ATOM     14  C   UNL     1       5.700   4.289   3.897  1.00  0.00     0.049 A 
ATOM     15  N   UNL     1       6.689   2.624   6.199  1.00  0.00    -0.248 NA
ATOM     16  C   UNL     1       5.515   0.802   5.339  1.00  0.00     0.031 C 
ATOM     17  C   UNL     1       5.234   5.147   2.804  1.00  0.00     0.029 A 
ATOM     18  N   UNL     1       6.501   5.114   4.644  1.00  0.00    -0.354 N 
ATOM     19  C   UNL     1       6.847   1.536   7.051  1.00  0.00     0.074 A 
ATOM     20  C   UNL     1       6.069   0.452   6.492  1.00  0.00     0.031 C 
ATOM     21  C   UNL     1       5.807   6.354   2.915  1.00  0.00     0.029 A 
ATOM     22  C   UNL     1       6.631   6.378   4.117  1.00  0.00     0.049 A 
ATOM     23  H   UNL     1       6.941   4.830   5.478  1.00  0.00     0.167 HD
ATOM     24  C   UNL     1       7.579   1.449   8.188  1.00  0.00     0.037 A 
ATOM     25  C   UNL     1       7.331   7.442   4.553  1.00  0.00     0.037 A 
ATOM     26  C   UNL     1       8.376   2.526   8.721  1.00  0.00     0.049 A 
ATOM     27  C   UNL     1       8.143   7.314   5.810  1.00  0.00     0.074 A 
ATOM     28  C   UNL     1       9.186   2.524   9.844  1.00  0.00     0.029 A 
ATOM     29  N   UNL     1       8.465   3.796   8.170  1.00  0.00    -0.354 N 
ATOM     30  N   UNL     1       8.302   6.268   6.584  1.00  0.00    -0.248 NA
ATOM     31  C   UNL     1       8.869   8.511   6.253  1.00  0.00     0.031 C 
ATOM     32  C   UNL     1       9.732   3.804   9.994  1.00  0.00     0.029 A 
ATOM     33  C   UNL     1       9.301   4.590   8.938  1.00  0.00     0.049 A 
ATOM     34  H   UNL     1       8.001   4.090   7.353  1.00  0.00     0.167 HD
ATOM     35  C   UNL     1       9.164   6.673   7.596  1.00  0.00     0.074 A 
ATOM     36  C   UNL     1       9.503   8.056   7.325  1.00  0.00     0.031 C 
ATOM     37  C   UNL     1       9.632   5.964   8.653  1.00  0.00     0.037 A 
BRANCH  24  38
ATOM     38  C   UNL     1       7.540   0.151   8.950  1.00  0.00     0.058 A 
ATOM     39  C   UNL     1       8.180  -1.006   8.479  1.00  0.00     0.135 A 
ATOM     40  C   UNL     1       6.882   0.075  10.189  1.00  0.00     0.135 A 
ATOM     41  F   UNL     1       8.812  -0.996   7.295  1.00  0.00    -0.206 F 
ATOM     42  C   UNL     1       8.145  -2.200   9.195  1.00  0.00     0.059 A 
ATOM     43  C   UNL     1       6.856  -1.101  10.934  1.00  0.00     0.059 A 
ATOM     44  F   UNL     1       6.255   1.151  10.688  1.00  0.00    -0.206 F 
ATOM     45  C   UNL     1       7.477  -2.238  10.420  1.00  0.00     0.060 A 
BRANCH  45  46
ATOM     46  S   UNL     1       7.436  -3.794  11.336  1.00  0.00     0.124 S 
ATOM     47  O   UNL     1       6.473  -4.564  10.556  1.00  0.00    -0.237 OA
ATOM     48  O   UNL     1       8.822  -4.245  11.252  1.00  0.00    -0.237 OA
ATOM     49  O   UNL     1       6.990  -3.395  12.667  1.00  0.00    -0.744 OA
ENDBRANCH  45  46
ENDBRANCH  24  38
BRANCH  25  50
ATOM     50  C   UNL     1       7.300   8.713   3.783  1.00  0.00     0.058 A 
ATOM     51  C   UNL     1       8.429   9.161   3.082  1.00  0.00     0.135 A 
ATOM     52  C   UNL     1       6.133   9.489   3.709  1.00  0.00     0.135 A 
ATOM     53  F   UNL     1       9.569   8.454   3.124  1.00  0.00    -0.206 F 
ATOM     54  C   UNL     1       8.407  10.340   2.344  1.00  0.00     0.059 A 
ATOM     55  C   UNL     1       6.078  10.657   2.956  1.00  0.00     0.059 A 
ATOM     56  F   UNL     1       5.020   9.093   4.347  1.00  0.00    -0.206 F 
ATOM     57  C   UNL     1       7.224  11.080   2.285  1.00  0.00     0.060 A 
BRANCH  57  58
ATOM     58  S   UNL     1       7.188  12.582   1.284  1.00  0.00     0.124 S 
ATOM     59  O   UNL     1       7.928  13.514   2.127  1.00  0.00    -0.237 OA
ATOM     60  O   UNL     1       7.861  12.153   0.061  1.00  0.00    -0.237 OA
ATOM     61  O   UNL     1       5.761  12.853   1.141  1.00  0.00    -0.744 OA
ENDBRANCH  57  58
ENDBRANCH  25  50
BRANCH  37  62
ATOM     62  C   UNL     1      10.591   6.665   9.573  1.00  0.00     0.058 A 
ATOM     63  C   UNL     1      10.164   7.662  10.464  1.00  0.00     0.135 A 
ATOM     64  C   UNL     1      11.951   6.319   9.576  1.00  0.00     0.135 A 
ATOM     65  F   UNL     1       8.875   8.036  10.495  1.00  0.00    -0.206 F 
ATOM     66  C   UNL     1      11.060   8.316  11.304  1.00  0.00     0.059 A 
ATOM     67  C   UNL     1      12.860   6.940  10.426  1.00  0.00     0.059 A 
ATOM     68  F   UNL     1      12.408   5.364   8.751  1.00  0.00    -0.206 F 
ATOM     69  C   UNL     1      12.408   7.950  11.275  1.00  0.00     0.060 A 
BRANCH  69  70
ATOM     70  S   UNL     1      13.561   8.795  12.377  1.00  0.00     0.124 S 
ATOM     71  O   UNL     1      13.739  10.071  11.692  1.00  0.00    -0.237 OA
ATOM     72  O   UNL     1      12.818   8.847  13.632  1.00  0.00    -0.237 OA
ATOM     73  O   UNL     1      14.728   7.917  12.383  1.00  0.00    -0.744 OA
ENDBRANCH  69  70
ENDBRANCH  37  62
ENDBRANCH  11  12
ENDBRANCH   4   6
ENDBRANCH   1   2
BRANCH   1  74
ATOM     74  C   UNL     1       4.610  -2.386  -0.659  1.00  0.00     0.042 C 
BRANCH  74  75
ATOM     75  C   UNL     1       4.001  -3.350  -1.672  1.00  0.00     0.117 C 
BRANCH  75  76
ATOM     76  N   UNL     1       4.540  -3.186  -3.013  1.00  0.00    -0.354 N 
ATOM     77  C   UNL     1       5.503  -3.839  -3.730  1.00  0.00     0.247 C 
ATOM     78  H   UNL     1       4.122  -2.447  -3.511  1.00  0.00     0.163 HD
ATOM     79  O   UNL     1       5.515  -3.528  -4.931  1.00  0.00    -0.273 OA
BRANCH  77  80
ATOM     80  C   UNL     1       6.387  -5.000  -3.191  1.00  0.00     0.161 C 
ATOM     81  Cl  UNL     1       6.703  -4.884  -1.421  1.00  0.00    -0.102 Cl
ATOM     82  C   UNL     1       5.523  -6.233  -3.411  1.00  0.00     0.008 C 
ATOM     83  C   UNL     1       7.801  -5.098  -3.876  1.00  0.00     0.146 C 
ATOM     84  C   UNL     1       5.825  -7.193  -4.294  1.00  0.00    -0.002 C 
ATOM     85  C   UNL     1       7.979  -6.214  -4.898  1.00  0.00    -0.020 C 
ATOM     86  Cl  UNL     1       8.437  -3.522  -4.485  1.00  0.00    -0.115 Cl
ATOM     87  C   UNL     1       7.040  -7.164  -5.067  1.00  0.00     0.006 C 
BRANCH  85  88
ATOM     88  C   UNL     1       9.289  -6.375  -5.568  1.00  0.00    -0.021 A 
ATOM     89  C   UNL     1       9.376  -6.507  -6.960  1.00  0.00     0.008 A 
ATOM     90  C   UNL     1      10.476  -6.384  -4.818  1.00  0.00     0.008 A 
ATOM     91  C   UNL     1      10.620  -6.630  -7.586  1.00  0.00     0.001 A 
ATOM     92  C   UNL     1      11.718  -6.502  -5.444  1.00  0.00     0.001 A 
ATOM     93  C   UNL     1      11.790  -6.622  -6.829  1.00  0.00     0.000 A 
ENDBRANCH  85  88
ENDBRANCH  77  80
ENDBRANCH  75  76
ENDBRANCH  74  75
ENDBRANCH   1  74
TORSDOF 14
