REMARK SMILES C=Cc1cc(Cl)cc2c1O[C@H](C(F)(F)F)C(C(=O)NCCCNC(=O)c1ccc(-c3c4nc(c(-c5c(F)cc(S(=O)(=O)[O-])cc5F)c5ccc([nH]5)c(-c5c(F)cc(S(=O)(=O)[O-])cc5F)c5nc(c(-c6c(F)cc(S(=O)(=O)[O-])cc6F)c6ccc3[nH]6)C=C5)C=C4)cc1)=C2
REMARK SMILES IDX 22 1 21 2 20 3 19 4 17 5 18 6 16 8 3 9 4 10 9 11 5 12 8 13
REMARK SMILES IDX 10 14 6 15 7 16 92 17 11 18 2 19 1 20 12 21 13 22 14 23
REMARK SMILES IDX 15 24 23 25 24 26 25 28 26 29 27 30 91 31 28 32 90 33 29 34
REMARK SMILES IDX 30 35 31 36 84 37 32 38 89 39 83 40 85 41 33 42 88 43 82 44
REMARK SMILES IDX 81 45 34 47 68 48 47 49 67 50 48 51 51 52 66 53 86 54 49 55
REMARK SMILES IDX 50 56 65 58 87 59 52 60 35 61 36 62 45 63 37 64 38 65 44 66
REMARK SMILES IDX 46 67 39 68 40 69 41 70 42 71 43 72 69 73 70 74 79 75 71 76
REMARK SMILES IDX 72 77 78 78 80 79 73 80 74 81 75 82 76 83 77 84 53 85 54 86
REMARK SMILES IDX 63 87 55 88 56 89 62 90 64 91 57 92 58 93 59 94 60 95 61 96
REMARK H PARENT 19 7 23 27 85 46 51 57
REMARK Flexibility Score: inf
ROOT
ATOM      1  C   UNL     1      -2.207   5.878   7.155  1.00  0.00     0.118 C 
ENDROOT
BRANCH   1   2
ATOM      2  C   UNL     1      -1.580   4.830   6.242  1.00  0.00     0.042 C 
BRANCH   2   3
ATOM      3  C   UNL     1      -2.118   3.431   6.504  1.00  0.00     0.118 C 
BRANCH   3   4
ATOM      4  N   UNL     1      -3.447   3.241   5.940  1.00  0.00    -0.352 N 
ATOM      5  C   UNL     1      -3.999   2.606   4.881  1.00  0.00     0.251 C 
ATOM      6  O   UNL     1      -5.226   2.712   4.789  1.00  0.00    -0.270 OA
ATOM      7  H   UNL     1      -4.132   3.701   6.477  1.00  0.00     0.163 HD
BRANCH   5   8
ATOM      8  C   UNL     1      -3.251   1.809   3.866  1.00  0.00     0.067 C 
ATOM      9  C   UNL     1      -1.264  -0.277   0.791  1.00  0.00     0.018 A 
ATOM     10  C   UNL     1      -2.025  -1.019  -0.122  1.00  0.00     0.032 A 
ATOM     11  C   UNL     1      -1.932   0.462   1.783  1.00  0.00     0.135 A 
ATOM     12  C   UNL     1      -3.418  -0.994  -0.058  1.00  0.00     0.042 A 
ATOM     13  C   UNL     1      -3.330   0.494   1.840  1.00  0.00     0.019 A 
ATOM     14  O   UNL     1      -1.171   1.195   2.657  1.00  0.00    -0.475 OA
ATOM     15  Cl  UNL     1      -4.339  -1.913  -1.186  1.00  0.00    -0.084 Cl
ATOM     16  C   UNL     1      -4.075  -0.236   0.911  1.00  0.00     0.032 A 
ATOM     17  C   UNL     1      -3.987   1.315   2.851  1.00  0.00     0.025 C 
ATOM     18  C   UNL     1      -1.782   1.510   3.935  1.00  0.00     0.314 C 
BRANCH   9  19
ATOM     19  C   UNL     1       0.205  -0.318   0.758  1.00  0.00     0.004 C 
ATOM     20  C   UNL     1       0.931  -0.160  -0.355  1.00  0.00     0.009 C 
ENDBRANCH   9  19
BRANCH  18  21
ATOM     21  C   UNL     1      -1.452   0.395   4.946  1.00  0.00     0.429 C 
ATOM     22  F   UNL     1      -0.128   0.387   5.236  1.00  0.00    -0.167 F 
ATOM     23  F   UNL     1      -2.103   0.551   6.124  1.00  0.00    -0.167 F 
ATOM     24  F   UNL     1      -1.773  -0.837   4.487  1.00  0.00    -0.167 F 
ENDBRANCH  18  21
ENDBRANCH   5   8
ENDBRANCH   3   4
ENDBRANCH   2   3
ENDBRANCH   1   2
BRANCH   1  25
ATOM     25  N   UNL     1      -1.803   5.708   8.550  1.00  0.00    -0.352 N 
ATOM     26  C   UNL     1      -0.967   6.471   9.331  1.00  0.00     0.251 C 
ATOM     27  H   UNL     1      -2.192   4.925   9.002  1.00  0.00     0.163 HD
ATOM     28  O   UNL     1      -0.581   6.040  10.414  1.00  0.00    -0.269 OA
BRANCH  26  29
ATOM     29  C   UNL     1      -0.515   7.793   8.851  1.00  0.00     0.039 A 
ATOM     30  C   UNL     1      -1.423   8.670   8.257  1.00  0.00     0.014 A 
ATOM     31  C   UNL     1       0.830   8.148   8.973  1.00  0.00     0.014 A 
ATOM     32  C   UNL     1      -0.955   9.803   7.605  1.00  0.00     0.010 A 
ATOM     33  C   UNL     1       1.283   9.339   8.401  1.00  0.00     0.010 A 
ATOM     34  C   UNL     1       0.405  10.146   7.660  1.00  0.00    -0.014 A 
BRANCH  34  35
ATOM     35  C   UNL     1       0.893  11.329   6.907  1.00  0.00     0.031 A 
ATOM     36  C   UNL     1       1.887  11.163   5.788  1.00  0.00     0.074 A 
ATOM     37  C   UNL     1       0.402  12.549   7.197  1.00  0.00     0.049 A 
ATOM     38  N   UNL     1       2.472  12.080   5.060  1.00  0.00    -0.248 NA
ATOM     39  C   UNL     1       2.281   9.787   5.444  1.00  0.00     0.031 C 
ATOM     40  C   UNL     1      -0.585  12.834   8.241  1.00  0.00     0.029 A 
ATOM     41  N   UNL     1       0.648  13.773   6.630  1.00  0.00    -0.354 N 
ATOM     42  C   UNL     1       3.330  11.399   4.204  1.00  0.00     0.074 A 
ATOM     43  C   UNL     1       3.199   9.990   4.510  1.00  0.00     0.031 C 
ATOM     44  C   UNL     1      -0.894  14.138   8.210  1.00  0.00     0.029 A 
ATOM     45  C   UNL     1      -0.075  14.794   7.197  1.00  0.00     0.049 A 
ATOM     46  H   UNL     1       1.282  13.906   5.889  1.00  0.00     0.167 HD
ATOM     47  C   UNL     1       4.149  11.902   3.249  1.00  0.00     0.037 A 
ATOM     48  C   UNL     1      -0.060  16.118   6.952  1.00  0.00     0.037 A 
ATOM     49  C   UNL     1       4.244  13.302   2.925  1.00  0.00     0.049 A 
ATOM     50  C   UNL     1       0.870  16.655   5.906  1.00  0.00     0.074 A 
ATOM     51  C   UNL     1       5.019  13.912   1.953  1.00  0.00     0.029 A 
ATOM     52  N   UNL     1       3.535  14.312   3.560  1.00  0.00    -0.354 N 
ATOM     53  N   UNL     1       1.699  16.000   5.129  1.00  0.00    -0.248 NA
ATOM     54  C   UNL     1       0.881  18.111   5.716  1.00  0.00     0.031 C 
ATOM     55  C   UNL     1       4.805  15.294   2.025  1.00  0.00     0.029 A 
ATOM     56  C   UNL     1       3.869  15.542   3.017  1.00  0.00     0.049 A 
ATOM     57  H   UNL     1       2.889  14.174   4.290  1.00  0.00     0.167 HD
ATOM     58  C   UNL     1       2.345  16.965   4.367  1.00  0.00     0.074 A 
ATOM     59  C   UNL     1       1.783  18.245   4.752  1.00  0.00     0.031 C 
ATOM     60  C   UNL     1       3.322  16.807   3.439  1.00  0.00     0.037 A 
BRANCH  47  61
ATOM     61  C   UNL     1       5.029  10.934   2.507  1.00  0.00     0.058 A 
ATOM     62  C   UNL     1       4.517  10.058   1.537  1.00  0.00     0.135 A 
ATOM     63  C   UNL     1       6.410  10.895   2.761  1.00  0.00     0.135 A 
ATOM     64  F   UNL     1       3.201  10.040   1.270  1.00  0.00    -0.206 F 
ATOM     65  C   UNL     1       5.338   9.158   0.865  1.00  0.00     0.059 A 
ATOM     66  C   UNL     1       7.253  10.018   2.085  1.00  0.00     0.059 A 
ATOM     67  F   UNL     1       6.951  11.709   3.680  1.00  0.00    -0.206 F 
ATOM     68  C   UNL     1       6.705   9.142   1.149  1.00  0.00     0.060 A 
BRANCH  68  69
ATOM     69  S   UNL     1       7.755   7.957   0.281  1.00  0.00     0.124 S 
ATOM     70  O   UNL     1       7.376   6.705   0.929  1.00  0.00    -0.237 OA
ATOM     71  O   UNL     1       7.319   8.109  -1.104  1.00  0.00    -0.237 OA
ATOM     72  O   UNL     1       9.107   8.427   0.565  1.00  0.00    -0.744 OA
ENDBRANCH  68  69
ENDBRANCH  47  61
BRANCH  48  73
ATOM     73  C   UNL     1      -0.942  17.011   7.744  1.00  0.00     0.058 A 
ATOM     74  C   UNL     1      -2.087  17.584   7.175  1.00  0.00     0.135 A 
ATOM     75  C   UNL     1      -0.699  17.243   9.107  1.00  0.00     0.135 A 
ATOM     76  F   UNL     1      -2.355  17.398   5.873  1.00  0.00    -0.206 F 
ATOM     77  C   UNL     1      -2.972  18.343   7.934  1.00  0.00     0.059 A 
ATOM     78  C   UNL     1      -1.580  17.979   9.892  1.00  0.00     0.059 A 
ATOM     79  F   UNL     1       0.379  16.703   9.698  1.00  0.00    -0.206 F 
ATOM     80  C   UNL     1      -2.716  18.523   9.295  1.00  0.00     0.060 A 
BRANCH  80  81
ATOM     81  S   UNL     1      -3.927  19.416  10.294  1.00  0.00     0.124 S 
ATOM     82  O   UNL     1      -3.695  20.793   9.878  1.00  0.00    -0.237 OA
ATOM     83  O   UNL     1      -5.185  18.818   9.856  1.00  0.00    -0.237 OA
ATOM     84  O   UNL     1      -3.535  19.093  11.663  1.00  0.00    -0.744 OA
ENDBRANCH  80  81
ENDBRANCH  48  73
BRANCH  60  85
ATOM     85  C   UNL     1       3.855  18.057   2.801  1.00  0.00     0.058 A 
ATOM     86  C   UNL     1       4.712  18.921   3.500  1.00  0.00     0.135 A 
ATOM     87  C   UNL     1       3.518  18.389   1.480  1.00  0.00     0.135 A 
ATOM     88  F   UNL     1       5.056  18.650   4.769  1.00  0.00    -0.206 F 
ATOM     89  C   UNL     1       5.193  20.090   2.922  1.00  0.00     0.059 A 
ATOM     90  C   UNL     1       4.006  19.542   0.873  1.00  0.00     0.059 A 
ATOM     91  F   UNL     1       2.709  17.590   0.766  1.00  0.00    -0.206 F 
ATOM     92  C   UNL     1       4.830  20.394   1.608  1.00  0.00     0.060 A 
BRANCH  92  93
ATOM     93  S   UNL     1       5.460  21.914   0.867  1.00  0.00     0.124 S 
ATOM     94  O   UNL     1       4.623  22.922   1.509  1.00  0.00    -0.237 OA
ATOM     95  O   UNL     1       6.863  21.904   1.271  1.00  0.00    -0.237 OA
ATOM     96  O   UNL     1       5.225  21.718  -0.560  1.00  0.00    -0.744 OA
ENDBRANCH  92  93
ENDBRANCH  60  85
ENDBRANCH  34  35
ENDBRANCH  26  29
ENDBRANCH   1  25
TORSDOF 15
