REMARK SMILES O=C1CC[C@@H](CC(=O)N2CCC(Oc3ccccc3)(C(=O)NCCCNC(=O)c3ccc(-c4c5nc(c(-c6c(F)cc(S(=O)(=O)[O-])cc6F)c6ccc([nH]6)c(-c6c(F)cc(S(=O)(=O)[O-])cc6F)c6nc(c(-c7c(F)cc(S(=O)(=O)[O-])cc7F)c7ccc4[nH]7)C=C6)C=C5)cc3)CC2)N1
REMARK SMILES IDX 24 1 23 2 22 3 20 4 21 5 12 7 7 8 8 9 9 10 10 11 96 12 11 13
REMARK SMILES IDX 95 14 6 15 5 16 1 17 2 18 3 19 97 20 4 21 13 23 14 24 15 25
REMARK SMILES IDX 19 26 16 27 18 28 17 29 25 30 26 31 27 32 28 34 29 35 30 36
REMARK SMILES IDX 94 37 31 38 93 39 32 40 33 41 34 42 87 43 35 44 92 45 86 46
REMARK SMILES IDX 88 47 36 48 91 49 85 50 84 51 37 53 71 54 50 55 70 56 51 57
REMARK SMILES IDX 54 58 69 59 89 60 52 61 53 62 68 64 90 65 55 66 38 67 39 68
REMARK SMILES IDX 48 69 40 70 41 71 47 72 49 73 42 74 43 75 44 76 45 77 46 78
REMARK SMILES IDX 72 79 73 80 82 81 74 82 75 83 81 84 83 85 76 86 77 87 78 88
REMARK SMILES IDX 79 89 80 90 56 91 57 92 66 93 58 94 59 95 65 96 67 97 60 98
REMARK SMILES IDX 61 99 62 100 63 101 64 102
REMARK H PARENT 22 6 97 22 26 33 88 52 54 63
REMARK Flexibility Score: inf
ROOT
ATOM      1  C   UNL     1       0.761   1.593  -7.963  1.00  0.00     0.042 C 
ENDROOT
BRANCH   1   2
ATOM      2  C   UNL     1       1.899   1.724  -6.965  1.00  0.00     0.118 C 
BRANCH   2   3
ATOM      3  N   UNL     1       1.441   2.350  -5.745  1.00  0.00    -0.353 N 
ATOM      4  C   UNL     1       1.289   1.841  -4.497  1.00  0.00     0.264 C 
ATOM      5  O   UNL     1       0.932   2.659  -3.640  1.00  0.00    -0.270 OA
ATOM      6  H   UNL     1       1.200   3.301  -5.835  1.00  0.00     0.163 HD
BRANCH   4   7
ATOM      7  C   UNL     1       1.575   0.346  -4.171  1.00  0.00     0.190 C 
ATOM      8  C   UNL     1      -1.542  -1.653  -2.268  1.00  0.00     0.224 C 
ATOM      9  O   UNL     1      -1.768  -2.707  -2.877  1.00  0.00    -0.275 OA
ATOM     10  N   UNL     1      -0.884  -0.619  -2.904  1.00  0.00    -0.342 N 
ATOM     11  C   UNL     1      -0.824  -0.557  -4.365  1.00  0.00     0.124 C 
ATOM     12  C   UNL     1      -0.034   0.338  -2.243  1.00  0.00     0.124 C 
ATOM     13  C   UNL     1       0.613  -0.636  -4.877  1.00  0.00     0.080 C 
ATOM     14  C   UNL     1       1.424   0.176  -2.655  1.00  0.00     0.080 C 
BRANCH   8  15
ATOM     15  C   UNL     1      -2.225  -1.471  -0.897  1.00  0.00     0.125 C 
BRANCH  15  16
ATOM     16  C   UNL     1      -1.643  -0.861   0.380  1.00  0.00     0.091 C 
ATOM     17  O   UNL     1       1.609  -0.159   1.514  1.00  0.00    -0.275 OA
ATOM     18  C   UNL     1       0.443  -0.110   1.154  1.00  0.00     0.220 C 
ATOM     19  C   UNL     1      -0.416   1.129   1.097  1.00  0.00     0.102 C 
ATOM     20  N   UNL     1      -0.282  -1.183   0.689  1.00  0.00    -0.353 N 
ATOM     21  C   UNL     1      -1.749   0.662   0.503  1.00  0.00     0.035 C 
ATOM     22  H   UNL     1       0.098  -2.085   0.579  1.00  0.00     0.163 HD
ENDBRANCH  15  16
ENDBRANCH   8  15
BRANCH   7  23
ATOM     23  O   UNL     1       2.964   0.245  -4.579  1.00  0.00    -0.477 OA
BRANCH  23  24
ATOM     24  C   UNL     1       3.614  -0.935  -4.388  1.00  0.00     0.120 A 
ATOM     25  C   UNL     1       4.593  -0.990  -3.399  1.00  0.00     0.046 A 
ATOM     26  C   UNL     1       3.434  -2.011  -5.254  1.00  0.00     0.046 A 
ATOM     27  C   UNL     1       5.338  -2.156  -3.224  1.00  0.00     0.004 A 
ATOM     28  C   UNL     1       4.159  -3.186  -5.065  1.00  0.00     0.004 A 
ATOM     29  C   UNL     1       5.108  -3.260  -4.046  1.00  0.00     0.000 A 
ENDBRANCH  23  24
ENDBRANCH   7  23
ENDBRANCH   4   7
ENDBRANCH   2   3
ENDBRANCH   1   2
BRANCH   1  30
ATOM     30  C   UNL     1       0.134   2.928  -8.339  1.00  0.00     0.118 C 
BRANCH  30  31
ATOM     31  N   UNL     1       1.091   3.833  -8.959  1.00  0.00    -0.352 N 
ATOM     32  C   UNL     1       1.150   4.291 -10.251  1.00  0.00     0.251 C 
ATOM     33  H   UNL     1       1.801   4.165  -8.363  1.00  0.00     0.163 HD
ATOM     34  O   UNL     1       2.165   4.850 -10.654  1.00  0.00    -0.269 OA
BRANCH  32  35
ATOM     35  C   UNL     1      -0.004   4.094 -11.152  1.00  0.00     0.039 A 
ATOM     36  C   UNL     1       0.224   3.695 -12.470  1.00  0.00     0.014 A 
ATOM     37  C   UNL     1      -1.308   4.303 -10.695  1.00  0.00     0.014 A 
ATOM     38  C   UNL     1      -0.862   3.446 -13.310  1.00  0.00     0.010 A 
ATOM     39  C   UNL     1      -2.386   3.961 -11.501  1.00  0.00     0.010 A 
ATOM     40  C   UNL     1      -2.176   3.540 -12.822  1.00  0.00    -0.014 A 
BRANCH  40  41
ATOM     41  C   UNL     1      -3.343   3.211 -13.678  1.00  0.00     0.031 A 
ATOM     42  C   UNL     1      -4.368   4.267 -13.994  1.00  0.00     0.074 A 
ATOM     43  C   UNL     1      -3.509   1.948 -14.119  1.00  0.00     0.049 A 
ATOM     44  N   UNL     1      -5.483   4.159 -14.668  1.00  0.00    -0.248 NA
ATOM     45  C   UNL     1      -4.122   5.616 -13.457  1.00  0.00     0.031 C 
ATOM     46  C   UNL     1      -2.608   0.828 -13.836  1.00  0.00     0.029 A 
ATOM     47  N   UNL     1      -4.497   1.391 -14.890  1.00  0.00    -0.354 N 
ATOM     48  C   UNL     1      -6.074   5.416 -14.627  1.00  0.00     0.074 A 
ATOM     49  C   UNL     1      -5.227   6.256 -13.810  1.00  0.00     0.031 C 
ATOM     50  C   UNL     1      -3.070  -0.274 -14.448  1.00  0.00     0.029 A 
ATOM     51  C   UNL     1      -4.321   0.048 -15.128  1.00  0.00     0.049 A 
ATOM     52  H   UNL     1      -5.260   1.904 -15.242  1.00  0.00     0.167 HD
ATOM     53  C   UNL     1      -7.207   5.839 -15.237  1.00  0.00     0.037 A 
ATOM     54  C   UNL     1      -5.086  -0.829 -15.807  1.00  0.00     0.037 A 
ATOM     55  C   UNL     1      -8.033   4.999 -16.065  1.00  0.00     0.049 A 
ATOM     56  C   UNL     1      -6.347  -0.338 -16.465  1.00  0.00     0.074 A 
ATOM     57  C   UNL     1      -9.171   5.344 -16.774  1.00  0.00     0.029 A 
ATOM     58  N   UNL     1      -7.815   3.648 -16.293  1.00  0.00    -0.354 N 
ATOM     59  N   UNL     1      -6.857   0.871 -16.473  1.00  0.00    -0.248 NA
ATOM     60  C   UNL     1      -7.135  -1.327 -17.213  1.00  0.00     0.031 C 
ATOM     61  C   UNL     1      -9.672   4.189 -17.383  1.00  0.00     0.029 A 
ATOM     62  C   UNL     1      -8.812   3.138 -17.108  1.00  0.00     0.049 A 
ATOM     63  H   UNL     1      -7.063   3.128 -15.928  1.00  0.00     0.167 HD
ATOM     64  C   UNL     1      -8.008   0.794 -17.250  1.00  0.00     0.074 A 
ATOM     65  C   UNL     1      -8.111  -0.577 -17.705  1.00  0.00     0.031 C 
ATOM     66  C   UNL     1      -8.897   1.770 -17.559  1.00  0.00     0.037 A 
BRANCH  53  67
ATOM     67  C   UNL     1      -7.620   7.272 -15.033  1.00  0.00     0.058 A 
ATOM     68  C   UNL     1      -6.884   8.338 -15.576  1.00  0.00     0.135 A 
ATOM     69  C   UNL     1      -8.788   7.584 -14.318  1.00  0.00     0.135 A 
ATOM     70  F   UNL     1      -5.750   8.101 -16.255  1.00  0.00    -0.206 F 
ATOM     71  C   UNL     1      -7.273   9.661 -15.392  1.00  0.00     0.059 A 
ATOM     72  C   UNL     1      -9.214   8.898 -14.150  1.00  0.00     0.059 A 
ATOM     73  F   UNL     1      -9.530   6.606 -13.775  1.00  0.00    -0.206 F 
ATOM     74  C   UNL     1      -8.442   9.931 -14.679  1.00  0.00     0.060 A 
BRANCH  74  75
ATOM     75  S   UNL     1      -8.936  11.653 -14.458  1.00  0.00     0.124 S 
ATOM     76  O   UNL     1      -7.929  12.126 -13.513  1.00  0.00    -0.237 OA
ATOM     77  O   UNL     1      -8.832  12.182 -15.814  1.00  0.00    -0.237 OA
ATOM     78  O   UNL     1     -10.293  11.553 -13.930  1.00  0.00    -0.744 OA
ENDBRANCH  74  75
ENDBRANCH  53  67
BRANCH  54  79
ATOM     79  C   UNL     1      -4.670  -2.253 -15.914  1.00  0.00     0.058 A 
ATOM     80  C   UNL     1      -4.255  -2.796 -17.139  1.00  0.00     0.135 A 
ATOM     81  C   UNL     1      -4.667  -3.098 -14.792  1.00  0.00     0.135 A 
ATOM     82  F   UNL     1      -4.244  -2.031 -18.241  1.00  0.00    -0.206 F 
ATOM     83  C   UNL     1      -3.871  -4.128 -17.254  1.00  0.00     0.059 A 
ATOM     84  C   UNL     1      -4.260  -4.425 -14.876  1.00  0.00     0.059 A 
ATOM     85  F   UNL     1      -5.038  -2.624 -13.592  1.00  0.00    -0.206 F 
ATOM     86  C   UNL     1      -3.874  -4.934 -16.115  1.00  0.00     0.060 A 
BRANCH  86  87
ATOM     87  S   UNL     1      -3.330  -6.650 -16.268  1.00  0.00     0.124 S 
ATOM     88  O   UNL     1      -4.440  -7.245 -17.002  1.00  0.00    -0.237 OA
ATOM     89  O   UNL     1      -2.078  -6.508 -17.005  1.00  0.00    -0.237 OA
ATOM     90  O   UNL     1      -3.186  -7.081 -14.880  1.00  0.00    -0.744 OA
ENDBRANCH  86  87
ENDBRANCH  54  79
BRANCH  66  91
ATOM     91  C   UNL     1     -10.041   1.405 -18.466  1.00  0.00     0.058 A 
ATOM     92  C   UNL     1     -11.098   0.588 -18.034  1.00  0.00     0.135 A 
ATOM     93  C   UNL     1     -10.107   1.926 -19.769  1.00  0.00     0.135 A 
ATOM     94  F   UNL     1     -11.083   0.059 -16.800  1.00  0.00    -0.206 F 
ATOM     95  C   UNL     1     -12.166   0.280 -18.870  1.00  0.00     0.059 A 
ATOM     96  C   UNL     1     -11.181   1.657 -20.611  1.00  0.00     0.059 A 
ATOM     97  F   UNL     1      -9.128   2.721 -20.229  1.00  0.00    -0.206 F 
ATOM     98  C   UNL     1     -12.200   0.823 -20.156  1.00  0.00     0.060 A 
BRANCH  98  99
ATOM     99  S   UNL     1     -13.611   0.443 -21.217  1.00  0.00     0.124 S 
ATOM    100  O   UNL     1     -13.359  -0.955 -21.552  1.00  0.00    -0.237 OA
ATOM    101  O   UNL     1     -14.743   0.689 -20.329  1.00  0.00    -0.237 OA
ATOM    102  O   UNL     1     -13.470   1.388 -22.321  1.00  0.00    -0.744 OA
ENDBRANCH  98  99
ENDBRANCH  66  91
ENDBRANCH  40  41
ENDBRANCH  32  35
ENDBRANCH  30  31
ENDBRANCH   1  30
TORSDOF 17
