REMARK SMILES Cc1nsc(N[C@@H](C)C2CCCC2)c1C(=O)NCCCNC(=O)c1ccc(-c2c3nc(c(-c4c(F)cc(S(=O)(=O)[O-])cc4F)c4ccc([nH]4)c(-c4c(F)cc(S(=O)(=O)[O-])cc4F)c4nc(c(-c5c(F)cc(S(=O)(=O)[O-])cc5F)c5ccc2[nH]5)C=C4)C=C3)cc1
REMARK SMILES IDX 19 1 18 2 17 3 15 4 16 5 14 7 1 8 2 9 3 10 4 11 5 12 6 13
REMARK SMILES IDX 7 15 8 16 9 17 10 18 13 19 11 20 12 21 20 22 21 23 22 24
REMARK SMILES IDX 23 26 24 27 25 28 89 29 26 30 88 31 27 32 28 33 29 34 82 35
REMARK SMILES IDX 30 36 87 37 81 38 83 39 31 40 86 41 80 42 79 43 32 45 66 46
REMARK SMILES IDX 45 47 65 48 46 49 49 50 64 51 84 52 47 53 48 54 63 56 85 57
REMARK SMILES IDX 50 58 33 59 34 60 43 61 35 62 36 63 42 64 44 65 37 66 38 67
REMARK SMILES IDX 39 68 40 69 41 70 67 71 68 72 77 73 69 74 70 75 76 76 78 77
REMARK SMILES IDX 71 78 72 79 73 80 74 81 75 82 51 83 52 84 61 85 53 86 54 87
REMARK SMILES IDX 60 88 62 89 55 90 56 91 57 92 58 93 59 94
REMARK H PARENT 17 6 6 14 21 25 83 44 49 55
REMARK Flexibility Score: inf
ROOT
ATOM      1  C   UNL     1       1.077   0.062  -2.106  1.00  0.00     0.042 C 
ENDROOT
BRANCH   1   2
ATOM      2  C   UNL     1       2.208   0.732  -1.320  1.00  0.00     0.118 C 
BRANCH   2   3
ATOM      3  N   UNL     1       1.911   2.105  -0.995  1.00  0.00    -0.352 N 
ATOM      4  C   UNL     1       1.399   2.771   0.083  1.00  0.00     0.256 C 
ATOM      5  O   UNL     1       1.509   3.999  -0.046  1.00  0.00    -0.269 OA
ATOM      6  H   UNL     1       2.133   2.716  -1.735  1.00  0.00     0.163 HD
BRANCH   4   7
ATOM      7  C   UNL     1       0.786   2.190   1.301  1.00  0.00     0.097 A 
ATOM      8  C   UNL     1       0.431  -0.464   1.004  1.00  0.00     0.069 C 
ATOM      9  C   UNL     1       0.368   0.844   1.704  1.00  0.00     0.066 A 
ATOM     10  N   UNL     1      -0.196   0.731   2.908  1.00  0.00    -0.195 NA
ATOM     11  S   UNL     1      -0.295   2.191   3.615  1.00  0.00    -0.018 S 
ATOM     12  C   UNL     1       0.458   3.073   2.356  1.00  0.00     0.122 A 
BRANCH  12  13
ATOM     13  N   UNL     1       0.688   4.419   2.398  1.00  0.00    -0.372 N 
ATOM     14  H   UNL     1       1.212   4.804   1.658  1.00  0.00     0.161 HD
BRANCH  13  15
ATOM     15  C   UNL     1       0.234   5.337   3.429  1.00  0.00     0.080 C 
ATOM     16  C   UNL     1       1.470   5.890   4.141  1.00  0.00     0.031 C 
BRANCH  15  17
ATOM     17  C   UNL     1      -0.731   6.414   2.872  1.00  0.00     0.011 C 
ATOM     18  C   UNL     1      -0.205   7.847   2.787  1.00  0.00     0.006 C 
ATOM     19  C   UNL     1      -1.286   6.200   1.456  1.00  0.00     0.006 C 
ATOM     20  C   UNL     1      -1.302   8.578   2.023  1.00  0.00     0.000 C 
ATOM     21  C   UNL     1      -1.882   7.550   1.055  1.00  0.00     0.000 C 
ENDBRANCH  15  17
ENDBRANCH  13  15
ENDBRANCH  12  13
ENDBRANCH   4   7
ENDBRANCH   2   3
ENDBRANCH   1   2
BRANCH   1  22
ATOM     22  C   UNL     1       1.291   0.112  -3.607  1.00  0.00     0.118 C 
BRANCH  22  23
ATOM     23  N   UNL     1       2.424  -0.725  -4.018  1.00  0.00    -0.352 N 
ATOM     24  C   UNL     1       3.065  -0.789  -5.244  1.00  0.00     0.251 C 
ATOM     25  H   UNL     1       2.778  -1.327  -3.324  1.00  0.00     0.163 HD
ATOM     26  O   UNL     1       3.749  -1.751  -5.537  1.00  0.00    -0.269 OA
BRANCH  24  27
ATOM     27  C   UNL     1       2.881   0.334  -6.180  1.00  0.00     0.039 A 
ATOM     28  C   UNL     1       2.656   0.123  -7.540  1.00  0.00     0.014 A 
ATOM     29  C   UNL     1       2.839   1.611  -5.637  1.00  0.00     0.014 A 
ATOM     30  C   UNL     1       2.280   1.211  -8.324  1.00  0.00     0.010 A 
ATOM     31  C   UNL     1       2.255   2.620  -6.352  1.00  0.00     0.010 A 
ATOM     32  C   UNL     1       2.041   2.454  -7.711  1.00  0.00    -0.014 A 
BRANCH  32  33
ATOM     33  C   UNL     1       1.463   3.567  -8.456  1.00  0.00     0.031 A 
ATOM     34  C   UNL     1       0.224   3.213  -9.191  1.00  0.00     0.074 A 
ATOM     35  C   UNL     1       1.874   4.850  -8.335  1.00  0.00     0.049 A 
ATOM     36  N   UNL     1       0.119   2.905 -10.441  1.00  0.00    -0.248 NA
ATOM     37  C   UNL     1      -1.009   2.977  -8.421  1.00  0.00     0.031 C 
ATOM     38  C   UNL     1       2.838   5.406  -7.373  1.00  0.00     0.029 A 
ATOM     39  N   UNL     1       1.449   5.962  -9.000  1.00  0.00    -0.354 N 
ATOM     40  C   UNL     1      -1.246   2.762 -10.667  1.00  0.00     0.074 A 
ATOM     41  C   UNL     1      -1.839   2.543  -9.375  1.00  0.00     0.031 C 
ATOM     42  C   UNL     1       2.746   6.753  -7.355  1.00  0.00     0.029 A 
ATOM     43  C   UNL     1       1.891   7.162  -8.451  1.00  0.00     0.049 A 
ATOM     44  H   UNL     1       0.878   5.919  -9.801  1.00  0.00     0.167 HD
ATOM     45  C   UNL     1      -1.793   3.198 -11.837  1.00  0.00     0.037 A 
ATOM     46  C   UNL     1       1.620   8.414  -8.889  1.00  0.00     0.037 A 
ATOM     47  C   UNL     1      -0.752   3.544 -12.775  1.00  0.00     0.049 A 
ATOM     48  C   UNL     1       1.265   8.305 -10.322  1.00  0.00     0.074 A 
ATOM     49  C   UNL     1       0.135   2.877 -13.591  1.00  0.00     0.029 A 
ATOM     50  N   UNL     1      -0.281   4.822 -12.617  1.00  0.00    -0.354 N 
ATOM     51  N   UNL     1       2.104   7.902 -11.239  1.00  0.00    -0.248 NA
ATOM     52  C   UNL     1      -0.140   8.290 -10.711  1.00  0.00     0.031 C 
ATOM     53  C   UNL     1       1.234   3.765 -13.798  1.00  0.00     0.029 A 
ATOM     54  C   UNL     1       0.974   4.966 -13.145  1.00  0.00     0.049 A 
ATOM     55  H   UNL     1      -0.784   5.546 -12.179  1.00  0.00     0.167 HD
ATOM     56  C   UNL     1       1.322   7.196 -12.131  1.00  0.00     0.074 A 
ATOM     57  C   UNL     1      -0.048   7.613 -11.858  1.00  0.00     0.031 C 
ATOM     58  C   UNL     1       1.804   6.094 -12.772  1.00  0.00     0.037 A 
BRANCH  45  59
ATOM     59  C   UNL     1      -3.180   3.792 -11.999  1.00  0.00     0.058 A 
ATOM     60  C   UNL     1      -3.648   4.083 -13.300  1.00  0.00     0.135 A 
ATOM     61  C   UNL     1      -3.939   4.354 -10.949  1.00  0.00     0.135 A 
ATOM     62  F   UNL     1      -3.004   3.609 -14.379  1.00  0.00    -0.206 F 
ATOM     63  C   UNL     1      -4.744   4.916 -13.538  1.00  0.00     0.059 A 
ATOM     64  C   UNL     1      -5.064   5.144 -11.162  1.00  0.00     0.059 A 
ATOM     65  F   UNL     1      -3.579   4.249  -9.665  1.00  0.00    -0.206 F 
ATOM     66  C   UNL     1      -5.439   5.451 -12.459  1.00  0.00     0.060 A 
BRANCH  66  67
ATOM     67  S   UNL     1      -6.809   6.582 -12.756  1.00  0.00     0.124 S 
ATOM     68  O   UNL     1      -6.115   7.750 -13.283  1.00  0.00    -0.237 OA
ATOM     69  O   UNL     1      -7.619   5.831 -13.710  1.00  0.00    -0.237 OA
ATOM     70  O   UNL     1      -7.403   6.742 -11.432  1.00  0.00    -0.744 OA
ENDBRANCH  66  67
ENDBRANCH  45  59
BRANCH  46  71
ATOM     71  C   UNL     1       1.419   9.655  -8.105  1.00  0.00     0.058 A 
ATOM     72  C   UNL     1       1.488  10.920  -8.712  1.00  0.00     0.135 A 
ATOM     73  C   UNL     1       0.853   9.607  -6.816  1.00  0.00     0.135 A 
ATOM     74  F   UNL     1       2.006  11.050  -9.942  1.00  0.00    -0.206 F 
ATOM     75  C   UNL     1       0.961  12.065  -8.106  1.00  0.00     0.059 A 
ATOM     76  C   UNL     1       0.323  10.736  -6.190  1.00  0.00     0.059 A 
ATOM     77  F   UNL     1       0.713   8.438  -6.172  1.00  0.00    -0.206 F 
ATOM     78  C   UNL     1       0.355  11.957  -6.855  1.00  0.00     0.060 A 
BRANCH  78  79
ATOM     79  S   UNL     1      -0.496  13.395  -6.160  1.00  0.00     0.124 S 
ATOM     80  O   UNL     1       0.619  14.282  -5.846  1.00  0.00    -0.237 OA
ATOM     81  O   UNL     1      -1.349  13.813  -7.268  1.00  0.00    -0.237 OA
ATOM     82  O   UNL     1      -1.202  12.846  -5.006  1.00  0.00    -0.744 OA
ENDBRANCH  78  79
ENDBRANCH  46  71
BRANCH  58  83
ATOM     83  C   UNL     1       3.283   6.001 -12.997  1.00  0.00     0.058 A 
ATOM     84  C   UNL     1       4.251   5.806 -11.999  1.00  0.00     0.135 A 
ATOM     85  C   UNL     1       3.729   6.039 -14.328  1.00  0.00     0.135 A 
ATOM     86  F   UNL     1       3.899   5.689 -10.710  1.00  0.00    -0.206 F 
ATOM     87  C   UNL     1       5.608   5.683 -12.312  1.00  0.00     0.059 A 
ATOM     88  C   UNL     1       5.068   5.890 -14.665  1.00  0.00     0.059 A 
ATOM     89  F   UNL     1       2.844   6.184 -15.328  1.00  0.00    -0.206 F 
ATOM     90  C   UNL     1       6.006   5.724 -13.650  1.00  0.00     0.060 A 
BRANCH  90  91
ATOM     91  S   UNL     1       7.750   5.506 -14.066  1.00  0.00     0.124 S 
ATOM     92  O   UNL     1       8.340   6.747 -13.578  1.00  0.00    -0.237 OA
ATOM     93  O   UNL     1       8.103   4.300 -13.322  1.00  0.00    -0.237 OA
ATOM     94  O   UNL     1       7.738   5.350 -15.518  1.00  0.00    -0.744 OA
ENDBRANCH  90  91
ENDBRANCH  58  83
ENDBRANCH  32  33
ENDBRANCH  24  27
ENDBRANCH  22  23
ENDBRANCH   1  22
TORSDOF 16
