REMARK SMILES CCCCC[NH2+][C@](C)(C(=O)NCCCNC(=O)c1ccc(-c2c3nc(c(-c4c(F)cc(S(=O)(=O)[O-])cc4F)c4ccc([nH]4)c(-c4c(F)cc(S(=O)(=O)[O-])cc4F)c4nc(c(-c5c(F)cc(S(=O)(=O)[O-])cc5F)c5ccc2[nH]5)C=C4)C=C3)cc1)C(F)(F)F
REMARK SMILES IDX 12 1 11 2 9 3 10 4 7 6 8 7 6 8 5 11 4 12 3 13 2 14 1 15
REMARK SMILES IDX 84 16 85 17 86 18 87 19 13 20 14 21 15 22 16 23 17 25 18 26
REMARK SMILES IDX 19 27 83 28 20 29 82 30 21 31 22 32 23 33 76 34 24 35 81 36
REMARK SMILES IDX 75 37 77 38 25 39 80 40 74 41 73 42 26 44 60 45 39 46 59 47
REMARK SMILES IDX 40 48 43 49 58 50 78 51 41 52 42 53 57 55 79 56 44 57 27 58
REMARK SMILES IDX 28 59 37 60 29 61 30 62 36 63 38 64 31 65 32 66 33 67 34 68
REMARK SMILES IDX 35 69 61 70 62 71 71 72 63 73 64 74 70 75 72 76 65 77 66 78
REMARK SMILES IDX 67 79 68 80 69 81 45 82 46 83 55 84 47 85 48 86 54 87 56 88
REMARK SMILES IDX 49 89 50 90 51 91 52 92 53 93
REMARK H PARENT 11 5 6 9 6 10 15 24 77 43 43 54
REMARK Flexibility Score: inf
ROOT
ATOM      1  C   UNL     1      -1.835  -4.328   2.545  1.00  0.00     0.118 C 
ENDROOT
BRANCH   1   2
ATOM      2  N   UNL     1      -2.757  -3.926   3.593  1.00  0.00    -0.350 N 
ATOM      3  C   UNL     1      -3.379  -2.746   3.892  1.00  0.00     0.290 C 
ATOM      4  O   UNL     1      -4.299  -2.866   4.710  1.00  0.00    -0.267 OA
ATOM      5  H   UNL     1      -2.979  -4.654   4.218  1.00  0.00     0.163 HD
BRANCH   3   6
ATOM      6  C   UNL     1      -2.998  -1.373   3.277  1.00  0.00     0.268 C 
ATOM      7  C   UNL     1      -1.480  -1.106   3.299  1.00  0.00     0.101 C 
BRANCH   6   8
ATOM      8  N   UNL     1      -3.572  -1.136   1.897  1.00  0.00    -0.326 N 
ATOM      9  H   UNL     1      -4.541  -0.842   2.018  1.00  0.00     0.347 HD
ATOM     10  H   UNL     1      -2.951  -0.444   1.476  1.00  0.00     0.347 HD
BRANCH   8  11
ATOM     11  C   UNL     1      -3.569  -2.245   0.964  1.00  0.00     0.261 C 
BRANCH  11  12
ATOM     12  C   UNL     1      -3.965  -1.856  -0.463  1.00  0.00     0.061 C 
BRANCH  12  13
ATOM     13  C   UNL     1      -2.969  -0.942  -1.189  1.00  0.00     0.006 C 
BRANCH  13  14
ATOM     14  C   UNL     1      -1.495  -1.365  -1.144  1.00  0.00    -0.003 C 
ATOM     15  C   UNL     1      -1.224  -2.754  -1.703  1.00  0.00     0.004 C 
ENDBRANCH  13  14
ENDBRANCH  12  13
ENDBRANCH  11  12
ENDBRANCH   8  11
ENDBRANCH   6   8
BRANCH   6  16
ATOM     16  C   UNL     1      -3.609  -0.325   4.272  1.00  0.00     0.453 C 
ATOM     17  F   UNL     1      -3.115  -0.453   5.527  1.00  0.00    -0.164 F 
ATOM     18  F   UNL     1      -3.282   0.939   3.870  1.00  0.00    -0.164 F 
ATOM     19  F   UNL     1      -4.958  -0.351   4.341  1.00  0.00    -0.164 F 
ENDBRANCH   6  16
ENDBRANCH   3   6
ENDBRANCH   1   2
BRANCH   1  20
ATOM     20  C   UNL     1      -0.797  -5.341   2.984  1.00  0.00     0.042 C 
BRANCH  20  21
ATOM     21  C   UNL     1      -1.379  -6.694   3.355  1.00  0.00     0.118 C 
BRANCH  21  22
ATOM     22  N   UNL     1      -2.011  -7.379   2.232  1.00  0.00    -0.352 N 
ATOM     23  C   UNL     1      -1.592  -8.441   1.461  1.00  0.00     0.251 C 
ATOM     24  H   UNL     1      -2.892  -7.018   1.980  1.00  0.00     0.163 HD
ATOM     25  O   UNL     1      -2.223  -8.736   0.453  1.00  0.00    -0.269 OA
BRANCH  23  26
ATOM     26  C   UNL     1      -0.372  -9.199   1.821  1.00  0.00     0.039 A 
ATOM     27  C   UNL     1       0.489  -9.633   0.809  1.00  0.00     0.014 A 
ATOM     28  C   UNL     1      -0.070  -9.484   3.151  1.00  0.00     0.014 A 
ATOM     29  C   UNL     1       1.695 -10.258   1.143  1.00  0.00     0.010 A 
ATOM     30  C   UNL     1       1.183  -9.980   3.486  1.00  0.00     0.010 A 
ATOM     31  C   UNL     1       2.078 -10.385   2.488  1.00  0.00    -0.014 A 
BRANCH  31  32
ATOM     32  C   UNL     1       3.400 -10.940   2.883  1.00  0.00     0.031 A 
ATOM     33  C   UNL     1       3.473 -12.134   3.800  1.00  0.00     0.074 A 
ATOM     34  C   UNL     1       4.529 -10.305   2.513  1.00  0.00     0.049 A 
ATOM     35  N   UNL     1       4.520 -12.688   4.356  1.00  0.00    -0.248 NA
ATOM     36  C   UNL     1       2.195 -12.757   4.185  1.00  0.00     0.031 C 
ATOM     37  C   UNL     1       4.590  -9.085   1.704  1.00  0.00     0.029 A 
ATOM     38  N   UNL     1       5.845 -10.583   2.788  1.00  0.00    -0.354 N 
ATOM     39  C   UNL     1       4.024 -13.688   5.185  1.00  0.00     0.074 A 
ATOM     40  C   UNL     1       2.582 -13.627   5.104  1.00  0.00     0.031 C 
ATOM     41  C   UNL     1       5.874  -8.734   1.531  1.00  0.00     0.029 A 
ATOM     42  C   UNL     1       6.726  -9.678   2.245  1.00  0.00     0.049 A 
ATOM     43  H   UNL     1       6.131 -11.358   3.324  1.00  0.00     0.167 HD
ATOM     44  C   UNL     1       4.708 -14.593   5.925  1.00  0.00     0.037 A 
ATOM     45  C   UNL     1       8.070  -9.610   2.320  1.00  0.00     0.037 A 
ATOM     46  C   UNL     1       6.143 -14.686   5.951  1.00  0.00     0.049 A 
ATOM     47  C   UNL     1       8.814 -10.670   3.080  1.00  0.00     0.074 A 
ATOM     48  C   UNL     1       6.934 -15.635   6.572  1.00  0.00     0.029 A 
ATOM     49  N   UNL     1       7.003 -13.796   5.324  1.00  0.00    -0.354 N 
ATOM     50  N   UNL     1       8.333 -11.669   3.781  1.00  0.00    -0.248 NA
ATOM     51  C   UNL     1      10.281 -10.604   3.052  1.00  0.00     0.031 C 
ATOM     52  C   UNL     1       8.274 -15.297   6.354  1.00  0.00     0.029 A 
ATOM     53  C   UNL     1       8.318 -14.161   5.560  1.00  0.00     0.049 A 
ATOM     54  H   UNL     1       6.721 -13.019   4.789  1.00  0.00     0.167 HD
ATOM     55  C   UNL     1       9.437 -12.360   4.267  1.00  0.00     0.074 A 
ATOM     56  C   UNL     1      10.610 -11.674   3.764  1.00  0.00     0.031 C 
ATOM     57  C   UNL     1       9.474 -13.462   5.056  1.00  0.00     0.037 A 
BRANCH  44  58
ATOM     58  C   UNL     1       3.905 -15.555   6.760  1.00  0.00     0.058 A 
ATOM     59  C   UNL     1       3.111 -16.558   6.179  1.00  0.00     0.135 A 
ATOM     60  C   UNL     1       3.924 -15.468   8.162  1.00  0.00     0.135 A 
ATOM     61  F   UNL     1       3.043 -16.678   4.843  1.00  0.00    -0.206 F 
ATOM     62  C   UNL     1       2.326 -17.406   6.954  1.00  0.00     0.059 A 
ATOM     63  C   UNL     1       3.171 -16.328   8.958  1.00  0.00     0.059 A 
ATOM     64  F   UNL     1       4.667 -14.532   8.771  1.00  0.00    -0.206 F 
ATOM     65  C   UNL     1       2.357 -17.277   8.343  1.00  0.00     0.060 A 
BRANCH  65  66
ATOM     66  S   UNL     1       1.313 -18.366   9.334  1.00  0.00     0.124 S 
ATOM     67  O   UNL     1      -0.003 -17.767   9.131  1.00  0.00    -0.237 OA
ATOM     68  O   UNL     1       1.522 -19.664   8.701  1.00  0.00    -0.237 OA
ATOM     69  O   UNL     1       1.864 -18.232  10.679  1.00  0.00    -0.744 OA
ENDBRANCH  65  66
ENDBRANCH  44  58
BRANCH  45  70
ATOM     70  C   UNL     1       8.785  -8.510   1.620  1.00  0.00     0.058 A 
ATOM     71  C   UNL     1       9.488  -8.749   0.431  1.00  0.00     0.135 A 
ATOM     72  C   UNL     1       8.722  -7.188   2.089  1.00  0.00     0.135 A 
ATOM     73  F   UNL     1       9.580  -9.997  -0.053  1.00  0.00    -0.206 F 
ATOM     74  C   UNL     1      10.102  -7.718  -0.273  1.00  0.00     0.059 A 
ATOM     75  C   UNL     1       9.309  -6.137   1.392  1.00  0.00     0.059 A 
ATOM     76  F   UNL     1       8.043  -6.905   3.212  1.00  0.00    -0.206 F 
ATOM     77  C   UNL     1       9.999  -6.413   0.211  1.00  0.00     0.060 A 
BRANCH  77  78
ATOM     78  S   UNL     1      10.715  -5.069  -0.761  1.00  0.00     0.124 S 
ATOM     79  O   UNL     1      12.139  -5.248  -0.506  1.00  0.00    -0.237 OA
ATOM     80  O   UNL     1      10.261  -5.391  -2.110  1.00  0.00    -0.237 OA
ATOM     81  O   UNL     1      10.113  -3.875  -0.175  1.00  0.00    -0.744 OA
ENDBRANCH  77  78
ENDBRANCH  45  70
BRANCH  57  82
ATOM     82  C   UNL     1      10.828 -14.005   5.417  1.00  0.00     0.058 A 
ATOM     83  C   UNL     1      11.653 -13.360   6.350  1.00  0.00     0.135 A 
ATOM     84  C   UNL     1      11.280 -15.214   4.863  1.00  0.00     0.135 A 
ATOM     85  F   UNL     1      11.269 -12.199   6.903  1.00  0.00    -0.206 F 
ATOM     86  C   UNL     1      12.892 -13.883   6.707  1.00  0.00     0.059 A 
ATOM     87  C   UNL     1      12.503 -15.769   5.224  1.00  0.00     0.059 A 
ATOM     88  F   UNL     1      10.522 -15.876   3.974  1.00  0.00    -0.206 F 
ATOM     89  C   UNL     1      13.307 -15.089   6.138  1.00  0.00     0.060 A 
BRANCH  89  90
ATOM     90  S   UNL     1      14.902 -15.776   6.633  1.00  0.00     0.124 S 
ATOM     91  O   UNL     1      15.829 -14.914   5.907  1.00  0.00    -0.237 OA
ATOM     92  O   UNL     1      14.881 -15.606   8.083  1.00  0.00    -0.237 OA
ATOM     93  O   UNL     1      14.835 -17.158   6.169  1.00  0.00    -0.744 OA
ENDBRANCH  89  90
ENDBRANCH  57  82
ENDBRANCH  31  32
ENDBRANCH  23  26
ENDBRANCH  21  22
ENDBRANCH  20  21
ENDBRANCH   1  20
TORSDOF 19
