REMARK SMILES O=C(CCCN1C(=O)/C(=C/c2ccccc2Cl)SC1=S)Nc1cccc(C(=O)NCCCNC(=O)c2ccc(-c3c4nc(c(-c5c(F)cc(S(=O)(=O)[O-])cc5F)c5ccc([nH]5)c(-c5c(F)cc(S(=O)(=O)[O-])cc5F)c5nc(c(-c6c(F)cc(S(=O)(=O)[O-])cc6F)c6ccc3[nH]6)C=C5)C=C4)cc2)c1
REMARK SMILES IDX 27 1 28 2 29 3 26 5 22 6 23 7 102 8 24 9 25 10 21 11 1 12
REMARK SMILES IDX 2 13 3 15 4 16 5 17 6 18 7 19 19 20 8 21 9 22 18 23 20 24
REMARK SMILES IDX 10 25 11 26 12 27 16 28 13 29 15 30 17 31 14 32 30 33 31 34
REMARK SMILES IDX 32 35 33 36 34 37 35 39 36 40 37 41 101 42 38 43 100 44
REMARK SMILES IDX 39 45 40 46 41 47 94 48 42 49 99 50 93 51 95 52 43 53 98 54
REMARK SMILES IDX 92 55 91 56 44 58 78 59 57 60 77 61 58 62 61 63 76 64 96 65
REMARK SMILES IDX 59 66 60 67 75 69 97 70 62 71 45 72 46 73 55 74 47 75 48 76
REMARK SMILES IDX 54 77 56 78 49 79 50 80 51 81 52 82 53 83 79 84 80 85 89 86
REMARK SMILES IDX 81 87 82 88 88 89 90 90 83 91 84 92 85 93 86 94 87 95 63 96
REMARK SMILES IDX 64 97 73 98 65 99 66 100 72 101 74 102 67 103 68 104 69 105
REMARK SMILES IDX 70 106 71 107
REMARK H PARENT 29 4 21 14 33 38 95 57 61 68
REMARK Flexibility Score: inf
ROOT
ATOM      1  C   UNL     1      -0.689  -0.406   4.452  1.00  0.00     0.251 C 
ATOM      2  O   UNL     1      -1.288  -0.190   5.503  1.00  0.00    -0.269 OA
ATOM      3  N   UNL     1      -0.974  -1.549   3.735  1.00  0.00    -0.352 N 
ATOM      4  H   UNL     1      -1.676  -2.113   4.133  1.00  0.00     0.163 HD
ENDROOT
BRANCH   1   5
ATOM      5  C   UNL     1       0.385   0.525   4.025  1.00  0.00     0.041 A 
ATOM      6  C   UNL     1       1.864   1.297   2.292  1.00  0.00     0.041 A 
ATOM      7  C   UNL     1       2.732   1.797   3.273  1.00  0.00     0.026 A 
ATOM      8  C   UNL     1       0.635   0.779   2.677  1.00  0.00     0.040 A 
ATOM      9  C   UNL     1       2.381   1.744   4.623  1.00  0.00     0.003 A 
ATOM     10  C   UNL     1       1.220   1.074   5.004  1.00  0.00     0.014 A 
BRANCH   6  11
ATOM     11  N   UNL     1       2.352   1.198   0.973  1.00  0.00    -0.326 N 
ATOM     12  O   UNL     1       0.454   0.691  -0.229  1.00  0.00    -0.275 OA
ATOM     13  C   UNL     1       1.679   0.788  -0.153  1.00  0.00     0.224 C 
ATOM     14  H   UNL     1       3.294   1.455   0.842  1.00  0.00     0.169 HD
BRANCH  13  15
ATOM     15  C   UNL     1       2.521   0.362  -1.360  1.00  0.00     0.102 C 
BRANCH  15  16
ATOM     16  C   UNL     1       3.938   0.863  -1.641  1.00  0.00     0.032 C 
BRANCH  16  17
ATOM     17  C   UNL     1       5.108   0.852  -0.645  1.00  0.00     0.128 C 
BRANCH  17  18
ATOM     18  N   UNL     1       5.814  -0.361  -0.217  1.00  0.00    -0.293 N 
ATOM     19  C   UNL     1       7.173  -0.168   0.058  1.00  0.00     0.266 C 
ATOM     20  C   UNL     1       5.327  -1.580   0.205  1.00  0.00     0.148 C 
ATOM     21  O   UNL     1       7.753   0.909   0.070  1.00  0.00    -0.268 OA
ATOM     22  C   UNL     1       7.824  -1.439   0.442  1.00  0.00     0.081 C 
ATOM     23  S   UNL     1       6.651  -2.679   0.556  1.00  0.00    -0.054 SA
ATOM     24  S   UNL     1       3.773  -2.084   0.504  1.00  0.00    -0.052 S 
ATOM     25  C   UNL     1       9.145  -1.551   0.640  1.00  0.00     0.031 C 
BRANCH  25  26
ATOM     26  C   UNL     1       9.782  -2.853   0.882  1.00  0.00    -0.006 A 
ATOM     27  C   UNL     1      10.088  -3.224   2.199  1.00  0.00     0.010 A 
ATOM     28  C   UNL     1       9.975  -3.780  -0.160  1.00  0.00     0.048 A 
ATOM     29  C   UNL     1      10.542  -4.515   2.473  1.00  0.00     0.001 A 
ATOM     30  C   UNL     1      10.415  -5.071   0.123  1.00  0.00     0.021 A 
ATOM     31  Cl  UNL     1       9.656  -3.365  -1.812  1.00  0.00    -0.084 Cl
ATOM     32  C   UNL     1      10.689  -5.440   1.439  1.00  0.00     0.002 A 
ENDBRANCH  25  26
ENDBRANCH  17  18
ENDBRANCH  16  17
ENDBRANCH  15  16
ENDBRANCH  13  15
ENDBRANCH   6  11
ENDBRANCH   1   5
BRANCH   3  33
ATOM     33  C   UNL     1      -0.416  -2.071   2.488  1.00  0.00     0.118 C 
BRANCH  33  34
ATOM     34  C   UNL     1       0.057  -3.512   2.563  1.00  0.00     0.042 C 
BRANCH  34  35
ATOM     35  C   UNL     1      -1.038  -4.530   2.817  1.00  0.00     0.118 C 
BRANCH  35  36
ATOM     36  N   UNL     1      -2.026  -4.591   1.747  1.00  0.00    -0.352 N 
ATOM     37  C   UNL     1      -2.299  -5.577   0.828  1.00  0.00     0.251 C 
ATOM     38  H   UNL     1      -2.594  -3.790   1.669  1.00  0.00     0.163 HD
ATOM     39  O   UNL     1      -3.075  -5.341  -0.095  1.00  0.00    -0.269 OA
BRANCH  37  40
ATOM     40  C   UNL     1      -1.651  -6.905   0.922  1.00  0.00     0.039 A 
ATOM     41  C   UNL     1      -1.247  -7.548  -0.252  1.00  0.00     0.014 A 
ATOM     42  C   UNL     1      -1.453  -7.530   2.154  1.00  0.00     0.014 A 
ATOM     43  C   UNL     1      -0.574  -8.772  -0.179  1.00  0.00     0.010 A 
ATOM     44  C   UNL     1      -0.684  -8.687   2.233  1.00  0.00     0.010 A 
ATOM     45  C   UNL     1      -0.244  -9.329   1.067  1.00  0.00    -0.014 A 
BRANCH  45  46
ATOM     46  C   UNL     1       0.554 -10.579   1.177  1.00  0.00     0.031 A 
ATOM     47  C   UNL     1      -0.021 -11.784   1.875  1.00  0.00     0.074 A 
ATOM     48  C   UNL     1       1.822 -10.602   0.721  1.00  0.00     0.049 A 
ATOM     49  N   UNL     1       0.546 -12.932   2.143  1.00  0.00    -0.248 NA
ATOM     50  C   UNL     1      -1.404 -11.673   2.366  1.00  0.00     0.031 C 
ATOM     51  C   UNL     1       2.514  -9.479   0.084  1.00  0.00     0.029 A 
ATOM     52  N   UNL     1       2.763 -11.602   0.735  1.00  0.00    -0.354 N 
ATOM     53  C   UNL     1      -0.399 -13.667   2.851  1.00  0.00     0.074 A 
ATOM     54  C   UNL     1      -1.554 -12.814   3.022  1.00  0.00     0.031 C 
ATOM     55  C   UNL     1       3.756  -9.859  -0.254  1.00  0.00     0.029 A 
ATOM     56  C   UNL     1       3.968 -11.236   0.181  1.00  0.00     0.049 A 
ATOM     57  H   UNL     1       2.591 -12.498   1.105  1.00  0.00     0.167 HD
ATOM     58  C   UNL     1      -0.321 -14.944   3.295  1.00  0.00     0.037 A 
ATOM     59  C   UNL     1       5.119 -11.924   0.049  1.00  0.00     0.037 A 
ATOM     60  C   UNL     1       0.823 -15.794   3.094  1.00  0.00     0.049 A 
ATOM     61  C   UNL     1       5.179 -13.345   0.540  1.00  0.00     0.074 A 
ATOM     62  C   UNL     1       0.976 -17.125   3.439  1.00  0.00     0.029 A 
ATOM     63  N   UNL     1       2.013 -15.396   2.501  1.00  0.00    -0.354 N 
ATOM     64  N   UNL     1       4.248 -14.050   1.139  1.00  0.00    -0.248 NA
ATOM     65  C   UNL     1       6.441 -14.068   0.333  1.00  0.00     0.031 C 
ATOM     66  C   UNL     1       2.277 -17.516   3.107  1.00  0.00     0.029 A 
ATOM     67  C   UNL     1       2.915 -16.447   2.497  1.00  0.00     0.049 A 
ATOM     68  H   UNL     1       2.190 -14.498   2.137  1.00  0.00     0.167 HD
ATOM     69  C   UNL     1       4.803 -15.307   1.356  1.00  0.00     0.074 A 
ATOM     70  C   UNL     1       6.145 -15.268   0.813  1.00  0.00     0.031 C 
ATOM     71  C   UNL     1       4.249 -16.394   1.950  1.00  0.00     0.037 A 
BRANCH  58  72
ATOM     72  C   UNL     1      -1.505 -15.498   4.044  1.00  0.00     0.058 A 
ATOM     73  C   UNL     1      -2.736 -15.742   3.412  1.00  0.00     0.135 A 
ATOM     74  C   UNL     1      -1.399 -15.817   5.408  1.00  0.00     0.135 A 
ATOM     75  F   UNL     1      -2.900 -15.445   2.113  1.00  0.00    -0.206 F 
ATOM     76  C   UNL     1      -3.828 -16.246   4.112  1.00  0.00     0.059 A 
ATOM     77  C   UNL     1      -2.469 -16.354   6.120  1.00  0.00     0.059 A 
ATOM     78  F   UNL     1      -0.248 -15.606   6.065  1.00  0.00    -0.206 F 
ATOM     79  C   UNL     1      -3.684 -16.549   5.466  1.00  0.00     0.060 A 
BRANCH  79  80
ATOM     80  S   UNL     1      -5.111 -17.203   6.358  1.00  0.00     0.124 S 
ATOM     81  O   UNL     1      -5.965 -16.023   6.447  1.00  0.00    -0.237 OA
ATOM     82  O   UNL     1      -5.579 -18.258   5.465  1.00  0.00    -0.237 OA
ATOM     83  O   UNL     1      -4.542 -17.662   7.622  1.00  0.00    -0.744 OA
ENDBRANCH  79  80
ENDBRANCH  58  72
BRANCH  59  84
ATOM     84  C   UNL     1       6.297 -11.279  -0.591  1.00  0.00     0.058 A 
ATOM     85  C   UNL     1       6.745 -11.682  -1.857  1.00  0.00     0.135 A 
ATOM     86  C   UNL     1       6.980 -10.226   0.038  1.00  0.00     0.135 A 
ATOM     87  F   UNL     1       6.131 -12.688  -2.498  1.00  0.00    -0.206 F 
ATOM     88  C   UNL     1       7.836 -11.075  -2.473  1.00  0.00     0.059 A 
ATOM     89  C   UNL     1       8.055  -9.583  -0.570  1.00  0.00     0.059 A 
ATOM     90  F   UNL     1       6.583  -9.790   1.243  1.00  0.00    -0.206 F 
ATOM     91  C   UNL     1       8.481 -10.022  -1.822  1.00  0.00     0.060 A 
BRANCH  91  92
ATOM     92  S   UNL     1       9.866  -9.211  -2.650  1.00  0.00     0.124 S 
ATOM     93  O   UNL     1      10.889 -10.249  -2.601  1.00  0.00    -0.237 OA
ATOM     94  O   UNL     1       9.308  -8.923  -3.967  1.00  0.00    -0.237 OA
ATOM     95  O   UNL     1      10.120  -8.041  -1.814  1.00  0.00    -0.744 OA
ENDBRANCH  91  92
ENDBRANCH  59  84
BRANCH  71  96
ATOM     96  C   UNL     1       5.080 -17.647   2.015  1.00  0.00     0.058 A 
ATOM     97  C   UNL     1       6.188 -17.759   2.870  1.00  0.00     0.135 A 
ATOM     98  C   UNL     1       4.724 -18.773   1.253  1.00  0.00     0.135 A 
ATOM     99  F   UNL     1       6.574 -16.711   3.615  1.00  0.00    -0.206 F 
ATOM    100  C   UNL     1       6.929 -18.933   2.948  1.00  0.00     0.059 A 
ATOM    101  C   UNL     1       5.432 -19.967   1.340  1.00  0.00     0.059 A 
ATOM    102  F   UNL     1       3.667 -18.725   0.428  1.00  0.00    -0.206 F 
ATOM    103  C   UNL     1       6.541 -20.034   2.182  1.00  0.00     0.060 A 
BRANCH 103 104
ATOM    104  S   UNL     1       7.492 -21.562   2.320  1.00  0.00     0.124 S 
ATOM    105  O   UNL     1       8.723 -21.206   1.621  1.00  0.00    -0.237 OA
ATOM    106  O   UNL     1       7.608 -21.727   3.765  1.00  0.00    -0.237 OA
ATOM    107  O   UNL     1       6.651 -22.548   1.648  1.00  0.00    -0.744 OA
ENDBRANCH 103 104
ENDBRANCH  71  96
ENDBRANCH  45  46
ENDBRANCH  37  40
ENDBRANCH  35  36
ENDBRANCH  34  35
ENDBRANCH  33  34
ENDBRANCH   3  33
TORSDOF 19
