REMARK SMILES Cc1oc(C)c(S(=O)(=O)Nn2c(C)ccc2C)c1C(=O)NCCCNC(=O)c1ccc(-c2c3nc(c(-c4c(F)cc(S(=O)(=O)[O-])cc4F)c4ccc([nH]4)c(-c4c(F)cc(S(=O)(=O)[O-])cc4F)c4nc(c(-c5c(F)cc(S(=O)(=O)[O-])cc5F)c5ccc2[nH]5)C=C4)C=C3)cc1
REMARK SMILES IDX 23 1 22 2 21 3 19 4 20 5 18 7 1 8 2 9 3 10 4 11 6 12 5 13
REMARK SMILES IDX 7 14 8 15 9 16 10 17 11 19 12 20 16 21 13 22 14 23 15 24
REMARK SMILES IDX 17 25 24 26 25 27 26 28 27 30 28 31 29 32 93 33 30 34 92 35
REMARK SMILES IDX 31 36 32 37 33 38 86 39 34 40 91 41 85 42 87 43 35 44 90 45
REMARK SMILES IDX 84 46 83 47 36 49 70 50 49 51 69 52 50 53 53 54 68 55 88 56
REMARK SMILES IDX 51 57 52 58 67 60 89 61 54 62 37 63 38 64 47 65 39 66 40 67
REMARK SMILES IDX 46 68 48 69 41 70 42 71 43 72 44 73 45 74 71 75 72 76 81 77
REMARK SMILES IDX 73 78 74 79 80 80 82 81 75 82 76 83 77 84 78 85 79 86 55 87
REMARK SMILES IDX 56 88 65 89 57 90 58 91 64 92 66 93 59 94 60 95 61 96 62 97
REMARK SMILES IDX 63 98
REMARK H PARENT 21 6 10 18 25 29 87 48 53 59
REMARK Flexibility Score: inf
ROOT
ATOM      1  C   UNL     1       4.456   1.477  -1.974  1.00  0.00     0.042 C 
ENDROOT
BRANCH   1   2
ATOM      2  C   UNL     1       4.049   1.043  -0.542  1.00  0.00     0.118 C 
BRANCH   2   3
ATOM      3  N   UNL     1       3.193   1.916   0.256  1.00  0.00    -0.352 N 
ATOM      4  C   UNL     1       1.954   1.780   0.850  1.00  0.00     0.256 C 
ATOM      5  O   UNL     1       1.665   2.575   1.745  1.00  0.00    -0.269 OA
ATOM      6  H   UNL     1       3.591   2.804   0.406  1.00  0.00     0.163 HD
BRANCH   4   7
ATOM      7  C   UNL     1       0.959   0.799   0.449  1.00  0.00     0.101 A 
ATOM      8  C   UNL     1       2.159  -1.558   0.715  1.00  0.00     0.088 C 
ATOM      9  C   UNL     1       1.084  -0.586   0.426  1.00  0.00     0.115 A 
ATOM     10  O   UNL     1      -0.112  -1.179   0.156  1.00  0.00    -0.464 OA
ATOM     11  C   UNL     1      -1.048  -0.204   0.076  1.00  0.00     0.122 A 
ATOM     12  C   UNL     1      -0.451   1.035   0.230  1.00  0.00     0.143 A 
ATOM     13  C   UNL     1      -2.446  -0.665  -0.093  1.00  0.00     0.089 C 
BRANCH  12  14
ATOM     14  S   UNL     1      -1.403   2.469   0.217  1.00  0.00     0.279 S 
ATOM     15  O   UNL     1      -2.122   2.400  -1.042  1.00  0.00    -0.200 OA
ATOM     16  O   UNL     1      -2.140   2.357   1.460  1.00  0.00    -0.200 OA
BRANCH  14  17
ATOM     17  N   UNL     1      -0.669   3.927   0.311  1.00  0.00    -0.216 N 
ATOM     18  H   UNL     1      -1.133   4.598   0.861  1.00  0.00     0.202 HD
BRANCH  17  19
ATOM     19  N   UNL     1       0.512   4.353  -0.274  1.00  0.00    -0.256 N 
ATOM     20  C   UNL     1       1.113   3.983  -1.454  1.00  0.00     0.038 A 
ATOM     21  C   UNL     1       1.266   5.325   0.356  1.00  0.00     0.038 A 
ATOM     22  C   UNL     1       0.592   3.060  -2.495  1.00  0.00     0.067 C 
ATOM     23  C   UNL     1       2.293   4.706  -1.533  1.00  0.00     0.025 A 
ATOM     24  C   UNL     1       2.421   5.493  -0.376  1.00  0.00     0.025 A 
ATOM     25  C   UNL     1       0.897   5.988   1.639  1.00  0.00     0.067 C 
ENDBRANCH  17  19
ENDBRANCH  14  17
ENDBRANCH  12  14
ENDBRANCH   4   7
ENDBRANCH   2   3
ENDBRANCH   1   2
BRANCH   1  26
ATOM     26  C   UNL     1       5.044   2.883  -2.238  1.00  0.00     0.118 C 
BRANCH  26  27
ATOM     27  N   UNL     1       6.463   2.907  -2.556  1.00  0.00    -0.352 N 
ATOM     28  C   UNL     1       7.201   3.378  -3.629  1.00  0.00     0.251 C 
ATOM     29  H   UNL     1       7.020   2.498  -1.855  1.00  0.00     0.163 HD
ATOM     30  O   UNL     1       8.417   3.175  -3.545  1.00  0.00    -0.269 OA
BRANCH  28  31
ATOM     31  C   UNL     1       6.667   3.949  -4.929  1.00  0.00     0.039 A 
ATOM     32  C   UNL     1       7.052   3.261  -6.074  1.00  0.00     0.014 A 
ATOM     33  C   UNL     1       6.104   5.220  -5.161  1.00  0.00     0.014 A 
ATOM     34  C   UNL     1       6.838   3.790  -7.380  1.00  0.00     0.010 A 
ATOM     35  C   UNL     1       5.974   5.802  -6.512  1.00  0.00     0.010 A 
ATOM     36  C   UNL     1       6.363   5.114  -7.680  1.00  0.00    -0.014 A 
BRANCH  36  37
ATOM     37  C   UNL     1       6.815   5.698  -9.122  1.00  0.00     0.031 A 
ATOM     38  C   UNL     1       8.224   5.218  -9.249  1.00  0.00     0.074 A 
ATOM     39  C   UNL     1       6.450   6.505 -10.201  1.00  0.00     0.049 A 
ATOM     40  N   UNL     1       9.092   5.476  -8.312  1.00  0.00    -0.248 NA
ATOM     41  C   UNL     1       8.610   4.143 -10.168  1.00  0.00     0.031 C 
ATOM     42  C   UNL     1       5.238   7.318 -10.383  1.00  0.00     0.029 A 
ATOM     43  N   UNL     1       7.110   6.786 -11.444  1.00  0.00    -0.354 N 
ATOM     44  C   UNL     1      10.241   4.827  -8.676  1.00  0.00     0.074 A 
ATOM     45  C   UNL     1       9.822   3.861  -9.680  1.00  0.00     0.031 C 
ATOM     46  C   UNL     1       5.174   7.862 -11.637  1.00  0.00     0.029 A 
ATOM     47  C   UNL     1       6.365   7.535 -12.423  1.00  0.00     0.049 A 
ATOM     48  H   UNL     1       8.030   6.481 -11.619  1.00  0.00     0.167 HD
ATOM     49  C   UNL     1      11.395   5.547  -8.604  1.00  0.00     0.037 A 
ATOM     50  C   UNL     1       6.696   7.927 -13.721  1.00  0.00     0.037 A 
ATOM     51  C   UNL     1      11.891   5.890  -9.907  1.00  0.00     0.049 A 
ATOM     52  C   UNL     1       8.165   7.960 -13.778  1.00  0.00     0.074 A 
ATOM     53  C   UNL     1      12.064   5.172 -11.073  1.00  0.00     0.029 A 
ATOM     54  N   UNL     1      11.807   7.220 -10.269  1.00  0.00    -0.354 N 
ATOM     55  N   UNL     1       8.838   8.928 -13.240  1.00  0.00    -0.248 NA
ATOM     56  C   UNL     1       8.950   7.012 -14.564  1.00  0.00     0.031 C 
ATOM     57  C   UNL     1      11.555   6.015 -12.090  1.00  0.00     0.029 A 
ATOM     58  C   UNL     1      11.395   7.300 -11.582  1.00  0.00     0.049 A 
ATOM     59  H   UNL     1      12.009   7.986  -9.685  1.00  0.00     0.167 HD
ATOM     60  C   UNL     1      10.111   8.463 -13.214  1.00  0.00     0.074 A 
ATOM     61  C   UNL     1      10.170   7.458 -14.257  1.00  0.00     0.031 C 
ATOM     62  C   UNL     1      10.747   8.517 -12.020  1.00  0.00     0.037 A 
BRANCH  49  63
ATOM     63  C   UNL     1      11.474   6.427  -7.389  1.00  0.00     0.058 A 
ATOM     64  C   UNL     1      12.224   5.997  -6.290  1.00  0.00     0.135 A 
ATOM     65  C   UNL     1      10.679   7.582  -7.223  1.00  0.00     0.135 A 
ATOM     66  F   UNL     1      13.017   4.918  -6.397  1.00  0.00    -0.206 F 
ATOM     67  C   UNL     1      12.152   6.650  -5.062  1.00  0.00     0.059 A 
ATOM     68  C   UNL     1      10.561   8.226  -5.996  1.00  0.00     0.059 A 
ATOM     69  F   UNL     1       9.979   8.074  -8.258  1.00  0.00    -0.206 F 
ATOM     70  C   UNL     1      11.296   7.745  -4.916  1.00  0.00     0.060 A 
BRANCH  70  71
ATOM     71  S   UNL     1      11.108   8.483  -3.279  1.00  0.00     0.124 S 
ATOM     72  O   UNL     1      11.033   7.312  -2.407  1.00  0.00    -0.237 OA
ATOM     73  O   UNL     1      12.335   9.265  -3.163  1.00  0.00    -0.237 OA
ATOM     74  O   UNL     1       9.869   9.247  -3.381  1.00  0.00    -0.744 OA
ENDBRANCH  70  71
ENDBRANCH  49  63
BRANCH  50  75
ATOM     75  C   UNL     1       6.142   8.509 -15.060  1.00  0.00     0.058 A 
ATOM     76  C   UNL     1       6.990   9.278 -15.935  1.00  0.00     0.135 A 
ATOM     77  C   UNL     1       5.007   8.001 -15.708  1.00  0.00     0.135 A 
ATOM     78  F   UNL     1       8.083   9.905 -15.475  1.00  0.00    -0.206 F 
ATOM     79  C   UNL     1       6.831   9.373 -17.327  1.00  0.00     0.059 A 
ATOM     80  C   UNL     1       4.800   8.125 -17.112  1.00  0.00     0.059 A 
ATOM     81  F   UNL     1       4.109   7.285 -15.015  1.00  0.00    -0.206 F 
ATOM     82  C   UNL     1       5.750   8.754 -17.922  1.00  0.00     0.060 A 
BRANCH  82  83
ATOM     83  S   UNL     1       5.702   8.671 -19.740  1.00  0.00     0.124 S 
ATOM     84  O   UNL     1       5.580  10.073 -20.123  1.00  0.00    -0.237 OA
ATOM     85  O   UNL     1       6.982   8.041 -20.054  1.00  0.00    -0.237 OA
ATOM     86  O   UNL     1       4.529   7.843 -20.010  1.00  0.00    -0.744 OA
ENDBRANCH  82  83
ENDBRANCH  50  75
BRANCH  62  87
ATOM     87  C   UNL     1      10.561   9.790 -11.191  1.00  0.00     0.058 A 
ATOM     88  C   UNL     1       9.350  10.484 -10.939  1.00  0.00     0.135 A 
ATOM     89  C   UNL     1      11.722  10.411 -10.701  1.00  0.00     0.135 A 
ATOM     90  F   UNL     1       8.147   9.948 -11.197  1.00  0.00    -0.206 F 
ATOM     91  C   UNL     1       9.320  11.767 -10.381  1.00  0.00     0.059 A 
ATOM     92  C   UNL     1      11.708  11.660 -10.077  1.00  0.00     0.059 A 
ATOM     93  F   UNL     1      12.912   9.804 -10.836  1.00  0.00    -0.206 F 
ATOM     94  C   UNL     1      10.509  12.358  -9.974  1.00  0.00     0.060 A 
BRANCH  94  95
ATOM     95  S   UNL     1      10.480  14.036  -9.307  1.00  0.00     0.124 S 
ATOM     96  O   UNL     1      10.330  14.837 -10.519  1.00  0.00    -0.237 OA
ATOM     97  O   UNL     1       9.322  14.016  -8.420  1.00  0.00    -0.237 OA
ATOM     98  O   UNL     1      11.775  14.157  -8.644  1.00  0.00    -0.744 OA
ENDBRANCH  94  95
ENDBRANCH  62  87
ENDBRANCH  36  37
ENDBRANCH  28  31
ENDBRANCH  26  27
ENDBRANCH   1  26
TORSDOF 16
