REMARK SMILES COc1c(Cl)cc(C[NH2+][C@@H](Cc2c[nH]c3ccccc23)C(=O)NCCCNC(=O)c2ccc(-c3c4nc(c(-c5c(F)cc(S(=O)(=O)[O-])cc5F)c5ccc([nH]5)c(-c5c(F)cc(S(=O)(=O)[O-])cc5F)c5nc(c(-c6c(F)cc(S(=O)(=O)[O-])cc6F)c6ccc3[nH]6)C=C5)C=C4)cc2)cc1Cl
REMARK SMILES IDX 24 1 23 2 21 3 22 4 10 6 9 7 8 10 7 11 3 12 4 13 97 14 5 15
REMARK SMILES IDX 6 16 96 17 98 18 2 19 1 20 11 21 12 22 13 23 20 24 14 25
REMARK SMILES IDX 15 26 19 27 16 29 18 30 17 31 25 32 26 33 27 34 28 35 29 37
REMARK SMILES IDX 30 38 31 39 95 40 32 41 94 42 33 43 34 44 35 45 88 46 36 47
REMARK SMILES IDX 93 48 87 49 89 50 37 51 92 52 86 53 85 54 38 56 72 57 51 58
REMARK SMILES IDX 71 59 52 60 55 61 70 62 90 63 53 64 54 65 69 67 91 68 56 69
REMARK SMILES IDX 39 70 40 71 49 72 41 73 42 74 48 75 50 76 43 77 44 78 45 79
REMARK SMILES IDX 46 80 47 81 73 82 74 83 83 84 75 85 76 86 82 87 84 88 77 89
REMARK SMILES IDX 78 90 79 91 80 92 81 93 57 94 58 95 67 96 59 97 60 98 66 99
REMARK SMILES IDX 68 100 61 101 62 102 63 103 64 104 65 105
REMARK H PARENT 23 5 9 8 9 9 14 28 27 36 89 55 55 66
REMARK Flexibility Score: inf
ROOT
ATOM      1  C   UNL     1       2.897  -5.120   7.501  1.00  0.00     0.118 C 
ENDROOT
BRANCH   1   2
ATOM      2  N   UNL     1       2.023  -6.267   7.441  1.00  0.00    -0.351 N 
ATOM      3  C   UNL     1       1.904  -7.186   6.436  1.00  0.00     0.278 C 
ATOM      4  O   UNL     1       1.335  -8.250   6.715  1.00  0.00    -0.268 OA
ATOM      5  H   UNL     1       1.440  -6.404   8.221  1.00  0.00     0.163 HD
BRANCH   3   6
ATOM      6  C   UNL     1       2.441  -6.947   4.994  1.00  0.00     0.277 C 
BRANCH   6   7
ATOM      7  N   UNL     1       1.884  -5.687   4.444  1.00  0.00    -0.332 N 
ATOM      8  H   UNL     1       0.911  -5.606   4.740  1.00  0.00     0.347 HD
ATOM      9  H   UNL     1       2.459  -4.923   4.799  1.00  0.00     0.347 HD
BRANCH   7  10
ATOM     10  C   UNL     1       1.931  -5.623   2.990  1.00  0.00     0.298 C 
BRANCH  10  11
ATOM     11  C   UNL     1       1.612  -4.220   2.525  1.00  0.00     0.009 A 
ATOM     12  C   UNL     1       1.055  -1.562   1.756  1.00  0.00     0.156 A 
ATOM     13  C   UNL     1       2.365  -2.050   1.715  1.00  0.00     0.085 A 
ATOM     14  C   UNL     1       0.031  -2.399   2.216  1.00  0.00     0.085 A 
ATOM     15  Cl  UNL     1       3.708  -1.062   1.263  1.00  0.00    -0.080 Cl
ATOM     16  C   UNL     1       2.635  -3.373   2.078  1.00  0.00     0.034 A 
ATOM     17  C   UNL     1       0.307  -3.717   2.600  1.00  0.00     0.034 A 
ATOM     18  Cl  UNL     1      -1.604  -1.848   2.321  1.00  0.00    -0.080 Cl
BRANCH  12  19
ATOM     19  O   UNL     1       0.765  -0.259   1.444  1.00  0.00    -0.494 OA
ATOM     20  C   UNL     1       0.720  -0.053   0.032  1.00  0.00     0.278 C 
ENDBRANCH  12  19
ENDBRANCH  10  11
ENDBRANCH   7  10
ENDBRANCH   6   7
BRANCH   6  21
ATOM     21  C   UNL     1       3.961  -7.235   4.833  1.00  0.00     0.113 C 
BRANCH  21  22
ATOM     22  C   UNL     1       4.938  -6.204   5.332  1.00  0.00    -0.016 A 
ATOM     23  C   UNL     1       5.133  -4.925   4.841  1.00  0.00     0.087 A 
ATOM     24  C   UNL     1       5.841  -6.346   6.442  1.00  0.00     0.003 A 
ATOM     25  N   UNL     1       5.972  -4.252   5.691  1.00  0.00    -0.361 N 
ATOM     26  C   UNL     1       6.408  -5.093   6.685  1.00  0.00     0.046 A 
ATOM     27  C   UNL     1       6.177  -7.407   7.310  1.00  0.00     0.010 A 
ATOM     28  H   UNL     1       6.224  -3.304   5.602  1.00  0.00     0.166 HD
ATOM     29  C   UNL     1       7.238  -4.832   7.781  1.00  0.00     0.026 A 
ATOM     30  C   UNL     1       7.040  -7.173   8.387  1.00  0.00     0.001 A 
ATOM     31  C   UNL     1       7.546  -5.898   8.628  1.00  0.00     0.002 A 
ENDBRANCH  21  22
ENDBRANCH   6  21
ENDBRANCH   3   6
ENDBRANCH   1   2
BRANCH   1  32
ATOM     32  C   UNL     1       2.269  -3.842   8.010  1.00  0.00     0.042 C 
BRANCH  32  33
ATOM     33  C   UNL     1       2.317  -3.704   9.521  1.00  0.00     0.118 C 
BRANCH  33  34
ATOM     34  N   UNL     1       3.676  -3.675  10.060  1.00  0.00    -0.352 N 
ATOM     35  C   UNL     1       4.395  -2.690  10.699  1.00  0.00     0.251 C 
ATOM     36  H   UNL     1       4.170  -4.519   9.944  1.00  0.00     0.163 HD
ATOM     37  O   UNL     1       5.584  -2.877  10.934  1.00  0.00    -0.269 OA
BRANCH  35  38
ATOM     38  C   UNL     1       3.767  -1.399  11.065  1.00  0.00     0.039 A 
ATOM     39  C   UNL     1       4.529  -0.229  10.979  1.00  0.00     0.014 A 
ATOM     40  C   UNL     1       2.442  -1.326  11.487  1.00  0.00     0.014 A 
ATOM     41  C   UNL     1       3.930   1.012  11.215  1.00  0.00     0.010 A 
ATOM     42  C   UNL     1       1.816  -0.090  11.595  1.00  0.00     0.010 A 
ATOM     43  C   UNL     1       2.552   1.095  11.466  1.00  0.00    -0.014 A 
BRANCH  43  44
ATOM     44  C   UNL     1       1.853   2.399  11.599  1.00  0.00     0.031 A 
ATOM     45  C   UNL     1       1.089   2.720  12.857  1.00  0.00     0.074 A 
ATOM     46  C   UNL     1       1.819   3.248  10.553  1.00  0.00     0.049 A 
ATOM     47  N   UNL     1       0.312   3.740  13.116  1.00  0.00    -0.248 NA
ATOM     48  C   UNL     1       1.171   1.738  13.952  1.00  0.00     0.031 C 
ATOM     49  C   UNL     1       2.454   3.019   9.252  1.00  0.00     0.029 A 
ATOM     50  N   UNL     1       1.209   4.469  10.410  1.00  0.00    -0.354 N 
ATOM     51  C   UNL     1      -0.215   3.503  14.380  1.00  0.00     0.074 A 
ATOM     52  C   UNL     1       0.286   2.216  14.812  1.00  0.00     0.031 C 
ATOM     53  C   UNL     1       2.226   4.076   8.457  1.00  0.00     0.029 A 
ATOM     54  C   UNL     1       1.396   5.039   9.172  1.00  0.00     0.049 A 
ATOM     55  H   UNL     1       0.687   4.897  11.126  1.00  0.00     0.167 HD
ATOM     56  C   UNL     1      -1.020   4.296  15.127  1.00  0.00     0.037 A 
ATOM     57  C   UNL     1       0.946   6.204   8.668  1.00  0.00     0.037 A 
ATOM     58  C   UNL     1      -1.468   5.598  14.713  1.00  0.00     0.049 A 
ATOM     59  C   UNL     1       0.103   7.097   9.533  1.00  0.00     0.074 A 
ATOM     60  C   UNL     1      -2.212   6.521  15.426  1.00  0.00     0.029 A 
ATOM     61  N   UNL     1      -1.206   6.166  13.474  1.00  0.00    -0.354 N 
ATOM     62  N   UNL     1      -0.329   6.889  10.755  1.00  0.00    -0.248 NA
ATOM     63  C   UNL     1      -0.309   8.384   8.959  1.00  0.00     0.031 C 
ATOM     64  C   UNL     1      -2.426   7.636  14.607  1.00  0.00     0.029 A 
ATOM     65  C   UNL     1      -1.783   7.423  13.397  1.00  0.00     0.049 A 
ATOM     66  H   UNL     1      -0.687   5.739  12.755  1.00  0.00     0.167 HD
ATOM     67  C   UNL     1      -1.048   8.026  11.102  1.00  0.00     0.074 A 
ATOM     68  C   UNL     1      -0.982   8.924   9.966  1.00  0.00     0.031 C 
ATOM     69  C   UNL     1      -1.704   8.302  12.257  1.00  0.00     0.037 A 
BRANCH  56  70
ATOM     70  C   UNL     1      -1.453   3.771  16.469  1.00  0.00     0.058 A 
ATOM     71  C   UNL     1      -0.547   3.626  17.532  1.00  0.00     0.135 A 
ATOM     72  C   UNL     1      -2.789   3.400  16.694  1.00  0.00     0.135 A 
ATOM     73  F   UNL     1       0.746   3.950  17.367  1.00  0.00    -0.206 F 
ATOM     74  C   UNL     1      -0.936   3.084  18.752  1.00  0.00     0.059 A 
ATOM     75  C   UNL     1      -3.207   2.885  17.918  1.00  0.00     0.059 A 
ATOM     76  F   UNL     1      -3.699   3.521  15.715  1.00  0.00    -0.206 F 
ATOM     77  C   UNL     1      -2.268   2.709  18.933  1.00  0.00     0.060 A 
BRANCH  77  78
ATOM     78  S   UNL     1      -2.754   1.981  20.512  1.00  0.00     0.124 S 
ATOM     79  O   UNL     1      -2.225   0.626  20.381  1.00  0.00    -0.237 OA
ATOM     80  O   UNL     1      -2.070   2.836  21.477  1.00  0.00    -0.237 OA
ATOM     81  O   UNL     1      -4.209   2.092  20.502  1.00  0.00    -0.744 OA
ENDBRANCH  77  78
ENDBRANCH  56  70
BRANCH  57  82
ATOM     82  C   UNL     1       1.329   6.603   7.288  1.00  0.00     0.058 A 
ATOM     83  C   UNL     1       2.289   7.602   7.072  1.00  0.00     0.135 A 
ATOM     84  C   UNL     1       0.789   5.959   6.164  1.00  0.00     0.135 A 
ATOM     85  F   UNL     1       2.830   8.248   8.116  1.00  0.00    -0.206 F 
ATOM     86  C   UNL     1       2.700   7.952   5.790  1.00  0.00     0.059 A 
ATOM     87  C   UNL     1       1.200   6.277   4.872  1.00  0.00     0.059 A 
ATOM     88  F   UNL     1      -0.120   4.984   6.320  1.00  0.00    -0.206 F 
ATOM     89  C   UNL     1       2.155   7.278   4.696  1.00  0.00     0.060 A 
BRANCH  89  90
ATOM     90  S   UNL     1       2.758   7.686   3.042  1.00  0.00     0.124 S 
ATOM     91  O   UNL     1       2.121   8.976   2.807  1.00  0.00    -0.237 OA
ATOM     92  O   UNL     1       4.204   7.715   3.241  1.00  0.00    -0.237 OA
ATOM     93  O   UNL     1       2.268   6.580   2.224  1.00  0.00    -0.744 OA
ENDBRANCH  89  90
ENDBRANCH  57  82
BRANCH  69  94
ATOM     94  C   UNL     1      -2.383   9.637  12.360  1.00  0.00     0.058 A 
ATOM     95  C   UNL     1      -3.585   9.904  11.687  1.00  0.00     0.135 A 
ATOM     96  C   UNL     1      -1.855  10.641  13.187  1.00  0.00     0.135 A 
ATOM     97  F   UNL     1      -4.126   8.978  10.880  1.00  0.00    -0.206 F 
ATOM     98  C   UNL     1      -4.231  11.128  11.815  1.00  0.00     0.059 A 
ATOM     99  C   UNL     1      -2.496  11.865  13.348  1.00  0.00     0.059 A 
ATOM    100  F   UNL     1      -0.712  10.431  13.860  1.00  0.00    -0.206 F 
ATOM    101  C   UNL     1      -3.679  12.103  12.649  1.00  0.00     0.060 A 
BRANCH 101 102
ATOM    102  S   UNL     1      -4.545  13.675  12.838  1.00  0.00     0.124 S 
ATOM    103  O   UNL     1      -4.217  14.343  11.584  1.00  0.00    -0.237 OA
ATOM    104  O   UNL     1      -5.935  13.253  12.987  1.00  0.00    -0.237 OA
ATOM    105  O   UNL     1      -3.942  14.253  14.035  1.00  0.00    -0.744 OA
ENDBRANCH 101 102
ENDBRANCH  69  94
ENDBRANCH  43  44
ENDBRANCH  35  38
ENDBRANCH  33  34
ENDBRANCH  32  33
ENDBRANCH   1  32
TORSDOF 19
