REMARK SMILES CC[NH+](CC)C[C@H](C)NC(=O)N[C@H]1C=C[C@@H](C(=O)NCCCNC(=O)c2ccc(-c3c4nc(c(-c5c(F)cc(S(=O)(=O)[O-])cc5F)c5ccc([nH]5)c(-c5c(F)cc(S(=O)(=O)[O-])cc5F)c5nc(c(-c6c(F)cc(S(=O)(=O)[O-])cc6F)c6ccc3[nH]6)C=C5)C=C4)cc2)C1
REMARK SMILES IDX 20 1 19 2 17 3 18 4 16 6 13 7 14 8 92 9 15 10 12 11 9 12
REMARK SMILES IDX 10 13 11 15 7 17 8 18 6 19 3 20 2 22 1 23 4 24 5 25 21 26
REMARK SMILES IDX 22 27 23 28 24 29 25 31 26 32 27 33 91 34 28 35 90 36 29 37
REMARK SMILES IDX 30 38 31 39 84 40 32 41 89 42 83 43 85 44 33 45 88 46 82 47
REMARK SMILES IDX 81 48 34 50 68 51 47 52 67 53 48 54 51 55 66 56 86 57 49 58
REMARK SMILES IDX 50 59 65 61 87 62 52 63 35 64 36 65 45 66 37 67 38 68 44 69
REMARK SMILES IDX 46 70 39 71 40 72 41 73 42 74 43 75 69 76 70 77 79 78 71 79
REMARK SMILES IDX 72 80 78 81 80 82 73 83 74 84 75 85 76 86 77 87 53 88 54 89
REMARK SMILES IDX 63 90 55 91 56 92 62 93 64 94 57 95 58 96 59 97 60 98 61 99
REMARK H PARENT 19 5 9 14 12 16 3 21 23 30 85 49 51 60
REMARK Flexibility Score: inf
ROOT
ATOM      1  C   UNL     1       2.179   4.303  -0.089  1.00  0.00     0.117 C 
ENDROOT
BRANCH   1   2
ATOM      2  N   UNL     1       1.138   4.728  -1.078  1.00  0.00    -0.356 N 
ATOM      3  C   UNL     1       0.267   4.261  -2.003  1.00  0.00     0.227 C 
ATOM      4  O   UNL     1      -0.870   4.741  -1.790  1.00  0.00    -0.274 OA
ATOM      5  H   UNL     1       1.057   5.709  -1.042  1.00  0.00     0.163 HD
BRANCH   3   6
ATOM      6  C   UNL     1       0.364   3.365  -3.305  1.00  0.00     0.103 C 
ATOM      7  C   UNL     1       1.377   2.150  -5.216  1.00  0.00     0.107 C 
ATOM      8  C   UNL     1       0.511   1.267  -4.386  1.00  0.00    -0.006 C 
ATOM      9  C   UNL     1       1.351   3.511  -4.480  1.00  0.00     0.047 C 
ATOM     10  C   UNL     1       0.016   1.902  -3.307  1.00  0.00    -0.016 C 
BRANCH   7  11
ATOM     11  N   UNL     1       2.671   1.576  -5.610  1.00  0.00    -0.332 N 
ATOM     12  N   UNL     1       3.930   0.450  -3.932  1.00  0.00    -0.330 N 
ATOM     13  C   UNL     1       3.742   0.908  -5.167  1.00  0.00     0.315 C 
ATOM     14  H   UNL     1       4.713  -0.138  -3.826  1.00  0.00     0.165 HD
ATOM     15  O   UNL     1       4.636   0.683  -5.990  1.00  0.00    -0.249 OA
ATOM     16  H   UNL     1       2.799   1.750  -6.570  1.00  0.00     0.165 HD
BRANCH  12  17
ATOM     17  C   UNL     1       3.183   0.670  -2.732  1.00  0.00     0.135 C 
ATOM     18  C   UNL     1       2.920  -0.612  -1.948  1.00  0.00     0.037 C 
BRANCH  17  19
ATOM     19  C   UNL     1       3.667   1.861  -1.886  1.00  0.00     0.287 C 
BRANCH  19  20
ATOM     20  N   UNL     1       4.762   2.700  -2.346  1.00  0.00    -0.334 N 
ATOM     21  H   UNL     1       4.212   1.966  -2.793  1.00  0.00     0.348 HD
BRANCH  20  22
ATOM     22  C   UNL     1       6.141   2.349  -2.100  1.00  0.00     0.258 C 
ATOM     23  C   UNL     1       6.383   1.626  -0.783  1.00  0.00     0.071 C 
ENDBRANCH  20  22
BRANCH  20  24
ATOM     24  C   UNL     1       4.531   3.975  -3.002  1.00  0.00     0.258 C 
ATOM     25  C   UNL     1       4.954   4.070  -4.456  1.00  0.00     0.071 C 
ENDBRANCH  20  24
ENDBRANCH  19  20
ENDBRANCH  17  19
ENDBRANCH  12  17
ENDBRANCH   7  11
ENDBRANCH   3   6
ENDBRANCH   1   2
BRANCH   1  26
ATOM     26  C   UNL     1       3.442   5.181  -0.154  1.00  0.00     0.042 C 
BRANCH  26  27
ATOM     27  C   UNL     1       4.205   5.551   1.125  1.00  0.00     0.118 C 
BRANCH  27  28
ATOM     28  N   UNL     1       5.014   4.482   1.703  1.00  0.00    -0.352 N 
ATOM     29  C   UNL     1       6.369   4.287   1.897  1.00  0.00     0.251 C 
ATOM     30  H   UNL     1       4.471   3.727   2.028  1.00  0.00     0.163 HD
ATOM     31  O   UNL     1       6.702   3.221   2.425  1.00  0.00    -0.269 OA
BRANCH  29  32
ATOM     32  C   UNL     1       7.450   5.242   1.500  1.00  0.00     0.039 A 
ATOM     33  C   UNL     1       8.743   4.731   1.263  1.00  0.00     0.014 A 
ATOM     34  C   UNL     1       7.282   6.621   1.436  1.00  0.00     0.014 A 
ATOM     35  C   UNL     1       9.819   5.578   0.931  1.00  0.00     0.010 A 
ATOM     36  C   UNL     1       8.323   7.452   1.002  1.00  0.00     0.010 A 
ATOM     37  C   UNL     1       9.615   6.954   0.770  1.00  0.00    -0.014 A 
BRANCH  37  38
ATOM     38  C   UNL     1      10.715   7.916   0.442  1.00  0.00     0.031 A 
ATOM     39  C   UNL     1      10.987   9.080   1.371  1.00  0.00     0.074 A 
ATOM     40  C   UNL     1      11.399   7.830  -0.717  1.00  0.00     0.049 A 
ATOM     41  N   UNL     1      11.720  10.149   1.182  1.00  0.00    -0.248 NA
ATOM     42  C   UNL     1      10.295   9.056   2.669  1.00  0.00     0.031 C 
ATOM     43  C   UNL     1      11.241   6.778  -1.721  1.00  0.00     0.029 A 
ATOM     44  N   UNL     1      12.355   8.659  -1.258  1.00  0.00    -0.354 N 
ATOM     45  C   UNL     1      11.523  10.949   2.305  1.00  0.00     0.074 A 
ATOM     46  C   UNL     1      10.564  10.262   3.143  1.00  0.00     0.031 C 
ATOM     47  C   UNL     1      12.081   7.013  -2.743  1.00  0.00     0.029 A 
ATOM     48  C   UNL     1      12.803   8.258  -2.495  1.00  0.00     0.049 A 
ATOM     49  H   UNL     1      12.687   9.466  -0.801  1.00  0.00     0.167 HD
ATOM     50  C   UNL     1      12.099  12.135   2.624  1.00  0.00     0.037 A 
ATOM     51  C   UNL     1      13.685   8.830  -3.341  1.00  0.00     0.037 A 
ATOM     52  C   UNL     1      13.106  12.780   1.821  1.00  0.00     0.049 A 
ATOM     53  C   UNL     1      14.337  10.133  -2.963  1.00  0.00     0.074 A 
ATOM     54  C   UNL     1      13.813  13.939   2.091  1.00  0.00     0.029 A 
ATOM     55  N   UNL     1      13.557  12.315   0.594  1.00  0.00    -0.354 N 
ATOM     56  N   UNL     1      14.160  10.862  -1.886  1.00  0.00    -0.248 NA
ATOM     57  C   UNL     1      15.309  10.693  -3.913  1.00  0.00     0.031 C 
ATOM     58  C   UNL     1      14.664  14.195   1.010  1.00  0.00     0.029 A 
ATOM     59  C   UNL     1      14.523  13.170   0.088  1.00  0.00     0.049 A 
ATOM     60  H   UNL     1      13.238  11.497   0.148  1.00  0.00     0.167 HD
ATOM     61  C   UNL     1      15.022  11.947  -2.013  1.00  0.00     0.074 A 
ATOM     62  C   UNL     1      15.721  11.778  -3.271  1.00  0.00     0.031 C 
ATOM     63  C   UNL     1      15.219  12.985  -1.162  1.00  0.00     0.037 A 
BRANCH  50  64
ATOM     64  C   UNL     1      11.644  12.810   3.895  1.00  0.00     0.058 A 
ATOM     65  C   UNL     1      11.900  12.262   5.163  1.00  0.00     0.135 A 
ATOM     66  C   UNL     1      10.925  14.017   3.843  1.00  0.00     0.135 A 
ATOM     67  F   UNL     1      12.577  11.109   5.278  1.00  0.00    -0.206 F 
ATOM     68  C   UNL     1      11.400  12.844   6.324  1.00  0.00     0.059 A 
ATOM     69  C   UNL     1      10.448  14.637   4.995  1.00  0.00     0.059 A 
ATOM     70  F   UNL     1      10.661  14.597   2.662  1.00  0.00    -0.206 F 
ATOM     71  C   UNL     1      10.664  14.026   6.229  1.00  0.00     0.060 A 
BRANCH  71  72
ATOM     72  S   UNL     1       9.977  14.741   7.737  1.00  0.00     0.124 S 
ATOM     73  O   UNL     1       8.859  13.839   8.000  1.00  0.00    -0.237 OA
ATOM     74  O   UNL     1      11.097  14.647   8.669  1.00  0.00    -0.237 OA
ATOM     75  O   UNL     1       9.610  16.095   7.336  1.00  0.00    -0.744 OA
ENDBRANCH  71  72
ENDBRANCH  50  64
BRANCH  51  76
ATOM     76  C   UNL     1      14.040   8.140  -4.612  1.00  0.00     0.058 A 
ATOM     77  C   UNL     1      15.291   7.522  -4.759  1.00  0.00     0.135 A 
ATOM     78  C   UNL     1      13.134   8.040  -5.680  1.00  0.00     0.135 A 
ATOM     79  F   UNL     1      16.197   7.602  -3.772  1.00  0.00    -0.206 F 
ATOM     80  C   UNL     1      15.631   6.823  -5.912  1.00  0.00     0.059 A 
ATOM     81  C   UNL     1      13.443   7.327  -6.836  1.00  0.00     0.059 A 
ATOM     82  F   UNL     1      11.921   8.606  -5.588  1.00  0.00    -0.206 F 
ATOM     83  C   UNL     1      14.694   6.721  -6.942  1.00  0.00     0.060 A 
BRANCH  83  84
ATOM     84  S   UNL     1      15.125   5.741  -8.398  1.00  0.00     0.124 S 
ATOM     85  O   UNL     1      16.113   6.574  -9.042  1.00  0.00    -0.237 OA
ATOM     86  O   UNL     1      15.617   4.501  -7.792  1.00  0.00    -0.237 OA
ATOM     87  O   UNL     1      13.843   5.609  -9.100  1.00  0.00    -0.744 OA
ENDBRANCH  83  84
ENDBRANCH  51  76
BRANCH  63  88
ATOM     88  C   UNL     1      16.264  14.002  -1.534  1.00  0.00     0.058 A 
ATOM     89  C   UNL     1      16.053  14.942  -2.554  1.00  0.00     0.135 A 
ATOM     90  C   UNL     1      17.467  14.076  -0.812  1.00  0.00     0.135 A 
ATOM     91  F   UNL     1      14.924  14.912  -3.278  1.00  0.00    -0.206 F 
ATOM     92  C   UNL     1      17.007  15.909  -2.858  1.00  0.00     0.059 A 
ATOM     93  C   UNL     1      18.423  15.050  -1.082  1.00  0.00     0.059 A 
ATOM     94  F   UNL     1      17.714  13.207   0.181  1.00  0.00    -0.206 F 
ATOM     95  C   UNL     1      18.188  15.957  -2.114  1.00  0.00     0.060 A 
BRANCH  95  96
ATOM     96  S   UNL     1      19.398  17.243  -2.491  1.00  0.00     0.124 S 
ATOM     97  O   UNL     1      19.966  16.755  -3.743  1.00  0.00    -0.237 OA
ATOM     98  O   UNL     1      18.563  18.436  -2.595  1.00  0.00    -0.237 OA
ATOM     99  O   UNL     1      20.295  17.213  -1.339  1.00  0.00    -0.744 OA
ENDBRANCH  95  96
ENDBRANCH  63  88
ENDBRANCH  37  38
ENDBRANCH  29  32
ENDBRANCH  27  28
ENDBRANCH  26  27
ENDBRANCH   1  26
TORSDOF 19
