REMARK SMILES COc1ccccc1N1C(=O)CC[C@H]1CC(=O)NCCCNC(=O)c1ccc(-c2c3nc(c(-c4c(F)cc(S(=O)(=O)[O-])cc4F)c4ccc([nH]4)c(-c4c(F)cc(S(=O)(=O)[O-])cc4F)c4nc(c(-c5c(F)cc(S(=O)(=O)[O-])cc5F)c5ccc2[nH]5)C=C4)C=C3)cc1
REMARK SMILES IDX 20 1 19 2 18 3 16 4 17 5 15 7 14 8 9 9 10 10 11 11 12 12
REMARK SMILES IDX 13 13 8 14 3 15 4 16 5 17 7 18 6 19 2 20 1 21 21 22 22 23
REMARK SMILES IDX 23 24 24 26 25 27 26 28 90 29 27 30 89 31 28 32 29 33 30 34
REMARK SMILES IDX 83 35 31 36 88 37 82 38 84 39 32 40 87 41 81 42 80 43 33 45
REMARK SMILES IDX 67 46 46 47 66 48 47 49 50 50 65 51 85 52 48 53 49 54 64 56
REMARK SMILES IDX 86 57 51 58 34 59 35 60 44 61 36 62 37 63 43 64 45 65 38 66
REMARK SMILES IDX 39 67 40 68 41 69 42 70 68 71 69 72 78 73 70 74 71 75 77 76
REMARK SMILES IDX 79 77 72 78 73 79 74 80 75 81 76 82 52 83 53 84 62 85 54 86
REMARK SMILES IDX 55 87 61 88 63 89 56 90 57 91 58 92 59 93 60 94
REMARK H PARENT 18 6 22 25 84 44 50 55
REMARK Flexibility Score: inf
ROOT
ATOM      1  C   UNL     1       6.384   2.204   1.365  1.00  0.00     0.042 C 
ENDROOT
BRANCH   1   2
ATOM      2  C   UNL     1       6.921   1.232   2.406  1.00  0.00     0.117 C 
BRANCH   2   3
ATOM      3  N   UNL     1       6.074   1.108   3.572  1.00  0.00    -0.356 N 
ATOM      4  C   UNL     1       5.198   0.144   3.939  1.00  0.00     0.222 C 
ATOM      5  O   UNL     1       4.881   0.117   5.135  1.00  0.00    -0.275 OA
ATOM      6  H   UNL     1       6.148   1.854   4.210  1.00  0.00     0.163 HD
BRANCH   4   7
ATOM      7  C   UNL     1       4.659  -0.918   3.001  1.00  0.00     0.125 C 
BRANCH   7   8
ATOM      8  C   UNL     1       3.775  -0.597   1.781  1.00  0.00     0.100 C 
ATOM      9  N   UNL     1       3.065   0.664   1.638  1.00  0.00    -0.305 N 
ATOM     10  C   UNL     1       3.159   1.164   0.328  1.00  0.00     0.227 C 
ATOM     11  O   UNL     1       2.733   2.226  -0.100  1.00  0.00    -0.275 OA
ATOM     12  C   UNL     1       3.904   0.168  -0.521  1.00  0.00     0.103 C 
ATOM     13  C   UNL     1       4.570  -0.753   0.480  1.00  0.00     0.036 C 
BRANCH   9  14
ATOM     14  C   UNL     1       1.946   1.002   2.460  1.00  0.00     0.086 A 
ATOM     15  C   UNL     1       0.632   1.112   1.962  1.00  0.00     0.142 A 
ATOM     16  C   UNL     1      -0.429   1.483   2.801  1.00  0.00     0.048 A 
ATOM     17  C   UNL     1      -0.206   1.729   4.153  1.00  0.00     0.004 A 
ATOM     18  C   UNL     1       2.142   1.283   3.815  1.00  0.00     0.030 A 
ATOM     19  C   UNL     1       1.083   1.635   4.658  1.00  0.00     0.002 A 
BRANCH  15  20
ATOM     20  O   UNL     1       0.307   0.940   0.641  1.00  0.00    -0.495 OA
ATOM     21  C   UNL     1       0.165  -0.431   0.293  1.00  0.00     0.278 C 
ENDBRANCH  15  20
ENDBRANCH   9  14
ENDBRANCH   7   8
ENDBRANCH   4   7
ENDBRANCH   2   3
ENDBRANCH   1   2
BRANCH   1  22
ATOM     22  C   UNL     1       6.275   3.655   1.817  1.00  0.00     0.118 C 
BRANCH  22  23
ATOM     23  N   UNL     1       7.580   4.278   1.956  1.00  0.00    -0.352 N 
ATOM     24  C   UNL     1       8.217   5.205   1.169  1.00  0.00     0.251 C 
ATOM     25  H   UNL     1       8.092   3.986   2.744  1.00  0.00     0.163 HD
ATOM     26  O   UNL     1       9.423   5.380   1.335  1.00  0.00    -0.269 OA
BRANCH  24  27
ATOM     27  C   UNL     1       7.497   5.990   0.134  1.00  0.00     0.039 A 
ATOM     28  C   UNL     1       8.183   6.334  -1.037  1.00  0.00     0.014 A 
ATOM     29  C   UNL     1       6.201   6.475   0.332  1.00  0.00     0.014 A 
ATOM     30  C   UNL     1       7.566   7.128  -2.010  1.00  0.00     0.010 A 
ATOM     31  C   UNL     1       5.559   7.205  -0.672  1.00  0.00     0.010 A 
ATOM     32  C   UNL     1       6.241   7.558  -1.845  1.00  0.00    -0.014 A 
BRANCH  32  33
ATOM     33  C   UNL     1       5.572   8.405  -2.871  1.00  0.00     0.031 A 
ATOM     34  C   UNL     1       5.157   9.816  -2.539  1.00  0.00     0.074 A 
ATOM     35  C   UNL     1       5.304   7.898  -4.091  1.00  0.00     0.049 A 
ATOM     36  N   UNL     1       4.524  10.690  -3.280  1.00  0.00    -0.248 NA
ATOM     37  C   UNL     1       5.480  10.303  -1.188  1.00  0.00     0.031 C 
ATOM     38  C   UNL     1       5.621   6.537  -4.528  1.00  0.00     0.029 A 
ATOM     39  N   UNL     1       4.697   8.464  -5.185  1.00  0.00    -0.354 N 
ATOM     40  C   UNL     1       4.358  11.818  -2.484  1.00  0.00     0.074 A 
ATOM     41  C   UNL     1       4.916  11.502  -1.187  1.00  0.00     0.031 C 
ATOM     42  C   UNL     1       5.226   6.381  -5.802  1.00  0.00     0.029 A 
ATOM     43  C   UNL     1       4.596   7.615  -6.262  1.00  0.00     0.049 A 
ATOM     44  H   UNL     1       4.366   9.391  -5.197  1.00  0.00     0.167 HD
ATOM     45  C   UNL     1       3.812  13.016  -2.808  1.00  0.00     0.037 A 
ATOM     46  C   UNL     1       4.051   7.806  -7.480  1.00  0.00     0.037 A 
ATOM     47  C   UNL     1       3.278  13.336  -4.107  1.00  0.00     0.049 A 
ATOM     48  C   UNL     1       3.445   9.142  -7.816  1.00  0.00     0.074 A 
ATOM     49  C   UNL     1       2.746  14.536  -4.548  1.00  0.00     0.029 A 
ATOM     50  N   UNL     1       3.207  12.452  -5.174  1.00  0.00    -0.354 N 
ATOM     51  N   UNL     1       3.345  10.214  -7.067  1.00  0.00    -0.248 NA
ATOM     52  C   UNL     1       2.884   9.297  -9.165  1.00  0.00     0.031 C 
ATOM     53  C   UNL     1       2.320  14.367  -5.870  1.00  0.00     0.029 A 
ATOM     54  C   UNL     1       2.628  13.075  -6.268  1.00  0.00     0.049 A 
ATOM     55  H   UNL     1       3.522  11.520  -5.157  1.00  0.00     0.167 HD
ATOM     56  C   UNL     1       2.737  11.179  -7.862  1.00  0.00     0.074 A 
ATOM     57  C   UNL     1       2.500  10.566  -9.153  1.00  0.00     0.031 C 
ATOM     58  C   UNL     1       2.408  12.457  -7.552  1.00  0.00     0.037 A 
BRANCH  45  59
ATOM     59  C   UNL     1       3.767  14.073  -1.737  1.00  0.00     0.058 A 
ATOM     60  C   UNL     1       4.932  14.712  -1.284  1.00  0.00     0.135 A 
ATOM     61  C   UNL     1       2.543  14.473  -1.175  1.00  0.00     0.135 A 
ATOM     62  F   UNL     1       6.131  14.361  -1.777  1.00  0.00    -0.206 F 
ATOM     63  C   UNL     1       4.891  15.683  -0.288  1.00  0.00     0.059 A 
ATOM     64  C   UNL     1       2.475  15.463  -0.197  1.00  0.00     0.059 A 
ATOM     65  F   UNL     1       1.397  13.900  -1.573  1.00  0.00    -0.206 F 
ATOM     66  C   UNL     1       3.658  16.049   0.252  1.00  0.00     0.060 A 
BRANCH  66  67
ATOM     67  S   UNL     1       3.621  17.306   1.548  1.00  0.00     0.124 S 
ATOM     68  O   UNL     1       4.134  16.559   2.692  1.00  0.00    -0.237 OA
ATOM     69  O   UNL     1       4.510  18.333   1.013  1.00  0.00    -0.237 OA
ATOM     70  O   UNL     1       2.212  17.679   1.622  1.00  0.00    -0.744 OA
ENDBRANCH  66  67
ENDBRANCH  45  59
BRANCH  46  71
ATOM     71  C   UNL     1       4.080   6.709  -8.485  1.00  0.00     0.058 A 
ATOM     72  C   UNL     1       4.912   6.787  -9.611  1.00  0.00     0.135 A 
ATOM     73  C   UNL     1       3.290   5.559  -8.335  1.00  0.00     0.135 A 
ATOM     74  F   UNL     1       5.681   7.870  -9.803  1.00  0.00    -0.206 F 
ATOM     75  C   UNL     1       4.952   5.771 -10.561  1.00  0.00     0.059 A 
ATOM     76  C   UNL     1       3.330   4.518  -9.258  1.00  0.00     0.059 A 
ATOM     77  F   UNL     1       2.487   5.429  -7.267  1.00  0.00    -0.206 F 
ATOM     78  C   UNL     1       4.158   4.638 -10.373  1.00  0.00     0.060 A 
BRANCH  78  79
ATOM     79  S   UNL     1       4.256   3.301 -11.584  1.00  0.00     0.124 S 
ATOM     80  O   UNL     1       3.520   3.868 -12.708  1.00  0.00    -0.237 OA
ATOM     81  O   UNL     1       5.697   3.159 -11.770  1.00  0.00    -0.237 OA
ATOM     82  O   UNL     1       3.608   2.184 -10.903  1.00  0.00    -0.744 OA
ENDBRANCH  78  79
ENDBRANCH  46  71
BRANCH  58  83
ATOM     83  C   UNL     1       1.793  13.297  -8.637  1.00  0.00     0.058 A 
ATOM     84  C   UNL     1       0.469  13.104  -9.062  1.00  0.00     0.135 A 
ATOM     85  C   UNL     1       2.525  14.341  -9.226  1.00  0.00     0.135 A 
ATOM     86  F   UNL     1      -0.272  12.115  -8.536  1.00  0.00    -0.206 F 
ATOM     87  C   UNL     1      -0.100  13.901 -10.050  1.00  0.00     0.059 A 
ATOM     88  C   UNL     1       1.967  15.167 -10.197  1.00  0.00     0.059 A 
ATOM     89  F   UNL     1       3.792  14.575  -8.849  1.00  0.00    -0.206 F 
ATOM     90  C   UNL     1       0.657  14.932 -10.611  1.00  0.00     0.060 A 
BRANCH  90  91
ATOM     91  S   UNL     1      -0.103  15.981 -11.868  1.00  0.00     0.124 S 
ATOM     92  O   UNL     1      -0.092  15.101 -13.032  1.00  0.00    -0.237 OA
ATOM     93  O   UNL     1      -1.417  16.257 -11.295  1.00  0.00    -0.237 OA
ATOM     94  O   UNL     1       0.796  17.129 -11.941  1.00  0.00    -0.744 OA
ENDBRANCH  90  91
ENDBRANCH  58  83
ENDBRANCH  32  33
ENDBRANCH  24  27
ENDBRANCH  22  23
ENDBRANCH   1  22
TORSDOF 16
