REMARK SMILES O=C(CCSc1nc(-c2cccs2)cc(C(F)(F)F)n1)NCCCNC(=O)c1ccc(-c2c3nc(c(-c4c(F)cc(S(=O)(=O)[O-])cc4F)c4ccc([nH]4)c(-c4c(F)cc(S(=O)(=O)[O-])cc4F)c4nc(c(-c5c(F)cc(S(=O)(=O)[O-])cc5F)c5ccc2[nH]5)C=C4)C=C3)cc1
REMARK SMILES IDX 22 1 21 2 1 3 2 4 3 6 4 7 5 8 6 9 7 10 20 11 8 12 15 13
REMARK SMILES IDX 14 14 9 15 10 16 13 17 11 18 12 19 16 20 17 21 18 22 19 23
REMARK SMILES IDX 23 24 24 25 25 26 26 27 27 29 28 30 29 31 93 32 30 33 92 34
REMARK SMILES IDX 31 35 32 36 33 37 86 38 34 39 91 40 85 41 87 42 35 43 90 44
REMARK SMILES IDX 84 45 83 46 36 48 70 49 49 50 69 51 50 52 53 53 68 54 88 55
REMARK SMILES IDX 51 56 52 57 67 59 89 60 54 61 37 62 38 63 47 64 39 65 40 66
REMARK SMILES IDX 46 67 48 68 41 69 42 70 43 71 44 72 45 73 71 74 72 75 81 76
REMARK SMILES IDX 73 77 74 78 80 79 82 80 75 81 76 82 77 83 78 84 79 85 55 86
REMARK SMILES IDX 56 87 65 88 57 89 58 90 64 91 66 92 59 93 60 94 61 95 62 96
REMARK SMILES IDX 63 97
REMARK H PARENT 21 5 25 28 87 47 53 58
REMARK Flexibility Score: inf
ROOT
ATOM      1  C   UNL     1       2.677  -2.373   0.197  1.00  0.00     0.117 C 
ENDROOT
BRANCH   1   2
ATOM      2  N   UNL     1       3.115  -1.083  -0.265  1.00  0.00    -0.356 N 
ATOM      3  O   UNL     1       1.099   0.059  -0.144  1.00  0.00    -0.275 OA
ATOM      4  C   UNL     1       2.319   0.038  -0.284  1.00  0.00     0.220 C 
ATOM      5  H   UNL     1       4.041  -0.997  -0.586  1.00  0.00     0.163 HD
BRANCH   4   6
ATOM      6  C   UNL     1       3.152   1.287  -0.395  1.00  0.00     0.111 C 
BRANCH   6   7
ATOM      7  C   UNL     1       3.711   1.697   0.974  1.00  0.00     0.088 C 
BRANCH   7   8
ATOM      8  S   UNL     1       4.723   0.427   1.872  1.00  0.00    -0.086 SA
BRANCH   8   9
ATOM      9  C   UNL     1       3.533  -0.316   2.998  1.00  0.00     0.188 A 
ATOM     10  N   UNL     1       3.419  -1.666   3.024  1.00  0.00    -0.222 NA
ATOM     11  N   UNL     1       2.904   0.499   3.839  1.00  0.00    -0.218 NA
ATOM     12  C   UNL     1       2.593  -2.242   3.938  1.00  0.00     0.085 A 
ATOM     13  C   UNL     1       2.133  -0.094   4.787  1.00  0.00     0.149 A 
ATOM     14  C   UNL     1       1.966  -1.468   4.878  1.00  0.00     0.063 A 
BRANCH  12  15
ATOM     15  C   UNL     1       2.248  -3.697   3.832  1.00  0.00     0.053 A 
ATOM     16  C   UNL     1       1.166  -4.406   4.349  1.00  0.00     0.022 A 
ATOM     17  S   UNL     1       3.205  -4.802   2.975  1.00  0.00    -0.142 S 
ATOM     18  C   UNL     1       1.116  -5.786   3.946  1.00  0.00     0.012 A 
ATOM     19  C   UNL     1       2.168  -6.114   3.134  1.00  0.00     0.065 A 
ENDBRANCH  12  15
BRANCH  13  20
ATOM     20  C   UNL     1       1.360   0.790   5.740  1.00  0.00     0.433 C 
ATOM     21  F   UNL     1       2.125   1.748   6.331  1.00  0.00    -0.165 F 
ATOM     22  F   UNL     1       0.335   1.444   5.126  1.00  0.00    -0.165 F 
ATOM     23  F   UNL     1       0.785   0.094   6.766  1.00  0.00    -0.165 F 
ENDBRANCH  13  20
ENDBRANCH   8   9
ENDBRANCH   7   8
ENDBRANCH   6   7
ENDBRANCH   4   6
ENDBRANCH   1   2
BRANCH   1  24
ATOM     24  C   UNL     1       3.792  -3.430   0.132  1.00  0.00     0.042 C 
BRANCH  24  25
ATOM     25  C   UNL     1       5.249  -3.241   0.685  1.00  0.00     0.118 C 
BRANCH  25  26
ATOM     26  N   UNL     1       5.597  -2.968   2.093  1.00  0.00    -0.352 N 
ATOM     27  C   UNL     1       6.164  -3.643   3.167  1.00  0.00     0.251 C 
ATOM     28  H   UNL     1       5.359  -2.046   2.342  1.00  0.00     0.163 HD
ATOM     29  O   UNL     1       6.399  -3.012   4.202  1.00  0.00    -0.269 OA
BRANCH  27  30
ATOM     30  C   UNL     1       6.375  -5.118   3.191  1.00  0.00     0.039 A 
ATOM     31  C   UNL     1       6.021  -5.854   4.347  1.00  0.00     0.014 A 
ATOM     32  C   UNL     1       6.801  -5.804   2.069  1.00  0.00     0.014 A 
ATOM     33  C   UNL     1       5.953  -7.262   4.319  1.00  0.00     0.010 A 
ATOM     34  C   UNL     1       6.692  -7.194   2.028  1.00  0.00     0.010 A 
ATOM     35  C   UNL     1       6.250  -7.947   3.138  1.00  0.00    -0.014 A 
BRANCH  35  36
ATOM     36  C   UNL     1       6.232  -9.435   2.984  1.00  0.00     0.031 A 
ATOM     37  C   UNL     1       7.527 -10.112   2.614  1.00  0.00     0.074 A 
ATOM     38  C   UNL     1       5.093 -10.158   2.977  1.00  0.00     0.049 A 
ATOM     39  N   UNL     1       7.734 -11.283   2.071  1.00  0.00    -0.248 NA
ATOM     40  C   UNL     1       8.748  -9.322   2.838  1.00  0.00     0.031 C 
ATOM     41  C   UNL     1       3.765  -9.673   3.344  1.00  0.00     0.029 A 
ATOM     42  N   UNL     1       4.867 -11.462   2.586  1.00  0.00    -0.354 N 
ATOM     43  C   UNL     1       9.103 -11.348   1.842  1.00  0.00     0.074 A 
ATOM     44  C   UNL     1       9.660 -10.075   2.244  1.00  0.00     0.031 C 
ATOM     45  C   UNL     1       2.858 -10.639   3.108  1.00  0.00     0.029 A 
ATOM     46  C   UNL     1       3.534 -11.812   2.554  1.00  0.00     0.049 A 
ATOM     47  H   UNL     1       5.592 -12.086   2.352  1.00  0.00     0.167 HD
ATOM     48  C   UNL     1       9.838 -12.382   1.367  1.00  0.00     0.037 A 
ATOM     49  C   UNL     1       2.925 -12.934   2.112  1.00  0.00     0.037 A 
ATOM     50  C   UNL     1       9.296 -13.669   1.022  1.00  0.00     0.049 A 
ATOM     51  C   UNL     1       3.757 -14.071   1.564  1.00  0.00     0.074 A 
ATOM     52  C   UNL     1       9.973 -14.803   0.610  1.00  0.00     0.029 A 
ATOM     53  N   UNL     1       7.949 -13.998   1.059  1.00  0.00    -0.354 N 
ATOM     54  N   UNL     1       5.057 -14.141   1.399  1.00  0.00    -0.248 NA
ATOM     55  C   UNL     1       3.040 -15.290   1.155  1.00  0.00     0.031 C 
ATOM     56  C   UNL     1       9.032 -15.806   0.355  1.00  0.00     0.029 A 
ATOM     57  C   UNL     1       7.774 -15.312   0.659  1.00  0.00     0.049 A 
ATOM     58  H   UNL     1       7.226 -13.388   1.329  1.00  0.00     0.167 HD
ATOM     59  C   UNL     1       5.314 -15.421   0.913  1.00  0.00     0.074 A 
ATOM     60  C   UNL     1       4.038 -16.095   0.815  1.00  0.00     0.031 C 
ATOM     61  C   UNL     1       6.502 -15.988   0.583  1.00  0.00     0.037 A 
BRANCH  48  62
ATOM     62  C   UNL     1      11.318 -12.160   1.210  1.00  0.00     0.058 A 
ATOM     63  C   UNL     1      12.156 -11.973   2.322  1.00  0.00     0.135 A 
ATOM     64  C   UNL     1      11.907 -12.140  -0.064  1.00  0.00     0.135 A 
ATOM     65  F   UNL     1      11.643 -11.969   3.563  1.00  0.00    -0.206 F 
ATOM     66  C   UNL     1      13.514 -11.724   2.174  1.00  0.00     0.059 A 
ATOM     67  C   UNL     1      13.272 -11.932  -0.233  1.00  0.00     0.059 A 
ATOM     68  F   UNL     1      11.154 -12.317  -1.162  1.00  0.00    -0.206 F 
ATOM     69  C   UNL     1      14.063 -11.704   0.892  1.00  0.00     0.060 A 
BRANCH  69  70
ATOM     70  S   UNL     1      15.829 -11.373   0.722  1.00  0.00     0.124 S 
ATOM     71  O   UNL     1      15.890  -9.950   1.042  1.00  0.00    -0.237 OA
ATOM     72  O   UNL     1      16.410 -12.272   1.714  1.00  0.00    -0.237 OA
ATOM     73  O   UNL     1      16.107 -11.716  -0.670  1.00  0.00    -0.744 OA
ENDBRANCH  69  70
ENDBRANCH  48  62
BRANCH  49  74
ATOM     74  C   UNL     1       1.440 -13.074   2.188  1.00  0.00     0.058 A 
ATOM     75  C   UNL     1       0.852 -13.977   3.088  1.00  0.00     0.135 A 
ATOM     76  C   UNL     1       0.584 -12.346   1.348  1.00  0.00     0.135 A 
ATOM     77  F   UNL     1       1.626 -14.713   3.899  1.00  0.00    -0.206 F 
ATOM     78  C   UNL     1      -0.526 -14.168   3.140  1.00  0.00     0.059 A 
ATOM     79  C   UNL     1      -0.801 -12.501   1.399  1.00  0.00     0.059 A 
ATOM     80  F   UNL     1       1.090 -11.465   0.471  1.00  0.00    -0.206 F 
ATOM     81  C   UNL     1      -1.346 -13.421   2.294  1.00  0.00     0.060 A 
BRANCH  81  82
ATOM     82  S   UNL     1      -3.136 -13.645   2.412  1.00  0.00     0.124 S 
ATOM     83  O   UNL     1      -3.305 -14.982   1.857  1.00  0.00    -0.237 OA
ATOM     84  O   UNL     1      -3.363 -13.515   3.848  1.00  0.00    -0.237 OA
ATOM     85  O   UNL     1      -3.664 -12.552   1.600  1.00  0.00    -0.744 OA
ENDBRANCH  81  82
ENDBRANCH  49  74
BRANCH  61  86
ATOM     86  C   UNL     1       6.501 -17.424   0.129  1.00  0.00     0.058 A 
ATOM     87  C   UNL     1       6.001 -17.806  -1.126  1.00  0.00     0.135 A 
ATOM     88  C   UNL     1       7.082 -18.423   0.930  1.00  0.00     0.135 A 
ATOM     89  F   UNL     1       5.431 -16.896  -1.931  1.00  0.00    -0.206 F 
ATOM     90  C   UNL     1       6.062 -19.127  -1.563  1.00  0.00     0.059 A 
ATOM     91  C   UNL     1       7.181 -19.743   0.501  1.00  0.00     0.059 A 
ATOM     92  F   UNL     1       7.587 -18.113   2.136  1.00  0.00    -0.206 F 
ATOM     93  C   UNL     1       6.660 -20.087  -0.745  1.00  0.00     0.060 A 
BRANCH  93  94
ATOM     94  S   UNL     1       6.778 -21.785  -1.348  1.00  0.00     0.124 S 
ATOM     95  O   UNL     1       5.388 -22.224  -1.268  1.00  0.00    -0.237 OA
ATOM     96  O   UNL     1       7.308 -21.601  -2.696  1.00  0.00    -0.237 OA
ATOM     97  O   UNL     1       7.691 -22.421  -0.403  1.00  0.00    -0.744 OA
ENDBRANCH  93  94
ENDBRANCH  61  86
ENDBRANCH  35  36
ENDBRANCH  27  30
ENDBRANCH  25  26
ENDBRANCH  24  25
ENDBRANCH   1  24
TORSDOF 18
