REMARK SMILES CC[C@H]1CC[C@](O)([C@H](F)C(=O)NCCCNC(=O)c2ccc(-c3c4nc(c(-c5c(F)cc(S(=O)(=O)[O-])cc5F)c5ccc([nH]5)c(-c5c(F)cc(S(=O)(=O)[O-])cc5F)c5nc(c(-c6c(F)cc(S(=O)(=O)[O-])cc6F)c6ccc3[nH]6)C=C5)C=C4)cc2)CC1
REMARK SMILES IDX 14 1 13 2 12 3 10 4 11 5 8 7 9 8 6 9 3 10 4 11 86 12 5 13
REMARK SMILES IDX 85 14 2 15 1 16 7 17 15 19 16 20 17 21 18 23 19 24 20 25
REMARK SMILES IDX 84 26 21 27 83 28 22 29 23 30 24 31 77 32 25 33 82 34 76 35
REMARK SMILES IDX 78 36 26 37 81 38 75 39 74 40 27 42 61 43 40 44 60 45 41 46
REMARK SMILES IDX 44 47 59 48 79 49 42 50 43 51 58 53 80 54 45 55 28 56 29 57
REMARK SMILES IDX 38 58 30 59 31 60 37 61 39 62 32 63 33 64 34 65 35 66 36 67
REMARK SMILES IDX 62 68 63 69 72 70 64 71 65 72 71 73 73 74 66 75 67 76 68 77
REMARK SMILES IDX 69 78 70 79 46 80 47 81 56 82 48 83 49 84 55 85 57 86 50 87
REMARK SMILES IDX 51 88 52 89 53 90 54 91
REMARK H PARENT 12 6 7 18 16 22 78 41 44 52
REMARK Flexibility Score: inf
ROOT
ATOM      1  C   UNL     1       1.710   5.842   0.138  1.00  0.00     0.042 C 
ENDROOT
BRANCH   1   2
ATOM      2  C   UNL     1       2.170   5.252  -1.178  1.00  0.00     0.117 C 
BRANCH   2   3
ATOM      3  N   UNL     1       3.545   5.586  -1.490  1.00  0.00    -0.353 N 
ATOM      4  C   UNL     1       4.520   4.756  -1.948  1.00  0.00     0.257 C 
ATOM      5  O   UNL     1       5.620   5.253  -2.211  1.00  0.00    -0.272 OA
ATOM      6  H   UNL     1       3.804   6.526  -1.353  1.00  0.00     0.163 HD
BRANCH   4   7
ATOM      7  C   UNL     1       4.249   3.275  -2.188  1.00  0.00     0.286 C 
ATOM      8  F   UNL     1       3.839   2.632  -1.050  1.00  0.00    -0.234 F 
BRANCH   7   9
ATOM      9  C   UNL     1       3.279   2.937  -3.366  1.00  0.00     0.105 C 
ATOM     10  C   UNL     1       4.763   2.837  -5.995  1.00  0.00    -0.011 C 
ATOM     11  C   UNL     1       4.952   1.766  -4.911  1.00  0.00     0.006 C 
ATOM     12  C   UNL     1       4.380   4.173  -5.336  1.00  0.00     0.006 C 
ATOM     13  C   UNL     1       3.721   1.608  -4.019  1.00  0.00     0.039 C 
ATOM     14  C   UNL     1       3.152   4.036  -4.441  1.00  0.00     0.039 C 
BRANCH  10  15
ATOM     15  C   UNL     1       3.744   2.475  -7.099  1.00  0.00    -0.000 C 
ATOM     16  C   UNL     1       3.827   1.044  -7.603  1.00  0.00     0.004 C 
ENDBRANCH  10  15
BRANCH   9  17
ATOM     17  O   UNL     1       1.949   2.713  -2.854  1.00  0.00    -0.386 OA
ATOM     18  H   UNL     1       1.352   2.503  -3.589  1.00  0.00     0.211 HD
ENDBRANCH   9  17
ENDBRANCH   7   9
ENDBRANCH   4   7
ENDBRANCH   2   3
ENDBRANCH   1   2
BRANCH   1  19
ATOM     19  C   UNL     1       1.826   7.353   0.219  1.00  0.00     0.118 C 
BRANCH  19  20
ATOM     20  N   UNL     1       0.993   8.053  -0.749  1.00  0.00    -0.352 N 
ATOM     21  C   UNL     1       0.009   8.989  -0.530  1.00  0.00     0.251 C 
ATOM     22  H   UNL     1       1.156   7.824  -1.692  1.00  0.00     0.163 HD
ATOM     23  O   UNL     1      -0.694   9.372  -1.462  1.00  0.00    -0.269 OA
BRANCH  21  24
ATOM     24  C   UNL     1      -0.216   9.501   0.838  1.00  0.00     0.039 A 
ATOM     25  C   UNL     1      -1.522   9.595   1.324  1.00  0.00     0.014 A 
ATOM     26  C   UNL     1       0.864   9.839   1.657  1.00  0.00     0.014 A 
ATOM     27  C   UNL     1      -1.735   9.954   2.656  1.00  0.00     0.010 A 
ATOM     28  C   UNL     1       0.656  10.081   3.008  1.00  0.00     0.010 A 
ATOM     29  C   UNL     1      -0.646  10.157   3.522  1.00  0.00    -0.014 A 
BRANCH  29  30
ATOM     30  C   UNL     1      -0.847  10.471   4.959  1.00  0.00     0.031 A 
ATOM     31  C   UNL     1      -0.324  11.765   5.525  1.00  0.00     0.074 A 
ATOM     32  C   UNL     1      -1.438   9.567   5.766  1.00  0.00     0.049 A 
ATOM     33  N   UNL     1      -0.350  12.198   6.759  1.00  0.00    -0.248 NA
ATOM     34  C   UNL     1       0.352  12.678   4.587  1.00  0.00     0.031 C 
ATOM     35  C   UNL     1      -1.919   8.246   5.353  1.00  0.00     0.029 A 
ATOM     36  N   UNL     1      -1.730   9.618   7.106  1.00  0.00    -0.354 N 
ATOM     37  C   UNL     1       0.320  13.417   6.747  1.00  0.00     0.074 A 
ATOM     38  C   UNL     1       0.799  13.624   5.399  1.00  0.00     0.031 C 
ATOM     39  C   UNL     1      -2.477   7.629   6.407  1.00  0.00     0.029 A 
ATOM     40  C   UNL     1      -2.363   8.492   7.578  1.00  0.00     0.049 A 
ATOM     41  H   UNL     1      -1.508  10.390   7.676  1.00  0.00     0.167 HD
ATOM     42  C   UNL     1       0.493  14.300   7.759  1.00  0.00     0.037 A 
ATOM     43  C   UNL     1      -2.805   8.192   8.815  1.00  0.00     0.037 A 
ATOM     44  C   UNL     1      -0.023  14.106   9.088  1.00  0.00     0.049 A 
ATOM     45  C   UNL     1      -2.638   9.207   9.914  1.00  0.00     0.074 A 
ATOM     46  C   UNL     1       0.035  14.967  10.168  1.00  0.00     0.029 A 
ATOM     47  N   UNL     1      -0.699  12.972   9.515  1.00  0.00    -0.354 N 
ATOM     48  N   UNL     1      -2.065  10.386   9.867  1.00  0.00    -0.248 NA
ATOM     49  C   UNL     1      -3.190   8.857  11.229  1.00  0.00     0.031 C 
ATOM     50  C   UNL     1      -0.573  14.339  11.261  1.00  0.00     0.029 A 
ATOM     51  C   UNL     1      -1.052  13.106  10.848  1.00  0.00     0.049 A 
ATOM     52  H   UNL     1      -0.898  12.188   8.954  1.00  0.00     0.167 HD
ATOM     53  C   UNL     1      -2.212  10.931  11.138  1.00  0.00     0.074 A 
ATOM     54  C   UNL     1      -2.941   9.957  11.925  1.00  0.00     0.031 C 
ATOM     55  C   UNL     1      -1.784  12.127  11.612  1.00  0.00     0.037 A 
BRANCH  42  56
ATOM     56  C   UNL     1       1.258  15.560   7.459  1.00  0.00     0.058 A 
ATOM     57  C   UNL     1       0.731  16.563   6.629  1.00  0.00     0.135 A 
ATOM     58  C   UNL     1       2.523  15.780   8.027  1.00  0.00     0.135 A 
ATOM     59  F   UNL     1      -0.466  16.398   6.044  1.00  0.00    -0.206 F 
ATOM     60  C   UNL     1       1.444  17.723   6.346  1.00  0.00     0.059 A 
ATOM     61  C   UNL     1       3.241  16.948   7.782  1.00  0.00     0.059 A 
ATOM     62  F   UNL     1       3.077  14.855   8.826  1.00  0.00    -0.206 F 
ATOM     63  C   UNL     1       2.699  17.907   6.927  1.00  0.00     0.060 A 
BRANCH  63  64
ATOM     64  S   UNL     1       3.608  19.422   6.556  1.00  0.00     0.124 S 
ATOM     65  O   UNL     1       4.040  19.172   5.184  1.00  0.00    -0.237 OA
ATOM     66  O   UNL     1       2.583  20.448   6.720  1.00  0.00    -0.237 OA
ATOM     67  O   UNL     1       4.670  19.435   7.556  1.00  0.00    -0.744 OA
ENDBRANCH  63  64
ENDBRANCH  42  56
BRANCH  43  68
ATOM     68  C   UNL     1      -3.483   6.893   9.069  1.00  0.00     0.058 A 
ATOM     69  C   UNL     1      -4.863   6.836   9.318  1.00  0.00     0.135 A 
ATOM     70  C   UNL     1      -2.773   5.683   9.054  1.00  0.00     0.135 A 
ATOM     71  F   UNL     1      -5.586   7.967   9.346  1.00  0.00    -0.206 F 
ATOM     72  C   UNL     1      -5.511   5.631   9.565  1.00  0.00     0.059 A 
ATOM     73  C   UNL     1      -3.403   4.462   9.273  1.00  0.00     0.059 A 
ATOM     74  F   UNL     1      -1.455   5.680   8.801  1.00  0.00    -0.206 F 
ATOM     75  C   UNL     1      -4.772   4.447   9.539  1.00  0.00     0.060 A 
BRANCH  75  76
ATOM     76  S   UNL     1      -5.632   2.883   9.814  1.00  0.00     0.124 S 
ATOM     77  O   UNL     1      -5.879   2.933  11.251  1.00  0.00    -0.237 OA
ATOM     78  O   UNL     1      -6.806   3.022   8.959  1.00  0.00    -0.237 OA
ATOM     79  O   UNL     1      -4.661   1.885   9.374  1.00  0.00    -0.744 OA
ENDBRANCH  75  76
ENDBRANCH  43  68
BRANCH  55  80
ATOM     80  C   UNL     1      -2.129  12.465  13.036  1.00  0.00     0.058 A 
ATOM     81  C   UNL     1      -1.503  11.829  14.119  1.00  0.00     0.135 A 
ATOM     82  C   UNL     1      -3.077  13.462  13.317  1.00  0.00     0.135 A 
ATOM     83  F   UNL     1      -0.592  10.868  13.903  1.00  0.00    -0.206 F 
ATOM     84  C   UNL     1      -1.833  12.143  15.433  1.00  0.00     0.059 A 
ATOM     85  C   UNL     1      -3.401  13.812  14.623  1.00  0.00     0.059 A 
ATOM     86  F   UNL     1      -3.694  14.111  12.317  1.00  0.00    -0.206 F 
ATOM     87  C   UNL     1      -2.786  13.134  15.675  1.00  0.00     0.060 A 
BRANCH  87  88
ATOM     88  S   UNL     1      -3.201  13.539  17.384  1.00  0.00     0.124 S 
ATOM     89  O   UNL     1      -4.035  12.403  17.760  1.00  0.00    -0.237 OA
ATOM     90  O   UNL     1      -1.889  13.601  18.020  1.00  0.00    -0.237 OA
ATOM     91  O   UNL     1      -3.895  14.819  17.271  1.00  0.00    -0.744 OA
ENDBRANCH  87  88
ENDBRANCH  55  80
ENDBRANCH  29  30
ENDBRANCH  21  24
ENDBRANCH  19  20
ENDBRANCH   1  19
TORSDOF 16
