REMARK SMILES C[C@]([NH2+]Cc1noc(C2CC2)n1)(C(=O)NCCCNC(=O)c1ccc(-c2c3nc(c(-c4c(F)cc(S(=O)(=O)[O-])cc4F)c4ccc([nH]4)c(-c4c(F)cc(S(=O)(=O)[O-])cc4F)c4nc(c(-c5c(F)cc(S(=O)(=O)[O-])cc5F)c5ccc2[nH]5)C=C4)C=C3)cc1)C(F)(F)F
REMARK SMILES IDX 16 1 15 2 13 3 14 4 2 6 1 7 88 8 89 9 90 10 91 11 3 12 4 15
REMARK SMILES IDX 5 16 6 17 12 18 7 19 8 20 9 21 10 22 11 23 17 24 18 25 19 26
REMARK SMILES IDX 20 27 21 29 22 30 23 31 87 32 24 33 86 34 25 35 26 36 27 37
REMARK SMILES IDX 80 38 28 39 85 40 79 41 81 42 29 43 84 44 78 45 77 46 30 48
REMARK SMILES IDX 64 49 43 50 63 51 44 52 47 53 62 54 82 55 45 56 46 57 61 59
REMARK SMILES IDX 83 60 48 61 31 62 32 63 41 64 33 65 34 66 40 67 42 68 35 69
REMARK SMILES IDX 36 70 37 71 38 72 39 73 65 74 66 75 75 76 67 77 68 78 74 79
REMARK SMILES IDX 76 80 69 81 70 82 71 83 72 84 73 85 49 86 50 87 59 88 51 89
REMARK SMILES IDX 52 90 58 91 60 92 53 93 54 94 55 95 56 96 57 97
REMARK H PARENT 15 5 3 13 3 14 19 28 81 47 47 58
REMARK Flexibility Score: inf
ROOT
ATOM      1  C   UNL     1      -1.329   0.882  -2.173  1.00  0.00     0.118 C 
ENDROOT
BRANCH   1   2
ATOM      2  N   UNL     1      -1.569   1.018  -0.744  1.00  0.00    -0.350 N 
ATOM      3  C   UNL     1      -0.793   1.165   0.363  1.00  0.00     0.290 C 
ATOM      4  O   UNL     1      -1.429   1.046   1.418  1.00  0.00    -0.267 OA
ATOM      5  H   UNL     1      -2.529   0.999  -0.526  1.00  0.00     0.163 HD
BRANCH   3   6
ATOM      6  C   UNL     1       0.739   1.410   0.369  1.00  0.00     0.268 C 
ATOM      7  C   UNL     1       1.221   2.420  -0.683  1.00  0.00     0.101 C 
BRANCH   6   8
ATOM      8  C   UNL     1       0.993   2.105   1.756  1.00  0.00     0.453 C 
ATOM      9  F   UNL     1       0.730   1.294   2.807  1.00  0.00    -0.164 F 
ATOM     10  F   UNL     1       2.299   2.467   1.885  1.00  0.00    -0.164 F 
ATOM     11  F   UNL     1       0.272   3.242   1.901  1.00  0.00    -0.164 F 
ENDBRANCH   6   8
BRANCH   6  12
ATOM     12  N   UNL     1       1.535   0.139   0.302  1.00  0.00    -0.320 N 
ATOM     13  H   UNL     1       1.342  -0.386   1.155  1.00  0.00     0.347 HD
ATOM     14  H   UNL     1       2.500   0.447   0.183  1.00  0.00     0.347 HD
BRANCH  12  15
ATOM     15  C   UNL     1       1.294  -0.756  -0.823  1.00  0.00     0.344 C 
BRANCH  15  16
ATOM     16  C   UNL     1       2.377  -1.777  -1.014  1.00  0.00     0.226 A 
ATOM     17  N   UNL     1       3.422  -1.948  -0.194  1.00  0.00    -0.056 NA
ATOM     18  N   UNL     1       2.349  -2.626  -2.095  1.00  0.00    -0.190 NA
ATOM     19  O   UNL     1       4.126  -2.997  -0.791  1.00  0.00    -0.339 OA
ATOM     20  C   UNL     1       3.427  -3.359  -1.911  1.00  0.00     0.229 A 
BRANCH  20  21
ATOM     21  C   UNL     1       3.859  -4.498  -2.822  1.00  0.00     0.079 C 
ATOM     22  C   UNL     1       2.783  -5.327  -3.497  1.00  0.00     0.014 C 
ATOM     23  C   UNL     1       3.607  -4.390  -4.313  1.00  0.00     0.014 C 
ENDBRANCH  20  21
ENDBRANCH  15  16
ENDBRANCH  12  15
ENDBRANCH   6  12
ENDBRANCH   3   6
ENDBRANCH   1   2
BRANCH   1  24
ATOM     24  C   UNL     1      -1.668  -0.525  -2.662  1.00  0.00     0.042 C 
BRANCH  24  25
ATOM     25  C   UNL     1      -3.164  -0.801  -2.752  1.00  0.00     0.118 C 
BRANCH  25  26
ATOM     26  N   UNL     1      -3.767  -0.157  -3.907  1.00  0.00    -0.352 N 
ATOM     27  C   UNL     1      -4.271  -0.710  -5.059  1.00  0.00     0.251 C 
ATOM     28  H   UNL     1      -3.822   0.824  -3.857  1.00  0.00     0.163 HD
ATOM     29  O   UNL     1      -4.510   0.027  -6.018  1.00  0.00    -0.269 OA
BRANCH  27  30
ATOM     30  C   UNL     1      -4.515  -2.167  -5.167  1.00  0.00     0.039 A 
ATOM     31  C   UNL     1      -4.241  -2.810  -6.378  1.00  0.00     0.014 A 
ATOM     32  C   UNL     1      -5.054  -2.897  -4.105  1.00  0.00     0.014 A 
ATOM     33  C   UNL     1      -4.456  -4.186  -6.503  1.00  0.00     0.010 A 
ATOM     34  C   UNL     1      -5.184  -4.281  -4.201  1.00  0.00     0.010 A 
ATOM     35  C   UNL     1      -4.900  -4.941  -5.405  1.00  0.00    -0.014 A 
BRANCH  35  36
ATOM     36  C   UNL     1      -5.097  -6.412  -5.504  1.00  0.00     0.031 A 
ATOM     37  C   UNL     1      -6.467  -7.007  -5.305  1.00  0.00     0.074 A 
ATOM     38  C   UNL     1      -4.036  -7.217  -5.714  1.00  0.00     0.049 A 
ATOM     39  N   UNL     1      -6.826  -8.265  -5.280  1.00  0.00    -0.248 NA
ATOM     40  C   UNL     1      -7.574  -6.065  -5.076  1.00  0.00     0.031 C 
ATOM     41  C   UNL     1      -2.651  -6.768  -5.874  1.00  0.00     0.029 A 
ATOM     42  N   UNL     1      -3.954  -8.583  -5.819  1.00  0.00    -0.354 N 
ATOM     43  C   UNL     1      -8.191  -8.265  -5.014  1.00  0.00     0.074 A 
ATOM     44  C   UNL     1      -8.585  -6.886  -4.833  1.00  0.00     0.031 C 
ATOM     45  C   UNL     1      -1.863  -7.835  -6.079  1.00  0.00     0.029 A 
ATOM     46  C   UNL     1      -2.675  -9.046  -6.027  1.00  0.00     0.049 A 
ATOM     47  H   UNL     1      -4.737  -9.176  -5.752  1.00  0.00     0.167 HD
ATOM     48  C   UNL     1      -9.044  -9.316  -4.953  1.00  0.00     0.037 A 
ATOM     49  C   UNL     1      -2.209 -10.304  -6.153  1.00  0.00     0.037 A 
ATOM     50  C   UNL     1      -8.653 -10.685  -5.168  1.00  0.00     0.049 A 
ATOM     51  C   UNL     1      -3.175 -11.455  -6.087  1.00  0.00     0.074 A 
ATOM     52  C   UNL     1      -9.451 -11.815  -5.191  1.00  0.00     0.029 A 
ATOM     53  N   UNL     1      -7.352 -11.110  -5.398  1.00  0.00    -0.354 N 
ATOM     54  N   UNL     1      -4.473 -11.431  -5.897  1.00  0.00    -0.248 NA
ATOM     55  C   UNL     1      -2.617 -12.803  -6.256  1.00  0.00     0.031 C 
ATOM     56  C   UNL     1      -8.628 -12.928  -5.392  1.00  0.00     0.029 A 
ATOM     57  C   UNL     1      -7.323 -12.487  -5.543  1.00  0.00     0.049 A 
ATOM     58  H   UNL     1      -6.566 -10.520  -5.450  1.00  0.00     0.167 HD
ATOM     59  C   UNL     1      -4.890 -12.757  -5.948  1.00  0.00     0.074 A 
ATOM     60  C   UNL     1      -3.708 -13.556  -6.201  1.00  0.00     0.031 C 
ATOM     61  C   UNL     1      -6.137 -13.267  -5.798  1.00  0.00     0.037 A 
BRANCH  48  62
ATOM     62  C   UNL     1     -10.489  -9.026  -4.647  1.00  0.00     0.058 A 
ATOM     63  C   UNL     1     -11.323  -8.378  -5.574  1.00  0.00     0.135 A 
ATOM     64  C   UNL     1     -11.057  -9.427  -3.427  1.00  0.00     0.135 A 
ATOM     65  F   UNL     1     -10.829  -7.958  -6.750  1.00  0.00    -0.206 F 
ATOM     66  C   UNL     1     -12.658  -8.109  -5.289  1.00  0.00     0.059 A 
ATOM     67  C   UNL     1     -12.398  -9.195  -3.133  1.00  0.00     0.059 A 
ATOM     68  F   UNL     1     -10.308 -10.051  -2.505  1.00  0.00    -0.206 F 
ATOM     69  C   UNL     1     -13.186  -8.520  -4.065  1.00  0.00     0.060 A 
BRANCH  69  70
ATOM     70  S   UNL     1     -14.920  -8.164  -3.712  1.00  0.00     0.124 S 
ATOM     71  O   UNL     1     -14.877  -6.726  -3.466  1.00  0.00    -0.237 OA
ATOM     72  O   UNL     1     -15.581  -8.575  -4.946  1.00  0.00    -0.237 OA
ATOM     73  O   UNL     1     -15.207  -8.992  -2.545  1.00  0.00    -0.744 OA
ENDBRANCH  69  70
ENDBRANCH  48  62
BRANCH  49  74
ATOM     74  C   UNL     1      -0.756 -10.538  -6.374  1.00  0.00     0.058 A 
ATOM     75  C   UNL     1      -0.278 -10.990  -7.613  1.00  0.00     0.135 A 
ATOM     76  C   UNL     1       0.183 -10.298  -5.359  1.00  0.00     0.135 A 
ATOM     77  F   UNL     1      -1.138 -11.239  -8.612  1.00  0.00    -0.206 F 
ATOM     78  C   UNL     1       1.077 -11.209  -7.835  1.00  0.00     0.059 A 
ATOM     79  C   UNL     1       1.546 -10.486  -5.565  1.00  0.00     0.059 A 
ATOM     80  F   UNL     1      -0.220  -9.848  -4.161  1.00  0.00    -0.206 F 
ATOM     81  C   UNL     1       1.983 -10.951  -6.805  1.00  0.00     0.060 A 
BRANCH  81  82
ATOM     82  S   UNL     1       3.746 -11.181  -7.120  1.00  0.00     0.124 S 
ATOM     83  O   UNL     1       3.859 -12.634  -7.114  1.00  0.00    -0.237 OA
ATOM     84  O   UNL     1       3.914 -10.532  -8.417  1.00  0.00    -0.237 OA
ATOM     85  O   UNL     1       4.378 -10.492  -5.998  1.00  0.00    -0.744 OA
ENDBRANCH  81  82
ENDBRANCH  49  74
BRANCH  61  86
ATOM     86  C   UNL     1      -6.296 -14.757  -5.929  1.00  0.00     0.058 A 
ATOM     87  C   UNL     1      -5.851 -15.636  -4.930  1.00  0.00     0.135 A 
ATOM     88  C   UNL     1      -6.948 -15.306  -7.045  1.00  0.00     0.135 A 
ATOM     89  F   UNL     1      -5.215 -15.162  -3.847  1.00  0.00    -0.206 F 
ATOM     90  C   UNL     1      -6.026 -17.011  -5.043  1.00  0.00     0.059 A 
ATOM     91  C   UNL     1      -7.159 -16.676  -7.166  1.00  0.00     0.059 A 
ATOM     92  F   UNL     1      -7.402 -14.508  -8.024  1.00  0.00    -0.206 F 
ATOM     93  C   UNL     1      -6.683 -17.522  -6.164  1.00  0.00     0.060 A 
BRANCH  93  94
ATOM     94  S   UNL     1      -6.934 -19.305  -6.282  1.00  0.00     0.124 S 
ATOM     95  O   UNL     1      -5.591 -19.770  -6.614  1.00  0.00    -0.237 OA
ATOM     96  O   UNL     1      -7.410 -19.644  -4.945  1.00  0.00    -0.237 OA
ATOM     97  O   UNL     1      -7.925 -19.439  -7.346  1.00  0.00    -0.744 OA
ENDBRANCH  93  94
ENDBRANCH  61  86
ENDBRANCH  35  36
ENDBRANCH  27  30
ENDBRANCH  25  26
ENDBRANCH  24  25
ENDBRANCH   1  24
TORSDOF 18
