REMARK SMILES COC(=O)C[C@H](NC(=O)N[C@H]1CCCC1(C)C)C(=O)NCCCNC(=O)c1ccc(-c2c3nc(c(-c4c(F)cc(S(=O)(=O)[O-])cc4F)c4ccc([nH]4)c(-c4c(F)cc(S(=O)(=O)[O-])cc4F)c4nc(c(-c5c(F)cc(S(=O)(=O)[O-])cc5F)c5ccc2[nH]5)C=C4)C=C3)cc1
REMARK SMILES IDX 22 1 21 2 20 3 18 4 19 5 6 7 5 8 3 9 4 10 2 11 1 12 7 13
REMARK SMILES IDX 8 14 9 16 10 17 11 19 12 20 15 21 13 22 14 23 16 24 17 25
REMARK SMILES IDX 23 26 24 27 25 28 26 30 27 31 28 32 92 33 29 34 91 35 30 36
REMARK SMILES IDX 31 37 32 38 85 39 33 40 90 41 84 42 86 43 34 44 89 45 83 46
REMARK SMILES IDX 82 47 35 49 69 50 48 51 68 52 49 53 52 54 67 55 87 56 50 57
REMARK SMILES IDX 51 58 66 60 88 61 53 62 36 63 37 64 46 65 38 66 39 67 45 68
REMARK SMILES IDX 47 69 40 70 41 71 42 72 43 73 44 74 70 75 71 76 80 77 72 78
REMARK SMILES IDX 73 79 79 80 81 81 74 82 75 83 76 84 77 85 78 86 54 87 55 88
REMARK SMILES IDX 64 89 56 90 57 91 63 92 65 93 58 94 59 95 60 96 61 97 62 98
REMARK H PARENT 20 6 7 15 10 18 24 29 86 48 52 59
REMARK Flexibility Score: inf
ROOT
ATOM      1  C   UNL     1      -3.410  -4.316   0.181  1.00  0.00     0.042 C 
ENDROOT
BRANCH   1   2
ATOM      2  C   UNL     1      -2.808  -3.296   1.133  1.00  0.00     0.117 C 
BRANCH   2   3
ATOM      3  N   UNL     1      -2.060  -3.730   2.291  1.00  0.00    -0.354 N 
ATOM      4  C   UNL     1      -0.766  -3.403   2.596  1.00  0.00     0.243 C 
ATOM      5  O   UNL     1      -0.506  -3.036   3.747  1.00  0.00    -0.273 OA
ATOM      6  H   UNL     1      -2.529  -4.320   2.925  1.00  0.00     0.163 HD
BRANCH   4   7
ATOM      7  C   UNL     1       0.358  -3.477   1.557  1.00  0.00     0.184 C 
BRANCH   7   8
ATOM      8  C   UNL     1       0.788  -2.054   1.133  1.00  0.00     0.157 C 
BRANCH   8   9
ATOM      9  C   UNL     1      -0.356  -1.067   0.993  1.00  0.00     0.308 C 
ATOM     10  O   UNL     1      -0.901  -0.519   1.930  1.00  0.00    -0.252 OA
BRANCH   9  11
ATOM     11  O   UNL     1      -0.727  -0.937  -0.315  1.00  0.00    -0.469 OA
ATOM     12  C   UNL     1      -1.928  -0.184  -0.557  1.00  0.00     0.282 C 
ENDBRANCH   9  11
ENDBRANCH   8   9
ENDBRANCH   7   8
BRANCH   7  13
ATOM     13  N   UNL     1       0.087  -4.338   0.414  1.00  0.00    -0.326 N 
ATOM     14  C   UNL     1      -0.242  -5.614   0.244  1.00  0.00     0.315 C 
ATOM     15  H   UNL     1       0.168  -3.857  -0.441  1.00  0.00     0.166 HD
ATOM     16  O   UNL     1      -0.339  -5.987  -0.931  1.00  0.00    -0.249 OA
ATOM     17  N   UNL     1      -0.669  -6.481   1.161  1.00  0.00    -0.335 N 
ATOM     18  H   UNL     1      -1.558  -6.824   0.914  1.00  0.00     0.165 HD
BRANCH  17  19
ATOM     19  C   UNL     1      -0.224  -7.092   2.438  1.00  0.00     0.089 C 
ATOM     20  C   UNL     1      -0.674  -6.408   3.732  1.00  0.00     0.025 C 
ATOM     21  C   UNL     1      -0.904  -8.508   2.657  1.00  0.00    -0.015 C 
ATOM     22  C   UNL     1      -2.110  -6.850   3.998  1.00  0.00     0.003 C 
ATOM     23  C   UNL     1      -2.294  -8.158   3.237  1.00  0.00     0.008 C 
ATOM     24  C   UNL     1      -1.061  -9.382   1.403  1.00  0.00     0.013 C 
ATOM     25  C   UNL     1      -0.122  -9.342   3.698  1.00  0.00     0.013 C 
ENDBRANCH  17  19
ENDBRANCH   7  13
ENDBRANCH   4   7
ENDBRANCH   2   3
ENDBRANCH   1   2
BRANCH   1  26
ATOM     26  C   UNL     1      -3.960  -5.608   0.743  1.00  0.00     0.118 C 
BRANCH  26  27
ATOM     27  N   UNL     1      -4.903  -5.453   1.833  1.00  0.00    -0.352 N 
ATOM     28  C   UNL     1      -6.170  -5.961   1.979  1.00  0.00     0.251 C 
ATOM     29  H   UNL     1      -4.587  -4.900   2.584  1.00  0.00     0.163 HD
ATOM     30  O   UNL     1      -6.800  -5.751   3.011  1.00  0.00    -0.269 OA
BRANCH  28  31
ATOM     31  C   UNL     1      -6.801  -6.689   0.860  1.00  0.00     0.039 A 
ATOM     32  C   UNL     1      -8.024  -6.213   0.381  1.00  0.00     0.014 A 
ATOM     33  C   UNL     1      -6.177  -7.779   0.248  1.00  0.00     0.014 A 
ATOM     34  C   UNL     1      -8.573  -6.762  -0.777  1.00  0.00     0.010 A 
ATOM     35  C   UNL     1      -6.694  -8.284  -0.944  1.00  0.00     0.010 A 
ATOM     36  C   UNL     1      -7.885  -7.764  -1.479  1.00  0.00    -0.014 A 
BRANCH  36  37
ATOM     37  C   UNL     1      -8.369  -8.241  -2.799  1.00  0.00     0.031 A 
ATOM     38  C   UNL     1      -8.820  -9.662  -2.972  1.00  0.00     0.074 A 
ATOM     39  C   UNL     1      -8.321  -7.411  -3.861  1.00  0.00     0.049 A 
ATOM     40  N   UNL     1      -9.184 -10.285  -4.063  1.00  0.00    -0.248 NA
ATOM     41  C   UNL     1      -8.840 -10.498  -1.763  1.00  0.00     0.031 C 
ATOM     42  C   UNL     1      -7.855  -6.023  -3.826  1.00  0.00     0.029 A 
ATOM     43  N   UNL     1      -8.644  -7.618  -5.179  1.00  0.00    -0.354 N 
ATOM     44  C   UNL     1      -9.460 -11.591  -3.677  1.00  0.00     0.074 A 
ATOM     45  C   UNL     1      -9.180 -11.679  -2.259  1.00  0.00     0.031 C 
ATOM     46  C   UNL     1      -7.920  -5.505  -5.063  1.00  0.00     0.029 A 
ATOM     47  C   UNL     1      -8.396  -6.532  -5.985  1.00  0.00     0.049 A 
ATOM     48  H   UNL     1      -9.018  -8.464  -5.516  1.00  0.00     0.167 HD
ATOM     49  C   UNL     1      -9.919 -12.617  -4.433  1.00  0.00     0.037 A 
ATOM     50  C   UNL     1      -8.515  -6.383  -7.319  1.00  0.00     0.037 A 
ATOM     51  C   UNL     1     -10.204 -12.515  -5.841  1.00  0.00     0.049 A 
ATOM     52  C   UNL     1      -9.029  -7.532  -8.142  1.00  0.00     0.074 A 
ATOM     53  C   UNL     1     -10.726 -13.479  -6.686  1.00  0.00     0.029 A 
ATOM     54  N   UNL     1      -9.980 -11.384  -6.615  1.00  0.00    -0.354 N 
ATOM     55  N   UNL     1      -9.357  -8.740  -7.750  1.00  0.00    -0.248 NA
ATOM     56  C   UNL     1      -9.199  -7.301  -9.583  1.00  0.00     0.031 C 
ATOM     57  C   UNL     1     -10.777 -12.945  -7.978  1.00  0.00     0.029 A 
ATOM     58  C   UNL     1     -10.333 -11.633  -7.931  1.00  0.00     0.049 A 
ATOM     59  H   UNL     1      -9.623 -10.531  -6.277  1.00  0.00     0.167 HD
ATOM     60  C   UNL     1      -9.792  -9.406  -8.889  1.00  0.00     0.074 A 
ATOM     61  C   UNL     1      -9.691  -8.465  -9.986  1.00  0.00     0.031 C 
ATOM     62  C   UNL     1     -10.236 -10.681  -9.012  1.00  0.00     0.037 A 
BRANCH  49  63
ATOM     63  C   UNL     1     -10.125 -13.940  -3.747  1.00  0.00     0.058 A 
ATOM     64  C   UNL     1     -11.146 -14.130  -2.802  1.00  0.00     0.135 A 
ATOM     65  C   UNL     1      -9.287 -15.030  -4.032  1.00  0.00     0.135 A 
ATOM     66  F   UNL     1     -11.970 -13.119  -2.483  1.00  0.00    -0.206 F 
ATOM     67  C   UNL     1     -11.295 -15.336  -2.124  1.00  0.00     0.059 A 
ATOM     68  C   UNL     1      -9.437 -16.255  -3.389  1.00  0.00     0.059 A 
ATOM     69  F   UNL     1      -8.298 -14.907  -4.932  1.00  0.00    -0.206 F 
ATOM     70  C   UNL     1     -10.428 -16.390  -2.418  1.00  0.00     0.060 A 
BRANCH  70  71
ATOM     71  S   UNL     1     -10.605 -17.934  -1.500  1.00  0.00     0.124 S 
ATOM     72  O   UNL     1     -10.033 -17.570  -0.208  1.00  0.00    -0.237 OA
ATOM     73  O   UNL     1     -12.049 -18.146  -1.516  1.00  0.00    -0.237 OA
ATOM     74  O   UNL     1      -9.826 -18.887  -2.285  1.00  0.00    -0.744 OA
ENDBRANCH  70  71
ENDBRANCH  49  63
BRANCH  50  75
ATOM     75  C   UNL     1      -8.141  -5.087  -7.946  1.00  0.00     0.058 A 
ATOM     76  C   UNL     1      -9.119  -4.204  -8.425  1.00  0.00     0.135 A 
ATOM     77  C   UNL     1      -6.799  -4.681  -8.024  1.00  0.00     0.135 A 
ATOM     78  F   UNL     1     -10.415  -4.550  -8.380  1.00  0.00    -0.206 F 
ATOM     79  C   UNL     1      -8.783  -2.963  -8.957  1.00  0.00     0.059 A 
ATOM     80  C   UNL     1      -6.440  -3.436  -8.531  1.00  0.00     0.059 A 
ATOM     81  F   UNL     1      -5.827  -5.483  -7.564  1.00  0.00    -0.206 F 
ATOM     82  C   UNL     1      -7.440  -2.584  -8.997  1.00  0.00     0.060 A 
BRANCH  82  83
ATOM     83  S   UNL     1      -7.021  -0.935  -9.604  1.00  0.00     0.124 S 
ATOM     84  O   UNL     1      -7.229  -1.088 -11.040  1.00  0.00    -0.237 OA
ATOM     85  O   UNL     1      -7.989  -0.095  -8.905  1.00  0.00    -0.237 OA
ATOM     86  O   UNL     1      -5.635  -0.763  -9.180  1.00  0.00    -0.744 OA
ENDBRANCH  82  83
ENDBRANCH  50  75
BRANCH  62  87
ATOM     87  C   UNL     1     -10.682 -11.139 -10.373  1.00  0.00     0.058 A 
ATOM     88  C   UNL     1      -9.760 -11.455 -11.382  1.00  0.00     0.135 A 
ATOM     89  C   UNL     1     -12.044 -11.358 -10.634  1.00  0.00     0.135 A 
ATOM     90  F   UNL     1      -8.448 -11.254 -11.186  1.00  0.00    -0.206 F 
ATOM     91  C   UNL     1     -10.174 -11.975 -12.605  1.00  0.00     0.059 A 
ATOM     92  C   UNL     1     -12.478 -11.899 -11.840  1.00  0.00     0.059 A 
ATOM     93  F   UNL     1     -12.966 -11.077  -9.699  1.00  0.00    -0.206 F 
ATOM     94  C   UNL     1     -11.535 -12.203 -12.820  1.00  0.00     0.060 A 
BRANCH  94  95
ATOM     95  S   UNL     1     -12.051 -12.952 -14.380  1.00  0.00     0.124 S 
ATOM     96  O   UNL     1     -11.886 -11.840 -15.310  1.00  0.00    -0.237 OA
ATOM     97  O   UNL     1     -11.101 -14.050 -14.530  1.00  0.00    -0.237 OA
ATOM     98  O   UNL     1     -13.430 -13.356 -14.124  1.00  0.00    -0.744 OA
ENDBRANCH  94  95
ENDBRANCH  62  87
ENDBRANCH  36  37
ENDBRANCH  28  31
ENDBRANCH  26  27
ENDBRANCH   1  26
TORSDOF 18
