REMARK SMILES CC1=C(C)C(=O)N(C[C@H](CC(C)C)C(=O)NCCCNC(=O)c2ccc(-c3c4nc(c(-c5c(F)cc(S(=O)(=O)[O-])cc5F)c5ccc([nH]5)c(-c5c(F)cc(S(=O)(=O)[O-])cc5F)c5nc(c(-c6c(F)cc(S(=O)(=O)[O-])cc6F)c6ccc3[nH]6)C=C5)C=C4)cc2)C1=O
REMARK SMILES IDX 18 1 17 2 16 3 14 4 15 5 9 7 8 8 7 9 1 10 2 11 3 12 89 13
REMARK SMILES IDX 4 14 5 15 90 16 6 17 10 18 11 19 12 20 13 21 19 22 20 23
REMARK SMILES IDX 21 24 22 26 23 27 24 28 88 29 25 30 87 31 26 32 27 33 28 34
REMARK SMILES IDX 81 35 29 36 86 37 80 38 82 39 30 40 85 41 79 42 78 43 31 45
REMARK SMILES IDX 65 46 44 47 64 48 45 49 48 50 63 51 83 52 46 53 47 54 62 56
REMARK SMILES IDX 84 57 49 58 32 59 33 60 42 61 34 62 35 63 41 64 43 65 36 66
REMARK SMILES IDX 37 67 38 68 39 69 40 70 66 71 67 72 76 73 68 74 69 75 75 76
REMARK SMILES IDX 77 77 70 78 71 79 72 80 73 81 74 82 50 83 51 84 60 85 52 86
REMARK SMILES IDX 53 87 59 88 61 89 54 90 55 91 56 92 57 93 58 94
REMARK H PARENT 16 6 20 25 82 44 48 55
REMARK Flexibility Score: inf
ROOT
ATOM      1  C   UNL     1       1.827  -6.911   3.784  1.00  0.00     0.042 C 
ENDROOT
BRANCH   1   2
ATOM      2  C   UNL     1       1.295  -6.806   2.361  1.00  0.00     0.117 C 
BRANCH   2   3
ATOM      3  N   UNL     1      -0.132  -7.058   2.297  1.00  0.00    -0.356 N 
ATOM      4  C   UNL     1      -1.182  -6.231   2.066  1.00  0.00     0.224 C 
ATOM      5  O   UNL     1      -2.308  -6.733   2.085  1.00  0.00    -0.275 OA
ATOM      6  H   UNL     1      -0.384  -7.998   2.449  1.00  0.00     0.163 HD
BRANCH   4   7
ATOM      7  C   UNL     1      -0.996  -4.750   1.760  1.00  0.00     0.099 C 
BRANCH   7   8
ATOM      8  C   UNL     1      -0.208  -4.626   0.435  1.00  0.00     0.142 C 
BRANCH   8   9
ATOM      9  N   UNL     1      -0.893  -3.772  -0.517  1.00  0.00    -0.274 N 
ATOM     10  C   UNL     1      -3.789  -2.922  -2.598  1.00  0.00     0.051 C 
ATOM     11  C   UNL     1      -2.469  -2.951  -1.931  1.00  0.00     0.023 C 
ATOM     12  C   UNL     1      -1.496  -2.036  -1.854  1.00  0.00     0.023 C 
ATOM     13  C   UNL     1      -2.053  -4.110  -1.131  1.00  0.00     0.256 C 
ATOM     14  C   UNL     1      -1.405  -0.696  -2.474  1.00  0.00     0.051 C 
ATOM     15  C   UNL     1      -0.450  -2.572  -0.963  1.00  0.00     0.256 C 
ATOM     16  O   UNL     1      -2.669  -5.158  -1.068  1.00  0.00    -0.269 OA
ATOM     17  O   UNL     1       0.597  -2.007  -0.706  1.00  0.00    -0.269 OA
ENDBRANCH   8   9
ENDBRANCH   7   8
BRANCH   7  18
ATOM     18  C   UNL     1      -0.374  -3.928   2.905  1.00  0.00     0.018 C 
BRANCH  18  19
ATOM     19  C   UNL     1      -1.320  -3.576   4.078  1.00  0.00    -0.017 C 
ATOM     20  C   UNL     1      -2.026  -4.776   4.707  1.00  0.00     0.007 C 
ATOM     21  C   UNL     1      -0.530  -2.837   5.164  1.00  0.00     0.007 C 
ENDBRANCH  18  19
ENDBRANCH   7  18
ENDBRANCH   4   7
ENDBRANCH   2   3
ENDBRANCH   1   2
BRANCH   1  22
ATOM     22  C   UNL     1       1.666  -8.296   4.397  1.00  0.00     0.118 C 
BRANCH  22  23
ATOM     23  N   UNL     1       2.392  -9.318   3.658  1.00  0.00    -0.352 N 
ATOM     24  C   UNL     1       3.437 -10.117   4.050  1.00  0.00     0.251 C 
ATOM     25  H   UNL     1       2.086  -9.459   2.732  1.00  0.00     0.163 HD
ATOM     26  O   UNL     1       4.054 -10.760   3.205  1.00  0.00    -0.269 OA
BRANCH  24  27
ATOM     27  C   UNL     1       3.828 -10.190   5.474  1.00  0.00     0.039 A 
ATOM     28  C   UNL     1       5.186 -10.218   5.801  1.00  0.00     0.014 A 
ATOM     29  C   UNL     1       2.864 -10.251   6.484  1.00  0.00     0.014 A 
ATOM     30  C   UNL     1       5.574 -10.243   7.142  1.00  0.00     0.010 A 
ATOM     31  C   UNL     1       3.252 -10.185   7.819  1.00  0.00     0.010 A 
ATOM     32  C   UNL     1       4.611 -10.188   8.163  1.00  0.00    -0.014 A 
BRANCH  32  33
ATOM     33  C   UNL     1       5.005 -10.134   9.595  1.00  0.00     0.031 A 
ATOM     34  C   UNL     1       4.599 -11.237  10.535  1.00  0.00     0.074 A 
ATOM     35  C   UNL     1       5.673  -9.059  10.059  1.00  0.00     0.049 A 
ATOM     36  N   UNL     1       4.790 -11.334  11.825  1.00  0.00    -0.248 NA
ATOM     37  C   UNL     1       3.857 -12.368   9.954  1.00  0.00     0.031 C 
ATOM     38  C   UNL     1       6.077  -7.902   9.257  1.00  0.00     0.029 A 
ATOM     39  N   UNL     1       6.119  -8.756  11.322  1.00  0.00    -0.354 N 
ATOM     40  C   UNL     1       4.182 -12.523  12.211  1.00  0.00     0.074 A 
ATOM     41  C   UNL     1       3.568 -13.086  11.029  1.00  0.00     0.031 C 
ATOM     42  C   UNL     1       6.731  -7.029  10.039  1.00  0.00     0.029 A 
ATOM     43  C   UNL     1       6.754  -7.539  11.406  1.00  0.00     0.049 A 
ATOM     44  H   UNL     1       5.996  -9.354  12.094  1.00  0.00     0.167 HD
ATOM     45  C   UNL     1       4.159 -13.104  13.435  1.00  0.00     0.037 A 
ATOM     46  C   UNL     1       7.284  -6.899  12.467  1.00  0.00     0.037 A 
ATOM     47  C   UNL     1       4.792 -12.546  14.602  1.00  0.00     0.049 A 
ATOM     48  C   UNL     1       7.240  -7.562  13.818  1.00  0.00     0.074 A 
ATOM     49  C   UNL     1       4.877 -13.086  15.873  1.00  0.00     0.029 A 
ATOM     50  N   UNL     1       5.441 -11.321  14.644  1.00  0.00    -0.354 N 
ATOM     51  N   UNL     1       6.722  -8.721  14.150  1.00  0.00    -0.248 NA
ATOM     52  C   UNL     1       7.858  -6.836  14.935  1.00  0.00     0.031 C 
ATOM     53  C   UNL     1       5.531 -12.163  16.697  1.00  0.00     0.029 A 
ATOM     54  C   UNL     1       5.907 -11.075  15.925  1.00  0.00     0.049 A 
ATOM     55  H   UNL     1       5.554 -10.715  13.876  1.00  0.00     0.167 HD
ATOM     56  C   UNL     1       6.976  -8.875  15.509  1.00  0.00     0.074 A 
ATOM     57  C   UNL     1       7.706  -7.697  15.932  1.00  0.00     0.031 C 
ATOM     58  C   UNL     1       6.638  -9.899  16.331  1.00  0.00     0.037 A 
BRANCH  45  59
ATOM     59  C   UNL     1       3.425 -14.411  13.575  1.00  0.00     0.058 A 
ATOM     60  C   UNL     1       3.901 -15.594  12.986  1.00  0.00     0.135 A 
ATOM     61  C   UNL     1       2.251 -14.492  14.342  1.00  0.00     0.135 A 
ATOM     62  F   UNL     1       5.010 -15.575  12.230  1.00  0.00    -0.206 F 
ATOM     63  C   UNL     1       3.224 -16.801  13.126  1.00  0.00     0.059 A 
ATOM     64  C   UNL     1       1.574 -15.695  14.522  1.00  0.00     0.059 A 
ATOM     65  F   UNL     1       1.750 -13.393  14.929  1.00  0.00    -0.206 F 
ATOM     66  C   UNL     1       2.061 -16.842  13.897  1.00  0.00     0.060 A 
BRANCH  66  67
ATOM     67  S   UNL     1       1.200 -18.419  14.073  1.00  0.00     0.124 S 
ATOM     68  O   UNL     1       0.633 -18.591  12.739  1.00  0.00    -0.237 OA
ATOM     69  O   UNL     1       2.286 -19.329  14.421  1.00  0.00    -0.237 OA
ATOM     70  O   UNL     1       0.234 -18.163  15.137  1.00  0.00    -0.744 OA
ENDBRANCH  66  67
ENDBRANCH  45  59
BRANCH  46  71
ATOM     71  C   UNL     1       7.916  -5.564  12.289  1.00  0.00     0.058 A 
ATOM     72  C   UNL     1       9.303  -5.397  12.417  1.00  0.00     0.135 A 
ATOM     73  C   UNL     1       7.149  -4.432  11.973  1.00  0.00     0.135 A 
ATOM     74  F   UNL     1      10.079  -6.447  12.724  1.00  0.00    -0.206 F 
ATOM     75  C   UNL     1       9.906  -4.154  12.256  1.00  0.00     0.059 A 
ATOM     76  C   UNL     1       7.732  -3.183  11.778  1.00  0.00     0.059 A 
ATOM     77  F   UNL     1       5.820  -4.540  11.821  1.00  0.00    -0.206 F 
ATOM     78  C   UNL     1       9.111  -3.053  11.932  1.00  0.00     0.060 A 
BRANCH  78  79
ATOM     79  S   UNL     1       9.911  -1.454  11.677  1.00  0.00     0.124 S 
ATOM     80  O   UNL     1      10.285  -1.091  13.040  1.00  0.00    -0.237 OA
ATOM     81  O   UNL     1      11.010  -1.801  10.783  1.00  0.00    -0.237 OA
ATOM     82  O   UNL     1       8.855  -0.643  11.075  1.00  0.00    -0.744 OA
ENDBRANCH  78  79
ENDBRANCH  46  71
BRANCH  58  83
ATOM     83  C   UNL     1       7.085  -9.815  17.765  1.00  0.00     0.058 A 
ATOM     84  C   UNL     1       6.504  -8.913  18.671  1.00  0.00     0.135 A 
ATOM     85  C   UNL     1       8.071 -10.689  18.253  1.00  0.00     0.135 A 
ATOM     86  F   UNL     1       5.562  -8.051  18.256  1.00  0.00    -0.206 F 
ATOM     87  C   UNL     1       6.903  -8.863  20.003  1.00  0.00     0.059 A 
ATOM     88  C   UNL     1       8.463 -10.678  19.588  1.00  0.00     0.059 A 
ATOM     89  F   UNL     1       8.651 -11.579  17.433  1.00  0.00    -0.206 F 
ATOM     90  C   UNL     1       7.881  -9.752  20.453  1.00  0.00     0.060 A 
BRANCH  90  91
ATOM     91  S   UNL     1       8.364  -9.699  22.191  1.00  0.00     0.124 S 
ATOM     92  O   UNL     1       9.134  -8.461  22.245  1.00  0.00    -0.237 OA
ATOM     93  O   UNL     1       7.074  -9.674  22.872  1.00  0.00    -0.237 OA
ATOM     94  O   UNL     1       9.136 -10.926  22.368  1.00  0.00    -0.744 OA
ENDBRANCH  90  91
ENDBRANCH  58  83
ENDBRANCH  32  33
ENDBRANCH  24  27
ENDBRANCH  22  23
ENDBRANCH   1  22
TORSDOF 17
