REMARK SMILES Cc1ccc(C)c(OCc2ccc(C(=O)NCCCNC(=O)c3ccc(-c4c5nc(c(-c6c(F)cc(S(=O)(=O)[O-])cc6F)c6ccc([nH]6)c(-c6c(F)cc(S(=O)(=O)[O-])cc6F)c6nc(c(-c7c(F)cc(S(=O)(=O)[O-])cc7F)c7ccc4[nH]7)C=C6)C=C5)cc3)cc2)c1C
REMARK SMILES IDX 18 1 17 2 16 3 14 4 15 5 13 7 10 8 11 9 90 10 12 11 89 12
REMARK SMILES IDX 9 13 8 14 7 15 1 16 2 17 3 18 91 19 4 20 92 21 5 22 6 23
REMARK SMILES IDX 19 24 20 25 21 26 22 28 23 29 24 30 88 31 25 32 87 33 26 34
REMARK SMILES IDX 27 35 28 36 81 37 29 38 86 39 80 40 82 41 30 42 85 43 79 44
REMARK SMILES IDX 78 45 31 47 65 48 44 49 64 50 45 51 48 52 63 53 83 54 46 55
REMARK SMILES IDX 47 56 62 58 84 59 49 60 32 61 33 62 42 63 34 64 35 65 41 66
REMARK SMILES IDX 43 67 36 68 37 69 38 70 39 71 40 72 66 73 67 74 76 75 68 76
REMARK SMILES IDX 69 77 75 78 77 79 70 80 71 81 72 82 73 83 74 84 50 85 51 86
REMARK SMILES IDX 60 87 52 88 53 89 59 90 61 91 54 92 55 93 56 94 57 95 58 96
REMARK H PARENT 16 6 20 27 82 46 48 57
REMARK Flexibility Score: inf
ROOT
ATOM      1  C   UNL     1       5.020   3.748   6.735  1.00  0.00     0.042 C 
ENDROOT
BRANCH   1   2
ATOM      2  C   UNL     1       5.843   2.821   5.844  1.00  0.00     0.118 C 
BRANCH   2   3
ATOM      3  N   UNL     1       5.319   1.472   5.887  1.00  0.00    -0.352 N 
ATOM      4  C   UNL     1       4.335   0.829   5.189  1.00  0.00     0.251 C 
ATOM      5  O   UNL     1       4.080  -0.325   5.543  1.00  0.00    -0.269 OA
ATOM      6  H   UNL     1       5.763   0.901   6.555  1.00  0.00     0.163 HD
BRANCH   4   7
ATOM      7  C   UNL     1       3.631   1.399   4.002  1.00  0.00     0.039 A 
ATOM      8  C   UNL     1       2.497   2.167   1.502  1.00  0.00    -0.011 A 
ATOM      9  C   UNL     1       2.443   0.846   1.950  1.00  0.00     0.008 A 
ATOM     10  C   UNL     1       3.033   3.117   2.384  1.00  0.00     0.008 A 
ATOM     11  C   UNL     1       3.005   0.466   3.171  1.00  0.00     0.014 A 
ATOM     12  C   UNL     1       3.571   2.740   3.624  1.00  0.00     0.014 A 
BRANCH   8  13
ATOM     13  C   UNL     1       2.198   2.581   0.067  1.00  0.00     0.265 C 
BRANCH  13  14
ATOM     14  O   UNL     1       0.988   2.189  -0.581  1.00  0.00    -0.488 OA
BRANCH  14  15
ATOM     15  C   UNL     1       0.628   0.874  -0.676  1.00  0.00     0.125 A 
ATOM     16  C   UNL     1      -2.622  -1.018   0.104  1.00  0.00     0.045 C 
ATOM     17  C   UNL     1      -1.204  -0.697  -0.279  1.00  0.00    -0.044 A 
ATOM     18  C   UNL     1      -0.328  -1.747  -0.574  1.00  0.00     0.004 A 
ATOM     19  C   UNL     1      -0.732   0.629  -0.356  1.00  0.00    -0.006 A 
ATOM     20  C   UNL     1       0.982  -1.492  -0.978  1.00  0.00     0.007 A 
ATOM     21  C   UNL     1      -1.628   1.807  -0.054  1.00  0.00     0.049 C 
ATOM     22  C   UNL     1       1.472  -0.180  -1.072  1.00  0.00    -0.009 A 
ATOM     23  C   UNL     1       2.886   0.002  -1.541  1.00  0.00     0.048 C 
ENDBRANCH  14  15
ENDBRANCH  13  14
ENDBRANCH   8  13
ENDBRANCH   4   7
ENDBRANCH   2   3
ENDBRANCH   1   2
BRANCH   1  24
ATOM     24  C   UNL     1       5.135   3.402   8.218  1.00  0.00     0.118 C 
BRANCH  24  25
ATOM     25  N   UNL     1       6.480   3.640   8.719  1.00  0.00    -0.352 N 
ATOM     26  C   UNL     1       6.905   4.512   9.684  1.00  0.00     0.251 C 
ATOM     27  H   UNL     1       7.187   3.095   8.303  1.00  0.00     0.163 HD
ATOM     28  O   UNL     1       8.106   4.782   9.764  1.00  0.00    -0.269 OA
BRANCH  26  29
ATOM     29  C   UNL     1       5.943   5.121  10.624  1.00  0.00     0.039 A 
ATOM     30  C   UNL     1       6.122   6.453  11.005  1.00  0.00     0.014 A 
ATOM     31  C   UNL     1       4.904   4.366  11.180  1.00  0.00     0.014 A 
ATOM     32  C   UNL     1       5.244   7.035  11.920  1.00  0.00     0.010 A 
ATOM     33  C   UNL     1       3.988   4.967  12.037  1.00  0.00     0.010 A 
ATOM     34  C   UNL     1       4.162   6.300  12.432  1.00  0.00    -0.014 A 
BRANCH  34  35
ATOM     35  C   UNL     1       3.219   6.910  13.400  1.00  0.00     0.031 A 
ATOM     36  C   UNL     1       3.155   6.405  14.815  1.00  0.00     0.074 A 
ATOM     37  C   UNL     1       2.396   7.893  12.990  1.00  0.00     0.049 A 
ATOM     38  N   UNL     1       2.400   6.810  15.804  1.00  0.00    -0.248 NA
ATOM     39  C   UNL     1       4.039   5.280  15.157  1.00  0.00     0.031 C 
ATOM     40  C   UNL     1       2.336   8.431  11.630  1.00  0.00     0.029 A 
ATOM     41  N   UNL     1       1.456   8.617  13.677  1.00  0.00    -0.354 N 
ATOM     42  C   UNL     1       2.707   5.983  16.878  1.00  0.00     0.074 A 
ATOM     43  C   UNL     1       3.675   5.018  16.403  1.00  0.00     0.031 C 
ATOM     44  C   UNL     1       1.438   9.428  11.592  1.00  0.00     0.029 A 
ATOM     45  C   UNL     1       0.841   9.581  12.915  1.00  0.00     0.049 A 
ATOM     46  H   UNL     1       1.243   8.462  14.626  1.00  0.00     0.167 HD
ATOM     47  C   UNL     1       2.241   6.036  18.150  1.00  0.00     0.037 A 
ATOM     48  C   UNL     1      -0.090  10.493  13.251  1.00  0.00     0.037 A 
ATOM     49  C   UNL     1       1.290   7.010  18.617  1.00  0.00     0.049 A 
ATOM     50  C   UNL     1      -0.586  10.542  14.668  1.00  0.00     0.074 A 
ATOM     51  C   UNL     1       0.793   7.191  19.895  1.00  0.00     0.029 A 
ATOM     52  N   UNL     1       0.685   7.969  17.815  1.00  0.00    -0.354 N 
ATOM     53  N   UNL     1      -0.242   9.792  15.689  1.00  0.00    -0.248 NA
ATOM     54  C   UNL     1      -1.591  11.566  14.980  1.00  0.00     0.031 C 
ATOM     55  C   UNL     1      -0.138   8.237  19.859  1.00  0.00     0.029 A 
ATOM     56  C   UNL     1      -0.193   8.733  18.566  1.00  0.00     0.049 A 
ATOM     57  H   UNL     1       0.856   8.089  16.853  1.00  0.00     0.167 HD
ATOM     58  C   UNL     1      -0.974  10.265  16.771  1.00  0.00     0.074 A 
ATOM     59  C   UNL     1      -1.770  11.374  16.281  1.00  0.00     0.031 C 
ATOM     60  C   UNL     1      -0.986   9.825  18.054  1.00  0.00     0.037 A 
BRANCH  47  61
ATOM     61  C   UNL     1       2.759   4.999  19.110  1.00  0.00     0.058 A 
ATOM     62  C   UNL     1       4.093   5.003  19.552  1.00  0.00     0.135 A 
ATOM     63  C   UNL     1       1.924   3.969  19.571  1.00  0.00     0.135 A 
ATOM     64  F   UNL     1       4.940   5.957  19.133  1.00  0.00    -0.206 F 
ATOM     65  C   UNL     1       4.595   3.994  20.367  1.00  0.00     0.059 A 
ATOM     66  C   UNL     1       2.397   2.963  20.410  1.00  0.00     0.059 A 
ATOM     67  F   UNL     1       0.639   3.917  19.187  1.00  0.00    -0.206 F 
ATOM     68  C   UNL     1       3.742   2.970  20.779  1.00  0.00     0.060 A 
BRANCH  68  69
ATOM     69  S   UNL     1       4.415   1.635  21.792  1.00  0.00     0.124 S 
ATOM     70  O   UNL     1       5.116   0.838  20.790  1.00  0.00    -0.237 OA
ATOM     71  O   UNL     1       5.266   2.353  22.737  1.00  0.00    -0.237 OA
ATOM     72  O   UNL     1       3.227   1.016  22.369  1.00  0.00    -0.744 OA
ENDBRANCH  68  69
ENDBRANCH  47  61
BRANCH  48  73
ATOM     73  C   UNL     1      -0.554  11.472  12.235  1.00  0.00     0.058 A 
ATOM     74  C   UNL     1      -0.120  12.805  12.283  1.00  0.00     0.135 A 
ATOM     75  C   UNL     1      -1.380  11.088  11.169  1.00  0.00     0.135 A 
ATOM     76  F   UNL     1       0.668  13.218  13.287  1.00  0.00    -0.206 F 
ATOM     77  C   UNL     1      -0.487  13.725  11.307  1.00  0.00     0.059 A 
ATOM     78  C   UNL     1      -1.744  11.985  10.169  1.00  0.00     0.059 A 
ATOM     79  F   UNL     1      -1.806   9.819  11.071  1.00  0.00    -0.206 F 
ATOM     80  C   UNL     1      -1.292  13.302  10.248  1.00  0.00     0.060 A 
BRANCH  80  81
ATOM     81  S   UNL     1      -1.685  14.482   8.937  1.00  0.00     0.124 S 
ATOM     82  O   UNL     1      -2.664  15.339   9.596  1.00  0.00    -0.237 OA
ATOM     83  O   UNL     1      -0.384  15.086   8.669  1.00  0.00    -0.237 OA
ATOM     84  O   UNL     1      -2.205  13.634   7.869  1.00  0.00    -0.744 OA
ENDBRANCH  80  81
ENDBRANCH  48  73
BRANCH  60  85
ATOM     85  C   UNL     1      -1.880  10.557  19.015  1.00  0.00     0.058 A 
ATOM     86  C   UNL     1      -3.275  10.407  18.981  1.00  0.00     0.135 A 
ATOM     87  C   UNL     1      -1.333  11.408  19.989  1.00  0.00     0.135 A 
ATOM     88  F   UNL     1      -3.847   9.611  18.063  1.00  0.00    -0.206 F 
ATOM     89  C   UNL     1      -4.101  11.102  19.858  1.00  0.00     0.059 A 
ATOM     90  C   UNL     1      -2.139  12.094  20.892  1.00  0.00     0.059 A 
ATOM     91  F   UNL     1      -0.004  11.578  20.070  1.00  0.00    -0.206 F 
ATOM     92  C   UNL     1      -3.523  11.948  20.807  1.00  0.00     0.060 A 
BRANCH  92  93
ATOM     93  S   UNL     1      -4.603  12.842  21.945  1.00  0.00     0.124 S 
ATOM     94  O   UNL     1      -5.097  13.919  21.093  1.00  0.00    -0.237 OA
ATOM     95  O   UNL     1      -5.583  11.826  22.315  1.00  0.00    -0.237 OA
ATOM     96  O   UNL     1      -3.699  13.251  23.016  1.00  0.00    -0.744 OA
ENDBRANCH  92  93
ENDBRANCH  60  85
ENDBRANCH  34  35
ENDBRANCH  26  29
ENDBRANCH  24  25
ENDBRANCH   1  24
TORSDOF 16
