REMARK SMILES C[NH+]1CCC(C[N@H+](C)[C@H]2CC[C@]([NH3+])(C(=O)NCCCNC(=O)c3ccc(-c4c5nc(c(-c6c(F)cc(S(=O)(=O)[O-])cc6F)c6ccc([nH]6)c(-c6c(F)cc(S(=O)(=O)[O-])cc6F)c6nc(c(-c7c(F)cc(S(=O)(=O)[O-])cc7F)c7ccc4[nH]7)C=C6)C=C5)cc3)C2)CC1
REMARK SMILES IDX 18 1 17 2 16 3 14 4 15 5 12 7 9 8 10 9 89 10 11 11 7 12 8 13
REMARK SMILES IDX 6 15 5 16 1 17 2 18 3 19 91 20 4 22 90 23 13 24 19 28 20 29
REMARK SMILES IDX 21 30 22 32 23 33 24 34 88 35 25 36 87 37 26 38 27 39 28 40
REMARK SMILES IDX 81 41 29 42 86 43 80 44 82 45 30 46 85 47 79 48 78 49 31 51
REMARK SMILES IDX 65 52 44 53 64 54 45 55 48 56 63 57 83 58 46 59 47 60 62 62
REMARK SMILES IDX 84 63 49 64 32 65 33 66 42 67 34 68 35 69 41 70 43 71 36 72
REMARK SMILES IDX 37 73 38 74 39 75 40 76 66 77 67 78 76 79 68 80 69 81 75 82
REMARK SMILES IDX 77 83 70 84 71 85 72 86 73 87 74 88 50 89 51 90 60 91 52 92
REMARK SMILES IDX 53 93 59 94 61 95 54 96 55 97 56 98 57 99 58 100
REMARK H PARENT 16 6 7 14 2 21 13 25 13 26 13 27 20 31 82 50 48 61
REMARK Flexibility Score: inf
ROOT
ATOM      1  C   UNL     1       5.720  -6.082   3.688  1.00  0.00     0.042 C 
ENDROOT
BRANCH   1   2
ATOM      2  C   UNL     1       6.543  -5.159   2.791  1.00  0.00     0.118 C 
BRANCH   2   3
ATOM      3  N   UNL     1       6.524  -5.453   1.375  1.00  0.00    -0.351 N 
ATOM      4  C   UNL     1       5.674  -5.090   0.378  1.00  0.00     0.281 C 
ATOM      5  O   UNL     1       6.130  -5.218  -0.768  1.00  0.00    -0.268 OA
ATOM      6  H   UNL     1       7.267  -6.025   1.077  1.00  0.00     0.163 HD
BRANCH   4   7
ATOM      7  C   UNL     1       4.149  -4.776   0.600  1.00  0.00     0.179 C 
ATOM      8  C   UNL     1       3.124  -2.615  -0.232  1.00  0.00     0.190 C 
ATOM      9  C   UNL     1       3.678  -2.466   1.193  1.00  0.00     0.072 C 
ATOM     10  C   UNL     1       3.604  -4.025  -0.663  1.00  0.00     0.144 C 
ATOM     11  C   UNL     1       3.710  -3.874   1.759  1.00  0.00     0.085 C 
BRANCH   8  12
ATOM     12  N   UNL     1       1.683  -2.238  -0.258  1.00  0.00    -0.334 N 
ATOM     13  C   UNL     1       1.529  -0.945  -0.945  1.00  0.00     0.332 C 
ATOM     14  H   UNL     1       1.438  -2.207   0.732  1.00  0.00     0.348 HD
BRANCH  12  15
ATOM     15  C   UNL     1       0.714  -3.198  -0.820  1.00  0.00     0.266 C 
BRANCH  15  16
ATOM     16  C   UNL     1       0.468  -4.390   0.109  1.00  0.00     0.055 C 
ATOM     17  C   UNL     1      -0.418  -7.657   2.585  1.00  0.00     0.332 C 
ATOM     18  N   UNL     1      -0.723  -6.515   1.711  1.00  0.00    -0.337 N 
ATOM     19  C   UNL     1      -0.204  -6.777   0.361  1.00  0.00     0.262 C 
ATOM     20  C   UNL     1      -0.213  -5.281   2.332  1.00  0.00     0.262 C 
ATOM     21  H   UNL     1      -1.729  -6.385   1.602  1.00  0.00     0.347 HD
ATOM     22  C   UNL     1      -0.252  -5.556  -0.565  1.00  0.00     0.071 C 
ATOM     23  C   UNL     1      -0.267  -4.060   1.408  1.00  0.00     0.071 C 
ENDBRANCH  15  16
ENDBRANCH  12  15
ENDBRANCH   8  12
BRANCH   7  24
ATOM     24  N   UNL     1       3.551  -6.126   0.758  1.00  0.00    -0.345 N 
ATOM     25  H   UNL     1       2.546  -6.038   0.910  1.00  0.00     0.345 HD
ATOM     26  H   UNL     1       3.976  -6.594   1.559  1.00  0.00     0.345 HD
ATOM     27  H   UNL     1       3.721  -6.675  -0.085  1.00  0.00     0.345 HD
ENDBRANCH   7  24
ENDBRANCH   4   7
ENDBRANCH   2   3
ENDBRANCH   1   2
BRANCH   1  28
ATOM     28  C   UNL     1       6.155  -7.547   3.696  1.00  0.00     0.118 C 
BRANCH  28  29
ATOM     29  N   UNL     1       7.598  -7.699   3.804  1.00  0.00    -0.352 N 
ATOM     30  C   UNL     1       8.413  -7.921   4.881  1.00  0.00     0.251 C 
ATOM     31  H   UNL     1       8.075  -7.630   2.945  1.00  0.00     0.163 HD
ATOM     32  O   UNL     1       9.602  -7.620   4.785  1.00  0.00    -0.269 OA
BRANCH  30  33
ATOM     33  C   UNL     1       7.913  -8.537   6.132  1.00  0.00     0.039 A 
ATOM     34  C   UNL     1       8.532  -8.192   7.341  1.00  0.00     0.014 A 
ATOM     35  C   UNL     1       6.950  -9.549   6.118  1.00  0.00     0.014 A 
ATOM     36  C   UNL     1       8.177  -8.845   8.524  1.00  0.00     0.010 A 
ATOM     37  C   UNL     1       6.549 -10.155   7.309  1.00  0.00     0.010 A 
ATOM     38  C   UNL     1       7.175  -9.828   8.520  1.00  0.00    -0.014 A 
BRANCH  38  39
ATOM     39  C   UNL     1       6.798 -10.540   9.768  1.00  0.00     0.031 A 
ATOM     40  C   UNL     1       7.071 -12.015   9.914  1.00  0.00     0.074 A 
ATOM     41  C   UNL     1       6.169  -9.867  10.750  1.00  0.00     0.049 A 
ATOM     42  N   UNL     1       6.777 -12.816  10.906  1.00  0.00    -0.248 NA
ATOM     43  C   UNL     1       7.739 -12.682   8.785  1.00  0.00     0.031 C 
ATOM     44  C   UNL     1       5.806  -8.449  10.702  1.00  0.00     0.029 A 
ATOM     45  N   UNL     1       5.716 -10.284  11.976  1.00  0.00    -0.354 N 
ATOM     46  C   UNL     1       7.205 -14.080  10.516  1.00  0.00     0.074 A 
ATOM     47  C   UNL     1       7.740 -13.948   9.178  1.00  0.00     0.031 C 
ATOM     48  C   UNL     1       5.205  -8.109  11.854  1.00  0.00     0.029 A 
ATOM     49  C   UNL     1       5.116  -9.288  12.710  1.00  0.00     0.049 A 
ATOM     50  H   UNL     1       5.812 -11.209  12.299  1.00  0.00     0.167 HD
ATOM     51  C   UNL     1       7.175 -15.240  11.216  1.00  0.00     0.037 A 
ATOM     52  C   UNL     1       4.558  -9.322  13.935  1.00  0.00     0.037 A 
ATOM     53  C   UNL     1       6.672 -15.355  12.561  1.00  0.00     0.049 A 
ATOM     54  C   UNL     1       4.571 -10.611  14.708  1.00  0.00     0.074 A 
ATOM     55  C   UNL     1       6.649 -16.470  13.382  1.00  0.00     0.029 A 
ATOM     56  N   UNL     1       6.107 -14.315  13.285  1.00  0.00    -0.354 N 
ATOM     57  N   UNL     1       5.031 -11.785  14.344  1.00  0.00    -0.248 NA
ATOM     58  C   UNL     1       4.001 -10.579  16.061  1.00  0.00     0.031 C 
ATOM     59  C   UNL     1       6.043 -16.110  14.592  1.00  0.00     0.029 A 
ATOM     60  C   UNL     1       5.723 -14.763  14.539  1.00  0.00     0.049 A 
ATOM     61  H   UNL     1       5.995 -13.394  12.957  1.00  0.00     0.167 HD
ATOM     62  C   UNL     1       4.825 -12.627  15.431  1.00  0.00     0.074 A 
ATOM     63  C   UNL     1       4.213 -11.823  16.470  1.00  0.00     0.031 C 
ATOM     64  C   UNL     1       5.116 -13.945  15.559  1.00  0.00     0.037 A 
BRANCH  51  65
ATOM     65  C   UNL     1       7.709 -16.476  10.543  1.00  0.00     0.058 A 
ATOM     66  C   UNL     1       9.082 -16.651  10.307  1.00  0.00     0.135 A 
ATOM     67  C   UNL     1       6.843 -17.510  10.152  1.00  0.00     0.135 A 
ATOM     68  F   UNL     1       9.954 -15.689  10.648  1.00  0.00    -0.206 F 
ATOM     69  C   UNL     1       9.575 -17.791   9.679  1.00  0.00     0.059 A 
ATOM     70  C   UNL     1       7.316 -18.671   9.546  1.00  0.00     0.059 A 
ATOM     71  F   UNL     1       5.521 -17.398  10.354  1.00  0.00    -0.206 F 
ATOM     72  C   UNL     1       8.682 -18.795   9.298  1.00  0.00     0.060 A 
BRANCH  72  73
ATOM     73  S   UNL     1       9.336 -20.267   8.482  1.00  0.00     0.124 S 
ATOM     74  O   UNL     1       9.613 -19.758   7.143  1.00  0.00    -0.237 OA
ATOM     75  O   UNL     1      10.505 -20.585   9.294  1.00  0.00    -0.237 OA
ATOM     76  O   UNL     1       8.235 -21.223   8.574  1.00  0.00    -0.744 OA
ENDBRANCH  72  73
ENDBRANCH  51  65
BRANCH  52  77
ATOM     77  C   UNL     1       3.978  -8.084  14.516  1.00  0.00     0.058 A 
ATOM     78  C   UNL     1       4.629  -7.404  15.556  1.00  0.00     0.135 A 
ATOM     79  C   UNL     1       2.782  -7.538  14.026  1.00  0.00     0.135 A 
ATOM     80  F   UNL     1       5.774  -7.889  16.060  1.00  0.00    -0.206 F 
ATOM     81  C   UNL     1       4.111  -6.234  16.099  1.00  0.00     0.059 A 
ATOM     82  C   UNL     1       2.254  -6.357  14.537  1.00  0.00     0.059 A 
ATOM     83  F   UNL     1       2.131  -8.141  13.018  1.00  0.00    -0.206 F 
ATOM     84  C   UNL     1       2.922  -5.716  15.580  1.00  0.00     0.060 A 
BRANCH  84  85
ATOM     85  S   UNL     1       2.288  -4.163  16.249  1.00  0.00     0.124 S 
ATOM     86  O   UNL     1       1.724  -4.600  17.521  1.00  0.00    -0.237 OA
ATOM     87  O   UNL     1       3.494  -3.346  16.332  1.00  0.00    -0.237 OA
ATOM     88  O   UNL     1       1.321  -3.736  15.242  1.00  0.00    -0.744 OA
ENDBRANCH  84  85
ENDBRANCH  52  77
BRANCH  64  89
ATOM     89  C   UNL     1       4.796 -14.591  16.877  1.00  0.00     0.058 A 
ATOM     90  C   UNL     1       3.476 -14.890  17.247  1.00  0.00     0.135 A 
ATOM     91  C   UNL     1       5.824 -14.940  17.766  1.00  0.00     0.135 A 
ATOM     92  F   UNL     1       2.457 -14.570  16.433  1.00  0.00    -0.206 F 
ATOM     93  C   UNL     1       3.183 -15.488  18.468  1.00  0.00     0.059 A 
ATOM     94  C   UNL     1       5.556 -15.560  18.982  1.00  0.00     0.059 A 
ATOM     95  F   UNL     1       7.105 -14.684  17.454  1.00  0.00    -0.206 F 
ATOM     96  C   UNL     1       4.231 -15.816  19.331  1.00  0.00     0.060 A 
BRANCH  96  97
ATOM     97  S   UNL     1       3.842 -16.605  20.907  1.00  0.00     0.124 S 
ATOM     98  O   UNL     1       3.370 -15.471  21.694  1.00  0.00    -0.237 OA
ATOM     99  O   UNL     1       2.825 -17.581  20.529  1.00  0.00    -0.237 OA
ATOM    100  O   UNL     1       5.121 -17.173  21.325  1.00  0.00    -0.744 OA
ENDBRANCH  96  97
ENDBRANCH  64  89
ENDBRANCH  38  39
ENDBRANCH  30  33
ENDBRANCH  28  29
ENDBRANCH   1  28
TORSDOF 17
