REMARK SMILES COc1ccc(-c2cc(C(F)(F)F)n3nc(C(=O)NCCCNC(=O)c4ccc(-c5c6nc(c(-c7c(F)cc(S(=O)(=O)[O-])cc7F)c7ccc([nH]7)c(-c7c(F)cc(S(=O)(=O)[O-])cc7F)c7nc(c(-c8c(F)cc(S(=O)(=O)[O-])cc8F)c8ccc5[nH]8)C=C7)C=C6)cc4)cc3n2)cc1OC
REMARK SMILES IDX 21 1 20 2 19 3 17 4 18 5 16 7 7 8 8 9 94 10 9 11 93 12 14 13
REMARK SMILES IDX 92 14 15 15 6 16 3 17 4 18 96 19 5 20 95 21 2 22 1 23 97 24
REMARK SMILES IDX 98 25 10 26 11 27 12 28 13 29 22 30 23 31 24 32 25 34 26 35
REMARK SMILES IDX 27 36 91 37 28 38 90 39 29 40 30 41 31 42 84 43 32 44 89 45
REMARK SMILES IDX 83 46 85 47 33 48 88 49 82 50 81 51 34 53 68 54 47 55 67 56
REMARK SMILES IDX 48 57 51 58 66 59 86 60 49 61 50 62 65 64 87 65 52 66 35 67
REMARK SMILES IDX 36 68 45 69 37 70 38 71 44 72 46 73 39 74 40 75 41 76 42 77
REMARK SMILES IDX 43 78 69 79 70 80 79 81 71 82 72 83 78 84 80 85 73 86 74 87
REMARK SMILES IDX 75 88 76 89 77 90 53 91 54 92 63 93 55 94 56 95 62 96 64 97
REMARK SMILES IDX 57 98 58 99 59 100 60 101 61 102
REMARK H PARENT 19 6 23 33 85 52 51 63
REMARK Flexibility Score: inf
ROOT
ATOM      1  C   UNL     1      -0.110  10.249   6.302  1.00  0.00     0.042 C 
ENDROOT
BRANCH   1   2
ATOM      2  C   UNL     1      -0.243  10.950   4.951  1.00  0.00     0.118 C 
BRANCH   2   3
ATOM      3  N   UNL     1       0.946  11.711   4.624  1.00  0.00    -0.351 N 
ATOM      4  C   UNL     1       2.021  11.431   3.816  1.00  0.00     0.271 C 
ATOM      5  O   UNL     1       2.845  12.345   3.684  1.00  0.00    -0.267 OA
ATOM      6  H   UNL     1       0.991  12.592   5.062  1.00  0.00     0.163 HD
BRANCH   4   7
ATOM      7  C   UNL     1       2.168  10.135   3.122  1.00  0.00     0.152 A 
ATOM      8  C   UNL     1       2.290   6.210   1.067  1.00  0.00     0.075 A 
ATOM      9  C   UNL     1       3.383   6.875   0.290  1.00  0.00     0.062 A 
ATOM     10  N   UNL     1       1.624   6.766   2.036  1.00  0.00    -0.228 NA
ATOM     11  C   UNL     1       3.650   8.155   0.615  1.00  0.00     0.150 A 
ATOM     12  C   UNL     1       1.976   8.047   2.352  1.00  0.00     0.157 A 
ATOM     13  N   UNL     1       2.935   8.764   1.638  1.00  0.00    -0.209 N 
ATOM     14  C   UNL     1       1.557   8.880   3.360  1.00  0.00     0.085 A 
ATOM     15  N   UNL     1       3.018  10.035   2.080  1.00  0.00    -0.161 NA
BRANCH   8  16
ATOM     16  C   UNL     1       1.956   4.831   0.643  1.00  0.00     0.004 A 
ATOM     17  C   UNL     1       1.332   2.260  -0.249  1.00  0.00     0.160 A 
ATOM     18  C   UNL     1       0.325   3.228  -0.126  1.00  0.00     0.051 A 
ATOM     19  C   UNL     1       2.657   2.576   0.082  1.00  0.00     0.161 A 
ATOM     20  C   UNL     1       0.632   4.509   0.337  1.00  0.00     0.014 A 
ATOM     21  C   UNL     1       2.961   3.868   0.525  1.00  0.00     0.060 A 
BRANCH  17  22
ATOM     22  O   UNL     1       1.027   1.045  -0.804  1.00  0.00    -0.493 OA
ATOM     23  C   UNL     1       0.116   0.294  -0.002  1.00  0.00     0.278 C 
ENDBRANCH  17  22
BRANCH  19  24
ATOM     24  O   UNL     1       3.758   1.766  -0.008  1.00  0.00    -0.493 OA
ATOM     25  C   UNL     1       3.540   0.367   0.122  1.00  0.00     0.278 C 
ENDBRANCH  19  24
ENDBRANCH   8  16
BRANCH  11  26
ATOM     26  C   UNL     1       4.688   8.974  -0.051  1.00  0.00     0.433 C 
ATOM     27  F   UNL     1       4.179  10.057  -0.690  1.00  0.00    -0.165 F 
ATOM     28  F   UNL     1       5.652   9.403   0.800  1.00  0.00    -0.165 F 
ATOM     29  F   UNL     1       5.339   8.255  -1.011  1.00  0.00    -0.165 F 
ENDBRANCH  11  26
ENDBRANCH   4   7
ENDBRANCH   2   3
ENDBRANCH   1   2
BRANCH   1  30
ATOM     30  C   UNL     1      -0.280  11.194   7.493  1.00  0.00     0.118 C 
BRANCH  30  31
ATOM     31  N   UNL     1      -1.632  11.729   7.571  1.00  0.00    -0.352 N 
ATOM     32  C   UNL     1      -2.553  11.688   8.585  1.00  0.00     0.251 C 
ATOM     33  H   UNL     1      -1.935  12.198   6.760  1.00  0.00     0.163 HD
ATOM     34  O   UNL     1      -3.717  12.000   8.337  1.00  0.00    -0.269 OA
BRANCH  32  35
ATOM     35  C   UNL     1      -2.175  11.281   9.957  1.00  0.00     0.039 A 
ATOM     36  C   UNL     1      -3.101  10.555  10.713  1.00  0.00     0.014 A 
ATOM     37  C   UNL     1      -0.963  11.671  10.532  1.00  0.00     0.014 A 
ATOM     38  C   UNL     1      -2.798  10.192  12.027  1.00  0.00     0.010 A 
ATOM     39  C   UNL     1      -0.633  11.252  11.821  1.00  0.00     0.010 A 
ATOM     40  C   UNL     1      -1.552  10.519  12.586  1.00  0.00    -0.014 A 
BRANCH  40  41
ATOM     41  C   UNL     1      -1.209  10.105  13.971  1.00  0.00     0.031 A 
ATOM     42  C   UNL     1      -0.993  11.138  15.046  1.00  0.00     0.074 A 
ATOM     43  C   UNL     1      -1.052   8.796  14.250  1.00  0.00     0.049 A 
ATOM     44  N   UNL     1      -0.660  10.967  16.300  1.00  0.00    -0.248 NA
ATOM     45  C   UNL     1      -1.147  12.548  14.654  1.00  0.00     0.031 C 
ATOM     46  C   UNL     1      -1.181   7.706  13.281  1.00  0.00     0.029 A 
ATOM     47  N   UNL     1      -0.744   8.160  15.425  1.00  0.00    -0.354 N 
ATOM     48  C   UNL     1      -0.554  12.242  16.843  1.00  0.00     0.074 A 
ATOM     49  C   UNL     1      -0.808  13.179  15.769  1.00  0.00     0.031 C 
ATOM     50  C   UNL     1      -0.976   6.535  13.905  1.00  0.00     0.029 A 
ATOM     51  C   UNL     1      -0.672   6.792  15.310  1.00  0.00     0.049 A 
ATOM     52  H   UNL     1      -0.590   8.638  16.272  1.00  0.00     0.167 HD
ATOM     53  C   UNL     1      -0.293  12.601  18.124  1.00  0.00     0.037 A 
ATOM     54  C   UNL     1      -0.392   5.850  16.230  1.00  0.00     0.037 A 
ATOM     55  C   UNL     1      -0.064  11.662  19.193  1.00  0.00     0.049 A 
ATOM     56  C   UNL     1      -0.133   6.269  17.651  1.00  0.00     0.074 A 
ATOM     57  C   UNL     1       0.161  11.921  20.534  1.00  0.00     0.029 A 
ATOM     58  N   UNL     1      -0.034  10.283  19.043  1.00  0.00    -0.354 N 
ATOM     59  N   UNL     1      -0.093   7.479  18.158  1.00  0.00    -0.248 NA
ATOM     60  C   UNL     1       0.105   5.198  18.626  1.00  0.00     0.031 C 
ATOM     61  C   UNL     1       0.361  10.700  21.189  1.00  0.00     0.029 A 
ATOM     62  C   UNL     1       0.217   9.678  20.264  1.00  0.00     0.049 A 
ATOM     63  H   UNL     1      -0.170   9.805  18.194  1.00  0.00     0.167 HD
ATOM     64  C   UNL     1       0.152   7.312  19.517  1.00  0.00     0.074 A 
ATOM     65  C   UNL     1       0.234   5.885  19.753  1.00  0.00     0.031 C 
ATOM     66  C   UNL     1       0.295   8.255  20.481  1.00  0.00     0.037 A 
BRANCH  53  67
ATOM     67  C   UNL     1      -0.248  14.072  18.439  1.00  0.00     0.058 A 
ATOM     68  C   UNL     1      -1.411  14.860  18.438  1.00  0.00     0.135 A 
ATOM     69  C   UNL     1       0.964  14.697  18.774  1.00  0.00     0.135 A 
ATOM     70  F   UNL     1      -2.595  14.318  18.113  1.00  0.00    -0.206 F 
ATOM     71  C   UNL     1      -1.369  16.221  18.724  1.00  0.00     0.059 A 
ATOM     72  C   UNL     1       1.025  16.052  19.090  1.00  0.00     0.059 A 
ATOM     73  F   UNL     1       2.106  13.993  18.792  1.00  0.00    -0.206 F 
ATOM     74  C   UNL     1      -0.145  16.809  19.046  1.00  0.00     0.060 A 
BRANCH  74  75
ATOM     75  S   UNL     1      -0.107  18.577  19.413  1.00  0.00     0.124 S 
ATOM     76  O   UNL     1      -0.265  19.153  18.081  1.00  0.00    -0.237 OA
ATOM     77  O   UNL     1      -1.248  18.735  20.310  1.00  0.00    -0.237 OA
ATOM     78  O   UNL     1       1.202  18.768  20.029  1.00  0.00    -0.744 OA
ENDBRANCH  74  75
ENDBRANCH  53  67
BRANCH  54  79
ATOM     79  C   UNL     1      -0.377   4.416  15.839  1.00  0.00     0.058 A 
ATOM     80  C   UNL     1      -1.397   3.544  16.249  1.00  0.00     0.135 A 
ATOM     81  C   UNL     1       0.641   3.895  15.025  1.00  0.00     0.135 A 
ATOM     82  F   UNL     1      -2.390   3.995  17.031  1.00  0.00    -0.206 F 
ATOM     83  C   UNL     1      -1.402   2.203  15.880  1.00  0.00     0.059 A 
ATOM     84  C   UNL     1       0.645   2.563  14.623  1.00  0.00     0.059 A 
ATOM     85  F   UNL     1       1.628   4.693  14.590  1.00  0.00    -0.206 F 
ATOM     86  C   UNL     1      -0.377   1.722  15.063  1.00  0.00     0.060 A 
BRANCH  86  87
ATOM     87  S   UNL     1      -0.423  -0.006  14.541  1.00  0.00     0.124 S 
ATOM     88  O   UNL     1      -0.015  -0.693  15.760  1.00  0.00    -0.237 OA
ATOM     89  O   UNL     1      -1.819  -0.172  14.150  1.00  0.00    -0.237 OA
ATOM     90  O   UNL     1       0.536  -0.048  13.440  1.00  0.00    -0.744 OA
ENDBRANCH  86  87
ENDBRANCH  54  79
BRANCH  66  91
ATOM     91  C   UNL     1       0.526   7.768  21.885  1.00  0.00     0.058 A 
ATOM     92  C   UNL     1       1.750   7.206  22.280  1.00  0.00     0.135 A 
ATOM     93  C   UNL     1      -0.485   7.887  22.853  1.00  0.00     0.135 A 
ATOM     94  F   UNL     1       2.747   7.066  21.392  1.00  0.00    -0.206 F 
ATOM     95  C   UNL     1       1.952   6.746  23.577  1.00  0.00     0.059 A 
ATOM     96  C   UNL     1      -0.295   7.458  24.162  1.00  0.00     0.059 A 
ATOM     97  F   UNL     1      -1.670   8.429  22.530  1.00  0.00    -0.206 F 
ATOM     98  C   UNL     1       0.922   6.872  24.510  1.00  0.00     0.060 A 
BRANCH  98  99
ATOM     99  S   UNL     1       1.197   6.277  26.192  1.00  0.00     0.124 S 
ATOM    100  O   UNL     1       1.073   4.834  26.016  1.00  0.00    -0.237 OA
ATOM    101  O   UNL     1       2.540   6.767  26.484  1.00  0.00    -0.237 OA
ATOM    102  O   UNL     1       0.126   6.912  26.955  1.00  0.00    -0.744 OA
ENDBRANCH  98  99
ENDBRANCH  66  91
ENDBRANCH  40  41
ENDBRANCH  32  35
ENDBRANCH  30  31
ENDBRANCH   1  30
TORSDOF 17
