REMARK SMILES CC(C)(C)n1cc([C@@H]2[C@@H](C(=O)NCCCNC(=O)c3ccc(-c4c5nc(c(-c6c(F)cc(S(=O)(=O)[O-])cc6F)c6ccc([nH]6)c(-c6c(F)cc(S(=O)(=O)[O-])cc6F)c6nc(c(-c7c(F)cc(S(=O)(=O)[O-])cc7F)c7ccc4[nH]7)C=C6)C=C5)cc3)CC(=O)N2Cc2cccnc2)cn1
REMARK SMILES IDX 14 1 13 2 12 3 10 4 11 5 9 7 8 8 88 9 85 10 86 11 87 12 7 13
REMARK SMILES IDX 5 14 6 15 97 16 96 17 2 18 1 19 3 20 4 21 89 22 90 23 91 24
REMARK SMILES IDX 95 25 92 26 94 27 93 28 15 29 16 30 17 31 18 33 19 34 20 35
REMARK SMILES IDX 84 36 21 37 83 38 22 39 23 40 24 41 77 42 25 43 82 44 76 45
REMARK SMILES IDX 78 46 26 47 81 48 75 49 74 50 27 52 61 53 40 54 60 55 41 56
REMARK SMILES IDX 44 57 59 58 79 59 42 60 43 61 58 63 80 64 45 65 28 66 29 67
REMARK SMILES IDX 38 68 30 69 31 70 37 71 39 72 32 73 33 74 34 75 35 76 36 77
REMARK SMILES IDX 62 78 63 79 72 80 64 81 65 82 71 83 73 84 66 85 67 86 68 87
REMARK SMILES IDX 69 88 70 89 46 90 47 91 56 92 48 93 49 94 55 95 57 96 50 97
REMARK SMILES IDX 51 98 52 99 53 100 54 101
REMARK H PARENT 12 6 16 32 78 51 44 62
REMARK Flexibility Score: inf
ROOT
ATOM      1  C   UNL     1       0.934   8.015   6.473  1.00  0.00     0.042 C 
ENDROOT
BRANCH   1   2
ATOM      2  C   UNL     1       1.065   6.625   5.862  1.00  0.00     0.117 C 
BRANCH   2   3
ATOM      3  N   UNL     1      -0.215   5.965   5.628  1.00  0.00    -0.356 N 
ATOM      4  C   UNL     1      -0.852   5.590   4.487  1.00  0.00     0.226 C 
ATOM      5  O   UNL     1      -1.927   4.998   4.601  1.00  0.00    -0.275 OA
ATOM      6  H   UNL     1      -0.711   5.753   6.452  1.00  0.00     0.163 HD
BRANCH   4   7
ATOM      7  C   UNL     1      -0.275   5.844   3.115  1.00  0.00     0.115 C 
ATOM      8  C   UNL     1       1.080   5.165   2.959  1.00  0.00     0.132 C 
ATOM      9  N   UNL     1       1.883   6.109   2.208  1.00  0.00    -0.330 N 
ATOM     10  C   UNL     1      -0.061   7.315   2.787  1.00  0.00     0.116 C 
ATOM     11  C   UNL     1       1.289   7.356   2.122  1.00  0.00     0.224 C 
ATOM     12  O   UNL     1       1.779   8.352   1.614  1.00  0.00    -0.275 OA
BRANCH   8  13
ATOM     13  C   UNL     1       1.004   3.833   2.308  1.00  0.00     0.013 A 
ATOM     14  N   UNL     1       0.745   2.139   0.926  1.00  0.00    -0.267 N 
ATOM     15  C   UNL     1       0.682   3.504   1.010  1.00  0.00     0.115 A 
ATOM     16  N   UNL     1       1.109   1.564   2.089  1.00  0.00    -0.181 NA
ATOM     17  C   UNL     1       1.218   2.585   2.934  1.00  0.00     0.141 A 
BRANCH  14  18
ATOM     18  C   UNL     1       0.339   1.308  -0.218  1.00  0.00     0.054 C 
ATOM     19  C   UNL     1       0.879  -0.133  -0.091  1.00  0.00     0.036 C 
ATOM     20  C   UNL     1       0.883   1.898  -1.533  1.00  0.00     0.036 C 
ATOM     21  C   UNL     1      -1.198   1.268  -0.254  1.00  0.00     0.036 C 
ENDBRANCH  14  18
ENDBRANCH   8  13
BRANCH   9  22
ATOM     22  C   UNL     1       3.236   5.846   1.733  1.00  0.00     0.157 C 
BRANCH  22  23
ATOM     23  C   UNL     1       4.263   5.687   2.824  1.00  0.00    -0.010 A 
ATOM     24  C   UNL     1       4.321   4.551   3.637  1.00  0.00     0.009 A 
ATOM     25  C   UNL     1       5.244   6.652   3.031  1.00  0.00     0.116 A 
ATOM     26  C   UNL     1       5.300   4.431   4.617  1.00  0.00     0.020 A 
ATOM     27  N   UNL     1       6.227   6.553   3.960  1.00  0.00    -0.264 NA
ATOM     28  C   UNL     1       6.229   5.447   4.734  1.00  0.00     0.111 A 
ENDBRANCH  22  23
ENDBRANCH   9  22
ENDBRANCH   4   7
ENDBRANCH   2   3
ENDBRANCH   1   2
BRANCH   1  29
ATOM     29  C   UNL     1       0.394   7.983   7.887  1.00  0.00     0.118 C 
BRANCH  29  30
ATOM     30  N   UNL     1       1.304   7.340   8.834  1.00  0.00    -0.352 N 
ATOM     31  C   UNL     1       1.141   7.194  10.202  1.00  0.00     0.251 C 
ATOM     32  H   UNL     1       2.132   6.968   8.454  1.00  0.00     0.163 HD
ATOM     33  O   UNL     1       2.097   6.957  10.917  1.00  0.00    -0.269 OA
BRANCH  31  34
ATOM     34  C   UNL     1      -0.216   7.343  10.767  1.00  0.00     0.039 A 
ATOM     35  C   UNL     1      -0.427   8.014  11.972  1.00  0.00     0.014 A 
ATOM     36  C   UNL     1      -1.289   6.834  10.040  1.00  0.00     0.014 A 
ATOM     37  C   UNL     1      -1.737   8.239  12.390  1.00  0.00     0.010 A 
ATOM     38  C   UNL     1      -2.569   7.210  10.356  1.00  0.00     0.010 A 
ATOM     39  C   UNL     1      -2.805   7.857  11.560  1.00  0.00    -0.014 A 
BRANCH  39  40
ATOM     40  C   UNL     1      -4.176   8.258  11.865  1.00  0.00     0.031 A 
ATOM     41  C   UNL     1      -4.329   9.724  12.052  1.00  0.00     0.074 A 
ATOM     42  C   UNL     1      -5.236   7.425  11.763  1.00  0.00     0.049 A 
ATOM     43  N   UNL     1      -4.501  10.357  13.164  1.00  0.00    -0.248 NA
ATOM     44  C   UNL     1      -4.050  10.611  10.908  1.00  0.00     0.031 C 
ATOM     45  C   UNL     1      -5.260   6.044  11.267  1.00  0.00     0.029 A 
ATOM     46  N   UNL     1      -6.556   7.673  11.988  1.00  0.00    -0.354 N 
ATOM     47  C   UNL     1      -4.643  11.696  12.814  1.00  0.00     0.074 A 
ATOM     48  C   UNL     1      -4.104  11.813  11.487  1.00  0.00     0.031 C 
ATOM     49  C   UNL     1      -6.533   5.673  11.008  1.00  0.00     0.029 A 
ATOM     50  C   UNL     1      -7.429   6.715  11.472  1.00  0.00     0.049 A 
ATOM     51  H   UNL     1      -6.870   8.468  12.477  1.00  0.00     0.167 HD
ATOM     52  C   UNL     1      -5.466  12.515  13.529  1.00  0.00     0.037 A 
ATOM     53  C   UNL     1      -8.786   6.788  11.414  1.00  0.00     0.037 A 
ATOM     54  C   UNL     1      -5.809  11.905  14.795  1.00  0.00     0.049 A 
ATOM     55  C   UNL     1      -9.199   7.814  12.407  1.00  0.00     0.074 A 
ATOM     56  C   UNL     1      -5.087  11.413  15.866  1.00  0.00     0.029 A 
ATOM     57  N   UNL     1      -7.067  11.360  14.908  1.00  0.00    -0.354 N 
ATOM     58  N   UNL     1      -9.063   7.671  13.698  1.00  0.00    -0.248 NA
ATOM     59  C   UNL     1      -9.322   9.188  11.943  1.00  0.00     0.031 C 
ATOM     60  C   UNL     1      -5.787  10.241  16.276  1.00  0.00     0.029 A 
ATOM     61  C   UNL     1      -6.944  10.132  15.502  1.00  0.00     0.049 A 
ATOM     62  H   UNL     1      -7.907  11.779  14.614  1.00  0.00     0.167 HD
ATOM     63  C   UNL     1      -8.634   8.912  14.146  1.00  0.00     0.074 A 
ATOM     64  C   UNL     1      -8.898   9.827  13.036  1.00  0.00     0.031 C 
ATOM     65  C   UNL     1      -7.839   9.024  15.250  1.00  0.00     0.037 A 
BRANCH  52  66
ATOM     66  C   UNL     1      -6.298  13.638  12.938  1.00  0.00     0.058 A 
ATOM     67  C   UNL     1      -7.077  14.431  13.810  1.00  0.00     0.135 A 
ATOM     68  C   UNL     1      -6.595  13.787  11.565  1.00  0.00     0.135 A 
ATOM     69  F   UNL     1      -6.881  14.385  15.138  1.00  0.00    -0.206 F 
ATOM     70  C   UNL     1      -8.134  15.224  13.363  1.00  0.00     0.059 A 
ATOM     71  C   UNL     1      -7.608  14.614  11.094  1.00  0.00     0.059 A 
ATOM     72  F   UNL     1      -5.987  13.079  10.609  1.00  0.00    -0.206 F 
ATOM     73  C   UNL     1      -8.401  15.294  12.001  1.00  0.00     0.060 A 
BRANCH  73  74
ATOM     74  S   UNL     1      -9.815  16.245  11.424  1.00  0.00     0.124 S 
ATOM     75  O   UNL     1     -10.926  15.442  11.920  1.00  0.00    -0.237 OA
ATOM     76  O   UNL     1      -9.603  17.528  12.087  1.00  0.00    -0.237 OA
ATOM     77  O   UNL     1      -9.640  16.259   9.975  1.00  0.00    -0.744 OA
ENDBRANCH  73  74
ENDBRANCH  52  66
BRANCH  53  78
ATOM     78  C   UNL     1      -9.719   6.272  10.372  1.00  0.00     0.058 A 
ATOM     79  C   UNL     1     -11.114   6.291  10.571  1.00  0.00     0.135 A 
ATOM     80  C   UNL     1      -9.292   6.029   9.052  1.00  0.00     0.135 A 
ATOM     81  F   UNL     1     -11.619   6.525  11.792  1.00  0.00    -0.206 F 
ATOM     82  C   UNL     1     -12.027   6.150   9.517  1.00  0.00     0.059 A 
ATOM     83  C   UNL     1     -10.182   5.874   7.987  1.00  0.00     0.059 A 
ATOM     84  F   UNL     1      -7.989   6.030   8.735  1.00  0.00    -0.206 F 
ATOM     85  C   UNL     1     -11.549   5.967   8.221  1.00  0.00     0.060 A 
BRANCH  85  86
ATOM     86  S   UNL     1     -12.708   5.986   6.830  1.00  0.00     0.124 S 
ATOM     87  O   UNL     1     -13.417   4.723   7.009  1.00  0.00    -0.237 OA
ATOM     88  O   UNL     1     -13.483   7.194   7.089  1.00  0.00    -0.237 OA
ATOM     89  O   UNL     1     -11.834   6.050   5.661  1.00  0.00    -0.744 OA
ENDBRANCH  85  86
ENDBRANCH  53  78
BRANCH  65  90
ATOM     90  C   UNL     1      -7.723   7.845  16.182  1.00  0.00     0.058 A 
ATOM     91  C   UNL     1      -7.175   6.594  15.847  1.00  0.00     0.135 A 
ATOM     92  C   UNL     1      -8.045   8.062  17.531  1.00  0.00     0.135 A 
ATOM     93  F   UNL     1      -6.748   6.335  14.603  1.00  0.00    -0.206 F 
ATOM     94  C   UNL     1      -6.990   5.595  16.807  1.00  0.00     0.059 A 
ATOM     95  C   UNL     1      -7.837   7.096  18.508  1.00  0.00     0.059 A 
ATOM     96  F   UNL     1      -8.520   9.256  17.925  1.00  0.00    -0.206 F 
ATOM     97  C   UNL     1      -7.321   5.858  18.137  1.00  0.00     0.060 A 
BRANCH  97  98
ATOM     98  S   UNL     1      -7.016   4.597  19.394  1.00  0.00     0.124 S 
ATOM     99  O   UNL     1      -8.028   3.595  19.075  1.00  0.00    -0.237 OA
ATOM    100  O   UNL     1      -5.634   4.210  19.127  1.00  0.00    -0.237 OA
ATOM    101  O   UNL     1      -7.221   5.311  20.652  1.00  0.00    -0.744 OA
ENDBRANCH  97  98
ENDBRANCH  65  90
ENDBRANCH  39  40
ENDBRANCH  31  34
ENDBRANCH  29  30
ENDBRANCH   1  29
TORSDOF 17
