REMARK SMILES O=C(NCCCNC(=O)C1([C@@H]2CCCC[C@H]2O)CCOCC1)c1ccc(-c2c3nc(c(-c4c(F)cc(S(=O)(=O)[O-])cc4F)c4ccc([nH]4)c(-c4c(F)cc(S(=O)(=O)[O-])cc4F)c4nc(c(-c5c(F)cc(S(=O)(=O)[O-])cc5F)c5ccc2[nH]5)C=C4)C=C3)cc1
REMARK SMILES IDX 4 1 3 2 1 3 2 4 23 6 24 7 88 8 25 9 87 10 26 11 27 12 28 13
REMARK SMILES IDX 81 14 29 15 86 16 80 17 82 18 30 19 85 20 79 21 78 22 31 24
REMARK SMILES IDX 65 25 44 26 64 27 45 28 48 29 63 30 83 31 46 32 47 33 62 35
REMARK SMILES IDX 84 36 49 37 32 38 33 39 42 40 34 41 35 42 41 43 43 44 36 45
REMARK SMILES IDX 37 46 38 47 39 48 40 49 66 50 67 51 76 52 68 53 69 54 75 55
REMARK SMILES IDX 77 56 70 57 71 58 72 59 73 60 74 61 50 62 51 63 60 64 52 65
REMARK SMILES IDX 53 66 59 67 61 68 54 69 55 70 56 71 57 72 58 73 5 74 6 75
REMARK SMILES IDX 7 76 8 77 9 79 10 80 18 81 22 82 19 83 21 84 20 85 11 86
REMARK SMILES IDX 12 87 16 88 13 89 15 90 14 91 17 92
REMARK H PARENT 3 5 82 23 48 34 7 78 17 93
REMARK Flexibility Score: inf
ROOT
ATOM      1  C   UNL     1      11.012  -1.956   9.467  1.00  0.00     0.118 C 
ENDROOT
BRANCH   1   2
ATOM      2  N   UNL     1      10.627  -3.295   9.890  1.00  0.00    -0.352 N 
ATOM      3  O   UNL     1      10.752  -5.528  10.116  1.00  0.00    -0.269 OA
ATOM      4  C   UNL     1      11.339  -4.474   9.898  1.00  0.00     0.251 C 
ATOM      5  H   UNL     1       9.706  -3.370  10.227  1.00  0.00     0.163 HD
BRANCH   4   6
ATOM      6  C   UNL     1      12.792  -4.477   9.616  1.00  0.00     0.039 A 
ATOM      7  C   UNL     1      13.624  -3.488  10.137  1.00  0.00     0.014 A 
ATOM      8  C   UNL     1      13.341  -5.506   8.843  1.00  0.00     0.014 A 
ATOM      9  C   UNL     1      14.949  -3.410   9.732  1.00  0.00     0.010 A 
ATOM     10  C   UNL     1      14.708  -5.499   8.541  1.00  0.00     0.010 A 
ATOM     11  C   UNL     1      15.518  -4.431   8.955  1.00  0.00    -0.014 A 
BRANCH  11  12
ATOM     12  C   UNL     1      16.977  -4.388   8.670  1.00  0.00     0.031 A 
ATOM     13  C   UNL     1      17.498  -4.302   7.262  1.00  0.00     0.074 A 
ATOM     14  C   UNL     1      17.833  -4.381   9.713  1.00  0.00     0.049 A 
ATOM     15  N   UNL     1      18.738  -4.243   6.848  1.00  0.00    -0.248 NA
ATOM     16  C   UNL     1      16.505  -4.289   6.176  1.00  0.00     0.031 C 
ATOM     17  C   UNL     1      17.441  -4.466  11.124  1.00  0.00     0.029 A 
ATOM     18  N   UNL     1      19.198  -4.271   9.759  1.00  0.00    -0.354 N 
ATOM     19  C   UNL     1      18.680  -4.205   5.460  1.00  0.00     0.074 A 
ATOM     20  C   UNL     1      17.279  -4.274   5.098  1.00  0.00     0.031 C 
ATOM     21  C   UNL     1      18.529  -4.339  11.894  1.00  0.00     0.029 A 
ATOM     22  C   UNL     1      19.704  -4.248  11.038  1.00  0.00     0.049 A 
ATOM     23  H   UNL     1      19.763  -4.214   8.954  1.00  0.00     0.167 HD
ATOM     24  C   UNL     1      19.700  -4.114   4.573  1.00  0.00     0.037 A 
ATOM     25  C   UNL     1      20.974  -4.185  11.478  1.00  0.00     0.037 A 
ATOM     26  C   UNL     1      21.090  -4.033   4.947  1.00  0.00     0.049 A 
ATOM     27  C   UNL     1      22.085  -4.116  10.473  1.00  0.00     0.074 A 
ATOM     28  C   UNL     1      22.198  -3.920   4.125  1.00  0.00     0.029 A 
ATOM     29  N   UNL     1      21.565  -4.055   6.252  1.00  0.00    -0.354 N 
ATOM     30  N   UNL     1      22.008  -4.075   9.165  1.00  0.00    -0.248 NA
ATOM     31  C   UNL     1      23.455  -4.096  11.001  1.00  0.00     0.031 C 
ATOM     32  C   UNL     1      23.344  -3.919   4.929  1.00  0.00     0.029 A 
ATOM     33  C   UNL     1      22.949  -3.979   6.256  1.00  0.00     0.049 A 
ATOM     34  H   UNL     1      21.001  -4.117   7.057  1.00  0.00     0.167 HD
ATOM     35  C   UNL     1      23.319  -4.010   8.711  1.00  0.00     0.074 A 
ATOM     36  C   UNL     1      24.167  -3.998   9.886  1.00  0.00     0.031 C 
ATOM     37  C   UNL     1      23.778  -3.968   7.436  1.00  0.00     0.037 A 
BRANCH  24  38
ATOM     38  C   UNL     1      19.360  -4.115   3.106  1.00  0.00     0.058 A 
ATOM     39  C   UNL     1      18.753  -3.012   2.486  1.00  0.00     0.135 A 
ATOM     40  C   UNL     1      19.690  -5.217   2.299  1.00  0.00     0.135 A 
ATOM     41  F   UNL     1      18.402  -1.937   3.211  1.00  0.00    -0.206 F 
ATOM     42  C   UNL     1      18.464  -3.009   1.124  1.00  0.00     0.059 A 
ATOM     43  C   UNL     1      19.434  -5.226   0.930  1.00  0.00     0.059 A 
ATOM     44  F   UNL     1      20.273  -6.299   2.838  1.00  0.00    -0.206 F 
ATOM     45  C   UNL     1      18.808  -4.121   0.354  1.00  0.00     0.060 A 
BRANCH  45  46
ATOM     46  S   UNL     1      18.431  -4.099  -1.412  1.00  0.00     0.124 S 
ATOM     47  O   UNL     1      16.980  -4.259  -1.401  1.00  0.00    -0.237 OA
ATOM     48  O   UNL     1      18.919  -2.786  -1.820  1.00  0.00    -0.237 OA
ATOM     49  O   UNL     1      19.183  -5.235  -1.936  1.00  0.00    -0.744 OA
ENDBRANCH  45  46
ENDBRANCH  24  38
BRANCH  25  50
ATOM     50  C   UNL     1      21.249  -4.198  12.939  1.00  0.00     0.058 A 
ATOM     51  C   UNL     1      21.739  -3.059  13.593  1.00  0.00     0.135 A 
ATOM     52  C   UNL     1      20.990  -5.338  13.716  1.00  0.00     0.135 A 
ATOM     53  F   UNL     1      22.005  -1.945  12.893  1.00  0.00    -0.206 F 
ATOM     54  C   UNL     1      21.973  -3.051  14.964  1.00  0.00     0.059 A 
ATOM     55  C   UNL     1      21.188  -5.346  15.092  1.00  0.00     0.059 A 
ATOM     56  F   UNL     1      20.502  -6.448  13.140  1.00  0.00    -0.206 F 
ATOM     57  C   UNL     1      21.690  -4.200  15.706  1.00  0.00     0.060 A 
BRANCH  57  58
ATOM     58  S   UNL     1      21.943  -4.163  17.493  1.00  0.00     0.124 S 
ATOM     59  O   UNL     1      23.397  -4.229  17.583  1.00  0.00    -0.237 OA
ATOM     60  O   UNL     1      21.337  -2.888  17.863  1.00  0.00    -0.237 OA
ATOM     61  O   UNL     1      21.226  -5.347  17.957  1.00  0.00    -0.744 OA
ENDBRANCH  57  58
ENDBRANCH  25  50
BRANCH  37  62
ATOM     62  C   UNL     1      25.266  -3.876   7.249  1.00  0.00     0.058 A 
ATOM     63  C   UNL     1      26.107  -4.974   7.485  1.00  0.00     0.135 A 
ATOM     64  C   UNL     1      25.852  -2.684   6.795  1.00  0.00     0.135 A 
ATOM     65  F   UNL     1      25.596  -6.133   7.930  1.00  0.00    -0.206 F 
ATOM     66  C   UNL     1      27.482  -4.887   7.300  1.00  0.00     0.059 A 
ATOM     67  C   UNL     1      27.222  -2.582   6.577  1.00  0.00     0.059 A 
ATOM     68  F   UNL     1      25.090  -1.606   6.548  1.00  0.00    -0.206 F 
ATOM     69  C   UNL     1      28.030  -3.687   6.844  1.00  0.00     0.060 A 
BRANCH  69  70
ATOM     70  S   UNL     1      29.813  -3.595   6.578  1.00  0.00     0.124 S 
ATOM     71  O   UNL     1      30.311  -3.526   7.948  1.00  0.00    -0.237 OA
ATOM     72  O   UNL     1      30.088  -4.839   5.866  1.00  0.00    -0.237 OA
ATOM     73  O   UNL     1      29.977  -2.378   5.788  1.00  0.00    -0.744 OA
ENDBRANCH  69  70
ENDBRANCH  37  62
ENDBRANCH  11  12
ENDBRANCH   4   6
ENDBRANCH   1   2
BRANCH   1  74
ATOM     74  C   UNL     1      10.578  -1.633   8.045  1.00  0.00     0.042 C 
BRANCH  74  75
ATOM     75  C   UNL     1       9.070  -1.557   7.855  1.00  0.00     0.117 C 
BRANCH  75  76
ATOM     76  N   UNL     1       8.448  -0.594   8.756  1.00  0.00    -0.356 N 
ATOM     77  C   UNL     1       7.713   0.532   8.594  1.00  0.00     0.226 C 
ATOM     78  H   UNL     1       8.597  -0.815   9.704  1.00  0.00     0.163 HD
ATOM     79  O   UNL     1       7.515   1.142   9.645  1.00  0.00    -0.274 OA
BRANCH  77  80
ATOM     80  C   UNL     1       7.227   1.066   7.232  1.00  0.00     0.059 C 
ATOM     81  C   UNL     1       6.525  -0.075   6.421  1.00  0.00     0.046 C 
ATOM     82  C   UNL     1       8.508   1.527   6.475  1.00  0.00     0.046 C 
ATOM     83  C   UNL     1       6.506   0.163   4.915  1.00  0.00     0.161 C 
ATOM     84  C   UNL     1       8.281   1.718   4.986  1.00  0.00     0.161 C 
ATOM     85  O   UNL     1       7.792   0.506   4.421  1.00  0.00    -0.381 OA
BRANCH  80  86
ATOM     86  C   UNL     1       6.165   2.272   7.357  1.00  0.00     0.033 C 
ATOM     87  C   UNL     1       6.673   3.682   7.750  1.00  0.00     0.007 C 
ATOM     88  C   UNL     1       4.845   1.967   8.128  1.00  0.00     0.118 C 
ATOM     89  C   UNL     1       6.715   3.984   9.242  1.00  0.00     0.001 C 
ATOM     90  C   UNL     1       4.847   2.281   9.623  1.00  0.00     0.032 C 
ATOM     91  C   UNL     1       5.404   3.662   9.949  1.00  0.00     0.003 C 
BRANCH  88  92
ATOM     92  O   UNL     1       3.801   2.779   7.556  1.00  0.00    -0.393 OA
ATOM     93  H   UNL     1       4.010   3.717   7.691  1.00  0.00     0.210 HD
ENDBRANCH  88  92
ENDBRANCH  80  86
ENDBRANCH  77  80
ENDBRANCH  75  76
ENDBRANCH  74  75
ENDBRANCH   1  74
TORSDOF 15
