REMARK SMILES [NH3+][C@H](C(=O)NCCCNC(=O)c1ccc(-c2c3nc(c(-c4c(F)cc(S(=O)(=O)[O-])cc4F)c4ccc([nH]4)c(-c4c(F)cc(S(=O)(=O)[O-])cc4F)c4nc(c(-c5c(F)cc(S(=O)(=O)[O-])cc5F)c5ccc2[nH]5)C=C4)C=C3)cc1)c1cccc(OCc2ccc(F)cc2)c1
REMARK SMILES IDX 6 1 5 2 3 3 4 4 2 6 1 7 78 11 79 12 92 13 80 14 82 15 81 16
REMARK SMILES IDX 83 17 84 18 85 19 86 20 91 21 87 22 90 23 88 24 89 25 7 26
REMARK SMILES IDX 8 27 9 28 10 29 11 31 12 32 13 33 77 34 14 35 76 36 15 37
REMARK SMILES IDX 16 38 17 39 70 40 18 41 75 42 69 43 71 44 19 45 74 46 68 47
REMARK SMILES IDX 67 48 20 50 54 51 33 52 53 53 34 54 37 55 52 56 72 57 35 58
REMARK SMILES IDX 36 59 51 61 73 62 38 63 21 64 22 65 31 66 23 67 24 68 30 69
REMARK SMILES IDX 32 70 25 71 26 72 27 73 28 74 29 75 55 76 56 77 65 78 57 79
REMARK SMILES IDX 58 80 64 81 66 82 59 83 60 84 61 85 62 86 63 87 39 88 40 89
REMARK SMILES IDX 49 90 41 91 42 92 48 93 50 94 43 95 44 96 45 97 46 98 47 99
REMARK H PARENT 5 5 1 8 1 9 1 10 9 30 71 49 37 60
REMARK Flexibility Score: inf
ROOT
ATOM      1  C   UNL     1       1.464  -2.562   0.437  1.00  0.00     0.118 C 
ENDROOT
BRANCH   1   2
ATOM      2  N   UNL     1       1.324  -1.299  -0.277  1.00  0.00    -0.351 N 
ATOM      3  C   UNL     1       0.900  -0.066   0.130  1.00  0.00     0.283 C 
ATOM      4  O   UNL     1       0.898   0.836  -0.718  1.00  0.00    -0.268 OA
ATOM      5  H   UNL     1       1.582  -1.342  -1.226  1.00  0.00     0.163 HD
BRANCH   3   6
ATOM      6  C   UNL     1       0.528   0.233   1.611  1.00  0.00     0.302 C 
BRANCH   6   7
ATOM      7  N   UNL     1       1.235   1.480   2.011  1.00  0.00    -0.343 N 
ATOM      8  H   UNL     1       1.009   1.702   2.981  1.00  0.00     0.345 HD
ATOM      9  H   UNL     1       0.937   2.248   1.409  1.00  0.00     0.345 HD
ATOM     10  H   UNL     1       2.241   1.345   1.918  1.00  0.00     0.345 HD
ENDBRANCH   6   7
BRANCH   6  11
ATOM     11  C   UNL     1      -0.978   0.343   1.806  1.00  0.00     0.023 A 
ATOM     12  C   UNL     1      -1.684   1.544   1.605  1.00  0.00     0.011 A 
ATOM     13  C   UNL     1      -1.713  -0.810   2.137  1.00  0.00     0.057 A 
ATOM     14  C   UNL     1      -3.070   1.603   1.766  1.00  0.00     0.004 A 
ATOM     15  C   UNL     1      -3.108  -0.762   2.227  1.00  0.00     0.120 A 
ATOM     16  C   UNL     1      -3.778   0.452   2.088  1.00  0.00     0.046 A 
BRANCH  15  17
ATOM     17  O   UNL     1      -3.935  -1.845   2.324  1.00  0.00    -0.489 OA
BRANCH  17  18
ATOM     18  C   UNL     1      -3.480  -3.086   1.780  1.00  0.00     0.265 C 
BRANCH  18  19
ATOM     19  C   UNL     1      -3.294  -3.178   0.272  1.00  0.00    -0.011 A 
ATOM     20  C   UNL     1      -3.178  -4.458  -0.285  1.00  0.00     0.010 A 
ATOM     21  C   UNL     1      -3.153  -2.072  -0.588  1.00  0.00     0.010 A 
ATOM     22  C   UNL     1      -2.912  -4.615  -1.642  1.00  0.00     0.039 A 
ATOM     23  C   UNL     1      -2.841  -2.232  -1.939  1.00  0.00     0.039 A 
ATOM     24  C   UNL     1      -2.722  -3.507  -2.455  1.00  0.00     0.123 A 
ATOM     25  F   UNL     1      -2.377  -3.664  -3.739  1.00  0.00    -0.207 F 
ENDBRANCH  18  19
ENDBRANCH  17  18
ENDBRANCH  15  17
ENDBRANCH   6  11
ENDBRANCH   3   6
ENDBRANCH   1   2
BRANCH   1  26
ATOM     26  C   UNL     1       0.555  -3.655  -0.133  1.00  0.00     0.042 C 
BRANCH  26  27
ATOM     27  C   UNL     1       0.906  -4.118  -1.554  1.00  0.00     0.118 C 
BRANCH  27  28
ATOM     28  N   UNL     1       1.710  -5.332  -1.574  1.00  0.00    -0.352 N 
ATOM     29  C   UNL     1       1.408  -6.618  -1.965  1.00  0.00     0.251 C 
ATOM     30  H   UNL     1       2.633  -5.213  -1.251  1.00  0.00     0.163 HD
ATOM     31  O   UNL     1       2.238  -7.501  -1.750  1.00  0.00    -0.269 OA
BRANCH  29  32
ATOM     32  C   UNL     1       0.113  -6.987  -2.599  1.00  0.00     0.039 A 
ATOM     33  C   UNL     1      -0.521  -8.164  -2.178  1.00  0.00     0.014 A 
ATOM     34  C   UNL     1      -0.452  -6.260  -3.645  1.00  0.00     0.014 A 
ATOM     35  C   UNL     1      -1.746  -8.563  -2.740  1.00  0.00     0.010 A 
ATOM     36  C   UNL     1      -1.703  -6.634  -4.169  1.00  0.00     0.010 A 
ATOM     37  C   UNL     1      -2.385  -7.778  -3.712  1.00  0.00    -0.014 A 
BRANCH  37  38
ATOM     38  C   UNL     1      -3.754  -8.123  -4.230  1.00  0.00     0.031 A 
ATOM     39  C   UNL     1      -3.993  -8.312  -5.710  1.00  0.00     0.074 A 
ATOM     40  C   UNL     1      -4.817  -8.210  -3.397  1.00  0.00     0.049 A 
ATOM     41  N   UNL     1      -5.116  -8.539  -6.348  1.00  0.00    -0.248 NA
ATOM     42  C   UNL     1      -2.820  -8.208  -6.589  1.00  0.00     0.031 C 
ATOM     43  C   UNL     1      -4.782  -8.012  -1.947  1.00  0.00     0.029 A 
ATOM     44  N   UNL     1      -6.147  -8.470  -3.654  1.00  0.00    -0.354 N 
ATOM     45  C   UNL     1      -4.788  -8.580  -7.699  1.00  0.00     0.074 A 
ATOM     46  C   UNL     1      -3.371  -8.294  -7.790  1.00  0.00     0.031 C 
ATOM     47  C   UNL     1      -6.019  -8.161  -1.446  1.00  0.00     0.029 A 
ATOM     48  C   UNL     1      -6.953  -8.433  -2.537  1.00  0.00     0.049 A 
ATOM     49  H   UNL     1      -6.491  -8.665  -4.556  1.00  0.00     0.167 HD
ATOM     50  C   UNL     1      -5.574  -8.856  -8.769  1.00  0.00     0.037 A 
ATOM     51  C   UNL     1      -8.288  -8.585  -2.390  1.00  0.00     0.037 A 
ATOM     52  C   UNL     1      -6.978  -9.168  -8.697  1.00  0.00     0.049 A 
ATOM     53  C   UNL     1      -9.152  -8.884  -3.588  1.00  0.00     0.074 A 
ATOM     54  C   UNL     1      -7.830  -9.529  -9.727  1.00  0.00     0.029 A 
ATOM     55  N   UNL     1      -7.741  -9.147  -7.540  1.00  0.00    -0.354 N 
ATOM     56  N   UNL     1      -8.801  -9.003  -4.846  1.00  0.00    -0.248 NA
ATOM     57  C   UNL     1     -10.591  -9.079  -3.350  1.00  0.00     0.031 C 
ATOM     58  C   UNL     1      -9.119  -9.672  -9.204  1.00  0.00     0.029 A 
ATOM     59  C   UNL     1      -9.059  -9.461  -7.836  1.00  0.00     0.049 A 
ATOM     60  H   UNL     1      -7.398  -8.939  -6.641  1.00  0.00     0.167 HD
ATOM     61  C   UNL     1      -9.967  -9.312  -5.541  1.00  0.00     0.074 A 
ATOM     62  C   UNL     1     -11.035  -9.367  -4.567  1.00  0.00     0.031 C 
ATOM     63  C   UNL     1     -10.128  -9.533  -6.869  1.00  0.00     0.037 A 
BRANCH  50  64
ATOM     64  C   UNL     1      -4.923  -8.827 -10.127  1.00  0.00     0.058 A 
ATOM     65  C   UNL     1      -3.969  -9.785 -10.510  1.00  0.00     0.135 A 
ATOM     66  C   UNL     1      -5.259  -7.831 -11.059  1.00  0.00     0.135 A 
ATOM     67  F   UNL     1      -3.606 -10.756  -9.658  1.00  0.00    -0.206 F 
ATOM     68  C   UNL     1      -3.327  -9.720 -11.742  1.00  0.00     0.059 A 
ATOM     69  C   UNL     1      -4.655  -7.769 -12.312  1.00  0.00     0.059 A 
ATOM     70  F   UNL     1      -6.175  -6.899 -10.754  1.00  0.00    -0.206 F 
ATOM     71  C   UNL     1      -3.670  -8.701 -12.632  1.00  0.00     0.060 A 
BRANCH  71  72
ATOM     72  S   UNL     1      -2.793  -8.606 -14.206  1.00  0.00     0.124 S 
ATOM     73  O   UNL     1      -1.491  -8.101 -13.782  1.00  0.00    -0.237 OA
ATOM     74  O   UNL     1      -2.819  -9.988 -14.665  1.00  0.00    -0.237 OA
ATOM     75  O   UNL     1      -3.602  -7.672 -14.989  1.00  0.00    -0.744 OA
ENDBRANCH  71  72
ENDBRANCH  50  64
BRANCH  51  76
ATOM     76  C   UNL     1      -8.898  -8.462  -1.036  1.00  0.00     0.058 A 
ATOM     77  C   UNL     1      -9.401  -9.582  -0.357  1.00  0.00     0.135 A 
ATOM     78  C   UNL     1      -8.969  -7.220  -0.383  1.00  0.00     0.135 A 
ATOM     79  F   UNL     1      -9.373 -10.789  -0.943  1.00  0.00    -0.206 F 
ATOM     80  C   UNL     1      -9.950  -9.479   0.918  1.00  0.00     0.059 A 
ATOM     81  C   UNL     1      -9.490  -7.095   0.901  1.00  0.00     0.059 A 
ATOM     82  F   UNL     1      -8.495  -6.118  -0.984  1.00  0.00    -0.206 F 
ATOM     83  C   UNL     1      -9.980  -8.231   1.543  1.00  0.00     0.060 A 
BRANCH  83  84
ATOM     84  S   UNL     1     -10.614  -8.124   3.232  1.00  0.00     0.124 S 
ATOM     85  O   UNL     1     -12.044  -8.317   3.025  1.00  0.00    -0.237 OA
ATOM     86  O   UNL     1      -9.909  -9.219   3.891  1.00  0.00    -0.237 OA
ATOM     87  O   UNL     1     -10.211  -6.786   3.657  1.00  0.00    -0.744 OA
ENDBRANCH  83  84
ENDBRANCH  51  76
BRANCH  63  88
ATOM     88  C   UNL     1     -11.498  -9.902  -7.375  1.00  0.00     0.058 A 
ATOM     89  C   UNL     1     -12.530  -8.957  -7.480  1.00  0.00     0.135 A 
ATOM     90  C   UNL     1     -11.747 -11.196  -7.864  1.00  0.00     0.135 A 
ATOM     91  F   UNL     1     -12.353  -7.708  -7.020  1.00  0.00    -0.206 F 
ATOM     92  C   UNL     1     -13.758  -9.280  -8.055  1.00  0.00     0.059 A 
ATOM     93  C   UNL     1     -12.956 -11.534  -8.465  1.00  0.00     0.059 A 
ATOM     94  F   UNL     1     -10.793 -12.139  -7.794  1.00  0.00    -0.206 F 
ATOM     95  C   UNL     1     -13.957 -10.568  -8.556  1.00  0.00     0.060 A 
BRANCH  95  96
ATOM     96  S   UNL     1     -15.522 -10.949  -9.374  1.00  0.00     0.124 S 
ATOM     97  O   UNL     1     -16.445 -10.986  -8.244  1.00  0.00    -0.237 OA
ATOM     98  O   UNL     1     -15.681  -9.819 -10.285  1.00  0.00    -0.237 OA
ATOM     99  O   UNL     1     -15.267 -12.234 -10.018  1.00  0.00    -0.744 OA
ENDBRANCH  95  96
ENDBRANCH  63  88
ENDBRANCH  37  38
ENDBRANCH  29  32
ENDBRANCH  27  28
ENDBRANCH  26  27
ENDBRANCH   1  26
TORSDOF 18
