REMARK SMILES [NH3+]CCOCC(=O)N[C@H](C(=O)NCCCNC(=O)c1ccc(-c2c3nc(c(-c4c(F)cc(S(=O)(=O)[O-])cc4F)c4ccc([nH]4)c(-c4c(F)cc(S(=O)(=O)[O-])cc4F)c4nc(c(-c5c(F)cc(S(=O)(=O)[O-])cc5F)c5ccc2[nH]5)C=C4)C=C3)cc1)C1CCCCC1
REMARK SMILES IDX 10 1 11 2 12 3 9 5 8 6 6 7 7 8 5 10 4 11 3 12 2 13 1 14
REMARK SMILES IDX 85 18 86 19 90 20 87 21 89 22 88 23 13 24 14 25 15 26 16 27
REMARK SMILES IDX 17 28 18 30 19 31 20 32 84 33 21 34 83 35 22 36 23 37 24 38
REMARK SMILES IDX 77 39 25 40 82 41 76 42 78 43 26 44 81 45 75 46 74 47 27 49
REMARK SMILES IDX 61 50 40 51 60 52 41 53 44 54 59 55 79 56 42 57 43 58 58 60
REMARK SMILES IDX 80 61 45 62 28 63 29 64 38 65 30 66 31 67 37 68 39 69 32 70
REMARK SMILES IDX 33 71 34 72 35 73 36 74 62 75 63 76 72 77 64 78 65 79 71 80
REMARK SMILES IDX 73 81 66 82 67 83 68 84 69 85 70 86 46 87 47 88 56 89 48 90
REMARK SMILES IDX 49 91 55 92 57 93 50 94 51 95 52 96 53 97 54 98
REMARK H PARENT 12 4 8 9 1 15 1 16 1 17 16 29 78 48 44 59
REMARK Flexibility Score: inf
ROOT
ATOM      1  C   UNL     1       3.023   0.511  -3.523  1.00  0.00     0.242 C 
ATOM      2  O   UNL     1       3.780  -0.459  -3.466  1.00  0.00    -0.273 OA
ATOM      3  N   UNL     1       2.650   1.075  -2.333  1.00  0.00    -0.354 N 
ATOM      4  H   UNL     1       3.223   0.833  -1.570  1.00  0.00     0.163 HD
ENDROOT
BRANCH   1   5
ATOM      5  C   UNL     1       2.432   1.032  -4.860  1.00  0.00     0.174 C 
BRANCH   5   6
ATOM      6  N   UNL     1       2.562   2.501  -4.984  1.00  0.00    -0.342 N 
ATOM      7  C   UNL     1       3.556   3.421  -5.039  1.00  0.00     0.246 C 
ATOM      8  O   UNL     1       3.196   4.589  -4.827  1.00  0.00    -0.272 OA
ATOM      9  H   UNL     1       1.679   2.930  -5.044  1.00  0.00     0.164 HD
BRANCH   7  10
ATOM     10  C   UNL     1       5.020   3.145  -5.414  1.00  0.00     0.260 C 
BRANCH  10  11
ATOM     11  O   UNL     1       5.980   2.766  -4.447  1.00  0.00    -0.366 OA
BRANCH  11  12
ATOM     12  C   UNL     1       6.257   1.369  -4.402  1.00  0.00     0.222 C 
BRANCH  12  13
ATOM     13  C   UNL     1       7.326   0.864  -5.397  1.00  0.00     0.287 C 
BRANCH  13  14
ATOM     14  N   UNL     1       7.655   1.756  -6.508  1.00  0.00    -0.356 N 
ATOM     15  H   UNL     1       8.367   1.321  -7.094  1.00  0.00     0.344 HD
ATOM     16  H   UNL     1       8.010   2.639  -6.141  1.00  0.00     0.344 HD
ATOM     17  H   UNL     1       6.817   1.931  -7.063  1.00  0.00     0.344 HD
ENDBRANCH  13  14
ENDBRANCH  12  13
ENDBRANCH  11  12
ENDBRANCH  10  11
ENDBRANCH   7  10
ENDBRANCH   5   6
BRANCH   5  18
ATOM     18  C   UNL     1       2.594   0.165  -6.154  1.00  0.00     0.021 C 
ATOM     19  C   UNL     1       4.003   0.003  -6.733  1.00  0.00     0.006 C 
ATOM     20  C   UNL     1       1.982  -1.244  -5.942  1.00  0.00     0.006 C 
ATOM     21  C   UNL     1       4.044  -0.851  -7.998  1.00  0.00     0.000 C 
ATOM     22  C   UNL     1       2.066  -2.139  -7.182  1.00  0.00     0.000 C 
ATOM     23  C   UNL     1       3.484  -2.236  -7.731  1.00  0.00     0.000 C 
ENDBRANCH   5  18
ENDBRANCH   1   5
BRANCH   3  24
ATOM     24  C   UNL     1       1.550   1.973  -2.001  1.00  0.00     0.117 C 
BRANCH  24  25
ATOM     25  C   UNL     1       0.396   1.233  -1.326  1.00  0.00     0.042 C 
BRANCH  25  26
ATOM     26  C   UNL     1       0.754   0.558  -0.004  1.00  0.00     0.118 C 
BRANCH  26  27
ATOM     27  N   UNL     1       1.097   1.504   1.049  1.00  0.00    -0.352 N 
ATOM     28  C   UNL     1       0.532   1.695   2.288  1.00  0.00     0.251 C 
ATOM     29  H   UNL     1       1.852   2.101   0.841  1.00  0.00     0.163 HD
ATOM     30  O   UNL     1       0.887   2.658   2.967  1.00  0.00    -0.269 OA
BRANCH  28  31
ATOM     31  C   UNL     1      -0.513   0.779   2.800  1.00  0.00     0.039 A 
ATOM     32  C   UNL     1      -1.623   1.323   3.455  1.00  0.00     0.014 A 
ATOM     33  C   UNL     1      -0.401  -0.607   2.661  1.00  0.00     0.014 A 
ATOM     34  C   UNL     1      -2.650   0.485   3.899  1.00  0.00     0.010 A 
ATOM     35  C   UNL     1      -1.462  -1.432   3.033  1.00  0.00     0.010 A 
ATOM     36  C   UNL     1      -2.600  -0.897   3.655  1.00  0.00    -0.014 A 
BRANCH  36  37
ATOM     37  C   UNL     1      -3.732  -1.790   4.028  1.00  0.00     0.031 A 
ATOM     38  C   UNL     1      -3.530  -2.901   5.025  1.00  0.00     0.074 A 
ATOM     39  C   UNL     1      -4.926  -1.644   3.416  1.00  0.00     0.049 A 
ATOM     40  N   UNL     1      -4.374  -3.820   5.419  1.00  0.00    -0.248 NA
ATOM     41  C   UNL     1      -2.197  -3.012   5.640  1.00  0.00     0.031 C 
ATOM     42  C   UNL     1      -5.236  -0.640   2.395  1.00  0.00     0.029 A 
ATOM     43  N   UNL     1      -6.098  -2.348   3.550  1.00  0.00    -0.354 N 
ATOM     44  C   UNL     1      -3.672  -4.628   6.308  1.00  0.00     0.074 A 
ATOM     45  C   UNL     1      -2.320  -4.117   6.362  1.00  0.00     0.031 C 
ATOM     46  C   UNL     1      -6.513  -0.782   2.008  1.00  0.00     0.029 A 
ATOM     47  C   UNL     1      -7.104  -1.912   2.718  1.00  0.00     0.049 A 
ATOM     48  H   UNL     1      -6.208  -3.095   4.182  1.00  0.00     0.167 HD
ATOM     49  C   UNL     1      -4.119  -5.687   7.024  1.00  0.00     0.037 A 
ATOM     50  C   UNL     1      -8.356  -2.377   2.534  1.00  0.00     0.037 A 
ATOM     51  C   UNL     1      -5.476  -6.170   6.990  1.00  0.00     0.049 A 
ATOM     52  C   UNL     1      -8.828  -3.553   3.348  1.00  0.00     0.074 A 
ATOM     53  C   UNL     1      -6.045  -7.182   7.743  1.00  0.00     0.029 A 
ATOM     54  N   UNL     1      -6.472  -5.684   6.157  1.00  0.00    -0.354 N 
ATOM     55  N   UNL     1      -8.174  -4.248   4.248  1.00  0.00    -0.248 NA
ATOM     56  C   UNL     1     -10.209  -4.005   3.129  1.00  0.00     0.031 C 
ATOM     57  C   UNL     1      -7.368  -7.350   7.322  1.00  0.00     0.029 A 
ATOM     58  C   UNL     1      -7.643  -6.398   6.353  1.00  0.00     0.049 A 
ATOM     59  H   UNL     1      -6.364  -4.941   5.519  1.00  0.00     0.167 HD
ATOM     60  C   UNL     1      -9.073  -5.197   4.723  1.00  0.00     0.074 A 
ATOM     61  C   UNL     1     -10.321  -4.977   4.022  1.00  0.00     0.031 C 
ATOM     62  C   UNL     1      -8.883  -6.162   5.657  1.00  0.00     0.037 A 
BRANCH  49  63
ATOM     63  C   UNL     1      -3.138  -6.407   7.911  1.00  0.00     0.058 A 
ATOM     64  C   UNL     1      -2.628  -5.825   9.082  1.00  0.00     0.135 A 
ATOM     65  C   UNL     1      -2.756  -7.727   7.619  1.00  0.00     0.135 A 
ATOM     66  F   UNL     1      -2.948  -4.561   9.404  1.00  0.00    -0.206 F 
ATOM     67  C   UNL     1      -1.760  -6.517   9.921  1.00  0.00     0.059 A 
ATOM     68  C   UNL     1      -1.912  -8.449   8.459  1.00  0.00     0.059 A 
ATOM     69  F   UNL     1      -3.212  -8.334   6.511  1.00  0.00    -0.206 F 
ATOM     70  C   UNL     1      -1.412  -7.831   9.603  1.00  0.00     0.060 A 
BRANCH  70  71
ATOM     71  S   UNL     1      -0.306  -8.722  10.717  1.00  0.00     0.124 S 
ATOM     72  O   UNL     1       0.963  -8.044  10.473  1.00  0.00    -0.237 OA
ATOM     73  O   UNL     1      -0.914  -8.477  12.021  1.00  0.00    -0.237 OA
ATOM     74  O   UNL     1      -0.381 -10.100  10.242  1.00  0.00    -0.744 OA
ENDBRANCH  70  71
ENDBRANCH  49  63
BRANCH  50  75
ATOM     75  C   UNL     1      -9.256  -1.734   1.536  1.00  0.00     0.058 A 
ATOM     76  C   UNL     1     -10.399  -1.028   1.939  1.00  0.00     0.135 A 
ATOM     77  C   UNL     1      -8.999  -1.826   0.159  1.00  0.00     0.135 A 
ATOM     78  F   UNL     1     -10.694  -0.916   3.243  1.00  0.00    -0.206 F 
ATOM     79  C   UNL     1     -11.271  -0.461   1.014  1.00  0.00     0.059 A 
ATOM     80  C   UNL     1      -9.838  -1.241  -0.783  1.00  0.00     0.059 A 
ATOM     81  F   UNL     1      -7.909  -2.474  -0.281  1.00  0.00    -0.206 F 
ATOM     82  C   UNL     1     -10.982  -0.574  -0.346  1.00  0.00     0.060 A 
BRANCH  82  83
ATOM     83  S   UNL     1     -12.105   0.186  -1.539  1.00  0.00     0.124 S 
ATOM     84  O   UNL     1     -13.255  -0.709  -1.470  1.00  0.00    -0.237 OA
ATOM     85  O   UNL     1     -12.297   1.518  -0.973  1.00  0.00    -0.237 OA
ATOM     86  O   UNL     1     -11.347   0.146  -2.786  1.00  0.00    -0.744 OA
ENDBRANCH  82  83
ENDBRANCH  50  75
BRANCH  62  87
ATOM     87  C   UNL     1     -10.061  -7.031   6.011  1.00  0.00     0.058 A 
ATOM     88  C   UNL     1     -10.563  -7.998   5.126  1.00  0.00     0.135 A 
ATOM     89  C   UNL     1     -10.660  -6.928   7.277  1.00  0.00     0.135 A 
ATOM     90  F   UNL     1     -10.032  -8.134   3.901  1.00  0.00    -0.206 F 
ATOM     91  C   UNL     1     -11.634  -8.815   5.474  1.00  0.00     0.059 A 
ATOM     92  C   UNL     1     -11.711  -7.757   7.659  1.00  0.00     0.059 A 
ATOM     93  F   UNL     1     -10.213  -6.028   8.167  1.00  0.00    -0.206 F 
ATOM     94  C   UNL     1     -12.199  -8.689   6.745  1.00  0.00     0.060 A 
BRANCH  94  95
ATOM     95  S   UNL     1     -13.566  -9.779   7.195  1.00  0.00     0.124 S 
ATOM     96  O   UNL     1     -14.657  -9.227   6.399  1.00  0.00    -0.237 OA
ATOM     97  O   UNL     1     -13.073 -11.087   6.775  1.00  0.00    -0.237 OA
ATOM     98  O   UNL     1     -13.687  -9.595   8.638  1.00  0.00    -0.744 OA
ENDBRANCH  94  95
ENDBRANCH  62  87
ENDBRANCH  36  37
ENDBRANCH  28  31
ENDBRANCH  26  27
ENDBRANCH  25  26
ENDBRANCH  24  25
ENDBRANCH   3  24
TORSDOF 20
