REMARK SMILES CC(C)CSc1cc2c(cc1Cl)C=C(C(=O)NCCCNC(=O)c1ccc(-c3c4nc(c(-c5c(F)cc(S(=O)(=O)[O-])cc5F)c5ccc([nH]5)c(-c5c(F)cc(S(=O)(=O)[O-])cc5F)c5nc(c(-c6c(F)cc(S(=O)(=O)[O-])cc6F)c6ccc3[nH]6)C=C5)C=C4)cc1)[C@H](C(F)(F)F)O2
REMARK SMILES IDX 19 1 18 2 17 3 15 4 16 5 14 7 6 8 7 9 11 10 8 11 10 12 12 13
REMARK SMILES IDX 9 14 95 15 13 16 90 17 5 18 4 19 2 20 1 21 3 22 91 23 92 24
REMARK SMILES IDX 93 25 94 26 20 27 21 28 22 29 23 31 24 32 25 33 89 34 26 35
REMARK SMILES IDX 88 36 27 37 28 38 29 39 82 40 30 41 87 42 81 43 83 44 31 45
REMARK SMILES IDX 86 46 80 47 79 48 32 50 66 51 45 52 65 53 46 54 49 55 64 56
REMARK SMILES IDX 84 57 47 58 48 59 63 61 85 62 50 63 33 64 34 65 43 66 35 67
REMARK SMILES IDX 36 68 42 69 44 70 37 71 38 72 39 73 40 74 41 75 67 76 68 77
REMARK SMILES IDX 77 78 69 79 70 80 76 81 78 82 71 83 72 84 73 85 74 86 75 87
REMARK SMILES IDX 51 88 52 89 61 90 53 91 54 92 60 93 62 94 55 95 56 96 57 97
REMARK SMILES IDX 58 98 59 99
REMARK H PARENT 17 6 21 30 83 49 49 60
REMARK Flexibility Score: inf
ROOT
ATOM      1  C   UNL     1      -1.681   9.207   4.309  1.00  0.00     0.042 C 
ENDROOT
BRANCH   1   2
ATOM      2  C   UNL     1      -0.311   8.614   4.008  1.00  0.00     0.118 C 
BRANCH   2   3
ATOM      3  N   UNL     1       0.002   7.486   4.872  1.00  0.00    -0.352 N 
ATOM      4  C   UNL     1       0.033   6.138   4.780  1.00  0.00     0.251 C 
ATOM      5  O   UNL     1       0.454   5.561   5.789  1.00  0.00    -0.270 OA
ATOM      6  H   UNL     1       0.263   7.788   5.771  1.00  0.00     0.163 HD
BRANCH   4   7
ATOM      7  C   UNL     1      -0.390   5.333   3.599  1.00  0.00     0.067 C 
ATOM      8  C   UNL     1      -1.455   1.524   0.449  1.00  0.00     0.030 A 
ATOM      9  C   UNL     1      -1.342   2.920   0.314  1.00  0.00     0.063 A 
ATOM     10  C   UNL     1      -1.222   0.969   1.721  1.00  0.00     0.055 A 
ATOM     11  C   UNL     1      -0.970   3.717   1.393  1.00  0.00     0.129 A 
ATOM     12  C   UNL     1      -0.766   1.772   2.779  1.00  0.00     0.033 A 
ATOM     13  Cl  UNL     1      -1.524  -0.683   2.124  1.00  0.00    -0.083 Cl
ATOM     14  C   UNL     1      -0.633   3.148   2.615  1.00  0.00     0.019 A 
ATOM     15  O   UNL     1      -0.938   5.069   1.191  1.00  0.00    -0.475 OA
ATOM     16  C   UNL     1      -0.161   4.008   3.692  1.00  0.00     0.025 C 
ATOM     17  C   UNL     1      -1.124   5.867   2.399  1.00  0.00     0.314 C 
BRANCH   8  18
ATOM     18  S   UNL     1      -1.948   0.697  -1.062  1.00  0.00    -0.124 SA
BRANCH  18  19
ATOM     19  C   UNL     1      -0.975  -0.848  -1.142  1.00  0.00     0.078 C 
BRANCH  19  20
ATOM     20  C   UNL     1       0.545  -0.774  -1.380  1.00  0.00    -0.007 C 
ATOM     21  C   UNL     1       1.344   0.031  -0.357  1.00  0.00     0.008 C 
ATOM     22  C   UNL     1       1.089  -2.210  -1.405  1.00  0.00     0.008 C 
ENDBRANCH  19  20
ENDBRANCH  18  19
ENDBRANCH   8  18
BRANCH  17  23
ATOM     23  C   UNL     1      -2.619   6.122   2.674  1.00  0.00     0.429 C 
ATOM     24  F   UNL     1      -3.416   5.143   2.195  1.00  0.00    -0.167 F 
ATOM     25  F   UNL     1      -2.885   6.231   3.998  1.00  0.00    -0.167 F 
ATOM     26  F   UNL     1      -3.009   7.286   2.099  1.00  0.00    -0.167 F 
ENDBRANCH  17  23
ENDBRANCH   4   7
ENDBRANCH   2   3
ENDBRANCH   1   2
BRANCH   1  27
ATOM     27  C   UNL     1      -1.694  10.050   5.577  1.00  0.00     0.118 C 
BRANCH  27  28
ATOM     28  N   UNL     1      -0.965  11.303   5.410  1.00  0.00    -0.352 N 
ATOM     29  C   UNL     1      -1.428  12.597   5.329  1.00  0.00     0.251 C 
ATOM     30  H   UNL     1       0.012  11.208   5.346  1.00  0.00     0.163 HD
ATOM     31  O   UNL     1      -0.673  13.484   4.946  1.00  0.00    -0.269 OA
BRANCH  29  32
ATOM     32  C   UNL     1      -2.830  12.910   5.682  1.00  0.00     0.039 A 
ATOM     33  C   UNL     1      -3.439  12.297   6.776  1.00  0.00     0.014 A 
ATOM     34  C   UNL     1      -3.546  13.833   4.913  1.00  0.00     0.014 A 
ATOM     35  C   UNL     1      -4.804  12.448   6.980  1.00  0.00     0.010 A 
ATOM     36  C   UNL     1      -4.895  14.073   5.194  1.00  0.00     0.010 A 
ATOM     37  C   UNL     1      -5.551  13.342   6.197  1.00  0.00    -0.014 A 
BRANCH  37  38
ATOM     38  C   UNL     1      -7.008  13.492   6.453  1.00  0.00     0.031 A 
ATOM     39  C   UNL     1      -8.018  13.139   5.393  1.00  0.00     0.074 A 
ATOM     40  C   UNL     1      -7.421  13.886   7.674  1.00  0.00     0.049 A 
ATOM     41  N   UNL     1      -9.325  13.195   5.450  1.00  0.00    -0.248 NA
ATOM     42  C   UNL     1      -7.496  12.670   4.100  1.00  0.00     0.031 C 
ATOM     43  C   UNL     1      -6.537  14.236   8.789  1.00  0.00     0.029 A 
ATOM     44  N   UNL     1      -8.681  14.028   8.196  1.00  0.00    -0.354 N 
ATOM     45  C   UNL     1      -9.780  12.785   4.201  1.00  0.00     0.074 A 
ATOM     46  C   UNL     1      -8.608  12.523   3.394  1.00  0.00     0.031 C 
ATOM     47  C   UNL     1      -7.277  14.483   9.878  1.00  0.00     0.029 A 
ATOM     48  C   UNL     1      -8.689  14.389   9.523  1.00  0.00     0.049 A 
ATOM     49  H   UNL     1      -9.502  13.885   7.672  1.00  0.00     0.167 HD
ATOM     50  C   UNL     1     -11.056  12.627   3.773  1.00  0.00     0.037 A 
ATOM     51  C   UNL     1      -9.714  14.634  10.361  1.00  0.00     0.037 A 
ATOM     52  C   UNL     1     -12.216  12.878   4.590  1.00  0.00     0.049 A 
ATOM     53  C   UNL     1     -11.118  14.512   9.847  1.00  0.00     0.074 A 
ATOM     54  C   UNL     1     -13.552  12.742   4.254  1.00  0.00     0.029 A 
ATOM     55  N   UNL     1     -12.181  13.316   5.908  1.00  0.00    -0.354 N 
ATOM     56  N   UNL     1     -11.529  14.135   8.660  1.00  0.00    -0.248 NA
ATOM     57  C   UNL     1     -12.198  14.864  10.778  1.00  0.00     0.031 C 
ATOM     58  C   UNL     1     -14.323  13.143   5.349  1.00  0.00     0.029 A 
ATOM     59  C   UNL     1     -13.470  13.479   6.389  1.00  0.00     0.049 A 
ATOM     60  H   UNL     1     -11.360  13.485   6.424  1.00  0.00     0.167 HD
ATOM     61  C   UNL     1     -12.917  14.195   8.702  1.00  0.00     0.074 A 
ATOM     62  C   UNL     1     -13.274  14.626  10.039  1.00  0.00     0.031 C 
ATOM     63  C   UNL     1     -13.811  13.920   7.720  1.00  0.00     0.037 A 
BRANCH  50  64
ATOM     64  C   UNL     1     -11.264  12.178   2.350  1.00  0.00     0.058 A 
ATOM     65  C   UNL     1     -10.946  10.876   1.931  1.00  0.00     0.135 A 
ATOM     66  C   UNL     1     -11.807  13.056   1.397  1.00  0.00     0.135 A 
ATOM     67  F   UNL     1     -10.412   9.999   2.795  1.00  0.00    -0.206 F 
ATOM     68  C   UNL     1     -11.123  10.473   0.610  1.00  0.00     0.059 A 
ATOM     69  C   UNL     1     -12.020  12.664   0.077  1.00  0.00     0.059 A 
ATOM     70  F   UNL     1     -12.133  14.312   1.741  1.00  0.00    -0.206 F 
ATOM     71  C   UNL     1     -11.657  11.376  -0.310  1.00  0.00     0.060 A 
BRANCH  71  72
ATOM     72  S   UNL     1     -11.857  10.841  -2.023  1.00  0.00     0.124 S 
ATOM     73  O   UNL     1     -10.468  10.762  -2.467  1.00  0.00    -0.237 OA
ATOM     74  O   UNL     1     -12.548   9.565  -1.873  1.00  0.00    -0.237 OA
ATOM     75  O   UNL     1     -12.646  11.912  -2.625  1.00  0.00    -0.744 OA
ENDBRANCH  71  72
ENDBRANCH  50  64
BRANCH  51  76
ATOM     76  C   UNL     1      -9.428  15.009  11.771  1.00  0.00     0.058 A 
ATOM     77  C   UNL     1      -9.691  14.117  12.819  1.00  0.00     0.135 A 
ATOM     78  C   UNL     1      -8.816  16.233  12.089  1.00  0.00     0.135 A 
ATOM     79  F   UNL     1     -10.283  12.940  12.567  1.00  0.00    -0.206 F 
ATOM     80  C   UNL     1      -9.345  14.417  14.133  1.00  0.00     0.059 A 
ATOM     81  C   UNL     1      -8.437  16.544  13.390  1.00  0.00     0.059 A 
ATOM     82  F   UNL     1      -8.532  17.115  11.118  1.00  0.00    -0.206 F 
ATOM     83  C   UNL     1      -8.705  15.628  14.406  1.00  0.00     0.060 A 
BRANCH  83  84
ATOM     84  S   UNL     1      -8.174  15.960  16.100  1.00  0.00     0.124 S 
ATOM     85  O   UNL     1      -9.451  16.149  16.778  1.00  0.00    -0.237 OA
ATOM     86  O   UNL     1      -7.447  14.740  16.434  1.00  0.00    -0.237 OA
ATOM     87  O   UNL     1      -7.348  17.157  15.965  1.00  0.00    -0.744 OA
ENDBRANCH  83  84
ENDBRANCH  51  76
BRANCH  63  88
ATOM     88  C   UNL     1     -15.270  14.072   8.052  1.00  0.00     0.058 A 
ATOM     89  C   UNL     1     -15.861  15.336   8.194  1.00  0.00     0.135 A 
ATOM     90  C   UNL     1     -16.098  12.943   8.163  1.00  0.00     0.135 A 
ATOM     91  F   UNL     1     -15.112  16.447   8.107  1.00  0.00    -0.206 F 
ATOM     92  C   UNL     1     -17.222  15.477   8.448  1.00  0.00     0.059 A 
ATOM     93  C   UNL     1     -17.465  13.061   8.389  1.00  0.00     0.059 A 
ATOM     94  F   UNL     1     -15.583  11.711   8.028  1.00  0.00    -0.206 F 
ATOM     95  C   UNL     1     -18.017  14.333   8.537  1.00  0.00     0.060 A 
BRANCH  95  96
ATOM     96  S   UNL     1     -19.788  14.535   8.820  1.00  0.00     0.124 S 
ATOM     97  O   UNL     1     -19.814  15.000  10.203  1.00  0.00    -0.237 OA
ATOM     98  O   UNL     1     -20.152  15.526   7.812  1.00  0.00    -0.237 OA
ATOM     99  O   UNL     1     -20.325  13.196   8.598  1.00  0.00    -0.744 OA
ENDBRANCH  95  96
ENDBRANCH  63  88
ENDBRANCH  37  38
ENDBRANCH  29  32
ENDBRANCH  27  28
ENDBRANCH   1  27
TORSDOF 17
