REMARK SMILES CCC[C@H](c1ccccc1)[C@@](C)(O)C(=O)NCCCNC(=O)c1ccc(-c2c3nc(c(-c4c(F)cc(S(=O)(=O)[O-])cc4F)c4ccc([nH]4)c(-c4c(F)cc(S(=O)(=O)[O-])cc4F)c4nc(c(-c5c(F)cc(S(=O)(=O)[O-])cc5F)c5ccc2[nH]5)C=C4)C=C3)cc1
REMARK SMILES IDX 18 1 17 2 16 3 14 4 15 5 11 7 12 8 4 9 3 10 2 11 1 12 5 13
REMARK SMILES IDX 6 14 10 15 7 16 9 17 8 18 13 19 19 21 20 22 21 23 22 25
REMARK SMILES IDX 23 26 24 27 88 28 25 29 87 30 26 31 27 32 28 33 81 34 29 35
REMARK SMILES IDX 86 36 80 37 82 38 30 39 85 40 79 41 78 42 31 44 65 45 44 46
REMARK SMILES IDX 64 47 45 48 48 49 63 50 83 51 46 52 47 53 62 55 84 56 49 57
REMARK SMILES IDX 32 58 33 59 42 60 34 61 35 62 41 63 43 64 36 65 37 66 38 67
REMARK SMILES IDX 39 68 40 69 66 70 67 71 76 72 68 73 69 74 75 75 77 76 70 77
REMARK SMILES IDX 71 78 72 79 73 80 74 81 50 82 51 83 60 84 52 85 53 86 59 87
REMARK SMILES IDX 61 88 54 89 55 90 56 91 57 92 58 93
REMARK H PARENT 16 6 13 20 20 24 82 43 48 54
REMARK Flexibility Score: inf
ROOT
ATOM      1  C   UNL     1       1.163  -5.637   6.388  1.00  0.00     0.042 C 
ENDROOT
BRANCH   1   2
ATOM      2  C   UNL     1       2.139  -5.162   5.316  1.00  0.00     0.117 C 
BRANCH   2   3
ATOM      3  N   UNL     1       1.620  -5.412   3.986  1.00  0.00    -0.354 N 
ATOM      4  C   UNL     1       0.973  -4.566   3.138  1.00  0.00     0.252 C 
ATOM      5  O   UNL     1       0.156  -5.109   2.393  1.00  0.00    -0.272 OA
ATOM      6  H   UNL     1       1.755  -6.326   3.647  1.00  0.00     0.163 HD
BRANCH   4   7
ATOM      7  C   UNL     1       1.279  -3.047   3.119  1.00  0.00     0.147 C 
ATOM      8  C   UNL     1       2.801  -2.799   3.057  1.00  0.00     0.053 C 
BRANCH   7   9
ATOM      9  C   UNL     1       0.584  -2.268   1.929  1.00  0.00     0.060 C 
BRANCH   9  10
ATOM     10  C   UNL     1      -0.967  -2.145   2.034  1.00  0.00     0.011 C 
BRANCH  10  11
ATOM     11  C   UNL     1      -1.864  -2.600   0.876  1.00  0.00    -0.003 C 
ATOM     12  C   UNL     1      -2.120  -4.095   0.817  1.00  0.00     0.004 C 
ENDBRANCH  10  11
ENDBRANCH   9  10
BRANCH   9  13
ATOM     13  C   UNL     1       1.153  -2.457   0.522  1.00  0.00    -0.042 A 
ATOM     14  C   UNL     1       1.409  -3.713  -0.046  1.00  0.00     0.004 A 
ATOM     15  C   UNL     1       1.456  -1.324  -0.255  1.00  0.00     0.004 A 
ATOM     16  C   UNL     1       1.955  -3.840  -1.325  1.00  0.00     0.000 A 
ATOM     17  C   UNL     1       2.007  -1.448  -1.534  1.00  0.00     0.000 A 
ATOM     18  C   UNL     1       2.258  -2.707  -2.069  1.00  0.00     0.000 A 
ENDBRANCH   9  13
ENDBRANCH   7   9
BRANCH   7  19
ATOM     19  O   UNL     1       0.811  -2.503   4.370  1.00  0.00    -0.380 OA
ATOM     20  H   UNL     1       0.986  -1.550   4.394  1.00  0.00     0.212 HD
ENDBRANCH   7  19
ENDBRANCH   4   7
ENDBRANCH   2   3
ENDBRANCH   1   2
BRANCH   1  21
ATOM     21  C   UNL     1       0.647  -7.059   6.188  1.00  0.00     0.118 C 
BRANCH  21  22
ATOM     22  N   UNL     1       1.716  -8.039   6.038  1.00  0.00    -0.352 N 
ATOM     23  C   UNL     1       2.049  -9.111   6.826  1.00  0.00     0.251 C 
ATOM     24  H   UNL     1       2.288  -7.912   5.247  1.00  0.00     0.163 HD
ATOM     25  O   UNL     1       3.098  -9.716   6.617  1.00  0.00    -0.269 OA
BRANCH  23  26
ATOM     26  C   UNL     1       1.167  -9.514   7.940  1.00  0.00     0.039 A 
ATOM     27  C   UNL     1       1.739  -9.814   9.177  1.00  0.00     0.014 A 
ATOM     28  C   UNL     1      -0.217  -9.588   7.769  1.00  0.00     0.014 A 
ATOM     29  C   UNL     1       0.916 -10.118  10.263  1.00  0.00     0.010 A 
ATOM     30  C   UNL     1      -1.039  -9.802   8.871  1.00  0.00     0.010 A 
ATOM     31  C   UNL     1      -0.482 -10.073  10.129  1.00  0.00    -0.014 A 
BRANCH  31  32
ATOM     32  C   UNL     1      -1.374 -10.304  11.296  1.00  0.00     0.031 A 
ATOM     33  C   UNL     1      -2.342 -11.457  11.290  1.00  0.00     0.074 A 
ATOM     34  C   UNL     1      -1.359  -9.434  12.326  1.00  0.00     0.049 A 
ATOM     35  N   UNL     1      -3.241 -11.781  12.183  1.00  0.00    -0.248 NA
ATOM     36  C   UNL     1      -2.319 -12.347  10.117  1.00  0.00     0.031 C 
ATOM     37  C   UNL     1      -0.512  -8.241  12.416  1.00  0.00     0.029 A 
ATOM     38  N   UNL     1      -2.088  -9.406  13.489  1.00  0.00    -0.354 N 
ATOM     39  C   UNL     1      -3.905 -12.890  11.669  1.00  0.00     0.074 A 
ATOM     40  C   UNL     1      -3.334 -13.160  10.369  1.00  0.00     0.031 C 
ATOM     41  C   UNL     1      -0.758  -7.609  13.575  1.00  0.00     0.029 A 
ATOM     42  C   UNL     1      -1.808  -8.325  14.294  1.00  0.00     0.049 A 
ATOM     43  H   UNL     1      -2.750 -10.095  13.726  1.00  0.00     0.167 HD
ATOM     44  C   UNL     1      -4.888 -13.625  12.239  1.00  0.00     0.037 A 
ATOM     45  C   UNL     1      -2.346  -7.944  15.469  1.00  0.00     0.037 A 
ATOM     46  C   UNL     1      -5.418 -13.376  13.555  1.00  0.00     0.049 A 
ATOM     47  C   UNL     1      -3.417  -8.799  16.093  1.00  0.00     0.074 A 
ATOM     48  C   UNL     1      -6.346 -14.123  14.260  1.00  0.00     0.029 A 
ATOM     49  N   UNL     1      -5.077 -12.299  14.358  1.00  0.00    -0.354 N 
ATOM     50  N   UNL     1      -3.962  -9.902  15.635  1.00  0.00    -0.248 NA
ATOM     51  C   UNL     1      -3.941  -8.367  17.396  1.00  0.00     0.031 C 
ATOM     52  C   UNL     1      -6.609 -13.466  15.465  1.00  0.00     0.029 A 
ATOM     53  C   UNL     1      -5.799 -12.344  15.539  1.00  0.00     0.049 A 
ATOM     54  H   UNL     1      -4.419 -11.605  14.124  1.00  0.00     0.167 HD
ATOM     55  C   UNL     1      -4.869 -10.310  16.608  1.00  0.00     0.074 A 
ATOM     56  C   UNL     1      -4.786  -9.346  17.685  1.00  0.00     0.031 C 
ATOM     57  C   UNL     1      -5.695 -11.385  16.610  1.00  0.00     0.037 A 
BRANCH  44  58
ATOM     58  C   UNL     1      -5.462 -14.775  11.459  1.00  0.00     0.058 A 
ATOM     59  C   UNL     1      -4.734 -15.954  11.231  1.00  0.00     0.135 A 
ATOM     60  C   UNL     1      -6.791 -14.729  11.007  1.00  0.00     0.135 A 
ATOM     61  F   UNL     1      -3.454 -16.047  11.625  1.00  0.00    -0.206 F 
ATOM     62  C   UNL     1      -5.301 -17.043  10.577  1.00  0.00     0.059 A 
ATOM     63  C   UNL     1      -7.388 -15.817  10.375  1.00  0.00     0.059 A 
ATOM     64  F   UNL     1      -7.530 -13.625  11.194  1.00  0.00    -0.206 F 
ATOM     65  C   UNL     1      -6.632 -16.968  10.161  1.00  0.00     0.060 A 
BRANCH  65  66
ATOM     66  S   UNL     1      -7.367 -18.411   9.362  1.00  0.00     0.124 S 
ATOM     67  O   UNL     1      -6.689 -18.406   8.070  1.00  0.00    -0.237 OA
ATOM     68  O   UNL     1      -6.994 -19.491  10.269  1.00  0.00    -0.237 OA
ATOM     69  O   UNL     1      -8.791 -18.091   9.324  1.00  0.00    -0.744 OA
ENDBRANCH  65  66
ENDBRANCH  44  58
BRANCH  45  70
ATOM     70  C   UNL     1      -1.889  -6.693  16.136  1.00  0.00     0.058 A 
ATOM     71  C   UNL     1      -1.190  -6.729  17.352  1.00  0.00     0.135 A 
ATOM     72  C   UNL     1      -2.165  -5.433  15.582  1.00  0.00     0.135 A 
ATOM     73  F   UNL     1      -0.903  -7.908  17.926  1.00  0.00    -0.206 F 
ATOM     74  C   UNL     1      -0.815  -5.564  18.015  1.00  0.00     0.059 A 
ATOM     75  C   UNL     1      -1.772  -4.255  16.209  1.00  0.00     0.059 A 
ATOM     76  F   UNL     1      -2.812  -5.340  14.410  1.00  0.00    -0.206 F 
ATOM     77  C   UNL     1      -1.115  -4.330  17.436  1.00  0.00     0.060 A 
BRANCH  77  78
ATOM     78  S   UNL     1      -0.616  -2.823  18.297  1.00  0.00     0.124 S 
ATOM     79  O   UNL     1      -1.570  -2.786  19.399  1.00  0.00    -0.237 OA
ATOM     80  O   UNL     1       0.767  -3.119  18.658  1.00  0.00    -0.237 OA
ATOM     81  O   UNL     1      -0.783  -1.787  17.282  1.00  0.00    -0.744 OA
ENDBRANCH  77  78
ENDBRANCH  45  70
BRANCH  57  82
ATOM     82  C   UNL     1      -6.544 -11.607  17.832  1.00  0.00     0.058 A 
ATOM     83  C   UNL     1      -7.634 -10.779  18.139  1.00  0.00     0.135 A 
ATOM     84  C   UNL     1      -6.291 -12.698  18.680  1.00  0.00     0.135 A 
ATOM     85  F   UNL     1      -7.918  -9.719  17.364  1.00  0.00    -0.206 F 
ATOM     86  C   UNL     1      -8.425 -11.005  19.260  1.00  0.00     0.059 A 
ATOM     87  C   UNL     1      -7.088 -12.963  19.788  1.00  0.00     0.059 A 
ATOM     88  F   UNL     1      -5.268 -13.530  18.425  1.00  0.00    -0.206 F 
ATOM     89  C   UNL     1      -8.145 -12.102  20.078  1.00  0.00     0.060 A 
BRANCH  89  90
ATOM     90  S   UNL     1      -9.195 -12.400  21.515  1.00  0.00     0.124 S 
ATOM     91  O   UNL     1      -8.768 -11.336  22.418  1.00  0.00    -0.237 OA
ATOM     92  O   UNL     1     -10.536 -12.258  20.957  1.00  0.00    -0.237 OA
ATOM     93  O   UNL     1      -8.834 -13.754  21.926  1.00  0.00    -0.744 OA
ENDBRANCH  89  90
ENDBRANCH  57  82
ENDBRANCH  31  32
ENDBRANCH  23  26
ENDBRANCH  21  22
ENDBRANCH   1  21
TORSDOF 18
