REMARK SMILES C[C@@H](C(=O)NCCCNC(=O)c1ccc(-c2c3nc(c(-c4c(F)cc(S(=O)(=O)[O-])cc4F)c4ccc([nH]4)c(-c4c(F)cc(S(=O)(=O)[O-])cc4F)c4nc(c(-c5c(F)cc(S(=O)(=O)[O-])cc5F)c5ccc2[nH]5)C=C4)C=C3)cc1)c1ccc(C[C@H]2CCCC2=O)cc1[N+](=O)[O-]
REMARK SMILES IDX 7 1 6 2 5 3 3 4 4 5 2 7 1 8 78 9 79 10 90 11 80 12 89 13
REMARK SMILES IDX 81 14 91 15 92 16 93 17 82 18 83 19 84 20 87 21 85 22 86 23
REMARK SMILES IDX 88 24 8 25 9 26 10 27 11 29 12 30 13 31 77 32 14 33 76 34
REMARK SMILES IDX 15 35 16 36 17 37 70 38 18 39 75 40 69 41 71 42 19 43 74 44
REMARK SMILES IDX 68 45 67 46 20 48 54 49 33 50 53 51 34 52 37 53 52 54 72 55
REMARK SMILES IDX 35 56 36 57 51 59 73 60 38 61 21 62 22 63 31 64 23 65 24 66
REMARK SMILES IDX 30 67 32 68 25 69 26 70 27 71 28 72 29 73 55 74 56 75 65 76
REMARK SMILES IDX 57 77 58 78 64 79 66 80 59 81 60 82 61 83 62 84 63 85 39 86
REMARK SMILES IDX 40 87 49 88 41 89 42 90 48 91 50 92 43 93 44 94 45 95 46 96
REMARK SMILES IDX 47 97
REMARK H PARENT 5 6 9 28 71 47 37 58
REMARK Flexibility Score: inf
ROOT
ATOM      1  C   UNL     1       4.354  -1.226  -0.057  1.00  0.00     0.042 C 
ENDROOT
BRANCH   1   2
ATOM      2  C   UNL     1       3.386  -1.696  -1.141  1.00  0.00     0.117 C 
BRANCH   2   3
ATOM      3  N   UNL     1       2.337  -2.517  -0.563  1.00  0.00    -0.356 N 
ATOM      4  C   UNL     1       1.066  -2.163  -0.221  1.00  0.00     0.227 C 
ATOM      5  O   UNL     1       0.466  -2.862   0.596  1.00  0.00    -0.274 OA
ATOM      6  H   UNL     1       2.577  -3.457  -0.395  1.00  0.00     0.163 HD
BRANCH   4   7
ATOM      7  C   UNL     1       0.431  -0.929  -0.868  1.00  0.00     0.112 C 
ATOM      8  C   UNL     1       0.843   0.254   0.032  1.00  0.00     0.023 C 
BRANCH   7   9
ATOM      9  C   UNL     1      -1.093  -1.013  -1.059  1.00  0.00     0.042 A 
ATOM     10  C   UNL     1      -1.824   0.189  -1.124  1.00  0.00     0.012 A 
ATOM     11  C   UNL     1      -1.849  -2.200  -1.193  1.00  0.00     0.273 A 
ATOM     12  C   UNL     1      -3.219   0.206  -1.134  1.00  0.00     0.004 A 
ATOM     13  C   UNL     1      -3.257  -2.187  -1.126  1.00  0.00     0.089 A 
ATOM     14  C   UNL     1      -3.950  -0.978  -1.036  1.00  0.00    -0.040 A 
BRANCH  11  15
ATOM     15  N   UNL     1      -1.239  -3.485  -1.554  1.00  0.00     0.063 N 
ATOM     16  O   UNL     1      -1.729  -4.515  -1.069  1.00  0.00    -0.258 OA
ATOM     17  O   UNL     1      -0.336  -3.457  -2.405  1.00  0.00    -0.258 OA
ENDBRANCH  11  15
BRANCH  14  18
ATOM     18  C   UNL     1      -5.449  -0.947  -0.870  1.00  0.00     0.047 C 
BRANCH  18  19
ATOM     19  C   UNL     1      -5.974  -0.406   0.470  1.00  0.00     0.060 C 
ATOM     20  C   UNL     1      -5.447  -1.088   1.737  1.00  0.00     0.012 C 
ATOM     21  C   UNL     1      -5.604   1.039   0.712  1.00  0.00     0.136 C 
ATOM     22  C   UNL     1      -4.329  -0.203   2.274  1.00  0.00     0.009 C 
ATOM     23  C   UNL     1      -4.723   1.224   1.920  1.00  0.00     0.076 C 
ATOM     24  O   UNL     1      -5.982   1.965   0.003  1.00  0.00    -0.299 OA
ENDBRANCH  18  19
ENDBRANCH  14  18
ENDBRANCH   7   9
ENDBRANCH   4   7
ENDBRANCH   2   3
ENDBRANCH   1   2
BRANCH   1  25
ATOM     25  C   UNL     1       5.119  -2.363   0.610  1.00  0.00     0.118 C 
BRANCH  25  26
ATOM     26  N   UNL     1       6.038  -3.015  -0.307  1.00  0.00    -0.352 N 
ATOM     27  C   UNL     1       7.390  -3.215  -0.185  1.00  0.00     0.251 C 
ATOM     28  H   UNL     1       5.633  -3.364  -1.134  1.00  0.00     0.163 HD
ATOM     29  O   UNL     1       8.036  -3.588  -1.159  1.00  0.00    -0.269 OA
BRANCH  27  30
ATOM     30  C   UNL     1       8.064  -2.963   1.108  1.00  0.00     0.039 A 
ATOM     31  C   UNL     1       9.308  -2.328   1.105  1.00  0.00     0.014 A 
ATOM     32  C   UNL     1       7.487  -3.369   2.315  1.00  0.00     0.014 A 
ATOM     33  C   UNL     1       9.950  -2.060   2.315  1.00  0.00     0.010 A 
ATOM     34  C   UNL     1       8.089  -3.028   3.523  1.00  0.00     0.010 A 
ATOM     35  C   UNL     1       9.335  -2.383   3.536  1.00  0.00    -0.014 A 
BRANCH  35  36
ATOM     36  C   UNL     1       9.989  -2.067   4.832  1.00  0.00     0.031 A 
ATOM     37  C   UNL     1      10.394  -3.176   5.766  1.00  0.00     0.074 A 
ATOM     38  C   UNL     1      10.175  -0.780   5.186  1.00  0.00     0.049 A 
ATOM     39  N   UNL     1      10.944  -3.098   6.950  1.00  0.00    -0.248 NA
ATOM     40  C   UNL     1      10.123  -4.553   5.323  1.00  0.00     0.031 C 
ATOM     41  C   UNL     1       9.781   0.383   4.387  1.00  0.00     0.029 A 
ATOM     42  N   UNL     1      10.738  -0.232   6.311  1.00  0.00    -0.354 N 
ATOM     43  C   UNL     1      11.069  -4.408   7.399  1.00  0.00     0.074 A 
ATOM     44  C   UNL     1      10.488  -5.258   6.383  1.00  0.00     0.031 C 
ATOM     45  C   UNL     1      10.143   1.504   5.032  1.00  0.00     0.029 A 
ATOM     46  C   UNL     1      10.757   1.143   6.306  1.00  0.00     0.049 A 
ATOM     47  H   UNL     1      11.095  -0.772   7.052  1.00  0.00     0.167 HD
ATOM     48  C   UNL     1      11.638  -4.862   8.541  1.00  0.00     0.037 A 
ATOM     49  C   UNL     1      11.213   2.015   7.226  1.00  0.00     0.037 A 
ATOM     50  C   UNL     1      12.237  -4.010   9.535  1.00  0.00     0.049 A 
ATOM     51  C   UNL     1      11.839   1.486   8.488  1.00  0.00     0.074 A 
ATOM     52  C   UNL     1      12.896  -4.374  10.696  1.00  0.00     0.029 A 
ATOM     53  N   UNL     1      12.246  -2.623   9.490  1.00  0.00    -0.354 N 
ATOM     54  N   UNL     1      12.014   0.240   8.863  1.00  0.00    -0.248 NA
ATOM     55  C   UNL     1      12.336   2.479   9.450  1.00  0.00     0.031 C 
ATOM     56  C   UNL     1      13.257  -3.207  11.378  1.00  0.00     0.029 A 
ATOM     57  C   UNL     1      12.876  -2.116  10.614  1.00  0.00     0.049 A 
ATOM     58  H   UNL     1      11.861  -2.079   8.765  1.00  0.00     0.167 HD
ATOM     59  C   UNL     1      12.670   0.300  10.088  1.00  0.00     0.074 A 
ATOM     60  C   UNL     1      12.870   1.704  10.384  1.00  0.00     0.031 C 
ATOM     61  C   UNL     1      13.073  -0.714  10.893  1.00  0.00     0.037 A 
BRANCH  48  62
ATOM     62  C   UNL     1      11.638  -6.349   8.779  1.00  0.00     0.058 A 
ATOM     63  C   UNL     1      12.419  -7.224   8.004  1.00  0.00     0.135 A 
ATOM     64  C   UNL     1      10.872  -6.905   9.816  1.00  0.00     0.135 A 
ATOM     65  F   UNL     1      13.160  -6.750   6.990  1.00  0.00    -0.206 F 
ATOM     66  C   UNL     1      12.413  -8.597   8.227  1.00  0.00     0.059 A 
ATOM     67  C   UNL     1      10.875  -8.273  10.077  1.00  0.00     0.059 A 
ATOM     68  F   UNL     1      10.107  -6.118  10.589  1.00  0.00    -0.206 F 
ATOM     69  C   UNL     1      11.637  -9.112   9.266  1.00  0.00     0.060 A 
BRANCH  69  70
ATOM     70  S   UNL     1      11.643 -10.896   9.543  1.00  0.00     0.124 S 
ATOM     71  O   UNL     1      10.867 -11.370   8.401  1.00  0.00    -0.237 OA
ATOM     72  O   UNL     1      13.068 -11.211   9.515  1.00  0.00    -0.237 OA
ATOM     73  O   UNL     1      10.997 -11.041  10.844  1.00  0.00    -0.744 OA
ENDBRANCH  69  70
ENDBRANCH  48  62
BRANCH  49  74
ATOM     74  C   UNL     1      11.124   3.479   6.974  1.00  0.00     0.058 A 
ATOM     75  C   UNL     1      12.277   4.241   6.734  1.00  0.00     0.135 A 
ATOM     76  C   UNL     1       9.887   4.143   6.956  1.00  0.00     0.135 A 
ATOM     77  F   UNL     1      13.483   3.654   6.745  1.00  0.00    -0.206 F 
ATOM     78  C   UNL     1      12.211   5.612   6.505  1.00  0.00     0.059 A 
ATOM     79  C   UNL     1       9.793   5.508   6.702  1.00  0.00     0.059 A 
ATOM     80  F   UNL     1       8.752   3.457   7.162  1.00  0.00    -0.206 F 
ATOM     81  C   UNL     1      10.963   6.236   6.488  1.00  0.00     0.060 A 
BRANCH  81  82
ATOM     82  S   UNL     1      10.885   8.007   6.144  1.00  0.00     0.124 S 
ATOM     83  O   UNL     1      11.412   8.570   7.382  1.00  0.00    -0.237 OA
ATOM     84  O   UNL     1      11.743   8.128   4.970  1.00  0.00    -0.237 OA
ATOM     85  O   UNL     1       9.464   8.238   5.899  1.00  0.00    -0.744 OA
ENDBRANCH  81  82
ENDBRANCH  49  74
BRANCH  61  86
ATOM     86  C   UNL     1      13.809  -0.347  12.153  1.00  0.00     0.058 A 
ATOM     87  C   UNL     1      13.158   0.249  13.244  1.00  0.00     0.135 A 
ATOM     88  C   UNL     1      15.177  -0.637  12.284  1.00  0.00     0.135 A 
ATOM     89  F   UNL     1      11.853   0.552  13.170  1.00  0.00    -0.206 F 
ATOM     90  C   UNL     1      13.845   0.572  14.411  1.00  0.00     0.059 A 
ATOM     91  C   UNL     1      15.876  -0.351  13.452  1.00  0.00     0.059 A 
ATOM     92  F   UNL     1      15.846  -1.218  11.275  1.00  0.00    -0.206 F 
ATOM     93  C   UNL     1      15.204   0.267  14.505  1.00  0.00     0.060 A 
BRANCH  93  94
ATOM     94  S   UNL     1      16.077   0.669  16.033  1.00  0.00     0.124 S 
ATOM     95  O   UNL     1      16.189   2.121  15.934  1.00  0.00    -0.237 OA
ATOM     96  O   UNL     1      15.161   0.173  17.056  1.00  0.00    -0.237 OA
ATOM     97  O   UNL     1      17.331  -0.068  15.912  1.00  0.00    -0.744 OA
ENDBRANCH  93  94
ENDBRANCH  61  86
ENDBRANCH  35  36
ENDBRANCH  27  30
ENDBRANCH  25  26
ENDBRANCH   1  25
TORSDOF 17
