REMARK SMILES C[C@@H](NC(=O)[C@@H]([NH3+])CC(=O)NCCCNC(=O)c1ccc(-c2c3nc(c(-c4c(F)cc(S(=O)(=O)[O-])cc4F)c4ccc([nH]4)c(-c4c(F)cc(S(=O)(=O)[O-])cc4F)c4nc(c(-c5c(F)cc(S(=O)(=O)[O-])cc5F)c5ccc2[nH]5)C=C4)C=C3)cc1)C(=O)NC1C(C)(C)SC1(C)C
REMARK SMILES IDX 12 1 11 2 9 3 10 4 8 6 6 7 4 8 3 9 5 11 2 12 1 13 84 14
REMARK SMILES IDX 85 15 86 16 87 18 88 19 92 20 89 21 90 22 91 23 93 24 94 25
REMARK SMILES IDX 7 26 13 30 14 31 15 32 16 33 17 35 18 36 19 37 83 38 20 39
REMARK SMILES IDX 82 40 21 41 22 42 23 43 76 44 24 45 81 46 75 47 77 48 25 49
REMARK SMILES IDX 80 50 74 51 73 52 26 54 60 55 39 56 59 57 40 58 43 59 58 60
REMARK SMILES IDX 78 61 41 62 42 63 57 65 79 66 44 67 27 68 28 69 37 70 29 71
REMARK SMILES IDX 30 72 36 73 38 74 31 75 32 76 33 77 34 78 35 79 61 80 62 81
REMARK SMILES IDX 71 82 63 83 64 84 70 85 72 86 65 87 66 88 67 89 68 90 69 91
REMARK SMILES IDX 45 92 46 93 55 94 47 95 48 96 54 97 56 98 49 99 50 100
REMARK SMILES IDX 51 101 52 102 53 103
REMARK H PARENT 11 5 3 10 86 17 7 27 7 28 7 29 15 34 77 53 43 64
REMARK Flexibility Score: inf
ROOT
ATOM      1  C   UNL     1       1.227  -5.059   0.033  1.00  0.00     0.117 C 
ENDROOT
BRANCH   1   2
ATOM      2  N   UNL     1       0.030  -5.875  -0.004  1.00  0.00    -0.356 N 
ATOM      3  C   UNL     1      -1.272  -5.480  -0.000  1.00  0.00     0.226 C 
ATOM      4  O   UNL     1      -2.154  -6.336   0.067  1.00  0.00    -0.275 OA
ATOM      5  H   UNL     1       0.179  -6.847  -0.037  1.00  0.00     0.163 HD
BRANCH   3   6
ATOM      6  C   UNL     1      -1.606  -4.011  -0.061  1.00  0.00     0.175 C 
BRANCH   6   7
ATOM      7  C   UNL     1      -1.679  -3.434   1.344  1.00  0.00     0.280 C 
BRANCH   7   8
ATOM      8  C   UNL     1      -0.404  -2.741   1.899  1.00  0.00     0.279 C 
ATOM      9  N   UNL     1       0.259  -1.708   1.323  1.00  0.00    -0.339 N 
ATOM     10  H   UNL     1       1.037  -1.390   1.836  1.00  0.00     0.164 HD
ATOM     11  O   UNL     1       0.026  -3.076   3.010  1.00  0.00    -0.268 OA
BRANCH   9  12
ATOM     12  C   UNL     1       0.024  -0.987   0.081  1.00  0.00     0.168 C 
ATOM     13  C   UNL     1       1.118   0.052  -0.172  1.00  0.00     0.041 C 
BRANCH  12  14
ATOM     14  C   UNL     1      -1.358  -0.324   0.061  1.00  0.00     0.242 C 
ATOM     15  O   UNL     1      -1.948  -0.139  -1.007  1.00  0.00    -0.273 OA
ATOM     16  N   UNL     1      -1.931   0.164   1.212  1.00  0.00    -0.349 N 
ATOM     17  H   UNL     1      -2.915   0.174   1.220  1.00  0.00     0.163 HD
BRANCH  16  18
ATOM     18  C   UNL     1      -1.278   0.678   2.449  1.00  0.00     0.113 C 
ATOM     19  C   UNL     1      -1.639   2.202   2.648  1.00  0.00     0.032 C 
ATOM     20  C   UNL     1      -1.836   0.236   3.879  1.00  0.00     0.032 C 
ATOM     21  C   UNL     1      -0.501   3.116   2.203  1.00  0.00     0.025 C 
ATOM     22  C   UNL     1      -2.982   2.700   2.110  1.00  0.00     0.025 C 
ATOM     23  S   UNL     1      -1.695   1.997   4.452  1.00  0.00    -0.145 SA
ATOM     24  C   UNL     1      -3.268  -0.268   4.061  1.00  0.00     0.025 C 
ATOM     25  C   UNL     1      -0.881  -0.618   4.724  1.00  0.00     0.025 C 
ENDBRANCH  16  18
ENDBRANCH  12  14
ENDBRANCH   9  12
ENDBRANCH   7   8
BRANCH   7  26
ATOM     26  N   UNL     1      -2.829  -2.512   1.421  1.00  0.00    -0.347 N 
ATOM     27  H   UNL     1      -2.671  -1.719   0.799  1.00  0.00     0.345 HD
ATOM     28  H   UNL     1      -2.932  -2.177   2.379  1.00  0.00     0.345 HD
ATOM     29  H   UNL     1      -3.677  -3.002   1.139  1.00  0.00     0.345 HD
ENDBRANCH   7  26
ENDBRANCH   6   7
ENDBRANCH   3   6
ENDBRANCH   1   2
BRANCH   1  30
ATOM     30  C   UNL     1       1.795  -4.992   1.440  1.00  0.00     0.042 C 
BRANCH  30  31
ATOM     31  C   UNL     1       2.583  -6.212   1.860  1.00  0.00     0.118 C 
BRANCH  31  32
ATOM     32  N   UNL     1       3.785  -6.389   1.069  1.00  0.00    -0.352 N 
ATOM     33  C   UNL     1       5.090  -6.470   1.468  1.00  0.00     0.251 C 
ATOM     34  H   UNL     1       3.639  -6.463   0.098  1.00  0.00     0.163 HD
ATOM     35  O   UNL     1       5.976  -6.406   0.610  1.00  0.00    -0.269 OA
BRANCH  33  36
ATOM     36  C   UNL     1       5.446  -6.613   2.897  1.00  0.00     0.039 A 
ATOM     37  C   UNL     1       6.624  -6.017   3.354  1.00  0.00     0.014 A 
ATOM     38  C   UNL     1       4.657  -7.354   3.781  1.00  0.00     0.014 A 
ATOM     39  C   UNL     1       6.989  -6.140   4.695  1.00  0.00     0.010 A 
ATOM     40  C   UNL     1       4.960  -7.378   5.138  1.00  0.00     0.010 A 
ATOM     41  C   UNL     1       6.147  -6.802   5.604  1.00  0.00    -0.014 A 
BRANCH  41  42
ATOM     42  C   UNL     1       6.520  -6.943   7.033  1.00  0.00     0.031 A 
ATOM     43  C   UNL     1       6.727  -8.313   7.624  1.00  0.00     0.074 A 
ATOM     44  C   UNL     1       6.637  -5.842   7.801  1.00  0.00     0.049 A 
ATOM     45  N   UNL     1       7.027  -8.646   8.852  1.00  0.00    -0.248 NA
ATOM     46  C   UNL     1       6.542  -9.465   6.724  1.00  0.00     0.031 C 
ATOM     47  C   UNL     1       6.403  -4.468   7.351  1.00  0.00     0.029 A 
ATOM     48  N   UNL     1       6.979  -5.704   9.121  1.00  0.00    -0.354 N 
ATOM     49  C   UNL     1       7.050 -10.036   8.874  1.00  0.00     0.074 A 
ATOM     50  C   UNL     1       6.671 -10.487   7.555  1.00  0.00     0.031 C 
ATOM     51  C   UNL     1       6.644  -3.625   8.368  1.00  0.00     0.029 A 
ATOM     52  C   UNL     1       7.010  -4.398   9.550  1.00  0.00     0.049 A 
ATOM     53  H   UNL     1       7.184  -6.468   9.708  1.00  0.00     0.167 HD
ATOM     54  C   UNL     1       7.388 -10.861   9.893  1.00  0.00     0.037 A 
ATOM     55  C   UNL     1       7.299  -3.884  10.760  1.00  0.00     0.037 A 
ATOM     56  C   UNL     1       7.797 -10.399  11.193  1.00  0.00     0.049 A 
ATOM     57  C   UNL     1       7.683  -4.820  11.873  1.00  0.00     0.074 A 
ATOM     58  C   UNL     1       8.219 -11.145  12.279  1.00  0.00     0.029 A 
ATOM     59  N   UNL     1       7.835  -9.068  11.583  1.00  0.00    -0.354 N 
ATOM     60  N   UNL     1       7.767  -6.130  11.857  1.00  0.00    -0.248 NA
ATOM     61  C   UNL     1       8.023  -4.210  13.166  1.00  0.00     0.031 C 
ATOM     62  C   UNL     1       8.467 -10.269  13.340  1.00  0.00     0.029 A 
ATOM     63  C   UNL     1       8.254  -8.972  12.899  1.00  0.00     0.049 A 
ATOM     64  H   UNL     1       7.599  -8.304  11.008  1.00  0.00     0.167 HD
ATOM     65  C   UNL     1       8.194  -6.499  13.128  1.00  0.00     0.074 A 
ATOM     66  C   UNL     1       8.366  -5.273  13.881  1.00  0.00     0.031 C 
ATOM     67  C   UNL     1       8.423  -7.739  13.628  1.00  0.00     0.037 A 
BRANCH  54  68
ATOM     68  C   UNL     1       7.339 -12.344   9.638  1.00  0.00     0.058 A 
ATOM     69  C   UNL     1       8.249 -12.977   8.775  1.00  0.00     0.135 A 
ATOM     70  C   UNL     1       6.389 -13.150  10.287  1.00  0.00     0.135 A 
ATOM     71  F   UNL     1       9.168 -12.255   8.114  1.00  0.00    -0.206 F 
ATOM     72  C   UNL     1       8.200 -14.347   8.539  1.00  0.00     0.059 A 
ATOM     73  C   UNL     1       6.341 -14.528  10.090  1.00  0.00     0.059 A 
ATOM     74  F   UNL     1       5.493 -12.600  11.121  1.00  0.00    -0.206 F 
ATOM     75  C   UNL     1       7.242 -15.115   9.203  1.00  0.00     0.060 A 
BRANCH  75  76
ATOM     76  S   UNL     1       7.197 -16.892   8.892  1.00  0.00     0.124 S 
ATOM     77  O   UNL     1       6.652 -16.938   7.539  1.00  0.00    -0.237 OA
ATOM     78  O   UNL     1       8.602 -17.267   9.022  1.00  0.00    -0.237 OA
ATOM     79  O   UNL     1       6.317 -17.399   9.940  1.00  0.00    -0.744 OA
ENDBRANCH  75  76
ENDBRANCH  54  68
BRANCH  55  80
ATOM     80  C   UNL     1       7.264  -2.412  10.970  1.00  0.00     0.058 A 
ATOM     81  C   UNL     1       8.445  -1.682  11.174  1.00  0.00     0.135 A 
ATOM     82  C   UNL     1       6.053  -1.701  10.951  1.00  0.00     0.135 A 
ATOM     83  F   UNL     1       9.627  -2.316  11.203  1.00  0.00    -0.206 F 
ATOM     84  C   UNL     1       8.427  -0.305  11.371  1.00  0.00     0.059 A 
ATOM     85  C   UNL     1       6.012  -0.321  11.117  1.00  0.00     0.059 A 
ATOM     86  F   UNL     1       4.897  -2.349  10.739  1.00  0.00    -0.206 F 
ATOM     87  C   UNL     1       7.204   0.367  11.338  1.00  0.00     0.060 A 
BRANCH  87  88
ATOM     88  S   UNL     1       7.198   2.161  11.548  1.00  0.00     0.124 S 
ATOM     89  O   UNL     1       7.494   2.292  12.970  1.00  0.00    -0.237 OA
ATOM     90  O   UNL     1       8.256   2.580  10.634  1.00  0.00    -0.237 OA
ATOM     91  O   UNL     1       5.847   2.541  11.147  1.00  0.00    -0.744 OA
ENDBRANCH  87  88
ENDBRANCH  55  80
BRANCH  67  92
ATOM     92  C   UNL     1       8.918  -7.830  15.044  1.00  0.00     0.058 A 
ATOM     93  C   UNL     1       8.083  -7.557  16.138  1.00  0.00     0.135 A 
ATOM     94  C   UNL     1      10.235  -8.242  15.310  1.00  0.00     0.135 A 
ATOM     95  F   UNL     1       6.817  -7.155  15.939  1.00  0.00    -0.206 F 
ATOM     96  C   UNL     1       8.543  -7.660  17.446  1.00  0.00     0.059 A 
ATOM     97  C   UNL     1      10.707  -8.382  16.610  1.00  0.00     0.059 A 
ATOM     98  F   UNL     1      11.071  -8.527  14.300  1.00  0.00    -0.206 F 
ATOM     99  C   UNL     1       9.858  -8.075  17.672  1.00  0.00     0.060 A 
BRANCH  99 100
ATOM    100  S   UNL     1      10.435  -8.229  19.375  1.00  0.00     0.124 S 
ATOM    101  O   UNL     1      10.585  -6.830  19.762  1.00  0.00    -0.237 OA
ATOM    102  O   UNL     1       9.338  -8.949  20.013  1.00  0.00    -0.237 OA
ATOM    103  O   UNL     1      11.679  -8.982  19.245  1.00  0.00    -0.744 OA
ENDBRANCH  99 100
ENDBRANCH  67  92
ENDBRANCH  41  42
ENDBRANCH  33  36
ENDBRANCH  31  32
ENDBRANCH  30  31
ENDBRANCH   1  30
TORSDOF 19
