REMARK SMILES C=CCOc1cccc(NC(=O)c2ccccc2C(=O)NCCCNC(=O)c2ccc(-c3c4nc(c(-c5c(F)cc(S(=O)(=O)[O-])cc5F)c5ccc([nH]5)c(-c5c(F)cc(S(=O)(=O)[O-])cc5F)c5nc(c(-c6c(F)cc(S(=O)(=O)[O-])cc6F)c6ccc3[nH]6)C=C5)C=C4)cc2)c1
REMARK SMILES IDX 22 1 21 2 19 3 20 4 18 6 13 7 14 8 15 9 17 10 16 11 11 12
REMARK SMILES IDX 10 13 12 15 9 16 5 17 6 18 94 19 7 20 8 21 4 22 3 23 2 24
REMARK SMILES IDX 1 25 23 26 24 27 25 28 26 29 27 31 28 32 29 33 93 34 30 35
REMARK SMILES IDX 92 36 31 37 32 38 33 39 86 40 34 41 91 42 85 43 87 44 35 45
REMARK SMILES IDX 90 46 84 47 83 48 36 50 70 51 49 52 69 53 50 54 53 55 68 56
REMARK SMILES IDX 88 57 51 58 52 59 67 61 89 62 54 63 37 64 38 65 47 66 39 67
REMARK SMILES IDX 40 68 46 69 48 70 41 71 42 72 43 73 44 74 45 75 71 76 72 77
REMARK SMILES IDX 81 78 73 79 74 80 80 81 82 82 75 83 76 84 77 85 78 86 79 87
REMARK SMILES IDX 55 88 56 89 65 90 57 91 58 92 64 93 66 94 59 95 60 96 61 97
REMARK SMILES IDX 62 98 63 99
REMARK H PARENT 21 5 10 14 25 30 87 49 53 60
REMARK Flexibility Score: inf
ROOT
ATOM      1  C   UNL     1       2.262   1.933   4.364  1.00  0.00     0.118 C 
ENDROOT
BRANCH   1   2
ATOM      2  N   UNL     1       0.830   1.776   4.514  1.00  0.00    -0.352 N 
ATOM      3  C   UNL     1      -0.099   2.632   5.042  1.00  0.00     0.252 C 
ATOM      4  O   UNL     1      -1.272   2.255   5.094  1.00  0.00    -0.269 OA
ATOM      5  H   UNL     1       0.469   0.921   4.185  1.00  0.00     0.163 HD
BRANCH   3   6
ATOM      6  C   UNL     1       0.245   3.952   5.633  1.00  0.00     0.052 A 
ATOM      7  C   UNL     1       1.086   4.934   5.090  1.00  0.00     0.052 A 
ATOM      8  C   UNL     1       1.344   6.108   5.831  1.00  0.00     0.014 A 
ATOM      9  C   UNL     1       0.708   6.352   7.046  1.00  0.00     0.001 A 
ATOM     10  C   UNL     1      -0.422   4.236   6.845  1.00  0.00     0.014 A 
ATOM     11  C   UNL     1      -0.198   5.425   7.542  1.00  0.00     0.001 A 
BRANCH   7  12
ATOM     12  C   UNL     1       1.817   4.871   3.811  1.00  0.00     0.256 C 
ATOM     13  N   UNL     1       1.266   4.523   2.606  1.00  0.00    -0.322 N 
ATOM     14  H   UNL     1       1.935   4.429   1.889  1.00  0.00     0.170 HD
ATOM     15  O   UNL     1       3.028   5.106   3.848  1.00  0.00    -0.269 OA
BRANCH  13  16
ATOM     16  C   UNL     1      -0.041   4.271   2.174  1.00  0.00     0.045 A 
ATOM     17  C   UNL     1      -1.435   3.157   0.540  1.00  0.00     0.121 A 
ATOM     18  C   UNL     1      -2.578   3.554   1.223  1.00  0.00     0.046 A 
ATOM     19  C   UNL     1      -0.172   3.530   0.993  1.00  0.00     0.072 A 
ATOM     20  C   UNL     1      -2.453   4.337   2.369  1.00  0.00     0.006 A 
ATOM     21  C   UNL     1      -1.187   4.711   2.833  1.00  0.00     0.026 A 
BRANCH  17  22
ATOM     22  O   UNL     1      -1.552   2.480  -0.640  1.00  0.00    -0.489 OA
BRANCH  22  23
ATOM     23  C   UNL     1      -1.532   1.058  -0.455  1.00  0.00     0.257 C 
BRANCH  23  24
ATOM     24  C   UNL     1      -0.202   0.518  -0.889  1.00  0.00     0.006 C 
ATOM     25  C   UNL     1       0.380  -0.570  -0.368  1.00  0.00     0.007 C 
ENDBRANCH  23  24
ENDBRANCH  22  23
ENDBRANCH  17  22
ENDBRANCH  13  16
ENDBRANCH   7  12
ENDBRANCH   3   6
ENDBRANCH   1   2
BRANCH   1  26
ATOM     26  C   UNL     1       3.026   0.625   4.315  1.00  0.00     0.042 C 
BRANCH  26  27
ATOM     27  C   UNL     1       2.709  -0.264   3.117  1.00  0.00     0.118 C 
BRANCH  27  28
ATOM     28  N   UNL     1       2.877   0.367   1.810  1.00  0.00    -0.352 N 
ATOM     29  C   UNL     1       3.675   0.047   0.732  1.00  0.00     0.251 C 
ATOM     30  H   UNL     1       2.320   1.166   1.674  1.00  0.00     0.163 HD
ATOM     31  O   UNL     1       3.668   0.776  -0.258  1.00  0.00    -0.269 OA
BRANCH  29  32
ATOM     32  C   UNL     1       4.566  -1.135   0.767  1.00  0.00     0.039 A 
ATOM     33  C   UNL     1       5.849  -1.033   0.224  1.00  0.00     0.014 A 
ATOM     34  C   UNL     1       4.172  -2.322   1.380  1.00  0.00     0.014 A 
ATOM     35  C   UNL     1       6.779  -2.053   0.447  1.00  0.00     0.010 A 
ATOM     36  C   UNL     1       5.131  -3.269   1.722  1.00  0.00     0.010 A 
ATOM     37  C   UNL     1       6.454  -3.134   1.283  1.00  0.00    -0.014 A 
BRANCH  37  38
ATOM     38  C   UNL     1       7.493  -4.083   1.768  1.00  0.00     0.031 A 
ATOM     39  C   UNL     1       7.335  -5.568   1.563  1.00  0.00     0.074 A 
ATOM     40  C   UNL     1       8.522  -3.610   2.503  1.00  0.00     0.049 A 
ATOM     41  N   UNL     1       8.086  -6.545   2.003  1.00  0.00    -0.248 NA
ATOM     42  C   UNL     1       6.153  -6.019   0.810  1.00  0.00     0.031 C 
ATOM     43  C   UNL     1       8.726  -2.205   2.875  1.00  0.00     0.029 A 
ATOM     44  N   UNL     1       9.586  -4.254   3.085  1.00  0.00    -0.354 N 
ATOM     45  C   UNL     1       7.449  -7.718   1.615  1.00  0.00     0.074 A 
ATOM     46  C   UNL     1       6.224  -7.334   0.951  1.00  0.00     0.031 C 
ATOM     47  C   UNL     1       9.860  -2.091   3.583  1.00  0.00     0.029 A 
ATOM     48  C   UNL     1      10.447  -3.413   3.752  1.00  0.00     0.049 A 
ATOM     49  H   UNL     1       9.720  -5.228   3.029  1.00  0.00     0.167 HD
ATOM     50  C   UNL     1       7.863  -8.998   1.771  1.00  0.00     0.037 A 
ATOM     51  C   UNL     1      11.584  -3.676   4.426  1.00  0.00     0.037 A 
ATOM     52  C   UNL     1       9.119  -9.367   2.369  1.00  0.00     0.049 A 
ATOM     53  C   UNL     1      12.072  -5.096   4.499  1.00  0.00     0.074 A 
ATOM     54  C   UNL     1       9.687 -10.625   2.471  1.00  0.00     0.029 A 
ATOM     55  N   UNL     1      10.005  -8.478   2.959  1.00  0.00    -0.354 N 
ATOM     56  N   UNL     1      11.505  -6.184   4.033  1.00  0.00    -0.248 NA
ATOM     57  C   UNL     1      13.355  -5.325   5.176  1.00  0.00     0.031 C 
ATOM     58  C   UNL     1      10.904 -10.500   3.149  1.00  0.00     0.029 A 
ATOM     59  C   UNL     1      11.111  -9.161   3.438  1.00  0.00     0.049 A 
ATOM     60  H   UNL     1       9.869  -7.505   3.027  1.00  0.00     0.167 HD
ATOM     61  C   UNL     1      12.370  -7.224   4.347  1.00  0.00     0.074 A 
ATOM     62  C   UNL     1      13.508  -6.634   5.022  1.00  0.00     0.031 C 
ATOM     63  C   UNL     1      12.234  -8.551   4.102  1.00  0.00     0.037 A 
BRANCH  50  64
ATOM     64  C   UNL     1       6.966 -10.093   1.262  1.00  0.00     0.058 A 
ATOM     65  C   UNL     1       6.778 -10.312  -0.112  1.00  0.00     0.135 A 
ATOM     66  C   UNL     1       6.319 -10.960   2.157  1.00  0.00     0.135 A 
ATOM     67  F   UNL     1       7.360  -9.503  -1.011  1.00  0.00    -0.206 F 
ATOM     68  C   UNL     1       5.958 -11.332  -0.581  1.00  0.00     0.059 A 
ATOM     69  C   UNL     1       5.515 -12.006   1.709  1.00  0.00     0.059 A 
ATOM     70  F   UNL     1       6.463 -10.797   3.481  1.00  0.00    -0.206 F 
ATOM     71  C   UNL     1       5.330 -12.175   0.338  1.00  0.00     0.060 A 
BRANCH  71  72
ATOM     72  S   UNL     1       4.281 -13.504  -0.288  1.00  0.00     0.124 S 
ATOM     73  O   UNL     1       3.095 -12.763  -0.708  1.00  0.00    -0.237 OA
ATOM     74  O   UNL     1       5.092 -14.062  -1.366  1.00  0.00    -0.237 OA
ATOM     75  O   UNL     1       4.103 -14.371   0.872  1.00  0.00    -0.744 OA
ENDBRANCH  71  72
ENDBRANCH  50  64
BRANCH  51  76
ATOM     76  C   UNL     1      12.355  -2.568   5.052  1.00  0.00     0.058 A 
ATOM     77  C   UNL     1      13.578  -2.145   4.508  1.00  0.00     0.135 A 
ATOM     78  C   UNL     1      11.883  -1.903   6.194  1.00  0.00     0.135 A 
ATOM     79  F   UNL     1      14.071  -2.751   3.418  1.00  0.00    -0.206 F 
ATOM     80  C   UNL     1      14.318  -1.119   5.087  1.00  0.00     0.059 A 
ATOM     81  C   UNL     1      12.594  -0.858   6.777  1.00  0.00     0.059 A 
ATOM     82  F   UNL     1      10.709  -2.254   6.739  1.00  0.00    -0.206 F 
ATOM     83  C   UNL     1      13.818  -0.482   6.223  1.00  0.00     0.060 A 
BRANCH  83  84
ATOM     84  S   UNL     1      14.766   0.875   6.947  1.00  0.00     0.124 S 
ATOM     85  O   UNL     1      15.834   0.154   7.630  1.00  0.00    -0.237 OA
ATOM     86  O   UNL     1      15.164   1.638   5.768  1.00  0.00    -0.237 OA
ATOM     87  O   UNL     1      13.795   1.537   7.813  1.00  0.00    -0.744 OA
ENDBRANCH  83  84
ENDBRANCH  51  76
BRANCH  63  88
ATOM     88  C   UNL     1      13.351  -9.448   4.550  1.00  0.00     0.058 A 
ATOM     89  C   UNL     1      13.537  -9.766   5.903  1.00  0.00     0.135 A 
ATOM     90  C   UNL     1      14.215 -10.032   3.610  1.00  0.00     0.135 A 
ATOM     91  F   UNL     1      12.740  -9.228   6.840  1.00  0.00    -0.206 F 
ATOM     92  C   UNL     1      14.558 -10.616   6.314  1.00  0.00     0.059 A 
ATOM     93  C   UNL     1      15.227 -10.904   3.995  1.00  0.00     0.059 A 
ATOM     94  F   UNL     1      14.070  -9.766   2.302  1.00  0.00    -0.206 F 
ATOM     95  C   UNL     1      15.398 -11.180   5.351  1.00  0.00     0.060 A 
BRANCH  95  96
ATOM     96  S   UNL     1      16.701 -12.306   5.892  1.00  0.00     0.124 S 
ATOM     97  O   UNL     1      17.693 -11.375   6.420  1.00  0.00    -0.237 OA
ATOM     98  O   UNL     1      16.015 -13.130   6.881  1.00  0.00    -0.237 OA
ATOM     99  O   UNL     1      17.080 -12.999   4.664  1.00  0.00    -0.744 OA
ENDBRANCH  95  96
ENDBRANCH  63  88
ENDBRANCH  37  38
ENDBRANCH  29  32
ENDBRANCH  27  28
ENDBRANCH  26  27
ENDBRANCH   1  26
TORSDOF 18
