REMARK SMILES O=C(NCCCNC(=O)c1c(F)cccc1NC(=O)C1CCCCC1)c1ccc(-c2c3nc(c(-c4c(F)cc(S(=O)(=O)[O-])cc4F)c4ccc([nH]4)c(-c4c(F)cc(S(=O)(=O)[O-])cc4F)c4nc(c(-c5c(F)cc(S(=O)(=O)[O-])cc5F)c5ccc2[nH]5)C=C4)C=C3)cc1
REMARK SMILES IDX 4 1 3 2 1 3 2 4 26 6 27 7 91 8 28 9 90 10 29 11 30 12 31 13
REMARK SMILES IDX 84 14 32 15 89 16 83 17 85 18 33 19 88 20 82 21 81 22 34 24
REMARK SMILES IDX 68 25 47 26 67 27 48 28 51 29 66 30 86 31 49 32 50 33 65 35
REMARK SMILES IDX 87 36 52 37 35 38 36 39 45 40 37 41 38 42 44 43 46 44 39 45
REMARK SMILES IDX 40 46 41 47 42 48 43 49 69 50 70 51 79 52 71 53 72 54 78 55
REMARK SMILES IDX 80 56 73 57 74 58 75 59 76 60 77 61 53 62 54 63 63 64 55 65
REMARK SMILES IDX 56 66 62 67 64 68 57 69 58 70 59 71 60 72 61 73 5 74 6 75
REMARK SMILES IDX 7 76 8 77 9 79 10 80 11 81 16 82 12 83 13 84 15 85 14 86
REMARK SMILES IDX 17 87 18 88 19 90 20 91 21 92 25 93 22 94 24 95 23 96
REMARK H PARENT 3 5 85 23 51 34 7 78 17 89
REMARK Flexibility Score: inf
ROOT
ATOM      1  C   UNL     1       4.633   0.199  -1.307  1.00  0.00     0.118 C 
ENDROOT
BRANCH   1   2
ATOM      2  N   UNL     1       3.199   0.266  -1.056  1.00  0.00    -0.352 N 
ATOM      3  O   UNL     1       1.253  -0.057   0.027  1.00  0.00    -0.269 OA
ATOM      4  C   UNL     1       2.481  -0.018   0.082  1.00  0.00     0.251 C 
ATOM      5  H   UNL     1       2.658   0.563  -1.823  1.00  0.00     0.163 HD
BRANCH   4   6
ATOM      6  C   UNL     1       3.173  -0.303   1.359  1.00  0.00     0.039 A 
ATOM      7  C   UNL     1       4.284   0.442   1.754  1.00  0.00     0.014 A 
ATOM      8  C   UNL     1       2.691  -1.322   2.189  1.00  0.00     0.014 A 
ATOM      9  C   UNL     1       5.011   0.061   2.875  1.00  0.00     0.010 A 
ATOM     10  C   UNL     1       3.363  -1.634   3.377  1.00  0.00     0.010 A 
ATOM     11  C   UNL     1       4.550  -0.967   3.714  1.00  0.00    -0.014 A 
BRANCH  11  12
ATOM     12  C   UNL     1       5.298  -1.268   4.963  1.00  0.00     0.031 A 
ATOM     13  C   UNL     1       5.960  -2.603   5.176  1.00  0.00     0.074 A 
ATOM     14  C   UNL     1       5.431  -0.290   5.883  1.00  0.00     0.049 A 
ATOM     15  N   UNL     1       6.679  -3.008   6.192  1.00  0.00    -0.248 NA
ATOM     16  C   UNL     1       5.797  -3.615   4.120  1.00  0.00     0.031 C 
ATOM     17  C   UNL     1       4.835   1.046   5.780  1.00  0.00     0.029 A 
ATOM     18  N   UNL     1       6.133  -0.247   7.059  1.00  0.00    -0.354 N 
ATOM     19  C   UNL     1       7.047  -4.317   5.905  1.00  0.00     0.074 A 
ATOM     20  C   UNL     1       6.449  -4.652   4.631  1.00  0.00     0.031 C 
ATOM     21  C   UNL     1       5.258   1.798   6.806  1.00  0.00     0.029 A 
ATOM     22  C   UNL     1       6.091   0.981   7.679  1.00  0.00     0.049 A 
ATOM     23  H   UNL     1       6.620  -1.020   7.425  1.00  0.00     0.167 HD
ATOM     24  C   UNL     1       7.825  -5.154   6.633  1.00  0.00     0.037 A 
ATOM     25  C   UNL     1       6.652   1.403   8.828  1.00  0.00     0.037 A 
ATOM     26  C   UNL     1       8.431  -4.805   7.894  1.00  0.00     0.049 A 
ATOM     27  C   UNL     1       7.473   0.439   9.633  1.00  0.00     0.074 A 
ATOM     28  C   UNL     1       9.233  -5.587   8.707  1.00  0.00     0.029 A 
ATOM     29  N   UNL     1       8.313  -3.572   8.519  1.00  0.00    -0.354 N 
ATOM     30  N   UNL     1       7.794  -0.801   9.351  1.00  0.00    -0.248 NA
ATOM     31  C   UNL     1       7.994   0.922  10.918  1.00  0.00     0.031 C 
ATOM     32  C   UNL     1       9.572  -4.840   9.840  1.00  0.00     0.029 A 
ATOM     33  C   UNL     1       9.016  -3.577   9.713  1.00  0.00     0.049 A 
ATOM     34  H   UNL     1       7.804  -2.806   8.167  1.00  0.00     0.167 HD
ATOM     35  C   UNL     1       8.564  -1.243  10.419  1.00  0.00     0.074 A 
ATOM     36  C   UNL     1       8.678  -0.132  11.342  1.00  0.00     0.031 C 
ATOM     37  C   UNL     1       9.121  -2.462  10.619  1.00  0.00     0.037 A 
BRANCH  24  38
ATOM     38  C   UNL     1       8.081  -6.536   6.096  1.00  0.00     0.058 A 
ATOM     39  C   UNL     1       7.510  -7.661   6.713  1.00  0.00     0.135 A 
ATOM     40  C   UNL     1       8.973  -6.754   5.035  1.00  0.00     0.135 A 
ATOM     41  F   UNL     1       6.646  -7.509   7.729  1.00  0.00    -0.206 F 
ATOM     42  C   UNL     1       7.834  -8.954   6.313  1.00  0.00     0.059 A 
ATOM     43  C   UNL     1       9.296  -8.038   4.604  1.00  0.00     0.059 A 
ATOM     44  F   UNL     1       9.530  -5.713   4.396  1.00  0.00    -0.206 F 
ATOM     45  C   UNL     1       8.734  -9.133   5.262  1.00  0.00     0.060 A 
BRANCH  45  46
ATOM     46  S   UNL     1       9.143 -10.817   4.753  1.00  0.00     0.124 S 
ATOM     47  O   UNL     1       9.929 -11.292   5.885  1.00  0.00    -0.237 OA
ATOM     48  O   UNL     1       7.821 -11.418   4.597  1.00  0.00    -0.237 OA
ATOM     49  O   UNL     1       9.882 -10.623   3.508  1.00  0.00    -0.744 OA
ENDBRANCH  45  46
ENDBRANCH  24  38
BRANCH  25  50
ATOM     50  C   UNL     1       6.451   2.805   9.278  1.00  0.00     0.058 A 
ATOM     51  C   UNL     1       5.190   3.264   9.690  1.00  0.00     0.135 A 
ATOM     52  C   UNL     1       7.513   3.721   9.281  1.00  0.00     0.135 A 
ATOM     53  F   UNL     1       4.138   2.430   9.695  1.00  0.00    -0.206 F 
ATOM     54  C   UNL     1       4.983   4.585  10.066  1.00  0.00     0.059 A 
ATOM     55  C   UNL     1       7.337   5.043   9.681  1.00  0.00     0.059 A 
ATOM     56  F   UNL     1       8.739   3.326   8.906  1.00  0.00    -0.206 F 
ATOM     57  C   UNL     1       6.063   5.468  10.057  1.00  0.00     0.060 A 
BRANCH  57  58
ATOM     58  S   UNL     1       5.777   7.177  10.563  1.00  0.00     0.124 S 
ATOM     59  O   UNL     1       5.048   7.703   9.414  1.00  0.00    -0.237 OA
ATOM     60  O   UNL     1       4.999   7.009  11.787  1.00  0.00    -0.237 OA
ATOM     61  O   UNL     1       7.126   7.703  10.749  1.00  0.00    -0.744 OA
ENDBRANCH  57  58
ENDBRANCH  25  50
BRANCH  37  62
ATOM     62  C   UNL     1       9.918  -2.657  11.876  1.00  0.00     0.058 A 
ATOM     63  C   UNL     1      11.317  -2.758  11.824  1.00  0.00     0.135 A 
ATOM     64  C   UNL     1       9.293  -2.800  13.124  1.00  0.00     0.135 A 
ATOM     65  F   UNL     1      11.962  -2.630  10.654  1.00  0.00    -0.206 F 
ATOM     66  C   UNL     1      12.069  -3.010  12.966  1.00  0.00     0.059 A 
ATOM     67  C   UNL     1      10.027  -3.028  14.284  1.00  0.00     0.059 A 
ATOM     68  F   UNL     1       7.958  -2.697  13.227  1.00  0.00    -0.206 F 
ATOM     69  C   UNL     1      11.414  -3.147  14.191  1.00  0.00     0.060 A 
BRANCH  69  70
ATOM     70  S   UNL     1      12.406  -3.456  15.668  1.00  0.00     0.124 S 
ATOM     71  O   UNL     1      12.808  -4.845  15.472  1.00  0.00    -0.237 OA
ATOM     72  O   UNL     1      13.469  -2.463  15.540  1.00  0.00    -0.237 OA
ATOM     73  O   UNL     1      11.467  -3.221  16.761  1.00  0.00    -0.744 OA
ENDBRANCH  69  70
ENDBRANCH  37  62
ENDBRANCH  11  12
ENDBRANCH   4   6
ENDBRANCH   1   2
BRANCH   1  74
ATOM     74  C   UNL     1       5.012  -0.889  -2.302  1.00  0.00     0.042 C 
BRANCH  74  75
ATOM     75  C   UNL     1       4.504  -0.649  -3.716  1.00  0.00     0.118 C 
BRANCH  75  76
ATOM     76  N   UNL     1       5.049   0.568  -4.298  1.00  0.00    -0.352 N 
ATOM     77  C   UNL     1       5.799   0.743  -5.431  1.00  0.00     0.256 C 
ATOM     78  H   UNL     1       4.847   1.393  -3.801  1.00  0.00     0.163 HD
ATOM     79  O   UNL     1       6.307   1.839  -5.660  1.00  0.00    -0.269 OA
BRANCH  77  80
ATOM     80  C   UNL     1       6.057  -0.365  -6.368  1.00  0.00     0.099 A 
ATOM     81  C   UNL     1       4.982  -1.125  -6.843  1.00  0.00     0.138 A 
ATOM     82  C   UNL     1       7.371  -0.634  -6.815  1.00  0.00     0.057 A 
ATOM     83  F   UNL     1       3.724  -0.860  -6.460  1.00  0.00    -0.206 F 
ATOM     84  C   UNL     1       5.184  -2.187  -7.714  1.00  0.00     0.040 A 
ATOM     85  C   UNL     1       7.537  -1.650  -7.764  1.00  0.00     0.027 A 
ATOM     86  C   UNL     1       6.463  -2.443  -8.186  1.00  0.00     0.005 A 
BRANCH  82  87
ATOM     87  N   UNL     1       8.446   0.129  -6.294  1.00  0.00    -0.325 N 
ATOM     88  C   UNL     1       9.795  -0.077  -6.165  1.00  0.00     0.227 C 
ATOM     89  H   UNL     1       8.160   1.005  -5.947  1.00  0.00     0.169 HD
ATOM     90  O   UNL     1      10.476   0.857  -5.732  1.00  0.00    -0.274 OA
BRANCH  88  91
ATOM     91  C   UNL     1      10.440  -1.413  -6.519  1.00  0.00     0.079 C 
ATOM     92  C   UNL     1      11.970  -1.412  -6.349  1.00  0.00     0.013 C 
ATOM     93  C   UNL     1       9.881  -2.582  -5.695  1.00  0.00     0.013 C 
ATOM     94  C   UNL     1      12.565  -2.727  -6.867  1.00  0.00     0.001 C 
ATOM     95  C   UNL     1      10.385  -3.900  -6.274  1.00  0.00     0.001 C 
ATOM     96  C   UNL     1      11.909  -3.962  -6.247  1.00  0.00     0.000 C 
ENDBRANCH  88  91
ENDBRANCH  82  87
ENDBRANCH  77  80
ENDBRANCH  75  76
ENDBRANCH  74  75
ENDBRANCH   1  74
TORSDOF 15
