REMARK SMILES CC[C@@](C)(NC(=O)Nc1cccc(C[NH2+]C)c1)C(=O)NCCCNC(=O)c1ccc(-c2c3nc(c(-c4c(F)cc(S(=O)(=O)[O-])cc4F)c4ccc([nH]4)c(-c4c(F)cc(S(=O)(=O)[O-])cc4F)c4nc(c(-c5c(F)cc(S(=O)(=O)[O-])cc5F)c5ccc2[nH]5)C=C4)C=C3)cc1
REMARK SMILES IDX 21 1 20 2 18 3 19 4 3 6 4 7 2 8 1 9 5 10 6 11 7 13 8 14 9 16
REMARK SMILES IDX 10 17 17 18 11 19 13 20 12 21 14 22 15 23 16 24 22 27 23 28
REMARK SMILES IDX 24 29 25 30 26 32 27 33 28 34 92 35 29 36 91 37 30 38 31 39
REMARK SMILES IDX 32 40 85 41 33 42 90 43 84 44 86 45 34 46 89 47 83 48 82 49
REMARK SMILES IDX 35 51 69 52 48 53 68 54 49 55 52 56 67 57 87 58 50 59 51 60
REMARK SMILES IDX 66 62 88 63 53 64 36 65 37 66 46 67 38 68 39 69 45 70 47 71
REMARK SMILES IDX 40 72 41 73 42 74 43 75 44 76 70 77 71 78 80 79 72 80 73 81
REMARK SMILES IDX 79 82 81 83 74 84 75 85 76 86 77 87 78 88 54 89 55 90 64 91
REMARK SMILES IDX 56 92 57 93 63 94 65 95 58 96 59 97 60 98 61 99 62 100
REMARK H PARENT 20 5 5 12 8 15 15 25 15 26 24 31 86 50 52 61
REMARK Flexibility Score: inf
ROOT
ATOM      1  C   UNL     1       1.599   2.443  -5.099  1.00  0.00     0.117 C 
ENDROOT
BRANCH   1   2
ATOM      2  N   UNL     1       1.925   1.976  -3.778  1.00  0.00    -0.354 N 
ATOM      3  C   UNL     1       1.252   1.102  -2.942  1.00  0.00     0.245 C 
ATOM      4  O   UNL     1       1.055  -0.080  -3.187  1.00  0.00    -0.272 OA
ATOM      5  H   UNL     1       2.764   2.336  -3.408  1.00  0.00     0.163 HD
BRANCH   3   6
ATOM      6  C   UNL     1       0.558   1.905  -1.806  1.00  0.00     0.117 C 
ATOM      7  C   UNL     1      -0.895   1.866  -2.390  1.00  0.00     0.045 C 
BRANCH   6   8
ATOM      8  C   UNL     1       0.447   1.467  -0.334  1.00  0.00     0.035 C 
ATOM      9  C   UNL     1       0.608   0.004   0.008  1.00  0.00     0.007 C 
ENDBRANCH   6   8
BRANCH   6  10
ATOM     10  N   UNL     1       1.097   3.306  -1.822  1.00  0.00    -0.324 N 
ATOM     11  C   UNL     1       2.225   3.937  -1.467  1.00  0.00     0.320 C 
ATOM     12  H   UNL     1       0.439   3.936  -2.196  1.00  0.00     0.166 HD
ATOM     13  O   UNL     1       2.133   5.169  -1.407  1.00  0.00    -0.248 OA
ATOM     14  N   UNL     1       3.424   3.415  -1.155  1.00  0.00    -0.308 N 
ATOM     15  H   UNL     1       3.972   4.126  -0.752  1.00  0.00     0.171 HD
BRANCH  14  16
ATOM     16  C   UNL     1       4.195   2.229  -1.190  1.00  0.00     0.043 A 
ATOM     17  C   UNL     1       5.138   2.079  -0.170  1.00  0.00     0.026 A 
ATOM     18  C   UNL     1       4.195   1.225  -2.151  1.00  0.00     0.035 A 
ATOM     19  C   UNL     1       5.892   0.902  -0.036  1.00  0.00     0.003 A 
ATOM     20  C   UNL     1       4.791  -0.035  -1.952  1.00  0.00     0.008 A 
ATOM     21  C   UNL     1       5.679  -0.178  -0.895  1.00  0.00     0.010 A 
BRANCH  20  22
ATOM     22  C   UNL     1       4.233  -1.218  -2.719  1.00  0.00     0.297 C 
BRANCH  22  23
ATOM     23  N   UNL     1       4.977  -1.716  -3.874  1.00  0.00    -0.345 N 
ATOM     24  C   UNL     1       4.090  -2.643  -4.598  1.00  0.00     0.331 C 
ATOM     25  H   UNL     1       5.817  -2.206  -3.564  1.00  0.00     0.346 HD
ATOM     26  H   UNL     1       5.266  -0.946  -4.478  1.00  0.00     0.346 HD
ENDBRANCH  22  23
ENDBRANCH  20  22
ENDBRANCH  14  16
ENDBRANCH   6  10
ENDBRANCH   3   6
ENDBRANCH   1   2
BRANCH   1  27
ATOM     27  C   UNL     1       2.233   3.834  -5.309  1.00  0.00     0.042 C 
BRANCH  27  28
ATOM     28  C   UNL     1       3.757   3.932  -5.143  1.00  0.00     0.118 C 
BRANCH  28  29
ATOM     29  N   UNL     1       4.489   3.134  -6.105  1.00  0.00    -0.352 N 
ATOM     30  C   UNL     1       5.329   3.524  -7.124  1.00  0.00     0.251 C 
ATOM     31  H   UNL     1       4.367   2.161  -6.016  1.00  0.00     0.163 HD
ATOM     32  O   UNL     1       5.731   2.694  -7.923  1.00  0.00    -0.269 OA
BRANCH  30  33
ATOM     33  C   UNL     1       5.716   4.948  -7.277  1.00  0.00     0.039 A 
ATOM     34  C   UNL     1       5.587   5.537  -8.538  1.00  0.00     0.014 A 
ATOM     35  C   UNL     1       6.238   5.690  -6.214  1.00  0.00     0.014 A 
ATOM     36  C   UNL     1       5.917   6.884  -8.718  1.00  0.00     0.010 A 
ATOM     37  C   UNL     1       6.518   7.051  -6.384  1.00  0.00     0.010 A 
ATOM     38  C   UNL     1       6.353   7.667  -7.636  1.00  0.00    -0.014 A 
BRANCH  38  39
ATOM     39  C   UNL     1       6.607   9.127  -7.800  1.00  0.00     0.031 A 
ATOM     40  C   UNL     1       7.989   9.697  -7.612  1.00  0.00     0.074 A 
ATOM     41  C   UNL     1       5.579   9.956  -8.076  1.00  0.00     0.049 A 
ATOM     42  N   UNL     1       8.383  10.945  -7.666  1.00  0.00    -0.248 NA
ATOM     43  C   UNL     1       9.065   8.742  -7.308  1.00  0.00     0.031 C 
ATOM     44  C   UNL     1       4.185   9.543  -8.250  1.00  0.00     0.029 A 
ATOM     45  N   UNL     1       5.541  11.319  -8.250  1.00  0.00    -0.354 N 
ATOM     46  C   UNL     1       9.747  10.928  -7.393  1.00  0.00     0.074 A 
ATOM     47  C   UNL     1      10.102   9.549  -7.128  1.00  0.00     0.031 C 
ATOM     48  C   UNL     1       3.434  10.623  -8.522  1.00  0.00     0.029 A 
ATOM     49  C   UNL     1       4.281  11.812  -8.500  1.00  0.00     0.049 A 
ATOM     50  H   UNL     1       6.341  11.890  -8.199  1.00  0.00     0.167 HD
ATOM     51  C   UNL     1      10.626  11.960  -7.383  1.00  0.00     0.037 A 
ATOM     52  C   UNL     1       3.848  13.077  -8.678  1.00  0.00     0.037 A 
ATOM     53  C   UNL     1      10.273  13.331  -7.659  1.00  0.00     0.049 A 
ATOM     54  C   UNL     1       4.838  14.210  -8.636  1.00  0.00     0.074 A 
ATOM     55  C   UNL     1      11.104  14.437  -7.721  1.00  0.00     0.029 A 
ATOM     56  N   UNL     1       8.987  13.787  -7.911  1.00  0.00    -0.354 N 
ATOM     57  N   UNL     1       6.134  14.165  -8.437  1.00  0.00    -0.248 NA
ATOM     58  C   UNL     1       4.310  15.565  -8.847  1.00  0.00     0.031 C 
ATOM     59  C   UNL     1      10.314  15.568  -7.955  1.00  0.00     0.029 A 
ATOM     60  C   UNL     1       8.998  15.160  -8.101  1.00  0.00     0.049 A 
ATOM     61  H   UNL     1       8.184  13.219  -7.949  1.00  0.00     0.167 HD
ATOM     62  C   UNL     1       6.579  15.480  -8.529  1.00  0.00     0.074 A 
ATOM     63  C   UNL     1       5.417  16.295  -8.814  1.00  0.00     0.031 C 
ATOM     64  C   UNL     1       7.838  15.966  -8.392  1.00  0.00     0.037 A 
BRANCH  51  65
ATOM     65  C   UNL     1      12.065  11.653  -7.057  1.00  0.00     0.058 A 
ATOM     66  C   UNL     1      12.885  10.931  -7.939  1.00  0.00     0.135 A 
ATOM     67  C   UNL     1      12.645  12.125  -5.867  1.00  0.00     0.135 A 
ATOM     68  F   UNL     1      12.383  10.447  -9.086  1.00  0.00    -0.206 F 
ATOM     69  C   UNL     1      14.217  10.661  -7.641  1.00  0.00     0.059 A 
ATOM     70  C   UNL     1      13.984  11.893  -5.562  1.00  0.00     0.059 A 
ATOM     71  F   UNL     1      11.911  12.825  -4.988  1.00  0.00    -0.206 F 
ATOM     72  C   UNL     1      14.757  11.146  -6.449  1.00  0.00     0.060 A 
BRANCH  72  73
ATOM     73  S   UNL     1      16.488  10.788  -6.079  1.00  0.00     0.124 S 
ATOM     74  O   UNL     1      16.431   9.360  -5.780  1.00  0.00    -0.237 OA
ATOM     75  O   UNL     1      17.154  11.148  -7.326  1.00  0.00    -0.237 OA
ATOM     76  O   UNL     1      16.780  11.655  -4.942  1.00  0.00    -0.744 OA
ENDBRANCH  72  73
ENDBRANCH  51  65
BRANCH  52  77
ATOM     77  C   UNL     1       2.402  13.341  -8.922  1.00  0.00     0.058 A 
ATOM     78  C   UNL     1       1.951  13.799 -10.169  1.00  0.00     0.135 A 
ATOM     79  C   UNL     1       1.444  13.139  -7.917  1.00  0.00     0.135 A 
ATOM     80  F   UNL     1       2.828  14.018 -11.161  1.00  0.00    -0.206 F 
ATOM     81  C   UNL     1       0.605  14.062 -10.407  1.00  0.00     0.059 A 
ATOM     82  C   UNL     1       0.089  13.367  -8.139  1.00  0.00     0.059 A 
ATOM     83  F   UNL     1       1.820  12.690  -6.709  1.00  0.00    -0.206 F 
ATOM     84  C   UNL     1      -0.319  13.839  -9.385  1.00  0.00     0.060 A 
BRANCH  84  85
ATOM     85  S   UNL     1      -2.069  14.136  -9.720  1.00  0.00     0.124 S 
ATOM     86  O   UNL     1      -2.114  15.593  -9.778  1.00  0.00    -0.237 OA
ATOM     87  O   UNL     1      -2.259  13.440 -10.989  1.00  0.00    -0.237 OA
ATOM     88  O   UNL     1      -2.738  13.528  -8.574  1.00  0.00    -0.744 OA
ENDBRANCH  84  85
ENDBRANCH  52  77
BRANCH  64  89
ATOM     89  C   UNL     1       8.039  17.446  -8.585  1.00  0.00     0.058 A 
ATOM     90  C   UNL     1       7.583  18.387  -7.648  1.00  0.00     0.135 A 
ATOM     91  C   UNL     1       8.745  17.927  -9.701  1.00  0.00     0.135 A 
ATOM     92  F   UNL     1       6.897  17.985  -6.567  1.00  0.00    -0.206 F 
ATOM     93  C   UNL     1       7.798  19.751  -7.822  1.00  0.00     0.059 A 
ATOM     94  C   UNL     1       8.998  19.283  -9.880  1.00  0.00     0.059 A 
ATOM     95  F   UNL     1       9.213  17.072 -10.625  1.00  0.00    -0.206 F 
ATOM     96  C   UNL     1       8.510  20.190  -8.940  1.00  0.00     0.060 A 
BRANCH  96  97
ATOM     97  S   UNL     1       8.812  21.959  -9.135  1.00  0.00     0.124 S 
ATOM     98  O   UNL     1       7.484  22.447  -9.495  1.00  0.00    -0.237 OA
ATOM     99  O   UNL     1       9.290  22.342  -7.810  1.00  0.00    -0.237 OA
ATOM    100  O   UNL     1       9.811  22.020 -10.198  1.00  0.00    -0.744 OA
ENDBRANCH  96  97
ENDBRANCH  64  89
ENDBRANCH  38  39
ENDBRANCH  30  33
ENDBRANCH  28  29
ENDBRANCH  27  28
ENDBRANCH   1  27
TORSDOF 18
