REMARK SMILES Cc1cnccc1N[C@@H]1C=C[C@@H](C(=O)NCCCNC(=O)c2ccc(-c3c4nc(c(-c5c(F)cc(S(=O)(=O)[O-])cc5F)c5ccc([nH]5)c(-c5c(F)cc(S(=O)(=O)[O-])cc5F)c5nc(c(-c6c(F)cc(S(=O)(=O)[O-])cc6F)c6ccc3[nH]6)C=C5)C=C4)cc2)C1
REMARK SMILES IDX 17 1 16 2 15 3 13 4 14 5 12 7 9 8 10 9 88 10 11 11 8 12 7 14
REMARK SMILES IDX 1 15 2 16 3 17 4 18 6 19 5 20 18 21 19 22 20 23 21 25 22 26
REMARK SMILES IDX 23 27 87 28 24 29 86 30 25 31 26 32 27 33 80 34 28 35 85 36
REMARK SMILES IDX 79 37 81 38 29 39 84 40 78 41 77 42 30 44 64 45 43 46 63 47
REMARK SMILES IDX 44 48 47 49 62 50 82 51 45 52 46 53 61 55 83 56 48 57 31 58
REMARK SMILES IDX 32 59 41 60 33 61 34 62 40 63 42 64 35 65 36 66 37 67 38 68
REMARK SMILES IDX 39 69 65 70 66 71 75 72 67 73 68 74 74 75 76 76 69 77 70 78
REMARK SMILES IDX 71 79 72 80 73 81 49 82 50 83 59 84 51 85 52 86 58 87 60 88
REMARK SMILES IDX 53 89 54 90 55 91 56 92 57 93
REMARK H PARENT 15 6 8 13 19 24 81 43 47 54
REMARK Flexibility Score: inf
ROOT
ATOM      1  C   UNL     1      -2.894   1.548   1.238  1.00  0.00     0.042 C 
ENDROOT
BRANCH   1   2
ATOM      2  C   UNL     1      -3.013   2.485   0.045  1.00  0.00     0.117 C 
BRANCH   2   3
ATOM      3  N   UNL     1      -3.622   3.750   0.408  1.00  0.00    -0.356 N 
ATOM      4  C   UNL     1      -3.107   5.003   0.478  1.00  0.00     0.227 C 
ATOM      5  O   UNL     1      -3.874   5.909   0.820  1.00  0.00    -0.274 OA
ATOM      6  H   UNL     1      -4.575   3.689   0.644  1.00  0.00     0.163 HD
BRANCH   4   7
ATOM      7  C   UNL     1      -1.656   5.321   0.130  1.00  0.00     0.103 C 
ATOM      8  C   UNL     1       0.494   4.145   0.053  1.00  0.00     0.103 C 
ATOM      9  C   UNL     1      -0.089   4.321  -1.309  1.00  0.00    -0.006 C 
ATOM     10  C   UNL     1      -0.590   4.658   1.013  1.00  0.00     0.046 C 
ATOM     11  C   UNL     1      -1.276   4.939  -1.273  1.00  0.00    -0.016 C 
BRANCH   8  12
ATOM     12  N   UNL     1       1.788   4.800   0.161  1.00  0.00    -0.379 N 
ATOM     13  H   UNL     1       2.571   4.208   0.081  1.00  0.00     0.161 HD
BRANCH  12  14
ATOM     14  C   UNL     1       2.074   6.139   0.359  1.00  0.00     0.040 A 
ATOM     15  C   UNL     1       4.242   5.592   1.626  1.00  0.00     0.048 C 
ATOM     16  C   UNL     1       3.191   6.534   1.115  1.00  0.00    -0.010 A 
ATOM     17  C   UNL     1       3.367   7.899   1.375  1.00  0.00     0.116 A 
ATOM     18  N   UNL     1       2.540   8.879   0.959  1.00  0.00    -0.264 NA
ATOM     19  C   UNL     1       1.237   7.158  -0.101  1.00  0.00     0.046 A 
ATOM     20  C   UNL     1       1.491   8.481   0.223  1.00  0.00     0.113 A 
ENDBRANCH  12  14
ENDBRANCH   8  12
ENDBRANCH   4   7
ENDBRANCH   2   3
ENDBRANCH   1   2
BRANCH   1  21
ATOM     21  C   UNL     1      -4.229   1.194   1.880  1.00  0.00     0.118 C 
BRANCH  21  22
ATOM     22  N   UNL     1      -5.123   0.507   0.959  1.00  0.00    -0.352 N 
ATOM     23  C   UNL     1      -5.692  -0.735   1.058  1.00  0.00     0.251 C 
ATOM     24  H   UNL     1      -5.353   1.010   0.145  1.00  0.00     0.163 HD
ATOM     25  O   UNL     1      -6.248  -1.224   0.070  1.00  0.00    -0.269 OA
BRANCH  23  26
ATOM     26  C   UNL     1      -5.632  -1.490   2.325  1.00  0.00     0.039 A 
ATOM     27  C   UNL     1      -5.407  -2.868   2.283  1.00  0.00     0.014 A 
ATOM     28  C   UNL     1      -5.820  -0.849   3.554  1.00  0.00     0.014 A 
ATOM     29  C   UNL     1      -5.325  -3.593   3.474  1.00  0.00     0.010 A 
ATOM     30  C   UNL     1      -5.647  -1.555   4.739  1.00  0.00     0.010 A 
ATOM     31  C   UNL     1      -5.417  -2.937   4.713  1.00  0.00    -0.014 A 
BRANCH  31  32
ATOM     32  C   UNL     1      -5.309  -3.687   5.989  1.00  0.00     0.031 A 
ATOM     33  C   UNL     1      -6.479  -3.729   6.937  1.00  0.00     0.074 A 
ATOM     34  C   UNL     1      -4.145  -4.281   6.319  1.00  0.00     0.049 A 
ATOM     35  N   UNL     1      -6.564  -4.282   8.119  1.00  0.00    -0.248 NA
ATOM     36  C   UNL     1      -7.705  -3.033   6.513  1.00  0.00     0.031 C 
ATOM     37  C   UNL     1      -2.926  -4.261   5.507  1.00  0.00     0.029 A 
ATOM     38  N   UNL     1      -3.794  -5.011   7.425  1.00  0.00    -0.354 N 
ATOM     39  C   UNL     1      -7.841  -3.986   8.585  1.00  0.00     0.074 A 
ATOM     40  C   UNL     1      -8.474  -3.156   7.584  1.00  0.00     0.031 C 
ATOM     41  C   UNL     1      -1.971  -4.971   6.130  1.00  0.00     0.029 A 
ATOM     42  C   UNL     1      -2.496  -5.465   7.399  1.00  0.00     0.049 A 
ATOM     43  H   UNL     1      -4.413  -5.193   8.169  1.00  0.00     0.167 HD
ATOM     44  C   UNL     1      -8.441  -4.392   9.729  1.00  0.00     0.037 A 
ATOM     45  C   UNL     1      -1.808  -6.196   8.297  1.00  0.00     0.037 A 
ATOM     46  C   UNL     1      -7.815  -5.247  10.703  1.00  0.00     0.049 A 
ATOM     47  C   UNL     1      -2.501  -6.652   9.552  1.00  0.00     0.074 A 
ATOM     48  C   UNL     1      -8.354  -5.766  11.866  1.00  0.00     0.029 A 
ATOM     49  N   UNL     1      -6.510  -5.712  10.624  1.00  0.00    -0.354 N 
ATOM     50  N   UNL     1      -3.730  -6.415   9.946  1.00  0.00    -0.248 NA
ATOM     51  C   UNL     1      -1.721  -7.482  10.478  1.00  0.00     0.031 C 
ATOM     52  C   UNL     1      -7.363  -6.512  12.511  1.00  0.00     0.029 A 
ATOM     53  C   UNL     1      -6.221  -6.499  11.726  1.00  0.00     0.049 A 
ATOM     54  H   UNL     1      -5.881  -5.511   9.893  1.00  0.00     0.167 HD
ATOM     55  C   UNL     1      -3.879  -7.092  11.152  1.00  0.00     0.074 A 
ATOM     56  C   UNL     1      -2.618  -7.754  11.416  1.00  0.00     0.031 C 
ATOM     57  C   UNL     1      -4.963  -7.161  11.965  1.00  0.00     0.037 A 
BRANCH  44  58
ATOM     58  C   UNL     1      -9.849  -3.925   9.982  1.00  0.00     0.058 A 
ATOM     59  C   UNL     1     -10.930  -4.393   9.217  1.00  0.00     0.135 A 
ATOM     60  C   UNL     1     -10.126  -3.019  11.019  1.00  0.00     0.135 A 
ATOM     61  F   UNL     1     -10.721  -5.248   8.203  1.00  0.00    -0.206 F 
ATOM     62  C   UNL     1     -12.230  -3.957   9.450  1.00  0.00     0.059 A 
ATOM     63  C   UNL     1     -11.423  -2.591  11.288  1.00  0.00     0.059 A 
ATOM     64  F   UNL     1      -9.131  -2.538  11.781  1.00  0.00    -0.206 F 
ATOM     65  C   UNL     1     -12.466  -3.054  10.488  1.00  0.00     0.060 A 
BRANCH  65  66
ATOM     66  S   UNL     1     -14.160  -2.500  10.778  1.00  0.00     0.124 S 
ATOM     67  O   UNL     1     -14.367  -1.596   9.651  1.00  0.00    -0.237 OA
ATOM     68  O   UNL     1     -14.910  -3.751  10.732  1.00  0.00    -0.237 OA
ATOM     69  O   UNL     1     -14.089  -1.863  12.089  1.00  0.00    -0.744 OA
ENDBRANCH  65  66
ENDBRANCH  44  58
BRANCH  45  70
ATOM     70  C   UNL     1      -0.395  -6.569   8.022  1.00  0.00     0.058 A 
ATOM     71  C   UNL     1      -0.045  -7.893   7.717  1.00  0.00     0.135 A 
ATOM     72  C   UNL     1       0.629  -5.610   8.039  1.00  0.00     0.135 A 
ATOM     73  F   UNL     1      -0.989  -8.847   7.692  1.00  0.00    -0.206 F 
ATOM     74  C   UNL     1       1.271  -8.257   7.453  1.00  0.00     0.059 A 
ATOM     75  C   UNL     1       1.950  -5.945   7.754  1.00  0.00     0.059 A 
ATOM     76  F   UNL     1       0.344  -4.326   8.306  1.00  0.00    -0.206 F 
ATOM     77  C   UNL     1       2.262  -7.274   7.472  1.00  0.00     0.060 A 
BRANCH  77  78
ATOM     78  S   UNL     1       3.960  -7.747   7.076  1.00  0.00     0.124 S 
ATOM     79  O   UNL     1       4.356  -8.457   8.286  1.00  0.00    -0.237 OA
ATOM     80  O   UNL     1       3.779  -8.568   5.883  1.00  0.00    -0.237 OA
ATOM     81  O   UNL     1       4.620  -6.465   6.850  1.00  0.00    -0.744 OA
ENDBRANCH  77  78
ENDBRANCH  45  70
BRANCH  57  82
ATOM     82  C   UNL     1      -4.849  -8.014  13.197  1.00  0.00     0.058 A 
ATOM     83  C   UNL     1      -4.090  -7.612  14.306  1.00  0.00     0.135 A 
ATOM     84  C   UNL     1      -5.556  -9.224  13.287  1.00  0.00     0.135 A 
ATOM     85  F   UNL     1      -3.391  -6.466  14.269  1.00  0.00    -0.206 F 
ATOM     86  C   UNL     1      -4.016  -8.393  15.455  1.00  0.00     0.059 A 
ATOM     87  C   UNL     1      -5.518 -10.007  14.436  1.00  0.00     0.059 A 
ATOM     88  F   UNL     1      -6.306  -9.648  12.257  1.00  0.00    -0.206 F 
ATOM     89  C   UNL     1      -4.736  -9.588  15.511  1.00  0.00     0.060 A 
BRANCH  89  90
ATOM     90  S   UNL     1      -4.659 -10.575  17.020  1.00  0.00     0.124 S 
ATOM     91  O   UNL     1      -3.326 -11.162  16.920  1.00  0.00    -0.237 OA
ATOM     92  O   UNL     1      -4.832  -9.568  18.062  1.00  0.00    -0.237 OA
ATOM     93  O   UNL     1      -5.770 -11.511  16.871  1.00  0.00    -0.744 OA
ENDBRANCH  89  90
ENDBRANCH  57  82
ENDBRANCH  31  32
ENDBRANCH  23  26
ENDBRANCH  21  22
ENDBRANCH   1  21
TORSDOF 15
