REMARK SMILES O=C(NCCCNC(=O)c1ccc(-c2c3nc(c(-c4c(F)cc(S(=O)(=O)[O-])cc4F)c4ccc([nH]4)c(-c4c(F)cc(S(=O)(=O)[O-])cc4F)c4nc(c(-c5c(F)cc(S(=O)(=O)[O-])cc5F)c5ccc2[nH]5)C=C4)C=C3)cc1)C1=Cc2cc(Cl)cc(-c3ccc(Cl)cc3)c2O[C@@H]1C(F)(F)F
REMARK SMILES IDX 6 1 5 2 4 3 3 4 1 5 2 6 76 8 77 9 93 10 78 11 92 12 79 13
REMARK SMILES IDX 91 14 80 15 83 16 81 17 82 18 94 19 95 20 96 21 97 22 84 23
REMARK SMILES IDX 85 24 90 25 86 26 89 27 87 28 88 29 7 30 8 31 9 33 10 34
REMARK SMILES IDX 11 35 75 36 12 37 74 38 13 39 14 40 15 41 68 42 16 43 73 44
REMARK SMILES IDX 67 45 69 46 17 47 72 48 66 49 65 50 18 52 52 53 31 54 51 55
REMARK SMILES IDX 32 56 35 57 50 58 70 59 33 60 34 61 49 63 71 64 36 65 19 66
REMARK SMILES IDX 20 67 29 68 21 69 22 70 28 71 30 72 23 73 24 74 25 75 26 76
REMARK SMILES IDX 27 77 53 78 54 79 63 80 55 81 56 82 62 83 64 84 57 85 58 86
REMARK SMILES IDX 59 87 60 88 61 89 37 90 38 91 47 92 39 93 40 94 46 95 48 96
REMARK SMILES IDX 41 97 42 98 43 99 44 100 45 101
REMARK H PARENT 3 7 7 32 69 51 35 62
REMARK Flexibility Score: inf
ROOT
ATOM      1  C   UNL     1       4.600   3.654  -1.830  1.00  0.00     0.118 C 
ENDROOT
BRANCH   1   2
ATOM      2  C   UNL     1       4.056   2.237  -2.002  1.00  0.00     0.042 C 
BRANCH   2   3
ATOM      3  C   UNL     1       2.992   1.877  -0.963  1.00  0.00     0.118 C 
BRANCH   3   4
ATOM      4  N   UNL     1       2.181   0.719  -1.357  1.00  0.00    -0.352 N 
ATOM      5  O   UNL     1       1.336  -1.384  -1.175  1.00  0.00    -0.270 OA
ATOM      6  C   UNL     1       2.215  -0.576  -0.906  1.00  0.00     0.251 C 
ATOM      7  H   UNL     1       1.509   0.899  -2.054  1.00  0.00     0.163 HD
BRANCH   6   8
ATOM      8  C   UNL     1       3.326  -0.929  -0.014  1.00  0.00     0.067 C 
ATOM      9  C   UNL     1       4.563  -0.900  -0.522  1.00  0.00     0.025 C 
ATOM     10  C   UNL     1       3.053  -0.958   1.454  1.00  0.00     0.314 C 
ATOM     11  C   UNL     1       5.583  -0.392   0.398  1.00  0.00     0.019 A 
ATOM     12  O   UNL     1       3.926  -0.046   2.166  1.00  0.00    -0.475 OA
ATOM     13  C   UNL     1       6.854  -0.125  -0.116  1.00  0.00     0.032 A 
ATOM     14  C   UNL     1       5.173   0.181   1.622  1.00  0.00     0.135 A 
ATOM     15  C   UNL     1       7.675   0.788   0.535  1.00  0.00     0.042 A 
ATOM     16  C   UNL     1       5.976   1.150   2.249  1.00  0.00     0.026 A 
ATOM     17  Cl  UNL     1       9.180   1.226  -0.170  1.00  0.00    -0.084 Cl
ATOM     18  C   UNL     1       7.234   1.439   1.687  1.00  0.00     0.033 A 
BRANCH  10  19
ATOM     19  C   UNL     1       3.112  -2.387   2.023  1.00  0.00     0.429 C 
ATOM     20  F   UNL     1       2.766  -2.405   3.334  1.00  0.00    -0.167 F 
ATOM     21  F   UNL     1       2.251  -3.218   1.388  1.00  0.00    -0.167 F 
ATOM     22  F   UNL     1       4.344  -2.939   1.929  1.00  0.00    -0.167 F 
ENDBRANCH  10  19
BRANCH  16  23
ATOM     23  C   UNL     1       5.479   2.003   3.341  1.00  0.00    -0.015 A 
ATOM     24  C   UNL     1       4.906   3.253   3.046  1.00  0.00     0.010 A 
ATOM     25  C   UNL     1       5.624   1.645   4.685  1.00  0.00     0.010 A 
ATOM     26  C   UNL     1       4.549   4.151   4.051  1.00  0.00     0.021 A 
ATOM     27  C   UNL     1       5.253   2.537   5.700  1.00  0.00     0.021 A 
ATOM     28  C   UNL     1       4.735   3.791   5.378  1.00  0.00     0.041 A 
ATOM     29  Cl  UNL     1       4.338   4.906   6.626  1.00  0.00    -0.084 Cl
ENDBRANCH  16  23
ENDBRANCH   6   8
ENDBRANCH   3   4
ENDBRANCH   2   3
ENDBRANCH   1   2
BRANCH   1  30
ATOM     30  N   UNL     1       5.325   3.894  -0.590  1.00  0.00    -0.352 N 
ATOM     31  C   UNL     1       6.062   5.006  -0.222  1.00  0.00     0.251 C 
ATOM     32  H   UNL     1       5.286   3.168   0.074  1.00  0.00     0.163 HD
ATOM     33  O   UNL     1       6.618   5.040   0.873  1.00  0.00    -0.269 OA
BRANCH  31  34
ATOM     34  C   UNL     1       6.289   6.094  -1.201  1.00  0.00     0.039 A 
ATOM     35  C   UNL     1       7.605   6.521  -1.412  1.00  0.00     0.014 A 
ATOM     36  C   UNL     1       5.264   6.566  -2.017  1.00  0.00     0.014 A 
ATOM     37  C   UNL     1       7.915   7.261  -2.554  1.00  0.00     0.010 A 
ATOM     38  C   UNL     1       5.587   7.207  -3.206  1.00  0.00     0.010 A 
ATOM     39  C   UNL     1       6.923   7.507  -3.513  1.00  0.00    -0.014 A 
BRANCH  39  40
ATOM     40  C   UNL     1       7.254   7.969  -4.886  1.00  0.00     0.031 A 
ATOM     41  C   UNL     1       6.620   9.216  -5.431  1.00  0.00     0.074 A 
ATOM     42  C   UNL     1       7.998   7.174  -5.685  1.00  0.00     0.049 A 
ATOM     43  N   UNL     1       6.593   9.659  -6.660  1.00  0.00    -0.248 NA
ATOM     44  C   UNL     1       5.872  10.046  -4.473  1.00  0.00     0.031 C 
ATOM     45  C   UNL     1       8.605   5.898  -5.290  1.00  0.00     0.029 A 
ATOM     46  N   UNL     1       8.353   7.306  -7.004  1.00  0.00    -0.354 N 
ATOM     47  C   UNL     1       5.788  10.791  -6.634  1.00  0.00     0.074 A 
ATOM     48  C   UNL     1       5.317  10.944  -5.274  1.00  0.00     0.031 C 
ATOM     49  C   UNL     1       9.278   5.383  -6.330  1.00  0.00     0.029 A 
ATOM     50  C   UNL     1       9.111   6.260  -7.482  1.00  0.00     0.049 A 
ATOM     51  H   UNL     1       8.090   8.076  -7.558  1.00  0.00     0.167 HD
ATOM     52  C   UNL     1       5.483  11.633  -7.650  1.00  0.00     0.037 A 
ATOM     53  C   UNL     1       9.606   6.028  -8.713  1.00  0.00     0.037 A 
ATOM     54  C   UNL     1       6.008  11.500  -8.982  1.00  0.00     0.049 A 
ATOM     55  C   UNL     1       9.320   7.020  -9.805  1.00  0.00     0.074 A 
ATOM     56  C   UNL     1       5.815  12.329 -10.073  1.00  0.00     0.029 A 
ATOM     57  N   UNL     1       6.848  10.477  -9.399  1.00  0.00    -0.354 N 
ATOM     58  N   UNL     1       8.583   8.104  -9.754  1.00  0.00    -0.248 NA
ATOM     59  C   UNL     1       9.927   6.762 -11.118  1.00  0.00     0.031 C 
ATOM     60  C   UNL     1       6.531  11.801 -11.153  1.00  0.00     0.029 A 
ATOM     61  C   UNL     1       7.190  10.657 -10.728  1.00  0.00     0.049 A 
ATOM     62  H   UNL     1       7.155   9.732  -8.833  1.00  0.00     0.167 HD
ATOM     63  C   UNL     1       8.658   8.672 -11.020  1.00  0.00     0.074 A 
ATOM     64  C   UNL     1       9.515   7.814 -11.813  1.00  0.00     0.031 C 
ATOM     65  C   UNL     1       8.067   9.800 -11.484  1.00  0.00     0.037 A 
BRANCH  52  66
ATOM     66  C   UNL     1       4.551  12.772  -7.345  1.00  0.00     0.058 A 
ATOM     67  C   UNL     1       4.949  13.853  -6.543  1.00  0.00     0.135 A 
ATOM     68  C   UNL     1       3.241  12.780  -7.851  1.00  0.00     0.135 A 
ATOM     69  F   UNL     1       6.186  13.886  -6.021  1.00  0.00    -0.206 F 
ATOM     70  C   UNL     1       4.069  14.877  -6.212  1.00  0.00     0.059 A 
ATOM     71  C   UNL     1       2.351  13.809  -7.555  1.00  0.00     0.059 A 
ATOM     72  F   UNL     1       2.808  11.772  -8.624  1.00  0.00    -0.206 F 
ATOM     73  C   UNL     1       2.768  14.841  -6.715  1.00  0.00     0.060 A 
BRANCH  73  74
ATOM     74  S   UNL     1       1.624  16.158  -6.251  1.00  0.00     0.124 S 
ATOM     75  O   UNL     1       1.249  15.751  -4.900  1.00  0.00    -0.237 OA
ATOM     76  O   UNL     1       2.460  17.351  -6.343  1.00  0.00    -0.237 OA
ATOM     77  O   UNL     1       0.568  16.057  -7.254  1.00  0.00    -0.744 OA
ENDBRANCH  73  74
ENDBRANCH  52  66
BRANCH  53  78
ATOM     78  C   UNL     1      10.447   4.827  -8.966  1.00  0.00     0.058 A 
ATOM     79  C   UNL     1      11.833   4.952  -9.139  1.00  0.00     0.135 A 
ATOM     80  C   UNL     1       9.896   3.538  -9.013  1.00  0.00     0.135 A 
ATOM     81  F   UNL     1      12.406   6.164  -9.104  1.00  0.00    -0.206 F 
ATOM     82  C   UNL     1      12.643   3.844  -9.365  1.00  0.00     0.059 A 
ATOM     83  C   UNL     1      10.688   2.412  -9.218  1.00  0.00     0.059 A 
ATOM     84  F   UNL     1       8.577   3.363  -8.832  1.00  0.00    -0.206 F 
ATOM     85  C   UNL     1      12.061   2.576  -9.403  1.00  0.00     0.060 A 
BRANCH  85  86
ATOM     86  S   UNL     1      13.127   1.137  -9.646  1.00  0.00     0.124 S 
ATOM     87  O   UNL     1      13.404   1.217 -11.075  1.00  0.00    -0.237 OA
ATOM     88  O   UNL     1      14.249   1.431  -8.760  1.00  0.00    -0.237 OA
ATOM     89  O   UNL     1      12.283   0.023  -9.226  1.00  0.00    -0.744 OA
ENDBRANCH  85  86
ENDBRANCH  53  78
BRANCH  65  90
ATOM     90  C   UNL     1       8.359  10.197 -12.900  1.00  0.00     0.058 A 
ATOM     91  C   UNL     1       7.720   9.575 -13.981  1.00  0.00     0.135 A 
ATOM     92  C   UNL     1       9.220  11.274 -13.167  1.00  0.00     0.135 A 
ATOM     93  F   UNL     1       6.896   8.536 -13.772  1.00  0.00    -0.206 F 
ATOM     94  C   UNL     1       7.924  10.008 -15.286  1.00  0.00     0.059 A 
ATOM     95  C   UNL     1       9.424  11.735 -14.463  1.00  0.00     0.059 A 
ATOM     96  F   UNL     1       9.849  11.902 -12.162  1.00  0.00    -0.206 F 
ATOM     97  C   UNL     1       8.772  11.094 -15.516  1.00  0.00     0.060 A 
BRANCH  97  98
ATOM     98  S   UNL     1       8.969  11.697 -17.206  1.00  0.00     0.124 S 
ATOM     99  O   UNL     1       9.877  10.704 -17.769  1.00  0.00    -0.237 OA
ATOM    100  O   UNL     1       7.600  11.665 -17.713  1.00  0.00    -0.237 OA
ATOM    101  O   UNL     1       9.531  13.032 -17.024  1.00  0.00    -0.744 OA
ENDBRANCH  97  98
ENDBRANCH  65  90
ENDBRANCH  39  40
ENDBRANCH  31  34
ENDBRANCH   1  30
TORSDOF 15
