REMARK SMILES Cn1ncc(C(=O)NCCCNC(=O)c2ccc(-c3c4nc(c(-c5c(F)cc(S(=O)(=O)[O-])cc5F)c5ccc([nH]5)c(-c5c(F)cc(S(=O)(=O)[O-])cc5F)c5nc(c(-c6c(F)cc(S(=O)(=O)[O-])cc6F)c6ccc3[nH]6)C=C5)C=C4)cc2)c1C(=O)NCC1CC[NH+](Cc2ccccc2)CC1
REMARK SMILES IDX 9 1 8 2 6 3 7 4 5 6 1 7 2 8 3 9 81 10 4 11 82 12 83 13 84 14
REMARK SMILES IDX 85 16 86 17 87 18 98 19 88 20 97 21 89 22 90 24 91 25 92 26
REMARK SMILES IDX 96 27 93 28 95 29 94 30 10 31 11 32 12 33 13 34 14 36 15 37
REMARK SMILES IDX 16 38 80 39 17 40 79 41 18 42 19 43 20 44 73 45 21 46 78 47
REMARK SMILES IDX 72 48 74 49 22 50 77 51 71 52 70 53 23 55 57 56 36 57 56 58
REMARK SMILES IDX 37 59 40 60 55 61 75 62 38 63 39 64 54 66 76 67 41 68 24 69
REMARK SMILES IDX 25 70 34 71 26 72 27 73 33 74 35 75 28 76 29 77 30 78 31 79
REMARK SMILES IDX 32 80 58 81 59 82 68 83 60 84 61 85 67 86 69 87 62 88 63 89
REMARK SMILES IDX 64 90 65 91 66 92 42 93 43 94 52 95 44 96 45 97 51 98 53 99
REMARK SMILES IDX 46 100 47 101 48 102 49 103 50 104
REMARK H PARENT 8 5 84 15 89 23 12 35 74 54 40 65
REMARK Flexibility Score: inf
ROOT
ATOM      1  C   UNL     1       1.041  -4.372   1.259  1.00  0.00     0.118 C 
ENDROOT
BRANCH   1   2
ATOM      2  N   UNL     1       2.132  -3.421   1.296  1.00  0.00    -0.352 N 
ATOM      3  C   UNL     1       2.336  -2.122   0.942  1.00  0.00     0.255 C 
ATOM      4  O   UNL     1       3.529  -1.795   0.935  1.00  0.00    -0.269 OA
ATOM      5  H   UNL     1       2.946  -3.821   1.680  1.00  0.00     0.163 HD
BRANCH   3   6
ATOM      6  C   UNL     1       1.333  -1.124   0.608  1.00  0.00     0.090 A 
ATOM      7  C   UNL     1      -1.558   1.060   0.527  1.00  0.00     0.174 C 
ATOM      8  N   UNL     1      -0.303   0.349   0.401  1.00  0.00    -0.262 N 
ATOM      9  N   UNL     1       0.739   0.990  -0.137  1.00  0.00    -0.180 NA
ATOM     10  C   UNL     1      -0.038  -0.958   0.768  1.00  0.00     0.138 A 
ATOM     11  C   UNL     1       1.730   0.117   0.017  1.00  0.00     0.149 A 
BRANCH  10  12
ATOM     12  C   UNL     1      -1.128  -1.764   1.228  1.00  0.00     0.270 C 
ATOM     13  O   UNL     1      -1.554  -1.751   2.374  1.00  0.00    -0.268 OA
ATOM     14  N   UNL     1      -1.798  -2.321   0.164  1.00  0.00    -0.350 N 
ATOM     15  H   UNL     1      -1.282  -2.701  -0.583  1.00  0.00     0.163 HD
BRANCH  14  16
ATOM     16  C   UNL     1      -3.242  -2.361   0.117  1.00  0.00     0.120 C 
BRANCH  16  17
ATOM     17  C   UNL     1      -3.848  -2.439  -1.301  1.00  0.00     0.019 C 
ATOM     18  C   UNL     1      -3.515  -3.742  -2.040  1.00  0.00     0.067 C 
ATOM     19  C   UNL     1      -3.557  -1.222  -2.196  1.00  0.00     0.067 C 
ATOM     20  C   UNL     1      -2.190  -3.725  -2.808  1.00  0.00     0.262 C 
ATOM     21  C   UNL     1      -2.208  -1.278  -2.916  1.00  0.00     0.262 C 
ATOM     22  N   UNL     1      -2.065  -2.535  -3.640  1.00  0.00    -0.331 N 
ATOM     23  H   UNL     1      -2.886  -2.563  -4.245  1.00  0.00     0.348 HD
BRANCH  22  24
ATOM     24  C   UNL     1      -0.928  -2.571  -4.572  1.00  0.00     0.299 C 
BRANCH  24  25
ATOM     25  C   UNL     1       0.442  -2.297  -3.986  1.00  0.00     0.006 A 
ATOM     26  C   UNL     1       0.975  -0.998  -4.010  1.00  0.00     0.009 A 
ATOM     27  C   UNL     1       1.218  -3.329  -3.442  1.00  0.00     0.009 A 
ATOM     28  C   UNL     1       2.245  -0.737  -3.496  1.00  0.00     0.001 A 
ATOM     29  C   UNL     1       2.489  -3.065  -2.923  1.00  0.00     0.001 A 
ATOM     30  C   UNL     1       3.001  -1.770  -2.947  1.00  0.00     0.000 A 
ENDBRANCH  24  25
ENDBRANCH  22  24
ENDBRANCH  16  17
ENDBRANCH  14  16
ENDBRANCH  10  12
ENDBRANCH   3   6
ENDBRANCH   1   2
BRANCH   1  31
ATOM     31  C   UNL     1       1.024  -5.196  -0.030  1.00  0.00     0.042 C 
BRANCH  31  32
ATOM     32  C   UNL     1       2.323  -5.948  -0.344  1.00  0.00     0.118 C 
BRANCH  32  33
ATOM     33  N   UNL     1       2.451  -7.203   0.380  1.00  0.00    -0.352 N 
ATOM     34  C   UNL     1       2.289  -8.504  -0.036  1.00  0.00     0.251 C 
ATOM     35  H   UNL     1       2.696  -7.104   1.328  1.00  0.00     0.163 HD
ATOM     36  O   UNL     1       2.296  -9.396   0.810  1.00  0.00    -0.269 OA
BRANCH  34  37
ATOM     37  C   UNL     1       2.080  -8.860  -1.463  1.00  0.00     0.039 A 
ATOM     38  C   UNL     1       1.133  -9.846  -1.766  1.00  0.00     0.014 A 
ATOM     39  C   UNL     1       2.861  -8.324  -2.491  1.00  0.00     0.014 A 
ATOM     40  C   UNL     1       0.936 -10.258  -3.090  1.00  0.00     0.010 A 
ATOM     41  C   UNL     1       2.631  -8.700  -3.820  1.00  0.00     0.010 A 
ATOM     42  C   UNL     1       1.673  -9.678  -4.133  1.00  0.00    -0.014 A 
BRANCH  42  43
ATOM     43  C   UNL     1       1.485 -10.119  -5.542  1.00  0.00     0.031 A 
ATOM     44  C   UNL     1       2.569 -10.895  -6.243  1.00  0.00     0.074 A 
ATOM     45  C   UNL     1       0.359  -9.803  -6.210  1.00  0.00     0.049 A 
ATOM     46  N   UNL     1       2.626 -11.293  -7.489  1.00  0.00    -0.248 NA
ATOM     47  C   UNL     1       3.748 -11.256  -5.441  1.00  0.00     0.031 C 
ATOM     48  C   UNL     1      -0.768  -9.048  -5.663  1.00  0.00     0.029 A 
ATOM     49  N   UNL     1      -0.019 -10.075  -7.503  1.00  0.00    -0.354 N 
ATOM     50  C   UNL     1       3.856 -11.924  -7.630  1.00  0.00     0.074 A 
ATOM     51  C   UNL     1       4.519 -11.846  -6.345  1.00  0.00     0.031 C 
ATOM     52  C   UNL     1      -1.714  -8.924  -6.609  1.00  0.00     0.029 A 
ATOM     53  C   UNL     1      -1.252  -9.568  -7.837  1.00  0.00     0.049 A 
ATOM     54  H   UNL     1       0.542 -10.585  -8.131  1.00  0.00     0.167 HD
ATOM     55  C   UNL     1       4.385 -12.522  -8.724  1.00  0.00     0.037 A 
ATOM     56  C   UNL     1      -1.931  -9.608  -9.000  1.00  0.00     0.037 A 
ATOM     57  C   UNL     1       3.720 -12.646  -9.994  1.00  0.00     0.049 A 
ATOM     58  C   UNL     1      -1.338 -10.304 -10.193  1.00  0.00     0.074 A 
ATOM     59  C   UNL     1       4.171 -13.271 -11.145  1.00  0.00     0.029 A 
ATOM     60  N   UNL     1       2.460 -12.146 -10.278  1.00  0.00    -0.354 N 
ATOM     61  N   UNL     1      -0.179 -10.906 -10.301  1.00  0.00    -0.248 NA
ATOM     62  C   UNL     1      -2.146 -10.326 -11.422  1.00  0.00     0.031 C 
ATOM     63  C   UNL     1       3.185 -13.137 -12.131  1.00  0.00     0.029 A 
ATOM     64  C   UNL     1       2.117 -12.444 -11.586  1.00  0.00     0.049 A 
ATOM     65  H   UNL     1       1.893 -11.651  -9.644  1.00  0.00     0.167 HD
ATOM     66  C   UNL     1      -0.123 -11.388 -11.604  1.00  0.00     0.074 A 
ATOM     67  C   UNL     1      -1.366 -11.014 -12.246  1.00  0.00     0.031 C 
ATOM     68  C   UNL     1       0.873 -12.077 -12.212  1.00  0.00     0.037 A 
BRANCH  55  69
ATOM     69  C   UNL     1       5.768 -13.087  -8.592  1.00  0.00     0.058 A 
ATOM     70  C   UNL     1       5.998 -14.318  -7.960  1.00  0.00     0.135 A 
ATOM     71  C   UNL     1       6.872 -12.395  -9.112  1.00  0.00     0.135 A 
ATOM     72  F   UNL     1       4.974 -15.008  -7.433  1.00  0.00    -0.206 F 
ATOM     73  C   UNL     1       7.282 -14.834  -7.824  1.00  0.00     0.059 A 
ATOM     74  C   UNL     1       8.164 -12.899  -9.001  1.00  0.00     0.059 A 
ATOM     75  F   UNL     1       6.701 -11.212  -9.723  1.00  0.00    -0.206 F 
ATOM     76  C   UNL     1       8.360 -14.111  -8.339  1.00  0.00     0.060 A 
BRANCH  76  77
ATOM     77  S   UNL     1      10.030 -14.771  -8.147  1.00  0.00     0.124 S 
ATOM     78  O   UNL     1      10.364 -14.320  -6.800  1.00  0.00    -0.237 OA
ATOM     79  O   UNL     1       9.826 -16.208  -8.301  1.00  0.00    -0.237 OA
ATOM     80  O   UNL     1      10.769 -14.129  -9.229  1.00  0.00    -0.744 OA
ENDBRANCH  76  77
ENDBRANCH  55  69
BRANCH  56  81
ATOM     81  C   UNL     1      -3.268  -8.973  -9.089  1.00  0.00     0.058 A 
ATOM     82  C   UNL     1      -4.435  -9.749  -9.045  1.00  0.00     0.135 A 
ATOM     83  C   UNL     1      -3.405  -7.581  -9.194  1.00  0.00     0.135 A 
ATOM     84  F   UNL     1      -4.349 -11.084  -8.952  1.00  0.00    -0.206 F 
ATOM     85  C   UNL     1      -5.696  -9.167  -9.104  1.00  0.00     0.059 A 
ATOM     86  C   UNL     1      -4.655  -6.975  -9.242  1.00  0.00     0.059 A 
ATOM     87  F   UNL     1      -2.314  -6.800  -9.228  1.00  0.00    -0.206 F 
ATOM     88  C   UNL     1      -5.796  -7.777  -9.201  1.00  0.00     0.060 A 
BRANCH  88  89
ATOM     89  S   UNL     1      -7.433  -7.014  -9.201  1.00  0.00     0.124 S 
ATOM     90  O   UNL     1      -7.810  -7.130 -10.604  1.00  0.00    -0.237 OA
ATOM     91  O   UNL     1      -8.174  -7.858  -8.268  1.00  0.00    -0.237 OA
ATOM     92  O   UNL     1      -7.164  -5.660  -8.725  1.00  0.00    -0.744 OA
ENDBRANCH  88  89
ENDBRANCH  56  81
BRANCH  68  93
ATOM     93  C   UNL     1       0.657 -12.493 -13.636  1.00  0.00     0.058 A 
ATOM     94  C   UNL     1       0.875 -11.600 -14.696  1.00  0.00     0.135 A 
ATOM     95  C   UNL     1       0.289 -13.811 -13.947  1.00  0.00     0.135 A 
ATOM     96  F   UNL     1       1.222 -10.328 -14.447  1.00  0.00    -0.206 F 
ATOM     97  C   UNL     1       0.728 -11.999 -16.021  1.00  0.00     0.059 A 
ATOM     98  C   UNL     1       0.147 -14.234 -15.265  1.00  0.00     0.059 A 
ATOM     99  F   UNL     1       0.075 -14.701 -12.966  1.00  0.00    -0.206 F 
ATOM    100  C   UNL     1       0.362 -13.319 -16.296  1.00  0.00     0.060 A 
BRANCH 100 101
ATOM    101  S   UNL     1       0.219 -13.849 -18.017  1.00  0.00     0.124 S 
ATOM    102  O   UNL     1      -1.128 -13.397 -18.350  1.00  0.00    -0.237 OA
ATOM    103  O   UNL     1       1.308 -13.126 -18.666  1.00  0.00    -0.237 OA
ATOM    104  O   UNL     1       0.397 -15.295 -17.937  1.00  0.00    -0.744 OA
ENDBRANCH 100 101
ENDBRANCH  68  93
ENDBRANCH  42  43
ENDBRANCH  34  37
ENDBRANCH  32  33
ENDBRANCH  31  32
ENDBRANCH   1  31
TORSDOF 18
