REMARK SMILES CC(C)[C@H](C(=O)NCCCNC(=O)c1ccc(-c2c3nc(c(-c4c(F)cc(S(=O)(=O)[O-])cc4F)c4ccc([nH]4)c(-c4c(F)cc(S(=O)(=O)[O-])cc4F)c4nc(c(-c5c(F)cc(S(=O)(=O)[O-])cc5F)c5ccc2[nH]5)C=C4)C=C3)cc1)[NH+]1CC2(CCCCCC2)C1
REMARK SMILES IDX 8 1 7 2 5 3 6 4 4 6 2 7 1 8 3 9 80 10 81 11 89 12 82 14
REMARK SMILES IDX 83 15 84 16 88 18 87 19 86 20 85 21 9 23 10 24 11 25 12 26
REMARK SMILES IDX 13 28 14 29 15 30 79 31 16 32 78 33 17 34 18 35 19 36 72 37
REMARK SMILES IDX 20 38 77 39 71 40 73 41 21 42 76 43 70 44 69 45 22 47 56 48
REMARK SMILES IDX 35 49 55 50 36 51 39 52 54 53 74 54 37 55 38 56 53 58 75 59
REMARK SMILES IDX 40 60 23 61 24 62 33 63 25 64 26 65 32 66 34 67 27 68 28 69
REMARK SMILES IDX 29 70 30 71 31 72 57 73 58 74 67 75 59 76 60 77 66 78 68 79
REMARK SMILES IDX 61 80 62 81 63 82 64 83 65 84 41 85 42 86 51 87 43 88 44 89
REMARK SMILES IDX 50 90 52 91 45 92 46 93 47 94 48 95 49 96
REMARK H PARENT 7 5 80 13 11 27 73 46 39 57
REMARK Flexibility Score: 80.00
ROOT
ATOM      1  C   UNL     1       0.519   3.865  -1.373  1.00  0.00     0.118 C 
ENDROOT
BRANCH   1   2
ATOM      2  N   UNL     1       0.885   2.614  -0.734  1.00  0.00    -0.351 N 
ATOM      3  C   UNL     1       0.152   1.629  -0.143  1.00  0.00     0.278 C 
ATOM      4  O   UNL     1       0.829   0.689   0.298  1.00  0.00    -0.268 OA
ATOM      5  H   UNL     1       1.854   2.443  -0.727  1.00  0.00     0.163 HD
BRANCH   3   6
ATOM      6  C   UNL     1      -1.425   1.627  -0.052  1.00  0.00     0.276 C 
BRANCH   6   7
ATOM      7  C   UNL     1      -1.871   0.130   0.318  1.00  0.00     0.051 C 
ATOM      8  C   UNL     1      -3.217  -0.164   0.977  1.00  0.00     0.014 C 
ATOM      9  C   UNL     1      -1.840  -0.745  -0.953  1.00  0.00     0.014 C 
ENDBRANCH   6   7
BRANCH   6  10
ATOM     10  N   UNL     1      -1.946   2.888   0.557  1.00  0.00    -0.323 N 
ATOM     11  C   UNL     1      -1.175   3.556   1.631  1.00  0.00     0.275 C 
ATOM     12  C   UNL     1      -3.064   2.794   1.496  1.00  0.00     0.275 C 
ATOM     13  H   UNL     1      -2.046   3.324  -0.360  1.00  0.00     0.348 HD
ATOM     14  C   UNL     1      -2.057   2.871   2.725  1.00  0.00     0.068 C 
BRANCH  14  15
ATOM     15  C   UNL     1      -2.630   3.818   3.796  1.00  0.00     0.019 C 
BRANCH  15  16
ATOM     16  C   UNL     1      -3.423   3.140   4.925  1.00  0.00     0.001 CG0
ATOM     17  G   UNL     1      -3.933   1.726   4.656  1.00  0.00     0.000 G0
ENDBRANCH  15  16
ENDBRANCH  14  15
BRANCH  14  18
ATOM     18  C   UNL     1      -1.103   1.796   3.287  1.00  0.00     0.019 C 
BRANCH  18  19
ATOM     19  C   UNL     1      -1.439   1.111   4.597  1.00  0.00     0.001 C 
BRANCH  19  20
ATOM     20  C   UNL     1      -2.867   0.637   4.775  1.00  0.00     0.000 C 
BRANCH  20  21
ATOM     21  C   UNL     1      -3.933   1.726   4.656  1.00  0.00     0.000 CG0
ATOM     22  G   UNL     1      -3.423   3.140   4.925  1.00  0.00     0.000 G0
ENDBRANCH  20  21
ENDBRANCH  19  20
ENDBRANCH  18  19
ENDBRANCH  14  18
ENDBRANCH   6  10
ENDBRANCH   3   6
ENDBRANCH   1   2
BRANCH   1  23
ATOM     23  C   UNL     1       0.954   5.101  -0.576  1.00  0.00     0.042 C 
BRANCH  23  24
ATOM     24  C   UNL     1       2.455   5.226  -0.303  1.00  0.00     0.118 C 
BRANCH  24  25
ATOM     25  N   UNL     1       3.171   5.813  -1.423  1.00  0.00    -0.352 N 
ATOM     26  C   UNL     1       3.721   7.065  -1.570  1.00  0.00     0.251 C 
ATOM     27  H   UNL     1       3.279   5.220  -2.200  1.00  0.00     0.163 HD
ATOM     28  O   UNL     1       4.058   7.429  -2.696  1.00  0.00    -0.269 OA
BRANCH  26  29
ATOM     29  C   UNL     1       3.912   7.986  -0.418  1.00  0.00     0.039 A 
ATOM     30  C   UNL     1       3.706   9.356  -0.619  1.00  0.00     0.014 A 
ATOM     31  C   UNL     1       4.382   7.542   0.821  1.00  0.00     0.014 A 
ATOM     32  C   UNL     1       3.931  10.267   0.421  1.00  0.00     0.010 A 
ATOM     33  C   UNL     1       4.544   8.445   1.879  1.00  0.00     0.010 A 
ATOM     34  C   UNL     1       4.334   9.820   1.689  1.00  0.00    -0.014 A 
BRANCH  34  35
ATOM     35  C   UNL     1       4.555  10.777   2.811  1.00  0.00     0.031 A 
ATOM     36  C   UNL     1       5.929  10.955   3.408  1.00  0.00     0.074 A 
ATOM     37  C   UNL     1       3.514  11.456   3.332  1.00  0.00     0.049 A 
ATOM     38  N   UNL     1       6.302  11.697   4.421  1.00  0.00    -0.248 NA
ATOM     39  C   UNL     1       7.021  10.179   2.801  1.00  0.00     0.031 C 
ATOM     40  C   UNL     1       2.125  11.349   2.880  1.00  0.00     0.029 A 
ATOM     41  N   UNL     1       3.457  12.363   4.363  1.00  0.00    -0.354 N 
ATOM     42  C   UNL     1       7.662  11.460   4.588  1.00  0.00     0.074 A 
ATOM     43  C   UNL     1       8.039  10.475   3.596  1.00  0.00     0.031 C 
ATOM     44  C   UNL     1       1.358  12.166   3.618  1.00  0.00     0.029 A 
ATOM     45  C   UNL     1       2.190  12.832   4.617  1.00  0.00     0.049 A 
ATOM     46  H   UNL     1       4.249  12.649   4.872  1.00  0.00     0.167 HD
ATOM     47  C   UNL     1       8.524  12.023   5.471  1.00  0.00     0.037 A 
ATOM     48  C   UNL     1       1.742  13.695   5.551  1.00  0.00     0.037 A 
ATOM     49  C   UNL     1       8.157  13.028   6.436  1.00  0.00     0.049 A 
ATOM     50  C   UNL     1       2.716  14.323   6.509  1.00  0.00     0.074 A 
ATOM     51  C   UNL     1       8.973  13.708   7.324  1.00  0.00     0.029 A 
ATOM     52  N   UNL     1       6.867  13.496   6.642  1.00  0.00    -0.354 N 
ATOM     53  N   UNL     1       4.010  14.133   6.609  1.00  0.00    -0.248 NA
ATOM     54  C   UNL     1       2.173  15.288   7.475  1.00  0.00     0.031 C 
ATOM     55  C   UNL     1       8.171  14.559   8.094  1.00  0.00     0.029 A 
ATOM     56  C   UNL     1       6.861  14.441   7.657  1.00  0.00     0.049 A 
ATOM     57  H   UNL     1       6.073  13.200   6.142  1.00  0.00     0.167 HD
ATOM     58  C   UNL     1       4.439  14.969   7.635  1.00  0.00     0.074 A 
ATOM     59  C   UNL     1       3.269  15.675   8.116  1.00  0.00     0.031 C 
ATOM     60  C   UNL     1       5.691  15.137   8.130  1.00  0.00     0.037 A 
BRANCH  47  61
ATOM     61  C   UNL     1       9.956  11.559   5.435  1.00  0.00     0.058 A 
ATOM     62  C   UNL     1      10.813  11.886   4.372  1.00  0.00     0.135 A 
ATOM     63  C   UNL     1      10.483  10.788   6.485  1.00  0.00     0.135 A 
ATOM     64  F   UNL     1      10.360  12.612   3.337  1.00  0.00    -0.206 F 
ATOM     65  C   UNL     1      12.127  11.430   4.329  1.00  0.00     0.059 A 
ATOM     66  C   UNL     1      11.803  10.345   6.476  1.00  0.00     0.059 A 
ATOM     67  F   UNL     1       9.711  10.452   7.530  1.00  0.00    -0.206 F 
ATOM     68  C   UNL     1      12.610  10.653   5.382  1.00  0.00     0.060 A 
BRANCH  68  69
ATOM     69  S   UNL     1      14.309  10.047   5.302  1.00  0.00     0.124 S 
ATOM     70  O   UNL     1      14.185   8.967   4.327  1.00  0.00    -0.237 OA
ATOM     71  O   UNL     1      15.043  11.225   4.851  1.00  0.00    -0.237 OA
ATOM     72  O   UNL     1      14.585   9.627   6.672  1.00  0.00    -0.744 OA
ENDBRANCH  68  69
ENDBRANCH  47  61
BRANCH  48  73
ATOM     73  C   UNL     1       0.294  14.031   5.604  1.00  0.00     0.058 A 
ATOM     74  C   UNL     1      -0.171  15.280   5.168  1.00  0.00     0.135 A 
ATOM     75  C   UNL     1      -0.654  13.098   6.050  1.00  0.00     0.135 A 
ATOM     76  F   UNL     1       0.699  16.209   4.742  1.00  0.00    -0.206 F 
ATOM     77  C   UNL     1      -1.526  15.594   5.171  1.00  0.00     0.059 A 
ATOM     78  C   UNL     1      -2.016  13.380   6.042  1.00  0.00     0.059 A 
ATOM     79  F   UNL     1      -0.259  11.884   6.464  1.00  0.00    -0.206 F 
ATOM     80  C   UNL     1      -2.443  14.633   5.604  1.00  0.00     0.060 A 
BRANCH  80  81
ATOM     81  S   UNL     1      -4.205  15.021   5.527  1.00  0.00     0.124 S 
ATOM     82  O   UNL     1      -4.355  15.933   6.654  1.00  0.00    -0.237 OA
ATOM     83  O   UNL     1      -4.332  15.616   4.201  1.00  0.00    -0.237 OA
ATOM     84  O   UNL     1      -4.841  13.715   5.682  1.00  0.00    -0.744 OA
ENDBRANCH  80  81
ENDBRANCH  48  73
BRANCH  60  85
ATOM     85  C   UNL     1       5.869  16.139   9.237  1.00  0.00     0.058 A 
ATOM     86  C   UNL     1       5.439  15.874  10.547  1.00  0.00     0.135 A 
ATOM     87  C   UNL     1       6.521  17.359   8.995  1.00  0.00     0.135 A 
ATOM     88  F   UNL     1       4.804  14.726  10.830  1.00  0.00    -0.206 F 
ATOM     89  C   UNL     1       5.632  16.792  11.574  1.00  0.00     0.059 A 
ATOM     90  C   UNL     1       6.746  18.282  10.013  1.00  0.00     0.059 A 
ATOM     91  F   UNL     1       6.960  17.658   7.762  1.00  0.00    -0.206 F 
ATOM     92  C   UNL     1       6.287  17.994  11.297  1.00  0.00     0.060 A 
BRANCH  92  93
ATOM     93  S   UNL     1       6.560  19.164  12.645  1.00  0.00     0.124 S 
ATOM     94  O   UNL     1       5.229  19.737  12.812  1.00  0.00    -0.237 OA
ATOM     95  O   UNL     1       7.017  18.297  13.727  1.00  0.00    -0.237 OA
ATOM     96  O   UNL     1       7.572  20.070  12.108  1.00  0.00    -0.744 OA
ENDBRANCH  92  93
ENDBRANCH  60  85
ENDBRANCH  34  35
ENDBRANCH  26  29
ENDBRANCH  24  25
ENDBRANCH  23  24
ENDBRANCH   1  23
TORSDOF 15
