REMARK SMILES C[C@H](C(=O)NCCCNC(=O)c1ccc(-c2c3nc(c(-c4c(F)cc(S(=O)(=O)[O-])cc4F)c4ccc([nH]4)c(-c4c(F)cc(S(=O)(=O)[O-])cc4F)c4nc(c(-c5c(F)cc(S(=O)(=O)[O-])cc5F)c5ccc2[nH]5)C=C4)C=C3)cc1)c1ccc(C[C@@H]2CCC[C@H]2O)cc1
REMARK SMILES IDX 6 1 5 2 3 3 4 4 2 6 1 7 78 8 79 9 90 10 80 11 89 12 81 13
REMARK SMILES IDX 82 14 83 15 84 16 87 17 85 18 86 19 88 20 7 22 8 23 9 24
REMARK SMILES IDX 10 25 11 27 12 28 13 29 77 30 14 31 76 32 15 33 16 34 17 35
REMARK SMILES IDX 70 36 18 37 75 38 69 39 71 40 19 41 74 42 68 43 67 44 20 46
REMARK SMILES IDX 54 47 33 48 53 49 34 50 37 51 52 52 72 53 35 54 36 55 51 57
REMARK SMILES IDX 73 58 38 59 21 60 22 61 31 62 23 63 24 64 30 65 32 66 25 67
REMARK SMILES IDX 26 68 27 69 28 70 29 71 55 72 56 73 65 74 57 75 58 76 64 77
REMARK SMILES IDX 66 78 59 79 60 80 61 81 62 82 63 83 39 84 40 85 49 86 41 87
REMARK SMILES IDX 42 88 48 89 50 90 43 91 44 92 45 93 46 94 47 95
REMARK H PARENT 5 5 88 21 9 26 71 45 37 56
REMARK Flexibility Score: inf
ROOT
ATOM      1  C   UNL     1     -11.663   5.354   7.948  1.00  0.00     0.117 C 
ENDROOT
BRANCH   1   2
ATOM      2  N   UNL     1     -11.346   5.916   6.649  1.00  0.00    -0.356 N 
ATOM      3  C   UNL     1     -10.647   5.390   5.602  1.00  0.00     0.227 C 
ATOM      4  O   UNL     1     -10.464   6.157   4.656  1.00  0.00    -0.274 OA
ATOM      5  H   UNL     1     -11.691   6.825   6.499  1.00  0.00     0.163 HD
BRANCH   3   6
ATOM      6  C   UNL     1     -10.101   3.954   5.690  1.00  0.00     0.105 C 
ATOM      7  C   UNL     1     -11.196   2.930   6.040  1.00  0.00     0.023 C 
BRANCH   6   8
ATOM      8  C   UNL     1      -9.328   3.423   4.482  1.00  0.00    -0.036 A 
ATOM      9  C   UNL     1      -8.484   2.315   4.673  1.00  0.00     0.005 A 
ATOM     10  C   UNL     1      -9.486   3.902   3.176  1.00  0.00     0.005 A 
ATOM     11  C   UNL     1      -7.822   1.719   3.599  1.00  0.00     0.004 A 
ATOM     12  C   UNL     1      -8.778   3.341   2.110  1.00  0.00     0.004 A 
ATOM     13  C   UNL     1      -7.929   2.250   2.312  1.00  0.00    -0.048 A 
BRANCH  13  14
ATOM     14  C   UNL     1      -7.151   1.672   1.159  1.00  0.00     0.041 C 
BRANCH  14  15
ATOM     15  C   UNL     1      -5.638   1.970   1.092  1.00  0.00     0.022 C 
ATOM     16  C   UNL     1      -4.810   1.321   2.208  1.00  0.00     0.007 C 
ATOM     17  C   UNL     1      -5.262   3.453   1.177  1.00  0.00     0.117 C 
ATOM     18  C   UNL     1      -4.520   2.409   3.243  1.00  0.00     0.003 C 
ATOM     19  C   UNL     1      -5.013   3.731   2.656  1.00  0.00     0.032 C 
BRANCH  17  20
ATOM     20  O   UNL     1      -4.051   3.669   0.447  1.00  0.00    -0.393 OA
ATOM     21  H   UNL     1      -3.351   3.100   0.804  1.00  0.00     0.210 HD
ENDBRANCH  17  20
ENDBRANCH  14  15
ENDBRANCH  13  14
ENDBRANCH   6   8
ENDBRANCH   3   6
ENDBRANCH   1   2
BRANCH   1  22
ATOM     22  C   UNL     1     -11.472   6.357   9.075  1.00  0.00     0.042 C 
BRANCH  22  23
ATOM     23  C   UNL     1     -12.271   7.646   8.928  1.00  0.00     0.118 C 
BRANCH  23  24
ATOM     24  N   UNL     1     -13.711   7.434   8.890  1.00  0.00    -0.352 N 
ATOM     25  C   UNL     1     -14.688   7.869   9.755  1.00  0.00     0.251 C 
ATOM     26  H   UNL     1     -14.034   6.898   8.130  1.00  0.00     0.163 HD
ATOM     27  O   UNL     1     -15.839   7.458   9.630  1.00  0.00    -0.269 OA
BRANCH  25  28
ATOM     28  C   UNL     1     -14.345   8.795  10.855  1.00  0.00     0.039 A 
ATOM     29  C   UNL     1     -14.823   8.525  12.139  1.00  0.00     0.014 A 
ATOM     30  C   UNL     1     -13.531   9.908  10.631  1.00  0.00     0.014 A 
ATOM     31  C   UNL     1     -14.402   9.312  13.213  1.00  0.00     0.010 A 
ATOM     32  C   UNL     1     -13.043  10.636  11.712  1.00  0.00     0.010 A 
ATOM     33  C   UNL     1     -13.463  10.339  13.017  1.00  0.00    -0.014 A 
BRANCH  33  34
ATOM     34  C   UNL     1     -12.881  11.085  14.164  1.00  0.00     0.031 A 
ATOM     35  C   UNL     1     -13.077  12.572  14.282  1.00  0.00     0.074 A 
ATOM     36  C   UNL     1     -12.105  10.431  15.053  1.00  0.00     0.049 A 
ATOM     37  N   UNL     1     -12.574  13.401  15.160  1.00  0.00    -0.248 NA
ATOM     38  C   UNL     1     -13.925  13.217  13.266  1.00  0.00     0.031 C 
ATOM     39  C   UNL     1     -11.787   9.000  15.011  1.00  0.00     0.029 A 
ATOM     40  N   UNL     1     -11.429  10.883  16.159  1.00  0.00    -0.354 N 
ATOM     41  C   UNL     1     -13.027  14.663  14.793  1.00  0.00     0.074 A 
ATOM     42  C   UNL     1     -13.810  14.498  13.588  1.00  0.00     0.031 C 
ATOM     43  C   UNL     1     -10.997   8.691  16.052  1.00  0.00     0.029 A 
ATOM     44  C   UNL     1     -10.717   9.904  16.813  1.00  0.00     0.049 A 
ATOM     45  H   UNL     1     -11.451  11.821  16.457  1.00  0.00     0.167 HD
ATOM     46  C   UNL     1     -12.826  15.848  15.418  1.00  0.00     0.037 A 
ATOM     47  C   UNL     1      -9.918   9.975  17.895  1.00  0.00     0.037 A 
ATOM     48  C   UNL     1     -12.081  16.000  16.640  1.00  0.00     0.049 A 
ATOM     49  C   UNL     1      -9.724  11.303  18.576  1.00  0.00     0.074 A 
ATOM     50  C   UNL     1     -11.895  17.146  17.394  1.00  0.00     0.029 A 
ATOM     51  N   UNL     1     -11.401  14.980  17.288  1.00  0.00    -0.354 N 
ATOM     52  N   UNL     1     -10.228  12.472  18.259  1.00  0.00    -0.248 NA
ATOM     53  C   UNL     1      -8.857  11.323  19.763  1.00  0.00     0.031 C 
ATOM     54  C   UNL     1     -11.066  16.828  18.475  1.00  0.00     0.029 A 
ATOM     55  C   UNL     1     -10.774  15.475  18.419  1.00  0.00     0.049 A 
ATOM     56  H   UNL     1     -11.369  14.043  16.988  1.00  0.00     0.167 HD
ATOM     57  C   UNL     1      -9.756  13.361  19.219  1.00  0.00     0.074 A 
ATOM     58  C   UNL     1      -8.943  12.592  20.137  1.00  0.00     0.031 C 
ATOM     59  C   UNL     1      -9.974  14.694  19.328  1.00  0.00     0.037 A 
BRANCH  46  60
ATOM     60  C   UNL     1     -13.433  17.080  14.807  1.00  0.00     0.058 A 
ATOM     61  C   UNL     1     -14.815  17.320  14.857  1.00  0.00     0.135 A 
ATOM     62  C   UNL     1     -12.617  18.068  14.234  1.00  0.00     0.135 A 
ATOM     63  F   UNL     1     -15.643  16.400  15.378  1.00  0.00    -0.206 F 
ATOM     64  C   UNL     1     -15.368  18.492  14.352  1.00  0.00     0.059 A 
ATOM     65  C   UNL     1     -13.145  19.259  13.745  1.00  0.00     0.059 A 
ATOM     66  F   UNL     1     -11.289  17.887  14.158  1.00  0.00    -0.206 F 
ATOM     67  C   UNL     1     -14.524  19.459  13.803  1.00  0.00     0.060 A 
BRANCH  67  68
ATOM     68  S   UNL     1     -15.255  20.993  13.193  1.00  0.00     0.124 S 
ATOM     69  O   UNL     1     -15.907  20.537  11.969  1.00  0.00    -0.237 OA
ATOM     70  O   UNL     1     -16.147  21.369  14.284  1.00  0.00    -0.237 OA
ATOM     71  O   UNL     1     -14.101  21.866  13.000  1.00  0.00    -0.744 OA
ENDBRANCH  67  68
ENDBRANCH  46  60
BRANCH  47  72
ATOM     72  C   UNL     1      -9.240   8.755  18.411  1.00  0.00     0.058 A 
ATOM     73  C   UNL     1      -9.614   8.185  19.637  1.00  0.00     0.135 A 
ATOM     74  C   UNL     1      -8.195   8.147  17.699  1.00  0.00     0.135 A 
ATOM     75  F   UNL     1     -10.604   8.733  20.357  1.00  0.00    -0.206 F 
ATOM     76  C   UNL     1      -8.957   7.073  20.155  1.00  0.00     0.059 A 
ATOM     77  C   UNL     1      -7.540   7.018  18.183  1.00  0.00     0.059 A 
ATOM     78  F   UNL     1      -7.811   8.641  16.512  1.00  0.00    -0.206 F 
ATOM     79  C   UNL     1      -7.918   6.499  19.421  1.00  0.00     0.060 A 
BRANCH  79  80
ATOM     80  S   UNL     1      -7.084   5.043  20.089  1.00  0.00     0.124 S 
ATOM     81  O   UNL     1      -6.247   5.635  21.126  1.00  0.00    -0.237 OA
ATOM     82  O   UNL     1      -8.204   4.232  20.556  1.00  0.00    -0.237 OA
ATOM     83  O   UNL     1      -6.373   4.506  18.932  1.00  0.00    -0.744 OA
ENDBRANCH  79  80
ENDBRANCH  47  72
BRANCH  59  84
ATOM     84  C   UNL     1      -9.346  15.403  20.495  1.00  0.00     0.058 A 
ATOM     85  C   UNL     1      -7.967  15.661  20.542  1.00  0.00     0.135 A 
ATOM     86  C   UNL     1     -10.139  15.870  21.555  1.00  0.00     0.135 A 
ATOM     87  F   UNL     1      -7.165  15.228  19.557  1.00  0.00    -0.206 F 
ATOM     88  C   UNL     1      -7.393  16.338  21.612  1.00  0.00     0.059 A 
ATOM     89  C   UNL     1      -9.590  16.574  22.622  1.00  0.00     0.059 A 
ATOM     90  F   UNL     1     -11.465  15.658  21.552  1.00  0.00    -0.206 F 
ATOM     91  C   UNL     1      -8.213  16.792  22.647  1.00  0.00     0.060 A 
BRANCH  91  92
ATOM     92  S   UNL     1      -7.460  17.698  24.015  1.00  0.00     0.124 S 
ATOM     93  O   UNL     1      -6.812  16.622  24.758  1.00  0.00    -0.237 OA
ATOM     94  O   UNL     1      -6.565  18.621  23.325  1.00  0.00    -0.237 OA
ATOM     95  O   UNL     1      -8.601  18.321  24.679  1.00  0.00    -0.744 OA
ENDBRANCH  91  92
ENDBRANCH  59  84
ENDBRANCH  33  34
ENDBRANCH  25  28
ENDBRANCH  23  24
ENDBRANCH  22  23
ENDBRANCH   1  22
TORSDOF 17
