REMARK SMILES C=C1C[C@]23CC[C@@H]4[C@](C)(CCC[C@]4(C)C(=O)NCCCNC(=O)c4ccc(-c5c6nc(c(-c7c(F)cc(S(=O)(=O)[O-])cc7F)c7ccc([nH]7)c(-c7c(F)cc(S(=O)(=O)[O-])cc7F)c7nc(c(-c8c(F)cc(S(=O)(=O)[O-])cc8F)c8ccc5[nH]8)C=C7)C=C6)cc4)[C@@H]2CC[C@@]1(O)C3
REMARK SMILES IDX 20 1 19 2 18 3 17 4 15 5 16 6 13 8 1 9 2 10 3 11 93 12 4 13
REMARK SMILES IDX 92 14 95 15 5 16 90 17 91 18 6 19 8 20 7 21 10 22 9 23 11 24
REMARK SMILES IDX 12 25 14 26 94 27 21 29 22 30 23 32 24 33 25 34 89 35 26 36
REMARK SMILES IDX 88 37 27 38 28 39 29 40 82 41 30 42 87 43 81 44 83 45 31 46
REMARK SMILES IDX 86 47 80 48 79 49 32 51 66 52 45 53 65 54 46 55 49 56 64 57
REMARK SMILES IDX 84 58 47 59 48 60 63 62 85 63 50 64 33 65 34 66 43 67 35 68
REMARK SMILES IDX 36 69 42 70 44 71 37 72 38 73 39 74 40 75 41 76 67 77 68 78
REMARK SMILES IDX 77 79 69 80 70 81 76 82 78 83 71 84 72 85 73 86 74 87 75 88
REMARK SMILES IDX 51 89 52 90 61 91 53 92 54 93 60 94 62 95 55 96 56 97 57 98
REMARK SMILES IDX 58 99 59 100
REMARK H PARENT 17 7 94 28 21 31 83 50 49 61
REMARK Flexibility Score: inf
ROOT
ATOM      1  C   UNL     1       1.551   7.512   2.952  1.00  0.00     0.118 C 
ENDROOT
BRANCH   1   2
ATOM      2  C   UNL     1       0.472   8.047   3.912  1.00  0.00     0.042 C 
BRANCH   2   3
ATOM      3  C   UNL     1      -0.170   7.051   4.905  1.00  0.00     0.117 C 
BRANCH   3   4
ATOM      4  N   UNL     1       0.751   6.559   5.944  1.00  0.00    -0.356 N 
ATOM      5  C   UNL     1       0.991   5.347   6.542  1.00  0.00     0.226 C 
ATOM      6  O   UNL     1       2.148   5.242   6.980  1.00  0.00    -0.274 OA
ATOM      7  H   UNL     1       1.335   7.270   6.293  1.00  0.00     0.163 HD
BRANCH   5   8
ATOM      8  C   UNL     1      -0.018   4.125   6.719  1.00  0.00     0.050 C 
ATOM      9  C   UNL     1      -0.032  -1.007   0.127  1.00  0.00     0.011 C 
ATOM     10  C   UNL     1       0.220  -0.310   1.244  1.00  0.00    -0.045 C 
ATOM     11  C   UNL     1      -0.690  -0.098   2.466  1.00  0.00     0.040 C 
ATOM     12  C   UNL     1       1.536   0.372   1.518  1.00  0.00     0.086 C 
ATOM     13  C   UNL     1       0.210   0.687   3.494  1.00  0.00    -0.020 C 
ATOM     14  C   UNL     1       1.400   1.849   1.054  1.00  0.00     0.040 C 
ATOM     15  C   UNL     1       1.587   0.125   3.042  1.00  0.00     0.047 C 
ATOM     16  C   UNL     1      -0.060   0.442   4.986  1.00  0.00     0.008 C 
ATOM     17  C   UNL     1       0.340   2.201   3.224  1.00  0.00     0.002 C 
ATOM     18  C   UNL     1       0.223   2.570   1.736  1.00  0.00     0.008 C 
ATOM     19  C   UNL     1       0.661   1.483   5.937  1.00  0.00     0.006 C 
ATOM     20  C   UNL     1      -0.002   3.308   4.261  1.00  0.00    -0.025 C 
ATOM     21  C   UNL     1      -0.017   2.854   5.739  1.00  0.00     0.010 C 
ATOM     22  C   UNL     1      -1.398   3.960   4.037  1.00  0.00     0.007 C 
ATOM     23  C   UNL     1       1.271   4.200   4.029  1.00  0.00     0.012 C 
ATOM     24  C   UNL     1      -2.224   4.325   5.325  1.00  0.00     0.002 C 
ATOM     25  C   UNL     1      -1.486   4.629   6.658  1.00  0.00     0.017 C 
ATOM     26  C   UNL     1       0.285   3.697   8.186  1.00  0.00     0.022 C 
BRANCH  12  27
ATOM     27  O   UNL     1       2.637  -0.221   0.861  1.00  0.00    -0.386 OA
ATOM     28  H   UNL     1       2.576  -0.049  -0.091  1.00  0.00     0.211 HD
ENDBRANCH  12  27
ENDBRANCH   5   8
ENDBRANCH   3   4
ENDBRANCH   2   3
ENDBRANCH   1   2
BRANCH   1  29
ATOM     29  N   UNL     1       1.052   6.712   1.828  1.00  0.00    -0.352 N 
ATOM     30  C   UNL     1       0.944   6.947   0.467  1.00  0.00     0.251 C 
ATOM     31  H   UNL     1       0.725   5.823   2.097  1.00  0.00     0.163 HD
ATOM     32  O   UNL     1       0.479   6.100  -0.260  1.00  0.00    -0.269 OA
BRANCH  30  33
ATOM     33  C   UNL     1       1.322   8.269  -0.081  1.00  0.00     0.039 A 
ATOM     34  C   UNL     1       0.413   8.933  -0.910  1.00  0.00     0.014 A 
ATOM     35  C   UNL     1       2.514   8.881   0.286  1.00  0.00     0.014 A 
ATOM     36  C   UNL     1       0.624  10.278  -1.221  1.00  0.00     0.010 A 
ATOM     37  C   UNL     1       2.663  10.245   0.079  1.00  0.00     0.010 A 
ATOM     38  C   UNL     1       1.700  10.968  -0.643  1.00  0.00    -0.014 A 
BRANCH  38  39
ATOM     39  C   UNL     1       1.809  12.449  -0.707  1.00  0.00     0.031 A 
ATOM     40  C   UNL     1       3.054  13.090  -1.256  1.00  0.00     0.074 A 
ATOM     41  C   UNL     1       0.846  13.207  -0.141  1.00  0.00     0.049 A 
ATOM     42  N   UNL     1       3.409  14.348  -1.244  1.00  0.00    -0.248 NA
ATOM     43  C   UNL     1       4.056  12.191  -1.853  1.00  0.00     0.031 C 
ATOM     44  C   UNL     1      -0.371  12.697   0.501  1.00  0.00     0.029 A 
ATOM     45  N   UNL     1       0.744  14.568   0.010  1.00  0.00    -0.354 N 
ATOM     46  C   UNL     1       4.683  14.387  -1.799  1.00  0.00     0.074 A 
ATOM     47  C   UNL     1       5.063  13.021  -2.082  1.00  0.00     0.031 C 
ATOM     48  C   UNL     1      -1.105  13.727   0.948  1.00  0.00     0.029 A 
ATOM     49  C   UNL     1      -0.394  14.970   0.673  1.00  0.00     0.049 A 
ATOM     50  H   UNL     1       1.422  15.199  -0.325  1.00  0.00     0.167 HD
ATOM     51  C   UNL     1       5.453  15.466  -2.074  1.00  0.00     0.037 A 
ATOM     52  C   UNL     1      -0.812  16.199   1.033  1.00  0.00     0.037 A 
ATOM     53  C   UNL     1       5.041  16.823  -1.832  1.00  0.00     0.049 A 
ATOM     54  C   UNL     1       0.045  17.385   0.684  1.00  0.00     0.074 A 
ATOM     55  C   UNL     1       5.704  17.994  -2.156  1.00  0.00     0.029 A 
ATOM     56  N   UNL     1       3.857  17.192  -1.209  1.00  0.00    -0.354 N 
ATOM     57  N   UNL     1       1.212  17.408   0.084  1.00  0.00    -0.248 NA
ATOM     58  C   UNL     1      -0.468  18.710   1.056  1.00  0.00     0.031 C 
ATOM     59  C   UNL     1       4.941  19.069  -1.690  1.00  0.00     0.029 A 
ATOM     60  C   UNL     1       3.780  18.571  -1.119  1.00  0.00     0.049 A 
ATOM     61  H   UNL     1       3.173  16.565  -0.879  1.00  0.00     0.167 HD
ATOM     62  C   UNL     1       1.564  18.749  -0.011  1.00  0.00     0.074 A 
ATOM     63  C   UNL     1       0.476  19.507   0.575  1.00  0.00     0.031 C 
ATOM     64  C   UNL     1       2.686  19.304  -0.532  1.00  0.00     0.037 A 
BRANCH  51  65
ATOM     65  C   UNL     1       6.806  15.223  -2.685  1.00  0.00     0.058 A 
ATOM     66  C   UNL     1       6.947  14.741  -3.997  1.00  0.00     0.135 A 
ATOM     67  C   UNL     1       7.978  15.509  -1.965  1.00  0.00     0.135 A 
ATOM     68  F   UNL     1       5.862  14.434  -4.725  1.00  0.00    -0.206 F 
ATOM     69  C   UNL     1       8.199  14.522  -4.562  1.00  0.00     0.059 A 
ATOM     70  C   UNL     1       9.241  15.327  -2.522  1.00  0.00     0.059 A 
ATOM     71  F   UNL     1       7.903  15.969  -0.707  1.00  0.00    -0.206 F 
ATOM     72  C   UNL     1       9.341  14.821  -3.817  1.00  0.00     0.060 A 
BRANCH  72  73
ATOM     73  S   UNL     1      10.956  14.548  -4.574  1.00  0.00     0.124 S 
ATOM     74  O   UNL     1      11.040  13.091  -4.564  1.00  0.00    -0.237 OA
ATOM     75  O   UNL     1      10.792  15.164  -5.887  1.00  0.00    -0.237 OA
ATOM     76  O   UNL     1      11.875  15.236  -3.673  1.00  0.00    -0.744 OA
ENDBRANCH  72  73
ENDBRANCH  51  65
BRANCH  52  77
ATOM     77  C   UNL     1      -2.110  16.372   1.742  1.00  0.00     0.058 A 
ATOM     78  C   UNL     1      -3.207  16.965   1.100  1.00  0.00     0.135 A 
ATOM     79  C   UNL     1      -2.287  15.938   3.065  1.00  0.00     0.135 A 
ATOM     80  F   UNL     1      -3.089  17.401  -0.164  1.00  0.00    -0.206 F 
ATOM     81  C   UNL     1      -4.427  17.139   1.747  1.00  0.00     0.059 A 
ATOM     82  C   UNL     1      -3.504  16.076   3.725  1.00  0.00     0.059 A 
ATOM     83  F   UNL     1      -1.276  15.345   3.720  1.00  0.00    -0.206 F 
ATOM     84  C   UNL     1      -4.566  16.689   3.061  1.00  0.00     0.060 A 
BRANCH  84  85
ATOM     85  S   UNL     1      -6.167  16.876   3.876  1.00  0.00     0.124 S 
ATOM     86  O   UNL     1      -6.199  18.311   4.135  1.00  0.00    -0.237 OA
ATOM     87  O   UNL     1      -7.090  16.391   2.854  1.00  0.00    -0.237 OA
ATOM     88  O   UNL     1      -6.045  16.023   5.054  1.00  0.00    -0.744 OA
ENDBRANCH  84  85
ENDBRANCH  52  77
BRANCH  64  89
ATOM     89  C   UNL     1       2.785  20.803  -0.509  1.00  0.00     0.058 A 
ATOM     90  C   UNL     1       3.020  21.506   0.683  1.00  0.00     0.135 A 
ATOM     91  C   UNL     1       2.698  21.540  -1.701  1.00  0.00     0.135 A 
ATOM     92  F   UNL     1       3.104  20.848   1.850  1.00  0.00    -0.206 F 
ATOM     93  C   UNL     1       3.143  22.890   0.696  1.00  0.00     0.059 A 
ATOM     94  C   UNL     1       2.846  22.922  -1.716  1.00  0.00     0.059 A 
ATOM     95  F   UNL     1       2.485  20.914  -2.869  1.00  0.00    -0.206 F 
ATOM     96  C   UNL     1       3.057  23.590  -0.510  1.00  0.00     0.060 A 
BRANCH  96  97
ATOM     97  S   UNL     1       3.253  25.384  -0.483  1.00  0.00     0.124 S 
ATOM     98  O   UNL     1       1.984  25.809   0.096  1.00  0.00    -0.237 OA
ATOM     99  O   UNL     1       4.428  25.557   0.366  1.00  0.00    -0.237 OA
ATOM    100  O   UNL     1       3.448  25.725  -1.889  1.00  0.00    -0.744 OA
ENDBRANCH  96  97
ENDBRANCH  64  89
ENDBRANCH  38  39
ENDBRANCH  30  33
ENDBRANCH   1  29
TORSDOF 14
