REMARK SMILES C[C@@H]1[NH2+]CC[C@H]1C(=O)NCc1cccc(C(=O)NCCCNC(=O)c2ccc(-c3c4nc(c(-c5c(F)cc(S(=O)(=O)[O-])cc5F)c5ccc([nH]5)c(-c5c(F)cc(S(=O)(=O)[O-])cc5F)c5nc(c(-c6c(F)cc(S(=O)(=O)[O-])cc6F)c6ccc3[nH]6)C=C5)C=C4)cc2)c1
REMARK SMILES IDX 20 1 19 2 18 3 16 4 17 5 15 7 11 8 12 9 91 10 13 11 14 12
REMARK SMILES IDX 10 13 9 14 7 15 8 16 6 18 1 19 2 20 3 21 4 22 5 25 21 26
REMARK SMILES IDX 22 27 23 28 24 30 25 31 26 32 90 33 27 34 89 35 28 36 29 37
REMARK SMILES IDX 30 38 83 39 31 40 88 41 82 42 84 43 32 44 87 45 81 46 80 47
REMARK SMILES IDX 33 49 67 50 46 51 66 52 47 53 50 54 65 55 85 56 48 57 49 58
REMARK SMILES IDX 64 60 86 61 51 62 34 63 35 64 44 65 36 66 37 67 43 68 45 69
REMARK SMILES IDX 38 70 39 71 40 72 41 73 42 74 68 75 69 76 78 77 70 78 71 79
REMARK SMILES IDX 77 80 79 81 72 82 73 83 74 84 75 85 76 86 52 87 53 88 62 89
REMARK SMILES IDX 54 90 55 91 61 92 63 93 56 94 57 95 58 96 59 97 60 98
REMARK H PARENT 18 6 9 17 3 23 3 24 22 29 84 48 50 59
REMARK Flexibility Score: inf
ROOT
ATOM      1  C   UNL     1       0.360   4.180   6.152  1.00  0.00     0.042 C 
ENDROOT
BRANCH   1   2
ATOM      2  C   UNL     1       1.404   3.293   5.497  1.00  0.00     0.118 C 
BRANCH   2   3
ATOM      3  N   UNL     1       2.101   2.390   6.407  1.00  0.00    -0.352 N 
ATOM      4  C   UNL     1       2.221   1.020   6.503  1.00  0.00     0.251 C 
ATOM      5  O   UNL     1       2.956   0.573   7.386  1.00  0.00    -0.269 OA
ATOM      6  H   UNL     1       2.598   2.866   7.112  1.00  0.00     0.163 HD
BRANCH   4   7
ATOM      7  C   UNL     1       1.445   0.059   5.668  1.00  0.00     0.040 A 
ATOM      8  C   UNL     1      -0.146  -0.352   3.881  1.00  0.00    -0.028 A 
ATOM      9  C   UNL     1      -0.407  -1.621   4.406  1.00  0.00     0.005 A 
ATOM     10  C   UNL     1       0.908   0.386   4.430  1.00  0.00     0.019 A 
ATOM     11  C   UNL     1       0.296  -2.075   5.522  1.00  0.00     0.001 A 
ATOM     12  C   UNL     1       1.175  -1.214   6.185  1.00  0.00     0.014 A 
BRANCH   8  13
ATOM     13  C   UNL     1      -1.090   0.260   2.871  1.00  0.00     0.151 C 
BRANCH  13  14
ATOM     14  N   UNL     1      -0.695   1.587   2.434  1.00  0.00    -0.352 N 
ATOM     15  C   UNL     1      -0.171   2.030   1.262  1.00  0.00     0.229 C 
ATOM     16  O   UNL     1       0.232   3.194   1.224  1.00  0.00    -0.275 OA
ATOM     17  H   UNL     1      -0.832   2.292   3.107  1.00  0.00     0.163 HD
BRANCH  15  18
ATOM     18  C   UNL     1      -0.080   1.141   0.035  1.00  0.00     0.142 C 
ATOM     19  C   UNL     1       2.066  -0.003  -0.672  1.00  0.00     0.076 C 
ATOM     20  C   UNL     1       0.836  -0.065   0.230  1.00  0.00     0.192 C 
ATOM     21  N   UNL     1       0.060  -1.272  -0.100  1.00  0.00    -0.343 N 
ATOM     22  C   UNL     1      -1.171  -0.849  -0.769  1.00  0.00     0.261 C 
ATOM     23  H   UNL     1      -0.168  -1.781   0.754  1.00  0.00     0.346 HD
ATOM     24  H   UNL     1       0.601  -1.885  -0.709  1.00  0.00     0.346 HD
ATOM     25  C   UNL     1      -1.429   0.600  -0.406  1.00  0.00     0.081 C 
ENDBRANCH  15  18
ENDBRANCH  13  14
ENDBRANCH   8  13
ENDBRANCH   4   7
ENDBRANCH   2   3
ENDBRANCH   1   2
BRANCH   1  26
ATOM     26  C   UNL     1       0.932   5.282   7.024  1.00  0.00     0.118 C 
BRANCH  26  27
ATOM     27  N   UNL     1       1.808   6.187   6.289  1.00  0.00    -0.352 N 
ATOM     28  C   UNL     1       1.644   7.494   5.898  1.00  0.00     0.251 C 
ATOM     29  H   UNL     1       2.670   5.791   6.026  1.00  0.00     0.163 HD
ATOM     30  O   UNL     1       2.449   7.985   5.111  1.00  0.00    -0.269 OA
BRANCH  28  31
ATOM     31  C   UNL     1       0.513   8.307   6.399  1.00  0.00     0.039 A 
ATOM     32  C   UNL     1      -0.088   9.235   5.542  1.00  0.00     0.014 A 
ATOM     33  C   UNL     1       0.064   8.191   7.714  1.00  0.00     0.014 A 
ATOM     34  C   UNL     1      -1.179   9.986   5.986  1.00  0.00     0.010 A 
ATOM     35  C   UNL     1      -1.090   8.853   8.118  1.00  0.00     0.010 A 
ATOM     36  C   UNL     1      -1.717   9.770   7.265  1.00  0.00    -0.014 A 
BRANCH  36  37
ATOM     37  C   UNL     1      -2.930  10.491   7.730  1.00  0.00     0.031 A 
ATOM     38  C   UNL     1      -2.871  11.370   8.952  1.00  0.00     0.074 A 
ATOM     39  C   UNL     1      -4.103  10.291   7.097  1.00  0.00     0.049 A 
ATOM     40  N   UNL     1      -3.834  12.028   9.544  1.00  0.00    -0.248 NA
ATOM     41  C   UNL     1      -1.564  11.498   9.617  1.00  0.00     0.031 C 
ATOM     42  C   UNL     1      -4.302   9.408   5.945  1.00  0.00     0.029 A 
ATOM     43  N   UNL     1      -5.352  10.806   7.338  1.00  0.00    -0.354 N 
ATOM     44  C   UNL     1      -3.257  12.626  10.659  1.00  0.00     0.074 A 
ATOM     45  C   UNL     1      -1.875  12.203  10.695  1.00  0.00     0.031 C 
ATOM     46  C   UNL     1      -5.587   9.464   5.564  1.00  0.00     0.029 A 
ATOM     47  C   UNL     1      -6.313  10.352   6.466  1.00  0.00     0.049 A 
ATOM     48  H   UNL     1      -5.541  11.441   8.066  1.00  0.00     0.167 HD
ATOM     49  C   UNL     1      -3.820  13.470  11.556  1.00  0.00     0.037 A 
ATOM     50  C   UNL     1      -7.633  10.615   6.403  1.00  0.00     0.037 A 
ATOM     51  C   UNL     1      -5.192  13.905  11.494  1.00  0.00     0.049 A 
ATOM     52  C   UNL     1      -8.235  11.572   7.393  1.00  0.00     0.074 A 
ATOM     53  C   UNL     1      -5.841  14.820  12.303  1.00  0.00     0.029 A 
ATOM     54  N   UNL     1      -6.128  13.447  10.577  1.00  0.00    -0.354 N 
ATOM     55  N   UNL     1      -7.654  12.198   8.390  1.00  0.00    -0.248 NA
ATOM     56  C   UNL     1      -9.665  11.867   7.246  1.00  0.00     0.031 C 
ATOM     57  C   UNL     1      -7.183  14.875  11.910  1.00  0.00     0.029 A 
ATOM     58  C   UNL     1      -7.358  14.038  10.819  1.00  0.00     0.049 A 
ATOM     59  H   UNL     1      -5.945  12.798   9.860  1.00  0.00     0.167 HD
ATOM     60  C   UNL     1      -8.645  12.975   8.979  1.00  0.00     0.074 A 
ATOM     61  C   UNL     1      -9.856  12.754   8.214  1.00  0.00     0.031 C 
ATOM     62  C   UNL     1      -8.558  13.798  10.055  1.00  0.00     0.037 A 
BRANCH  49  63
ATOM     63  C   UNL     1      -2.953  13.970  12.682  1.00  0.00     0.058 A 
ATOM     64  C   UNL     1      -1.871  14.837  12.458  1.00  0.00     0.135 A 
ATOM     65  C   UNL     1      -3.213  13.582  14.007  1.00  0.00     0.135 A 
ATOM     66  F   UNL     1      -1.567  15.232  11.211  1.00  0.00    -0.206 F 
ATOM     67  C   UNL     1      -1.050  15.264  13.498  1.00  0.00     0.059 A 
ATOM     68  C   UNL     1      -2.426  14.024  15.067  1.00  0.00     0.059 A 
ATOM     69  F   UNL     1      -4.235  12.758  14.283  1.00  0.00    -0.206 F 
ATOM     70  C   UNL     1      -1.334  14.848  14.800  1.00  0.00     0.060 A 
BRANCH  70  71
ATOM     71  S   UNL     1      -0.249  15.394  16.135  1.00  0.00     0.124 S 
ATOM     72  O   UNL     1       0.946  14.594  15.884  1.00  0.00    -0.237 OA
ATOM     73  O   UNL     1      -0.121  16.823  15.868  1.00  0.00    -0.237 OA
ATOM     74  O   UNL     1      -0.993  15.049  17.342  1.00  0.00    -0.744 OA
ENDBRANCH  70  71
ENDBRANCH  49  63
BRANCH  50  75
ATOM     75  C   UNL     1      -8.456   9.976   5.341  1.00  0.00     0.058 A 
ATOM     76  C   UNL     1      -8.944  10.720   4.258  1.00  0.00     0.135 A 
ATOM     77  C   UNL     1      -8.723   8.598   5.360  1.00  0.00     0.135 A 
ATOM     78  F   UNL     1      -8.722  12.042   4.198  1.00  0.00    -0.206 F 
ATOM     79  C   UNL     1      -9.667  10.123   3.230  1.00  0.00     0.059 A 
ATOM     80  C   UNL     1      -9.421   7.973   4.332  1.00  0.00     0.059 A 
ATOM     81  F   UNL     1      -8.263   7.837   6.366  1.00  0.00    -0.206 F 
ATOM     82  C   UNL     1      -9.892   8.746   3.271  1.00  0.00     0.060 A 
BRANCH  82  83
ATOM     83  S   UNL     1     -10.757   7.968   1.890  1.00  0.00     0.124 S 
ATOM     84  O   UNL     1     -12.123   8.436   2.095  1.00  0.00    -0.237 OA
ATOM     85  O   UNL     1     -10.057   8.525   0.737  1.00  0.00    -0.237 OA
ATOM     86  O   UNL     1     -10.537   6.542   2.116  1.00  0.00    -0.744 OA
ENDBRANCH  82  83
ENDBRANCH  50  75
BRANCH  62  87
ATOM     87  C   UNL     1      -9.806  14.536  10.460  1.00  0.00     0.058 A 
ATOM     88  C   UNL     1     -10.893  13.876  11.055  1.00  0.00     0.135 A 
ATOM     89  C   UNL     1      -9.895  15.927  10.293  1.00  0.00     0.135 A 
ATOM     90  F   UNL     1     -10.862  12.546  11.233  1.00  0.00    -0.206 F 
ATOM     91  C   UNL     1     -12.037  14.566  11.442  1.00  0.00     0.059 A 
ATOM     92  C   UNL     1     -11.017  16.642  10.701  1.00  0.00     0.059 A 
ATOM     93  F   UNL     1      -8.880  16.609   9.740  1.00  0.00    -0.206 F 
ATOM     94  C   UNL     1     -12.089  15.949  11.262  1.00  0.00     0.060 A 
BRANCH  94  95
ATOM     95  S   UNL     1     -13.570  16.835  11.791  1.00  0.00     0.124 S 
ATOM     96  O   UNL     1     -14.531  16.440  10.767  1.00  0.00    -0.237 OA
ATOM     97  O   UNL     1     -13.803  16.286  13.124  1.00  0.00    -0.237 OA
ATOM     98  O   UNL     1     -13.159  18.235  11.760  1.00  0.00    -0.744 OA
ENDBRANCH  94  95
ENDBRANCH  62  87
ENDBRANCH  36  37
ENDBRANCH  28  31
ENDBRANCH  26  27
ENDBRANCH   1  26
TORSDOF 16
