REMARK SMILES [NH3+][C@@H](C[NH+](CCO)CCO)C(=O)NCCCNC(=O)c1ccc(-c2c3nc(c(-c4c(F)cc(S(=O)(=O)[O-])cc4F)c4ccc([nH]4)c(-c4c(F)cc(S(=O)(=O)[O-])cc4F)c4nc(c(-c5c(F)cc(S(=O)(=O)[O-])cc5F)c5ccc2[nH]5)C=C4)C=C3)cc1
REMARK SMILES IDX 14 1 13 2 11 3 12 4 2 6 1 7 3 11 4 12 5 14 6 15 7 16 8 18
REMARK SMILES IDX 9 19 10 20 15 22 16 23 17 24 18 25 19 27 20 28 21 29 85 30
REMARK SMILES IDX 22 31 84 32 23 33 24 34 25 35 78 36 26 37 83 38 77 39 79 40
REMARK SMILES IDX 27 41 82 42 76 43 75 44 28 46 62 47 41 48 61 49 42 50 45 51
REMARK SMILES IDX 60 52 80 53 43 54 44 55 59 57 81 58 46 59 29 60 30 61 39 62
REMARK SMILES IDX 31 63 32 64 38 65 40 66 33 67 34 68 35 69 36 70 37 71 63 72
REMARK SMILES IDX 64 73 73 74 65 75 66 76 72 77 74 78 67 79 68 80 69 81 70 82
REMARK SMILES IDX 71 83 47 84 48 85 57 86 49 87 50 88 56 89 58 90 51 91 52 92
REMARK SMILES IDX 53 93 54 94 55 95
REMARK H PARENT 13 5 1 8 1 9 1 10 4 13 7 17 10 21 17 26 79 45 45 56
REMARK Flexibility Score: inf
ROOT
ATOM      1  C   UNL     1      -1.556   2.007   0.555  1.00  0.00     0.118 C 
ENDROOT
BRANCH   1   2
ATOM      2  N   UNL     1      -1.804   0.647   0.966  1.00  0.00    -0.351 N 
ATOM      3  C   UNL     1      -0.940  -0.311   1.410  1.00  0.00     0.284 C 
ATOM      4  O   UNL     1      -1.449  -1.323   1.905  1.00  0.00    -0.268 OA
ATOM      5  H   UNL     1      -2.745   0.365   0.918  1.00  0.00     0.163 HD
BRANCH   3   6
ATOM      6  C   UNL     1       0.603  -0.172   1.286  1.00  0.00     0.326 C 
BRANCH   6   7
ATOM      7  N   UNL     1       1.032  -0.459  -0.088  1.00  0.00    -0.343 N 
ATOM      8  H   UNL     1       2.046  -0.364  -0.154  1.00  0.00     0.345 HD
ATOM      9  H   UNL     1       0.587   0.199  -0.727  1.00  0.00     0.345 HD
ATOM     10  H   UNL     1       0.763  -1.411  -0.337  1.00  0.00     0.345 HD
ENDBRANCH   6   7
BRANCH   6  11
ATOM     11  C   UNL     1       1.208   1.043   2.068  1.00  0.00     0.338 C 
BRANCH  11  12
ATOM     12  N   UNL     1       1.850   2.263   1.501  1.00  0.00    -0.326 N 
ATOM     13  H   UNL     1       2.829   2.001   1.615  1.00  0.00     0.348 HD
BRANCH  12  14
ATOM     14  C   UNL     1       1.550   3.477   2.295  1.00  0.00     0.291 C 
BRANCH  14  15
ATOM     15  C   UNL     1       2.777   3.922   3.096  1.00  0.00     0.217 C 
BRANCH  15  16
ATOM     16  O   UNL     1       3.803   4.389   2.229  1.00  0.00    -0.391 OA
ATOM     17  H   UNL     1       4.072   3.674   1.631  1.00  0.00     0.210 HD
ENDBRANCH  15  16
ENDBRANCH  14  15
ENDBRANCH  12  14
BRANCH  12  18
ATOM     18  C   UNL     1       1.887   2.501   0.052  1.00  0.00     0.291 C 
BRANCH  18  19
ATOM     19  C   UNL     1       3.242   2.115  -0.559  1.00  0.00     0.217 C 
BRANCH  19  20
ATOM     20  O   UNL     1       3.759   0.948   0.075  1.00  0.00    -0.391 OA
ATOM     21  H   UNL     1       3.884   1.123   1.021  1.00  0.00     0.210 HD
ENDBRANCH  19  20
ENDBRANCH  18  19
ENDBRANCH  12  18
ENDBRANCH  11  12
ENDBRANCH   6  11
ENDBRANCH   3   6
ENDBRANCH   1   2
BRANCH   1  22
ATOM     22  C   UNL     1      -1.666   2.216  -0.947  1.00  0.00     0.042 C 
BRANCH  22  23
ATOM     23  C   UNL     1      -3.084   2.543  -1.389  1.00  0.00     0.118 C 
BRANCH  23  24
ATOM     24  N   UNL     1      -3.555   3.807  -0.828  1.00  0.00    -0.352 N 
ATOM     25  C   UNL     1      -4.039   4.932  -1.447  1.00  0.00     0.251 C 
ATOM     26  H   UNL     1      -3.520   3.860   0.155  1.00  0.00     0.163 HD
ATOM     27  O   UNL     1      -4.186   5.960  -0.796  1.00  0.00    -0.269 OA
BRANCH  25  28
ATOM     28  C   UNL     1      -4.359   4.905  -2.889  1.00  0.00     0.039 A 
ATOM     29  C   UNL     1      -4.065   6.024  -3.671  1.00  0.00     0.014 A 
ATOM     30  C   UNL     1      -4.952   3.781  -3.467  1.00  0.00     0.014 A 
ATOM     31  C   UNL     1      -4.303   5.986  -5.045  1.00  0.00     0.010 A 
ATOM     32  C   UNL     1      -5.088   3.705  -4.846  1.00  0.00     0.010 A 
ATOM     33  C   UNL     1      -4.777   4.810  -5.649  1.00  0.00    -0.014 A 
BRANCH  33  34
ATOM     34  C   UNL     1      -4.970   4.713  -7.116  1.00  0.00     0.031 A 
ATOM     35  C   UNL     1      -6.340   4.429  -7.673  1.00  0.00     0.074 A 
ATOM     36  C   UNL     1      -3.904   4.801  -7.935  1.00  0.00     0.049 A 
ATOM     37  N   UNL     1      -6.698   4.214  -8.912  1.00  0.00    -0.248 NA
ATOM     38  C   UNL     1      -7.447   4.342  -6.707  1.00  0.00     0.031 C 
ATOM     39  C   UNL     1      -2.520   5.021  -7.504  1.00  0.00     0.029 A 
ATOM     40  N   UNL     1      -3.812   4.705  -9.300  1.00  0.00    -0.354 N 
ATOM     41  C   UNL     1      -8.062   3.949  -8.870  1.00  0.00     0.074 A 
ATOM     42  C   UNL     1      -8.455   3.967  -7.479  1.00  0.00     0.031 C 
ATOM     43  C   UNL     1      -1.724   5.069  -8.583  1.00  0.00     0.029 A 
ATOM     44  C   UNL     1      -2.529   4.837  -9.778  1.00  0.00     0.049 A 
ATOM     45  H   UNL     1      -4.591   4.555  -9.883  1.00  0.00     0.167 HD
ATOM     46  C   UNL     1      -8.914   3.738  -9.901  1.00  0.00     0.037 A 
ATOM     47  C   UNL     1      -2.054   4.767 -11.037  1.00  0.00     0.037 A 
ATOM     48  C   UNL     1      -8.514   3.750 -11.283  1.00  0.00     0.049 A 
ATOM     49  C   UNL     1      -3.020   4.526 -12.165  1.00  0.00     0.074 A 
ATOM     50  C   UNL     1      -9.306   3.609 -12.408  1.00  0.00     0.029 A 
ATOM     51  N   UNL     1      -7.210   3.910 -11.729  1.00  0.00    -0.354 N 
ATOM     52  N   UNL     1      -4.319   4.346 -12.114  1.00  0.00    -0.248 NA
ATOM     53  C   UNL     1      -2.459   4.484 -13.522  1.00  0.00     0.031 C 
ATOM     54  C   UNL     1      -8.475   3.630 -13.532  1.00  0.00     0.029 A 
ATOM     55  C   UNL     1      -7.172   3.846 -13.112  1.00  0.00     0.049 A 
ATOM     56  H   UNL     1      -6.427   4.049 -11.148  1.00  0.00     0.167 HD
ATOM     57  C   UNL     1      -4.735   4.199 -13.433  1.00  0.00     0.074 A 
ATOM     58  C   UNL     1      -3.551   4.324 -14.258  1.00  0.00     0.031 C 
ATOM     59  C   UNL     1      -5.983   3.983 -13.917  1.00  0.00     0.037 A 
BRANCH  46  60
ATOM     60  C   UNL     1     -10.360   3.482  -9.573  1.00  0.00     0.058 A 
ATOM     61  C   UNL     1     -11.186   4.484  -9.038  1.00  0.00     0.135 A 
ATOM     62  C   UNL     1     -10.939   2.228  -9.827  1.00  0.00     0.135 A 
ATOM     63  F   UNL     1     -10.684   5.697  -8.758  1.00  0.00    -0.206 F 
ATOM     64  C   UNL     1     -12.523   4.244  -8.739  1.00  0.00     0.059 A 
ATOM     65  C   UNL     1     -12.283   1.975  -9.566  1.00  0.00     0.059 A 
ATOM     66  F   UNL     1     -10.197   1.231 -10.335  1.00  0.00    -0.206 F 
ATOM     67  C   UNL     1     -13.063   2.986  -9.008  1.00  0.00     0.060 A 
BRANCH  67  68
ATOM     68  S   UNL     1     -14.802   2.696  -8.622  1.00  0.00     0.124 S 
ATOM     69  O   UNL     1     -14.775   2.666  -7.163  1.00  0.00    -0.237 OA
ATOM     70  O   UNL     1     -15.451   3.859  -9.219  1.00  0.00    -0.237 OA
ATOM     71  O   UNL     1     -15.087   1.420  -9.270  1.00  0.00    -0.744 OA
ENDBRANCH  67  68
ENDBRANCH  46  60
BRANCH  47  72
ATOM     72  C   UNL     1      -0.600   4.948 -11.295  1.00  0.00     0.058 A 
ATOM     73  C   UNL     1      -0.120   6.088 -11.957  1.00  0.00     0.135 A 
ATOM     74  C   UNL     1       0.341   3.995 -10.873  1.00  0.00     0.135 A 
ATOM     75  F   UNL     1      -0.979   7.026 -12.384  1.00  0.00    -0.206 F 
ATOM     76  C   UNL     1       1.236   6.269 -12.209  1.00  0.00     0.059 A 
ATOM     77  C   UNL     1       1.704   4.167 -11.087  1.00  0.00     0.059 A 
ATOM     78  F   UNL     1      -0.063   2.895 -10.217  1.00  0.00    -0.206 F 
ATOM     79  C   UNL     1       2.141   5.303 -11.766  1.00  0.00     0.060 A 
BRANCH  79  80
ATOM     80  S   UNL     1       3.903   5.572 -12.058  1.00  0.00     0.124 S 
ATOM     81  O   UNL     1       3.998   5.364 -13.498  1.00  0.00    -0.237 OA
ATOM     82  O   UNL     1       4.082   6.946 -11.597  1.00  0.00    -0.237 OA
ATOM     83  O   UNL     1       4.540   4.553 -11.229  1.00  0.00    -0.744 OA
ENDBRANCH  79  80
ENDBRANCH  47  72
BRANCH  59  84
ATOM     84  C   UNL     1      -6.145   3.907 -15.411  1.00  0.00     0.058 A 
ATOM     85  C   UNL     1      -5.687   2.806 -16.150  1.00  0.00     0.135 A 
ATOM     86  C   UNL     1      -6.827   4.923 -16.100  1.00  0.00     0.135 A 
ATOM     87  F   UNL     1      -5.023   1.811 -15.541  1.00  0.00    -0.206 F 
ATOM     88  C   UNL     1      -5.881   2.724 -17.525  1.00  0.00     0.059 A 
ATOM     89  C   UNL     1      -7.060   4.847 -17.469  1.00  0.00     0.059 A 
ATOM     90  F   UNL     1      -7.295   5.994 -15.439  1.00  0.00    -0.206 F 
ATOM     91  C   UNL     1      -6.574   3.748 -18.175  1.00  0.00     0.060 A 
BRANCH  91  92
ATOM     92  S   UNL     1      -6.856   3.607 -19.952  1.00  0.00     0.124 S 
ATOM     93  O   UNL     1      -5.518   3.848 -20.482  1.00  0.00    -0.237 OA
ATOM     94  O   UNL     1      -7.353   2.241 -20.080  1.00  0.00    -0.237 OA
ATOM     95  O   UNL     1      -7.837   4.653 -20.225  1.00  0.00    -0.744 OA
ENDBRANCH  91  92
ENDBRANCH  59  84
ENDBRANCH  33  34
ENDBRANCH  25  28
ENDBRANCH  23  24
ENDBRANCH  22  23
ENDBRANCH   1  22
TORSDOF 22
