REMARK SMILES Cc1c2c([nH]c(=O)c1C(=O)NCCCNC(=O)c1ccc(-c3c4nc(c(-c5c(F)cc(S(=O)(=O)[O-])cc5F)c5ccc([nH]5)c(-c5c(F)cc(S(=O)(=O)[O-])cc5F)c5nc(c(-c6c(F)cc(S(=O)(=O)[O-])cc6F)c6ccc3[nH]6)C=C5)C=C4)cc1)CC(C)(C)CC2=O
REMARK SMILES IDX 15 1 16 2 17 3 14 5 13 6 12 7 11 8 9 9 10 10 8 12 1 13 2 14
REMARK SMILES IDX 3 15 4 16 89 17 6 18 5 19 84 20 88 21 90 22 7 23 85 25 86 26
REMARK SMILES IDX 87 27 18 28 19 29 83 30 20 31 82 32 21 33 22 34 23 35 76 36
REMARK SMILES IDX 24 37 81 38 75 39 77 40 25 41 80 42 74 43 73 44 26 46 60 47
REMARK SMILES IDX 39 48 59 49 40 50 43 51 58 52 78 53 41 54 42 55 57 57 79 58
REMARK SMILES IDX 44 59 27 60 28 61 37 62 29 63 30 64 36 65 38 66 31 67 32 68
REMARK SMILES IDX 33 69 34 70 35 71 61 72 62 73 71 74 63 75 64 76 70 77 72 78
REMARK SMILES IDX 65 79 66 80 67 81 68 82 69 83 45 84 46 85 55 86 47 87 48 88
REMARK SMILES IDX 54 89 56 90 49 91 50 92 51 93 52 94 53 95
REMARK H PARENT 15 4 11 11 5 24 77 45 43 56
REMARK Flexibility Score: inf
ROOT
ATOM      1  N   UNL     1       0.298   3.796  -2.119  1.00  0.00    -0.352 N 
ATOM      2  C   UNL     1       0.731   4.117  -3.384  1.00  0.00     0.251 C 
ATOM      3  O   UNL     1       1.925   4.359  -3.559  1.00  0.00    -0.269 OA
ATOM      4  H   UNL     1       0.992   3.883  -1.425  1.00  0.00     0.163 HD
ENDROOT
BRANCH   1   5
ATOM      5  C   UNL     1      -0.994   3.351  -1.610  1.00  0.00     0.118 C 
BRANCH   5   6
ATOM      6  C   UNL     1      -1.095   1.846  -1.400  1.00  0.00     0.042 C 
BRANCH   6   7
ATOM      7  C   UNL     1      -0.107   1.280  -0.395  1.00  0.00     0.118 C 
BRANCH   7   8
ATOM      8  N   UNL     1      -0.163   1.887   0.929  1.00  0.00    -0.352 N 
ATOM      9  C   UNL     1       0.108   1.340   2.156  1.00  0.00     0.257 C 
ATOM     10  O   UNL     1       0.181   2.080   3.134  1.00  0.00    -0.269 OA
ATOM     11  H   UNL     1      -0.437   2.832   0.944  1.00  0.00     0.163 HD
BRANCH   9  12
ATOM     12  C   UNL     1       0.286  -0.130   2.280  1.00  0.00     0.108 A 
ATOM     13  C   UNL     1       2.379  -0.151   0.869  1.00  0.00     0.046 C 
ATOM     14  C   UNL     1       1.238  -0.815   1.601  1.00  0.00    -0.020 A 
ATOM     15  C   UNL     1       1.247  -2.282   1.646  1.00  0.00     0.041 A 
ATOM     16  C   UNL     1       0.602  -2.924   2.638  1.00  0.00     0.030 A 
ATOM     17  C   UNL     1       1.891  -3.110   0.573  1.00  0.00     0.165 C 
ATOM     18  C   UNL     1      -0.508  -0.864   3.316  1.00  0.00     0.261 A 
ATOM     19  N   UNL     1      -0.212  -2.199   3.478  1.00  0.00    -0.325 N 
ATOM     20  C   UNL     1       0.632  -4.414   2.860  1.00  0.00     0.061 C 
ATOM     21  C   UNL     1       2.094  -4.585   0.822  1.00  0.00     0.088 C 
ATOM     22  O   UNL     1       2.264  -2.608  -0.487  1.00  0.00    -0.294 OA
ATOM     23  O   UNL     1      -1.369  -0.340   4.013  1.00  0.00    -0.269 OA
ATOM     24  H   UNL     1      -0.610  -2.667   4.247  1.00  0.00     0.169 HD
ATOM     25  C   UNL     1       0.926  -5.226   1.584  1.00  0.00    -0.023 C 
ATOM     26  C   UNL     1      -0.336  -5.295   0.699  1.00  0.00     0.012 C 
ATOM     27  C   UNL     1       1.326  -6.661   1.968  1.00  0.00     0.012 C 
ENDBRANCH   9  12
ENDBRANCH   7   8
ENDBRANCH   6   7
ENDBRANCH   5   6
ENDBRANCH   1   5
BRANCH   2  28
ATOM     28  C   UNL     1      -0.195   4.132  -4.539  1.00  0.00     0.039 A 
ATOM     29  C   UNL     1       0.256   3.653  -5.774  1.00  0.00     0.014 A 
ATOM     30  C   UNL     1      -1.492   4.629  -4.432  1.00  0.00     0.014 A 
ATOM     31  C   UNL     1      -0.623   3.581  -6.860  1.00  0.00     0.010 A 
ATOM     32  C   UNL     1      -2.397   4.446  -5.472  1.00  0.00     0.010 A 
ATOM     33  C   UNL     1      -1.975   3.924  -6.702  1.00  0.00    -0.014 A 
BRANCH  33  34
ATOM     34  C   UNL     1      -2.964   3.768  -7.802  1.00  0.00     0.031 A 
ATOM     35  C   UNL     1      -3.739   4.965  -8.293  1.00  0.00     0.074 A 
ATOM     36  C   UNL     1      -3.229   2.544  -8.302  1.00  0.00     0.049 A 
ATOM     37  N   UNL     1      -4.739   5.015  -9.134  1.00  0.00    -0.248 NA
ATOM     38  C   UNL     1      -3.365   6.274  -7.731  1.00  0.00     0.031 C 
ATOM     39  C   UNL     1      -2.587   1.296  -7.880  1.00  0.00     0.029 A 
ATOM     40  N   UNL     1      -4.115   2.144  -9.271  1.00  0.00    -0.354 N 
ATOM     41  C   UNL     1      -5.130   6.348  -9.178  1.00  0.00     0.074 A 
ATOM     42  C   UNL     1      -4.300   7.065  -8.236  1.00  0.00     0.031 C 
ATOM     43  C   UNL     1      -3.071   0.280  -8.611  1.00  0.00     0.029 A 
ATOM     44  C   UNL     1      -4.090   0.791  -9.521  1.00  0.00     0.049 A 
ATOM     45  H   UNL     1      -4.714   2.767  -9.743  1.00  0.00     0.167 HD
ATOM     46  C   UNL     1      -6.073   6.931  -9.956  1.00  0.00     0.037 A 
ATOM     47  C   UNL     1      -4.809   0.046 -10.384  1.00  0.00     0.037 A 
ATOM     48  C   UNL     1      -6.856   6.226 -10.935  1.00  0.00     0.049 A 
ATOM     49  C   UNL     1      -5.834   0.718 -11.255  1.00  0.00     0.074 A 
ATOM     50  C   UNL     1      -7.793   6.734 -11.817  1.00  0.00     0.029 A 
ATOM     51  N   UNL     1      -6.778   4.862 -11.175  1.00  0.00    -0.354 N 
ATOM     52  N   UNL     1      -6.169   1.985 -11.303  1.00  0.00    -0.248 NA
ATOM     53  C   UNL     1      -6.580  -0.139 -12.187  1.00  0.00     0.031 C 
ATOM     54  C   UNL     1      -8.301   5.674 -12.573  1.00  0.00     0.029 A 
ATOM     55  C   UNL     1      -7.656   4.510 -12.187  1.00  0.00     0.049 A 
ATOM     56  H   UNL     1      -6.187   4.236 -10.697  1.00  0.00     0.167 HD
ATOM     57  C   UNL     1      -7.151   2.081 -12.281  1.00  0.00     0.074 A 
ATOM     58  C   UNL     1      -7.348   0.747 -12.809  1.00  0.00     0.031 C 
ATOM     59  C   UNL     1      -7.831   3.175 -12.703  1.00  0.00     0.037 A 
BRANCH  46  60
ATOM     60  C   UNL     1      -6.288   8.411  -9.800  1.00  0.00     0.058 A 
ATOM     61  C   UNL     1      -5.334   9.339 -10.246  1.00  0.00     0.135 A 
ATOM     62  C   UNL     1      -7.469   8.909  -9.226  1.00  0.00     0.135 A 
ATOM     63  F   UNL     1      -4.179   8.916 -10.785  1.00  0.00    -0.206 F 
ATOM     64  C   UNL     1      -5.529  10.709 -10.104  1.00  0.00     0.059 A 
ATOM     65  C   UNL     1      -7.698  10.277  -9.099  1.00  0.00     0.059 A 
ATOM     66  F   UNL     1      -8.413   8.066  -8.782  1.00  0.00    -0.206 F 
ATOM     67  C   UNL     1      -6.715  11.168  -9.528  1.00  0.00     0.060 A 
BRANCH  67  68
ATOM     68  S   UNL     1      -6.953  12.949  -9.359  1.00  0.00     0.124 S 
ATOM     69  O   UNL     1      -6.029  13.264  -8.273  1.00  0.00    -0.237 OA
ATOM     70  O   UNL     1      -6.571  13.442 -10.678  1.00  0.00    -0.237 OA
ATOM     71  O   UNL     1      -8.370  13.073  -9.032  1.00  0.00    -0.744 OA
ENDBRANCH  67  68
ENDBRANCH  46  60
BRANCH  47  72
ATOM     72  C   UNL     1      -4.553  -1.415 -10.492  1.00  0.00     0.058 A 
ATOM     73  C   UNL     1      -3.889  -1.942 -11.609  1.00  0.00     0.135 A 
ATOM     74  C   UNL     1      -4.935  -2.306  -9.477  1.00  0.00     0.135 A 
ATOM     75  F   UNL     1      -3.511  -1.130 -12.608  1.00  0.00    -0.206 F 
ATOM     76  C   UNL     1      -3.617  -3.301 -11.722  1.00  0.00     0.059 A 
ATOM     77  C   UNL     1      -4.656  -3.667  -9.557  1.00  0.00     0.059 A 
ATOM     78  F   UNL     1      -5.559  -1.849  -8.380  1.00  0.00    -0.206 F 
ATOM     79  C   UNL     1      -4.001  -4.156 -10.688  1.00  0.00     0.060 A 
BRANCH  79  80
ATOM     80  S   UNL     1      -3.587  -5.910 -10.818  1.00  0.00     0.124 S 
ATOM     81  O   UNL     1      -4.520  -6.356 -11.846  1.00  0.00    -0.237 OA
ATOM     82  O   UNL     1      -2.181  -5.864 -11.209  1.00  0.00    -0.237 OA
ATOM     83  O   UNL     1      -3.839  -6.415  -9.472  1.00  0.00    -0.744 OA
ENDBRANCH  79  80
ENDBRANCH  47  72
BRANCH  59  84
ATOM     84  C   UNL     1      -8.840   2.986 -13.798  1.00  0.00     0.058 A 
ATOM     85  C   UNL     1     -10.093   2.407 -13.546  1.00  0.00     0.135 A 
ATOM     86  C   UNL     1      -8.583   3.462 -15.094  1.00  0.00     0.135 A 
ATOM     87  F   UNL     1     -10.383   1.931 -12.324  1.00  0.00    -0.206 F 
ATOM     88  C   UNL     1     -11.055   2.299 -14.544  1.00  0.00     0.059 A 
ATOM     89  C   UNL     1      -9.538   3.384 -16.101  1.00  0.00     0.059 A 
ATOM     90  F   UNL     1      -7.402   4.033 -15.382  1.00  0.00    -0.206 F 
ATOM     91  C   UNL     1     -10.770   2.796 -15.817  1.00  0.00     0.060 A 
BRANCH  91  92
ATOM     92  S   UNL     1     -12.049   2.697 -17.087  1.00  0.00     0.124 S 
ATOM     93  O   UNL     1     -12.036   1.274 -17.408  1.00  0.00    -0.237 OA
ATOM     94  O   UNL     1     -13.231   3.177 -16.378  1.00  0.00    -0.237 OA
ATOM     95  O   UNL     1     -11.554   3.582 -18.138  1.00  0.00    -0.744 OA
ENDBRANCH  91  92
ENDBRANCH  59  84
ENDBRANCH  33  34
ENDBRANCH   2  28
TORSDOF 13
