REMARK SMILES O=C1CCCC2=C1[C@H](c1ccc([N+](=O)[O-])cc1)CC(=O)N2c1ccccc1C(=O)NCCCNC(=O)c1ccc(-c2c3nc(c(-c4c(F)cc(S(=O)(=O)[O-])cc4F)c4ccc([nH]4)c(-c4c(F)cc(S(=O)(=O)[O-])cc4F)c4nc(c(-c5c(F)cc(S(=O)(=O)[O-])cc5F)c5ccc2[nH]5)C=C4)C=C3)cc1
REMARK SMILES IDX 32 1 31 2 30 3 28 4 29 5 27 7 22 8 23 9 24 10 26 11 25 12
REMARK SMILES IDX 21 13 1 14 2 15 3 16 7 17 4 18 6 19 8 20 5 21 18 22 19 23
REMARK SMILES IDX 20 24 9 25 10 26 17 27 11 28 16 29 12 30 13 31 14 32 15 33
REMARK SMILES IDX 33 34 34 35 35 36 36 38 37 39 38 40 102 41 39 42 101 43
REMARK SMILES IDX 40 44 41 45 42 46 95 47 43 48 100 49 94 50 96 51 44 52 99 53
REMARK SMILES IDX 93 54 92 55 45 57 79 58 58 59 78 60 59 61 62 62 77 63 97 64
REMARK SMILES IDX 60 65 61 66 76 68 98 69 63 70 46 71 47 72 56 73 48 74 49 75
REMARK SMILES IDX 55 76 57 77 50 78 51 79 52 80 53 81 54 82 80 83 81 84 90 85
REMARK SMILES IDX 82 86 83 87 89 88 91 89 84 90 85 91 86 92 87 93 88 94 64 95
REMARK SMILES IDX 65 96 74 97 66 98 67 99 73 100 75 101 68 102 69 103 70 104
REMARK SMILES IDX 71 105 72 106
REMARK H PARENT 30 6 34 37 96 56 62 67
REMARK Flexibility Score: inf
ROOT
ATOM      1  C   UNL     1       4.020  -1.123   2.998  1.00  0.00     0.042 C 
ENDROOT
BRANCH   1   2
ATOM      2  C   UNL     1       4.769  -1.009   1.663  1.00  0.00     0.118 C 
BRANCH   2   3
ATOM      3  N   UNL     1       6.192  -0.754   1.757  1.00  0.00    -0.352 N 
ATOM      4  C   UNL     1       7.299  -0.931   0.962  1.00  0.00     0.253 C 
ATOM      5  O   UNL     1       8.277  -0.327   1.437  1.00  0.00    -0.269 OA
ATOM      6  H   UNL     1       6.429  -0.345   2.620  1.00  0.00     0.163 HD
BRANCH   4   7
ATOM      7  C   UNL     1       7.537  -1.692  -0.344  1.00  0.00     0.063 A 
ATOM      8  C   UNL     1       6.721  -2.385  -1.270  1.00  0.00     0.061 A 
ATOM      9  C   UNL     1       7.314  -2.983  -2.429  1.00  0.00     0.027 A 
ATOM     10  C   UNL     1       8.676  -2.978  -2.682  1.00  0.00     0.002 A 
ATOM     11  C   UNL     1       8.938  -1.725  -0.654  1.00  0.00     0.016 A 
ATOM     12  C   UNL     1       9.498  -2.352  -1.778  1.00  0.00     0.001 A 
BRANCH   8  13
ATOM     13  N   UNL     1       5.305  -2.610  -1.226  1.00  0.00    -0.284 N 
ATOM     14  O   UNL     1       0.857  -1.051  -1.025  1.00  0.00    -0.294 OA
ATOM     15  C   UNL     1       2.061  -0.792  -1.008  1.00  0.00     0.161 C 
ATOM     16  C   UNL     1       2.567   0.635  -0.934  1.00  0.00     0.081 C 
ATOM     17  C   UNL     1       3.061  -1.899  -1.007  1.00  0.00     0.023 C 
ATOM     18  C   UNL     1       3.734   0.843  -1.874  1.00  0.00     0.015 C 
ATOM     19  C   UNL     1       4.349  -1.590  -1.286  1.00  0.00     0.033 C 
ATOM     20  C   UNL     1       2.586  -3.345  -0.804  1.00  0.00     0.064 C 
ATOM     21  C   UNL     1       4.830  -0.200  -1.674  1.00  0.00     0.055 C 
ATOM     22  C   UNL     1       3.467  -4.205  -1.690  1.00  0.00     0.114 C 
ATOM     23  C   UNL     1       4.914  -3.973  -1.320  1.00  0.00     0.232 C 
ATOM     24  O   UNL     1       5.673  -4.936  -1.194  1.00  0.00    -0.274 OA
BRANCH  20  25
ATOM     25  C   UNL     1       2.548  -3.851   0.647  1.00  0.00    -0.039 A 
ATOM     26  C   UNL     1       3.368  -4.878   1.187  1.00  0.00     0.011 A 
ATOM     27  C   UNL     1       1.625  -3.278   1.508  1.00  0.00     0.011 A 
ATOM     28  C   UNL     1       3.399  -5.189   2.558  1.00  0.00     0.086 A 
ATOM     29  C   UNL     1       1.647  -3.607   2.862  1.00  0.00     0.086 A 
ATOM     30  C   UNL     1       2.567  -4.491   3.405  1.00  0.00     0.269 A 
BRANCH  30  31
ATOM     31  N   UNL     1       2.767  -4.509   4.855  1.00  0.00     0.062 N 
ATOM     32  O   UNL     1       3.186  -5.553   5.367  1.00  0.00    -0.258 OA
ATOM     33  O   UNL     1       2.579  -3.441   5.464  1.00  0.00    -0.258 OA
ENDBRANCH  30  31
ENDBRANCH  20  25
ENDBRANCH   8  13
ENDBRANCH   4   7
ENDBRANCH   2   3
ENDBRANCH   1   2
BRANCH   1  34
ATOM     34  C   UNL     1       2.918  -0.112   3.414  1.00  0.00     0.118 C 
BRANCH  34  35
ATOM     35  N   UNL     1       1.797   0.202   2.514  1.00  0.00    -0.352 N 
ATOM     36  C   UNL     1       0.422   0.004   2.485  1.00  0.00     0.251 C 
ATOM     37  H   UNL     1       2.105   0.686   1.714  1.00  0.00     0.163 HD
ATOM     38  O   UNL     1      -0.208   0.669   1.659  1.00  0.00    -0.269 OA
BRANCH  36  39
ATOM     39  C   UNL     1      -0.339  -0.992   3.299  1.00  0.00     0.039 A 
ATOM     40  C   UNL     1      -1.368  -1.746   2.683  1.00  0.00     0.014 A 
ATOM     41  C   UNL     1      -0.028  -1.289   4.614  1.00  0.00     0.014 A 
ATOM     42  C   UNL     1      -1.988  -2.846   3.336  1.00  0.00     0.010 A 
ATOM     43  C   UNL     1      -0.565  -2.450   5.210  1.00  0.00     0.010 A 
ATOM     44  C   UNL     1      -1.571  -3.251   4.611  1.00  0.00    -0.014 A 
BRANCH  44  45
ATOM     45  C   UNL     1      -2.200  -4.389   5.404  1.00  0.00     0.031 A 
ATOM     46  C   UNL     1      -2.530  -4.135   6.872  1.00  0.00     0.074 A 
ATOM     47  C   UNL     1      -2.413  -5.652   4.953  1.00  0.00     0.049 A 
ATOM     48  N   UNL     1      -2.793  -4.981   7.838  1.00  0.00    -0.248 NA
ATOM     49  C   UNL     1      -2.429  -2.739   7.329  1.00  0.00     0.031 C 
ATOM     50  C   UNL     1      -2.103  -6.174   3.621  1.00  0.00     0.029 A 
ATOM     51  N   UNL     1      -2.938  -6.758   5.607  1.00  0.00    -0.354 N 
ATOM     52  C   UNL     1      -2.770  -4.220   9.003  1.00  0.00     0.074 A 
ATOM     53  C   UNL     1      -2.293  -2.908   8.631  1.00  0.00     0.031 C 
ATOM     54  C   UNL     1      -2.461  -7.474   3.553  1.00  0.00     0.029 A 
ATOM     55  C   UNL     1      -3.014  -7.902   4.839  1.00  0.00     0.049 A 
ATOM     56  H   UNL     1      -3.232  -6.728   6.546  1.00  0.00     0.167 HD
ATOM     57  C   UNL     1      -3.205  -4.511  10.253  1.00  0.00     0.037 A 
ATOM     58  C   UNL     1      -3.483  -9.142   5.124  1.00  0.00     0.037 A 
ATOM     59  C   UNL     1      -3.845  -5.741  10.618  1.00  0.00     0.049 A 
ATOM     60  C   UNL     1      -4.067  -9.442   6.493  1.00  0.00     0.074 A 
ATOM     61  C   UNL     1      -4.428  -6.084  11.824  1.00  0.00     0.029 A 
ATOM     62  N   UNL     1      -4.027  -6.814   9.763  1.00  0.00    -0.354 N 
ATOM     63  N   UNL     1      -4.114  -8.680   7.560  1.00  0.00    -0.248 NA
ATOM     64  C   UNL     1      -4.689 -10.765   6.687  1.00  0.00     0.031 C 
ATOM     65  C   UNL     1      -4.953  -7.375  11.704  1.00  0.00     0.029 A 
ATOM     66  C   UNL     1      -4.731  -7.815  10.409  1.00  0.00     0.049 A 
ATOM     67  H   UNL     1      -3.705  -6.859   8.834  1.00  0.00     0.167 HD
ATOM     68  C   UNL     1      -4.813  -9.408   8.524  1.00  0.00     0.074 A 
ATOM     69  C   UNL     1      -5.169 -10.671   7.920  1.00  0.00     0.031 C 
ATOM     70  C   UNL     1      -5.134  -9.053   9.794  1.00  0.00     0.037 A 
BRANCH  57  71
ATOM     71  C   UNL     1      -3.081  -3.422  11.289  1.00  0.00     0.058 A 
ATOM     72  C   UNL     1      -3.788  -2.211  11.169  1.00  0.00     0.135 A 
ATOM     73  C   UNL     1      -2.222  -3.569  12.388  1.00  0.00     0.135 A 
ATOM     74  F   UNL     1      -4.619  -2.010  10.133  1.00  0.00    -0.206 F 
ATOM     75  C   UNL     1      -3.579  -1.156  12.046  1.00  0.00     0.059 A 
ATOM     76  C   UNL     1      -2.038  -2.542  13.311  1.00  0.00     0.059 A 
ATOM     77  F   UNL     1      -1.537  -4.709  12.567  1.00  0.00    -0.206 F 
ATOM     78  C   UNL     1      -2.696  -1.329  13.111  1.00  0.00     0.060 A 
BRANCH  78  79
ATOM     79  S   UNL     1      -2.422   0.062  14.226  1.00  0.00     0.124 S 
ATOM     80  O   UNL     1      -1.572   0.924  13.411  1.00  0.00    -0.237 OA
ATOM     81  O   UNL     1      -3.778   0.549  14.458  1.00  0.00    -0.237 OA
ATOM     82  O   UNL     1      -1.773  -0.551  15.380  1.00  0.00    -0.744 OA
ENDBRANCH  78  79
ENDBRANCH  57  71
BRANCH  58  83
ATOM     83  C   UNL     1      -3.509 -10.212   4.076  1.00  0.00     0.058 A 
ATOM     84  C   UNL     1      -4.724 -10.625   3.500  1.00  0.00     0.135 A 
ATOM     85  C   UNL     1      -2.345 -10.876   3.662  1.00  0.00     0.135 A 
ATOM     86  F   UNL     1      -5.874 -10.048   3.881  1.00  0.00    -0.206 F 
ATOM     87  C   UNL     1      -4.786 -11.658   2.566  1.00  0.00     0.059 A 
ATOM     88  C   UNL     1      -2.378 -11.897   2.710  1.00  0.00     0.059 A 
ATOM     89  F   UNL     1      -1.156 -10.532   4.180  1.00  0.00    -0.206 F 
ATOM     90  C   UNL     1      -3.605 -12.285   2.171  1.00  0.00     0.060 A 
BRANCH  90  91
ATOM     91  S   UNL     1      -3.692 -13.573   0.904  1.00  0.00     0.124 S 
ATOM     92  O   UNL     1      -4.315 -14.670   1.635  1.00  0.00    -0.237 OA
ATOM     93  O   UNL     1      -4.518 -12.939  -0.119  1.00  0.00    -0.237 OA
ATOM     94  O   UNL     1      -2.294 -13.774   0.533  1.00  0.00    -0.744 OA
ENDBRANCH  90  91
ENDBRANCH  58  83
BRANCH  70  95
ATOM     95  C   UNL     1      -5.994  -9.985  10.608  1.00  0.00     0.058 A 
ATOM     96  C   UNL     1      -5.512 -11.197  11.123  1.00  0.00     0.135 A 
ATOM     97  C   UNL     1      -7.309  -9.612  10.943  1.00  0.00     0.135 A 
ATOM     98  F   UNL     1      -4.263 -11.601  10.843  1.00  0.00    -0.206 F 
ATOM     99  C   UNL     1      -6.310 -12.022  11.914  1.00  0.00     0.059 A 
ATOM    100  C   UNL     1      -8.114 -10.406  11.754  1.00  0.00     0.059 A 
ATOM    101  F   UNL     1      -7.817  -8.453  10.495  1.00  0.00    -0.206 F 
ATOM    102  C   UNL     1      -7.610 -11.617  12.224  1.00  0.00     0.060 A 
BRANCH 102 103
ATOM    103  S   UNL     1      -8.629 -12.684  13.266  1.00  0.00     0.124 S 
ATOM    104  O   UNL     1      -8.966 -13.763  12.343  1.00  0.00    -0.237 OA
ATOM    105  O   UNL     1      -7.712 -13.037  14.345  1.00  0.00    -0.237 OA
ATOM    106  O   UNL     1      -9.740 -11.821  13.655  1.00  0.00    -0.744 OA
ENDBRANCH 102 103
ENDBRANCH  70  95
ENDBRANCH  44  45
ENDBRANCH  36  39
ENDBRANCH  34  35
ENDBRANCH   1  34
TORSDOF 16
