REMARK SMILES O=C(CSc1nc(O)cc(=O)[nH]1)Nc1cccc(C(=O)NCCCNC(=O)c2ccc(-c3c4nc(c(-c5c(F)cc(S(=O)(=O)[O-])cc5F)c5ccc([nH]5)c(-c5c(F)cc(S(=O)(=O)[O-])cc5F)c5nc(c(-c6c(F)cc(S(=O)(=O)[O-])cc6F)c6ccc3[nH]6)C=C5)C=C4)cc2)c1
REMARK SMILES IDX 22 1 21 2 19 3 20 4 18 6 14 7 15 8 94 9 16 10 17 11 13 12
REMARK SMILES IDX 1 13 2 14 3 16 4 17 5 18 6 19 12 20 7 21 10 22 9 24 11 25
REMARK SMILES IDX 8 26 23 28 24 29 25 30 26 31 27 33 28 34 29 35 93 36 30 37
REMARK SMILES IDX 92 38 31 39 32 40 33 41 86 42 34 43 91 44 85 45 87 46 35 47
REMARK SMILES IDX 90 48 84 49 83 50 36 52 70 53 49 54 69 55 50 56 53 57 68 58
REMARK SMILES IDX 88 59 51 60 52 61 67 63 89 64 54 65 37 66 38 67 47 68 39 69
REMARK SMILES IDX 40 70 46 71 48 72 41 73 42 74 43 75 44 76 45 77 71 78 72 79
REMARK SMILES IDX 81 80 73 81 74 82 80 83 82 84 75 85 76 86 77 87 78 88 79 89
REMARK SMILES IDX 55 90 56 91 65 92 57 93 58 94 64 95 66 96 59 97 60 98 61 99
REMARK SMILES IDX 62 100 63 101
REMARK H PARENT 21 5 13 15 12 23 8 27 25 32 87 51 53 62
REMARK Flexibility Score: inf
ROOT
ATOM      1  C   UNL     1      -0.336   1.974   2.490  1.00  0.00     0.118 C 
ENDROOT
BRANCH   1   2
ATOM      2  N   UNL     1      -0.862   3.271   2.069  1.00  0.00    -0.352 N 
ATOM      3  C   UNL     1      -0.533   4.122   1.035  1.00  0.00     0.251 C 
ATOM      4  O   UNL     1      -1.152   5.181   0.928  1.00  0.00    -0.269 OA
ATOM      5  H   UNL     1      -1.597   3.601   2.634  1.00  0.00     0.163 HD
BRANCH   3   6
ATOM      6  C   UNL     1       0.586   3.846   0.094  1.00  0.00     0.041 A 
ATOM      7  C   UNL     1       2.203   2.303  -0.834  1.00  0.00     0.041 A 
ATOM      8  C   UNL     1       2.942   3.381  -1.327  1.00  0.00     0.026 A 
ATOM      9  C   UNL     1       0.961   2.552  -0.256  1.00  0.00     0.040 A 
ATOM     10  C   UNL     1       2.471   4.687  -1.169  1.00  0.00     0.003 A 
ATOM     11  C   UNL     1       1.315   4.923  -0.422  1.00  0.00     0.014 A 
BRANCH   7  12
ATOM     12  N   UNL     1       2.798   1.024  -0.825  1.00  0.00    -0.325 N 
ATOM     13  O   UNL     1       1.060  -0.318  -0.040  1.00  0.00    -0.274 OA
ATOM     14  C   UNL     1       2.240  -0.152  -0.346  1.00  0.00     0.234 C 
ATOM     15  H   UNL     1       3.706   0.959  -1.200  1.00  0.00     0.169 HD
BRANCH  14  16
ATOM     16  C   UNL     1       3.237  -1.272  -0.093  1.00  0.00     0.178 C 
BRANCH  16  17
ATOM     17  S   UNL     1       4.354  -1.605  -1.478  1.00  0.00    -0.078 SA
BRANCH  17  18
ATOM     18  C   UNL     1       3.194  -1.725  -2.759  1.00  0.00     0.172 A 
ATOM     19  N   UNL     1       2.728  -0.661  -3.317  1.00  0.00    -0.189 NA
ATOM     20  N   UNL     1       2.877  -2.994  -3.111  1.00  0.00    -0.301 N 
ATOM     21  C   UNL     1       1.827  -0.860  -4.319  1.00  0.00     0.218 A 
ATOM     22  C   UNL     1       2.019  -3.245  -4.138  1.00  0.00     0.255 A 
ATOM     23  H   UNL     1       3.274  -3.747  -2.615  1.00  0.00     0.172 HD
ATOM     24  C   UNL     1       1.443  -2.053  -4.777  1.00  0.00     0.139 A 
ATOM     25  O   UNL     1       1.744  -4.373  -4.519  1.00  0.00    -0.269 OA
BRANCH  21  26
ATOM     26  O   UNL     1       1.297   0.280  -4.861  1.00  0.00    -0.493 OA
ATOM     27  H   UNL     1       1.565   1.119  -4.541  1.00  0.00     0.295 HD
ENDBRANCH  21  26
ENDBRANCH  17  18
ENDBRANCH  16  17
ENDBRANCH  14  16
ENDBRANCH   7  12
ENDBRANCH   3   6
ENDBRANCH   1   2
BRANCH   1  28
ATOM     28  C   UNL     1       0.169   1.936   3.922  1.00  0.00     0.042 C 
BRANCH  28  29
ATOM     29  C   UNL     1      -0.911   2.063   4.980  1.00  0.00     0.118 C 
BRANCH  29  30
ATOM     30  N   UNL     1      -1.867   0.961   4.954  1.00  0.00    -0.352 N 
ATOM     31  C   UNL     1      -2.069  -0.081   5.829  1.00  0.00     0.251 C 
ATOM     32  H   UNL     1      -2.470   0.963   4.176  1.00  0.00     0.163 HD
ATOM     33  O   UNL     1      -2.812  -1.003   5.501  1.00  0.00    -0.269 OA
BRANCH  31  34
ATOM     34  C   UNL     1      -1.389  -0.116   7.144  1.00  0.00     0.039 A 
ATOM     35  C   UNL     1      -0.937  -1.341   7.644  1.00  0.00     0.014 A 
ATOM     36  C   UNL     1      -1.215   1.044   7.899  1.00  0.00     0.014 A 
ATOM     37  C   UNL     1      -0.244  -1.384   8.858  1.00  0.00     0.010 A 
ATOM     38  C   UNL     1      -0.429   1.018   9.046  1.00  0.00     0.010 A 
ATOM     39  C   UNL     1       0.056  -0.198   9.546  1.00  0.00    -0.014 A 
BRANCH  39  40
ATOM     40  C   UNL     1       0.861  -0.200  10.796  1.00  0.00     0.031 A 
ATOM     41  C   UNL     1       0.270   0.334  12.075  1.00  0.00     0.074 A 
ATOM     42  C   UNL     1       2.145  -0.612  10.763  1.00  0.00     0.049 A 
ATOM     43  N   UNL     1       0.837   0.497  13.243  1.00  0.00    -0.248 NA
ATOM     44  C   UNL     1      -1.134   0.774  12.026  1.00  0.00     0.031 C 
ATOM     45  C   UNL     1       2.846  -1.103   9.575  1.00  0.00     0.029 A 
ATOM     46  N   UNL     1       3.093  -0.673  11.754  1.00  0.00    -0.354 N 
ATOM     47  C   UNL     1      -0.133   1.071  14.058  1.00  0.00     0.074 A 
ATOM     48  C   UNL     1      -1.301   1.290  13.234  1.00  0.00     0.031 C 
ATOM     49  C   UNL     1       4.100  -1.445   9.912  1.00  0.00     0.029 A 
ATOM     50  C   UNL     1       4.309  -1.155  11.327  1.00  0.00     0.049 A 
ATOM     51  H   UNL     1       2.919  -0.399  12.683  1.00  0.00     0.167 HD
ATOM     52  C   UNL     1      -0.068   1.362  15.379  1.00  0.00     0.037 A 
ATOM     53  C   UNL     1       5.464  -1.334  11.997  1.00  0.00     0.037 A 
ATOM     54  C   UNL     1       1.092   1.120  16.196  1.00  0.00     0.049 A 
ATOM     55  C   UNL     1       5.518  -0.991  13.461  1.00  0.00     0.074 A 
ATOM     56  C   UNL     1       1.247   1.328  17.555  1.00  0.00     0.029 A 
ATOM     57  N   UNL     1       2.300   0.618  15.729  1.00  0.00    -0.354 N 
ATOM     58  N   UNL     1       4.572  -0.507  14.231  1.00  0.00    -0.248 NA
ATOM     59  C   UNL     1       6.794  -1.222  14.150  1.00  0.00     0.031 C 
ATOM     60  C   UNL     1       2.563   1.003  17.900  1.00  0.00     0.029 A 
ATOM     61  C   UNL     1       3.211   0.534  16.768  1.00  0.00     0.049 A 
ATOM     62  H   UNL     1       2.481   0.361  14.796  1.00  0.00     0.167 HD
ATOM     63  C   UNL     1       5.128  -0.406  15.501  1.00  0.00     0.074 A 
ATOM     64  C   UNL     1       6.490  -0.889  15.398  1.00  0.00     0.031 C 
ATOM     65  C   UNL     1       4.563   0.044  16.649  1.00  0.00     0.037 A 
BRANCH  52  66
ATOM     66  C   UNL     1      -1.288   1.971  16.020  1.00  0.00     0.058 A 
ATOM     67  C   UNL     1      -2.480   1.244  16.180  1.00  0.00     0.135 A 
ATOM     68  C   UNL     1      -1.261   3.290  16.500  1.00  0.00     0.135 A 
ATOM     69  F   UNL     1      -2.570  -0.017  15.728  1.00  0.00    -0.206 F 
ATOM     70  C   UNL     1      -3.611   1.816  16.754  1.00  0.00     0.059 A 
ATOM     71  C   UNL     1      -2.370   3.871  17.109  1.00  0.00     0.059 A 
ATOM     72  F   UNL     1      -0.149   4.033  16.376  1.00  0.00    -0.206 F 
ATOM     73  C   UNL     1      -3.546   3.131  17.215  1.00  0.00     0.060 A 
BRANCH  73  74
ATOM     74  S   UNL     1      -5.025   3.858  17.952  1.00  0.00     0.124 S 
ATOM     75  O   UNL     1      -5.877   4.035  16.780  1.00  0.00    -0.237 OA
ATOM     76  O   UNL     1      -5.446   2.822  18.890  1.00  0.00    -0.237 OA
ATOM     77  O   UNL     1      -4.533   5.089  18.561  1.00  0.00    -0.744 OA
ENDBRANCH  73  74
ENDBRANCH  52  66
BRANCH  53  78
ATOM     78  C   UNL     1       6.651  -1.892  11.295  1.00  0.00     0.058 A 
ATOM     79  C   UNL     1       7.119  -3.182  11.585  1.00  0.00     0.135 A 
ATOM     80  C   UNL     1       7.328  -1.160  10.306  1.00  0.00     0.135 A 
ATOM     81  F   UNL     1       6.511  -3.920  12.526  1.00  0.00    -0.206 F 
ATOM     82  C   UNL     1       8.222  -3.723  10.932  1.00  0.00     0.059 A 
ATOM     83  C   UNL     1       8.416  -1.690   9.619  1.00  0.00     0.059 A 
ATOM     84  F   UNL     1       6.911   0.073   9.977  1.00  0.00    -0.206 F 
ATOM     85  C   UNL     1       8.861  -2.970   9.945  1.00  0.00     0.060 A 
BRANCH  85  86
ATOM     86  S   UNL     1      10.254  -3.705   9.062  1.00  0.00     0.124 S 
ATOM     87  O   UNL     1      11.288  -3.705  10.090  1.00  0.00    -0.237 OA
ATOM     88  O   UNL     1       9.723  -5.013   8.689  1.00  0.00    -0.237 OA
ATOM     89  O   UNL     1      10.469  -2.785   7.949  1.00  0.00    -0.744 OA
ENDBRANCH  85  86
ENDBRANCH  53  78
BRANCH  65  90
ATOM     90  C   UNL     1       5.401  -0.001  17.898  1.00  0.00     0.058 A 
ATOM     91  C   UNL     1       6.480   0.873  18.098  1.00  0.00     0.135 A 
ATOM     92  C   UNL     1       5.082  -0.896  18.933  1.00  0.00     0.135 A 
ATOM     93  F   UNL     1       6.832   1.744  17.139  1.00  0.00    -0.206 F 
ATOM     94  C   UNL     1       7.231   0.844  19.270  1.00  0.00     0.059 A 
ATOM     95  C   UNL     1       5.798  -0.920  20.125  1.00  0.00     0.059 A 
ATOM     96  F   UNL     1       4.053  -1.747  18.798  1.00  0.00    -0.206 F 
ATOM     97  C   UNL     1       6.879  -0.054  20.279  1.00  0.00     0.060 A 
BRANCH  97  98
ATOM     98  S   UNL     1       7.840  -0.056  21.807  1.00  0.00     0.124 S 
ATOM     99  O   UNL     1       9.090  -0.666  21.368  1.00  0.00    -0.237 OA
ATOM    100  O   UNL     1       7.908   1.365  22.133  1.00  0.00    -0.237 OA
ATOM    101  O   UNL     1       7.032  -0.863  22.716  1.00  0.00    -0.744 OA
ENDBRANCH  97  98
ENDBRANCH  65  90
ENDBRANCH  39  40
ENDBRANCH  31  34
ENDBRANCH  29  30
ENDBRANCH  28  29
ENDBRANCH   1  28
TORSDOF 18
