REMARK SMILES COCc1cc(C)nc(N/N=C\c2ccc(-c3cccc(C(=O)NCCCNC(=O)c4ccc(-c5c6nc(c(-c7c(F)cc(S(=O)(=O)[O-])cc7F)c7ccc([nH]7)c(-c7c(F)cc(S(=O)(=O)[O-])cc7F)c7nc(c(-c8c(F)cc(S(=O)(=O)[O-])cc8F)c8ccc5[nH]8)C=C7)C=C6)cc4)c3)o2)c1C#N
REMARK SMILES IDX 22 1 23 2 24 3 21 5 17 6 18 7 97 8 19 9 20 10 16 11 13 12
REMARK SMILES IDX 14 13 98 14 15 15 12 16 11 17 10 18 9 20 4 21 5 22 99 23
REMARK SMILES IDX 6 24 7 25 8 26 3 27 2 28 1 29 100 30 101 31 25 32 26 33
REMARK SMILES IDX 27 34 28 35 29 36 30 38 31 39 32 40 96 41 33 42 95 43 34 44
REMARK SMILES IDX 35 45 36 46 89 47 37 48 94 49 88 50 90 51 38 52 93 53 87 54
REMARK SMILES IDX 86 55 39 57 73 58 52 59 72 60 53 61 56 62 71 63 91 64 54 65
REMARK SMILES IDX 55 66 70 68 92 69 57 70 40 71 41 72 50 73 42 74 43 75 49 76
REMARK SMILES IDX 51 77 44 78 45 79 46 80 47 81 48 82 74 83 75 84 84 85 76 86
REMARK SMILES IDX 77 87 83 88 85 89 78 90 79 91 80 92 81 93 82 94 58 95 59 96
REMARK SMILES IDX 68 97 60 98 61 99 67 100 69 101 62 102 63 103 64 104 65 105
REMARK SMILES IDX 66 106
REMARK H PARENT 24 4 10 19 28 37 90 56 56 67
REMARK Flexibility Score: inf
ROOT
ATOM      1  C   UNL     1      -2.550  -6.535  -7.729  1.00  0.00     0.251 C 
ATOM      2  O   UNL     1      -2.290  -7.670  -8.130  1.00  0.00    -0.269 OA
ATOM      3  N   UNL     1      -3.799  -6.324  -7.187  1.00  0.00    -0.352 N 
ATOM      4  H   UNL     1      -4.422  -7.073  -7.330  1.00  0.00     0.163 HD
ENDROOT
BRANCH   1   5
ATOM      5  C   UNL     1      -1.504  -5.476  -7.837  1.00  0.00     0.040 A 
ATOM      6  C   UNL     1      -0.810  -3.135  -7.697  1.00  0.00     0.018 A 
ATOM      7  C   UNL     1       0.503  -3.504  -7.990  1.00  0.00     0.012 A 
ATOM      8  C   UNL     1      -1.789  -4.125  -7.702  1.00  0.00     0.025 A 
ATOM      9  C   UNL     1       0.819  -4.855  -8.187  1.00  0.00     0.002 A 
ATOM     10  C   UNL     1      -0.176  -5.837  -8.088  1.00  0.00     0.014 A 
BRANCH   6  11
ATOM     11  C   UNL     1      -1.195  -1.833  -7.162  1.00  0.00     0.134 A 
ATOM     12  C   UNL     1      -0.738   0.216  -6.556  1.00  0.00     0.147 A 
ATOM     13  C   UNL     1      -1.908  -0.111  -5.905  1.00  0.00     0.053 A 
ATOM     14  O   UNL     1      -0.354  -0.797  -7.391  1.00  0.00    -0.455 OA
ATOM     15  C   UNL     1      -2.203  -1.437  -6.294  1.00  0.00     0.051 A 
BRANCH  12  16
ATOM     16  C   UNL     1       0.161   1.313  -6.466  1.00  0.00     0.180 C 
ATOM     17  N   UNL     1       0.772   1.806  -5.431  1.00  0.00    -0.178 NA
BRANCH  17  18
ATOM     18  N   UNL     1       0.644   1.368  -4.150  1.00  0.00    -0.260 N 
ATOM     19  H   UNL     1       0.429   2.066  -3.490  1.00  0.00     0.192 HD
BRANCH  18  20
ATOM     20  C   UNL     1       0.775   0.046  -3.615  1.00  0.00     0.164 A 
ATOM     21  C   UNL     1       0.941  -1.347  -1.605  1.00  0.00     0.001 A 
ATOM     22  C   UNL     1       0.506  -2.424  -2.365  1.00  0.00     0.031 A 
ATOM     23  C   UNL     1       1.082  -0.098  -2.245  1.00  0.00     0.102 A 
ATOM     24  C   UNL     1       0.415  -2.269  -3.731  1.00  0.00     0.040 A 
ATOM     25  C   UNL     1       0.216  -3.504  -4.555  1.00  0.00     0.067 C 
ATOM     26  N   UNL     1       0.542  -1.065  -4.352  1.00  0.00    -0.233 NA
BRANCH  21  27
ATOM     27  C   UNL     1       1.319  -1.629  -0.173  1.00  0.00     0.196 C 
BRANCH  27  28
ATOM     28  O   UNL     1       0.331  -1.220   0.760  1.00  0.00    -0.380 OA
ATOM     29  C   UNL     1       0.539   0.086   1.275  1.00  0.00     0.195 C 
ENDBRANCH  27  28
ENDBRANCH  21  27
BRANCH  23  30
ATOM     30  C   UNL     1       1.628   1.022  -1.540  1.00  0.00     0.103 C 
ATOM     31  N   UNL     1       2.081   1.933  -0.988  1.00  0.00    -0.192 NA
ENDBRANCH  23  30
ENDBRANCH  18  20
ENDBRANCH  17  18
ENDBRANCH  12  16
ENDBRANCH   6  11
ENDBRANCH   1   5
BRANCH   3  32
ATOM     32  C   UNL     1      -4.382  -5.214  -6.445  1.00  0.00     0.118 C 
BRANCH  32  33
ATOM     33  C   UNL     1      -5.149  -4.235  -7.341  1.00  0.00     0.042 C 
BRANCH  33  34
ATOM     34  C   UNL     1      -6.524  -4.726  -7.758  1.00  0.00     0.118 C 
BRANCH  34  35
ATOM     35  N   UNL     1      -7.411  -4.879  -6.615  1.00  0.00    -0.352 N 
ATOM     36  C   UNL     1      -8.521  -4.154  -6.259  1.00  0.00     0.251 C 
ATOM     37  H   UNL     1      -7.180  -5.614  -6.003  1.00  0.00     0.163 HD
ATOM     38  O   UNL     1      -8.956  -4.244  -5.114  1.00  0.00    -0.269 OA
BRANCH  36  39
ATOM     39  C   UNL     1      -9.180  -3.270  -7.242  1.00  0.00     0.039 A 
ATOM     40  C   UNL     1      -9.667  -2.030  -6.822  1.00  0.00     0.014 A 
ATOM     41  C   UNL     1      -9.329  -3.668  -8.573  1.00  0.00     0.014 A 
ATOM     42  C   UNL     1     -10.226  -1.156  -7.757  1.00  0.00     0.010 A 
ATOM     43  C   UNL     1      -9.805  -2.765  -9.517  1.00  0.00     0.010 A 
ATOM     44  C   UNL     1     -10.246  -1.495  -9.119  1.00  0.00    -0.014 A 
BRANCH  44  45
ATOM     45  C   UNL     1     -10.667  -0.519 -10.155  1.00  0.00     0.031 A 
ATOM     46  C   UNL     1     -11.846  -0.810 -11.039  1.00  0.00     0.074 A 
ATOM     47  C   UNL     1      -9.917   0.583 -10.355  1.00  0.00     0.049 A 
ATOM     48  N   UNL     1     -12.291  -0.134 -12.065  1.00  0.00    -0.248 NA
ATOM     49  C   UNL     1     -12.613  -2.032 -10.746  1.00  0.00     0.031 C 
ATOM     50  C   UNL     1      -8.725   0.944  -9.584  1.00  0.00     0.029 A 
ATOM     51  N   UNL     1     -10.030   1.592 -11.278  1.00  0.00    -0.354 N 
ATOM     52  C   UNL     1     -13.379  -0.850 -12.549  1.00  0.00     0.074 A 
ATOM     53  C   UNL     1     -13.499  -2.039 -11.732  1.00  0.00     0.031 C 
ATOM     54  C   UNL     1      -8.227   2.098 -10.054  1.00  0.00     0.029 A 
ATOM     55  C   UNL     1      -9.025   2.529 -11.196  1.00  0.00     0.049 A 
ATOM     56  H   UNL     1     -10.761   1.642 -11.936  1.00  0.00     0.167 HD
ATOM     57  C   UNL     1     -14.209  -0.534 -13.571  1.00  0.00     0.037 A 
ATOM     58  C   UNL     1      -8.757   3.597 -11.972  1.00  0.00     0.037 A 
ATOM     59  C   UNL     1     -14.078   0.658 -14.370  1.00  0.00     0.049 A 
ATOM     60  C   UNL     1      -9.667   3.901 -13.130  1.00  0.00     0.074 A 
ATOM     61  C   UNL     1     -14.902   1.102 -15.389  1.00  0.00     0.029 A 
ATOM     62  N   UNL     1     -13.049   1.583 -14.256  1.00  0.00    -0.354 N 
ATOM     63  N   UNL     1     -10.744   3.260 -13.520  1.00  0.00    -0.248 NA
ATOM     64  C   UNL     1      -9.328   5.067 -13.957  1.00  0.00     0.031 C 
ATOM     65  C   UNL     1     -14.333   2.254 -15.939  1.00  0.00     0.029 A 
ATOM     66  C   UNL     1     -13.192   2.570 -15.217  1.00  0.00     0.049 A 
ATOM     67  H   UNL     1     -12.325   1.543 -13.590  1.00  0.00     0.167 HD
ATOM     68  C   UNL     1     -11.220   3.955 -14.625  1.00  0.00     0.074 A 
ATOM     69  C   UNL     1     -10.329   5.079 -14.828  1.00  0.00     0.031 C 
ATOM     70  C   UNL     1     -12.295   3.684 -15.406  1.00  0.00     0.037 A 
BRANCH  57  71
ATOM     71  C   UNL     1     -15.326  -1.489 -13.896  1.00  0.00     0.058 A 
ATOM     72  C   UNL     1     -16.414  -1.682 -13.028  1.00  0.00     0.135 A 
ATOM     73  C   UNL     1     -15.339  -2.178 -15.120  1.00  0.00     0.135 A 
ATOM     74  F   UNL     1     -16.449  -1.061 -11.838  1.00  0.00    -0.206 F 
ATOM     75  C   UNL     1     -17.459  -2.541 -13.351  1.00  0.00     0.059 A 
ATOM     76  C   UNL     1     -16.391  -3.016 -15.479  1.00  0.00     0.059 A 
ATOM     77  F   UNL     1     -14.326  -2.033 -15.988  1.00  0.00    -0.206 F 
ATOM     78  C   UNL     1     -17.442  -3.200 -14.582  1.00  0.00     0.060 A 
BRANCH  78  79
ATOM     79  S   UNL     1     -18.817  -4.295 -14.989  1.00  0.00     0.124 S 
ATOM     80  O   UNL     1     -18.608  -5.388 -14.044  1.00  0.00    -0.237 OA
ATOM     81  O   UNL     1     -19.975  -3.447 -14.730  1.00  0.00    -0.237 OA
ATOM     82  O   UNL     1     -18.586  -4.628 -16.391  1.00  0.00    -0.744 OA
ENDBRANCH  78  79
ENDBRANCH  57  71
BRANCH  58  83
ATOM     83  C   UNL     1      -7.567   4.444 -11.686  1.00  0.00     0.058 A 
ATOM     84  C   UNL     1      -7.709   5.769 -11.251  1.00  0.00     0.135 A 
ATOM     85  C   UNL     1      -6.263   3.942 -11.831  1.00  0.00     0.135 A 
ATOM     86  F   UNL     1      -8.933   6.299 -11.104  1.00  0.00    -0.206 F 
ATOM     87  C   UNL     1      -6.605   6.573 -10.985  1.00  0.00     0.059 A 
ATOM     88  C   UNL     1      -5.143   4.715 -11.539  1.00  0.00     0.059 A 
ATOM     89  F   UNL     1      -6.069   2.675 -12.229  1.00  0.00    -0.206 F 
ATOM     90  C   UNL     1      -5.325   6.033 -11.127  1.00  0.00     0.060 A 
BRANCH  90  91
ATOM     91  S   UNL     1      -3.902   7.071 -10.732  1.00  0.00     0.124 S 
ATOM     92  O   UNL     1      -3.931   8.038 -11.822  1.00  0.00    -0.237 OA
ATOM     93  O   UNL     1      -4.258   7.583  -9.412  1.00  0.00    -0.237 OA
ATOM     94  O   UNL     1      -2.785   6.131 -10.751  1.00  0.00    -0.744 OA
ENDBRANCH  90  91
ENDBRANCH  58  83
BRANCH  70  95
ATOM     95  C   UNL     1     -12.582   4.620 -16.549  1.00  0.00     0.058 A 
ATOM     96  C   UNL     1     -11.771   4.650 -17.694  1.00  0.00     0.135 A 
ATOM     97  C   UNL     1     -13.729   5.431 -16.536  1.00  0.00     0.135 A 
ATOM     98  F   UNL     1     -10.656   3.905 -17.753  1.00  0.00    -0.206 F 
ATOM     99  C   UNL     1     -12.084   5.455 -18.784  1.00  0.00     0.059 A 
ATOM    100  C   UNL     1     -14.079   6.217 -17.629  1.00  0.00     0.059 A 
ATOM    101  F   UNL     1     -14.542   5.436 -15.468  1.00  0.00    -0.206 F 
ATOM    102  C   UNL     1     -13.248   6.224 -18.748  1.00  0.00     0.060 A 
BRANCH 102 103
ATOM    103  S   UNL     1     -13.678   7.203 -20.202  1.00  0.00     0.124 S 
ATOM    104  O   UNL     1     -12.638   8.226 -20.189  1.00  0.00    -0.237 OA
ATOM    105  O   UNL     1     -13.586   6.217 -21.275  1.00  0.00    -0.237 OA
ATOM    106  O   UNL     1     -15.027   7.677 -19.908  1.00  0.00    -0.744 OA
ENDBRANCH 102 103
ENDBRANCH  70  95
ENDBRANCH  44  45
ENDBRANCH  36  39
ENDBRANCH  34  35
ENDBRANCH  33  34
ENDBRANCH  32  33
ENDBRANCH   3  32
TORSDOF 20
