REMARK SMILES CC(=O)OCC1=C(C(=O)NCCCNC(=O)c2ccc(-c3c4nc(c(-c5c(F)cc(S(=O)(=O)[O-])cc5F)c5ccc([nH]5)c(-c5c(F)cc(S(=O)(=O)[O-])cc5F)c5nc(c(-c6c(F)cc(S(=O)(=O)[O-])cc6F)c6ccc3[nH]6)C=C5)C=C4)cc2)N2C(=O)[C@H](NC(=O)C3CCCCC3)[C@@H]2SC1
REMARK SMILES IDX 12 1 11 2 10 3 8 4 9 5 7 7 6 8 98 9 83 10 97 11 84 12 96 13
REMARK SMILES IDX 85 14 86 15 5 16 4 17 2 18 1 19 3 20 87 21 88 22 89 24 90 25
REMARK SMILES IDX 91 26 95 27 92 28 94 29 93 30 13 31 14 32 15 33 16 35 17 36
REMARK SMILES IDX 18 37 82 38 19 39 81 40 20 41 21 42 22 43 75 44 23 45 80 46
REMARK SMILES IDX 74 47 76 48 24 49 79 50 73 51 72 52 25 54 59 55 38 56 58 57
REMARK SMILES IDX 39 58 42 59 57 60 77 61 40 62 41 63 56 65 78 66 43 67 26 68
REMARK SMILES IDX 27 69 36 70 28 71 29 72 35 73 37 74 30 75 31 76 32 77 33 78
REMARK SMILES IDX 34 79 60 80 61 81 70 82 62 83 63 84 69 85 71 86 64 87 65 88
REMARK SMILES IDX 66 89 67 90 68 91 44 92 45 93 54 94 46 95 47 96 53 97 55 98
REMARK SMILES IDX 48 99 49 100 50 101 51 102 52 103
REMARK H PARENT 10 6 87 23 14 34 76 53 42 64
REMARK Flexibility Score: inf
ROOT
ATOM      1  C   UNL     1       2.448   3.021  -3.668  1.00  0.00     0.042 C 
ENDROOT
BRANCH   1   2
ATOM      2  C   UNL     1       1.463   1.897  -3.965  1.00  0.00     0.118 C 
BRANCH   2   3
ATOM      3  N   UNL     1       1.262   1.568  -5.362  1.00  0.00    -0.351 N 
ATOM      4  C   UNL     1       0.810   0.444  -5.992  1.00  0.00     0.268 C 
ATOM      5  O   UNL     1       0.558   0.576  -7.189  1.00  0.00    -0.268 OA
ATOM      6  H   UNL     1       1.497   2.299  -5.978  1.00  0.00     0.163 HD
BRANCH   4   7
ATOM      7  C   UNL     1       0.749  -0.919  -5.316  1.00  0.00     0.114 C 
ATOM      8  C   UNL     1       0.118  -1.174  -4.139  1.00  0.00     0.007 C 
ATOM      9  C   UNL     1       0.116  -2.528  -3.457  1.00  0.00     0.108 C 
ATOM     10  N   UNL     1       1.307  -1.960  -6.028  1.00  0.00    -0.290 N 
ATOM     11  S   UNL     1       0.221  -3.928  -4.578  1.00  0.00    -0.129 SA
ATOM     12  C   UNL     1       1.249  -2.335  -7.334  1.00  0.00     0.253 C 
ATOM     13  C   UNL     1       1.635  -3.271  -5.503  1.00  0.00     0.181 C 
ATOM     14  O   UNL     1       0.834  -1.838  -8.357  1.00  0.00    -0.272 OA
ATOM     15  C   UNL     1       1.739  -3.769  -6.988  1.00  0.00     0.205 C 
BRANCH   8  16
ATOM     16  C   UNL     1      -0.775  -0.200  -3.399  1.00  0.00     0.267 C 
BRANCH  16  17
ATOM     17  O   UNL     1      -0.093   0.259  -2.221  1.00  0.00    -0.461 OA
BRANCH  17  18
ATOM     18  C   UNL     1      -0.379  -0.328  -1.032  1.00  0.00     0.302 C 
ATOM     19  C   UNL     1       0.523   0.227   0.028  1.00  0.00     0.139 C 
ATOM     20  O   UNL     1      -1.214  -1.201  -0.856  1.00  0.00    -0.253 OA
ENDBRANCH  17  18
ENDBRANCH  16  17
ENDBRANCH   8  16
BRANCH  15  21
ATOM     21  N   UNL     1       0.814  -4.855  -7.399  1.00  0.00    -0.342 N 
ATOM     22  C   UNL     1       0.917  -6.209  -7.381  1.00  0.00     0.223 C 
ATOM     23  H   UNL     1      -0.044  -4.529  -7.754  1.00  0.00     0.164 HD
ATOM     24  O   UNL     1      -0.120  -6.825  -7.650  1.00  0.00    -0.275 OA
BRANCH  22  25
ATOM     25  C   UNL     1       2.244  -6.961  -7.178  1.00  0.00     0.078 C 
ATOM     26  C   UNL     1       3.213  -6.410  -6.128  1.00  0.00     0.013 C 
ATOM     27  C   UNL     1       1.909  -8.437  -6.847  1.00  0.00     0.013 C 
ATOM     28  C   UNL     1       4.449  -7.296  -5.953  1.00  0.00     0.001 C 
ATOM     29  C   UNL     1       3.140  -9.313  -6.643  1.00  0.00     0.001 C 
ATOM     30  C   UNL     1       4.077  -8.726  -5.598  1.00  0.00     0.000 C 
ENDBRANCH  22  25
ENDBRANCH  15  21
ENDBRANCH   4   7
ENDBRANCH   2   3
ENDBRANCH   1   2
BRANCH   1  31
ATOM     31  C   UNL     1       2.270   4.301  -4.475  1.00  0.00     0.118 C 
BRANCH  31  32
ATOM     32  N   UNL     1       0.980   4.957  -4.307  1.00  0.00    -0.352 N 
ATOM     33  C   UNL     1       0.566   6.041  -3.566  1.00  0.00     0.251 C 
ATOM     34  H   UNL     1       0.257   4.541  -4.830  1.00  0.00     0.163 HD
ATOM     35  O   UNL     1      -0.631   6.328  -3.578  1.00  0.00    -0.269 OA
BRANCH  33  36
ATOM     36  C   UNL     1       1.492   6.833  -2.720  1.00  0.00     0.039 A 
ATOM     37  C   UNL     1       1.014   7.360  -1.512  1.00  0.00     0.014 A 
ATOM     38  C   UNL     1       2.805   7.103  -3.094  1.00  0.00     0.014 A 
ATOM     39  C   UNL     1       1.871   8.062  -0.655  1.00  0.00     0.010 A 
ATOM     40  C   UNL     1       3.688   7.691  -2.191  1.00  0.00     0.010 A 
ATOM     41  C   UNL     1       3.235   8.186  -0.960  1.00  0.00    -0.014 A 
BRANCH  41  42
ATOM     42  C   UNL     1       4.202   8.844  -0.036  1.00  0.00     0.031 A 
ATOM     43  C   UNL     1       5.040  10.004  -0.522  1.00  0.00     0.074 A 
ATOM     44  C   UNL     1       4.410   8.339   1.198  1.00  0.00     0.049 A 
ATOM     45  N   UNL     1       6.058  10.589   0.056  1.00  0.00    -0.248 NA
ATOM     46  C   UNL     1       4.725  10.543  -1.856  1.00  0.00     0.031 C 
ATOM     47  C   UNL     1       3.723   7.179   1.773  1.00  0.00     0.029 A 
ATOM     48  N   UNL     1       5.277   8.727   2.191  1.00  0.00    -0.354 N 
ATOM     49  C   UNL     1       6.537  11.517  -0.864  1.00  0.00     0.074 A 
ATOM     50  C   UNL     1       5.723  11.393  -2.052  1.00  0.00     0.031 C 
ATOM     51  C   UNL     1       4.178   6.965   3.018  1.00  0.00     0.029 A 
ATOM     52  C   UNL     1       5.216   7.944   3.321  1.00  0.00     0.049 A 
ATOM     53  H   UNL     1       5.887   9.495   2.101  1.00  0.00     0.167 HD
ATOM     54  C   UNL     1       7.547  12.408  -0.724  1.00  0.00     0.037 A 
ATOM     55  C   UNL     1       5.920   8.003   4.468  1.00  0.00     0.037 A 
ATOM     56  C   UNL     1       8.285  12.603   0.496  1.00  0.00     0.049 A 
ATOM     57  C   UNL     1       6.964   9.074   4.635  1.00  0.00     0.074 A 
ATOM     58  C   UNL     1       9.253  13.554   0.772  1.00  0.00     0.029 A 
ATOM     59  N   UNL     1       8.117  11.855   1.650  1.00  0.00    -0.354 N 
ATOM     60  N   UNL     1       7.362   9.977   3.771  1.00  0.00    -0.248 NA
ATOM     61  C   UNL     1       7.648   9.142   5.934  1.00  0.00     0.031 C 
ATOM     62  C   UNL     1       9.682  13.371   2.091  1.00  0.00     0.029 A 
ATOM     63  C   UNL     1       8.959  12.325   2.642  1.00  0.00     0.049 A 
ATOM     64  H   UNL     1       7.491  11.102   1.749  1.00  0.00     0.167 HD
ATOM     65  C   UNL     1       8.315  10.742   4.435  1.00  0.00     0.074 A 
ATOM     66  C   UNL     1       8.429  10.201   5.773  1.00  0.00     0.031 C 
ATOM     67  C   UNL     1       9.032  11.796   3.978  1.00  0.00     0.037 A 
BRANCH  54  68
ATOM     68  C   UNL     1       7.901  13.269  -1.905  1.00  0.00     0.058 A 
ATOM     69  C   UNL     1       7.074  14.321  -2.324  1.00  0.00     0.135 A 
ATOM     70  C   UNL     1       9.118  13.082  -2.581  1.00  0.00     0.135 A 
ATOM     71  F   UNL     1       5.892  14.532  -1.723  1.00  0.00    -0.206 F 
ATOM     72  C   UNL     1       7.431  15.149  -3.382  1.00  0.00     0.059 A 
ATOM     73  C   UNL     1       9.508  13.915  -3.626  1.00  0.00     0.059 A 
ATOM     74  F   UNL     1       9.947  12.089  -2.221  1.00  0.00    -0.206 F 
ATOM     75  C   UNL     1       8.652  14.941  -4.025  1.00  0.00     0.060 A 
BRANCH  75  76
ATOM     76  S   UNL     1       9.120  16.049  -5.372  1.00  0.00     0.124 S 
ATOM     77  O   UNL     1       8.276  15.558  -6.457  1.00  0.00    -0.237 OA
ATOM     78  O   UNL     1       8.767  17.359  -4.837  1.00  0.00    -0.237 OA
ATOM     79  O   UNL     1      10.550  15.805  -5.530  1.00  0.00    -0.744 OA
ENDBRANCH  75  76
ENDBRANCH  54  68
BRANCH  55  80
ATOM     80  C   UNL     1       5.652   7.039   5.568  1.00  0.00     0.058 A 
ATOM     81  C   UNL     1       5.023   7.457   6.751  1.00  0.00     0.135 A 
ATOM     82  C   UNL     1       6.043   5.695   5.475  1.00  0.00     0.135 A 
ATOM     83  F   UNL     1       4.633   8.734   6.886  1.00  0.00    -0.206 F 
ATOM     84  C   UNL     1       4.826   6.589   7.819  1.00  0.00     0.059 A 
ATOM     85  C   UNL     1       5.835   4.801   6.521  1.00  0.00     0.059 A 
ATOM     86  F   UNL     1       6.627   5.240   4.356  1.00  0.00    -0.206 F 
ATOM     87  C   UNL     1       5.243   5.263   7.697  1.00  0.00     0.060 A 
BRANCH  87  88
ATOM     88  S   UNL     1       4.976   4.134   9.081  1.00  0.00     0.124 S 
ATOM     89  O   UNL     1       6.071   4.501   9.972  1.00  0.00    -0.237 OA
ATOM     90  O   UNL     1       3.637   4.501   9.529  1.00  0.00    -0.237 OA
ATOM     91  O   UNL     1       5.080   2.817   8.459  1.00  0.00    -0.744 OA
ENDBRANCH  87  88
ENDBRANCH  55  80
BRANCH  67  92
ATOM     92  C   UNL     1       9.956  12.475   4.947  1.00  0.00     0.058 A 
ATOM     93  C   UNL     1      11.179  11.902   5.324  1.00  0.00     0.135 A 
ATOM     94  C   UNL     1       9.629  13.737   5.468  1.00  0.00     0.135 A 
ATOM     95  F   UNL     1      11.533  10.695   4.856  1.00  0.00    -0.206 F 
ATOM     96  C   UNL     1      12.040  12.548   6.205  1.00  0.00     0.059 A 
ATOM     97  C   UNL     1      10.484  14.411   6.333  1.00  0.00     0.059 A 
ATOM     98  F   UNL     1       8.474  14.330   5.129  1.00  0.00    -0.206 F 
ATOM     99  C   UNL     1      11.682  13.801   6.706  1.00  0.00     0.060 A 
BRANCH  99 100
ATOM    100  S   UNL     1      12.816  14.646   7.828  1.00  0.00     0.124 S 
ATOM    101  O   UNL     1      12.559  13.949   9.084  1.00  0.00    -0.237 OA
ATOM    102  O   UNL     1      14.116  14.388   7.215  1.00  0.00    -0.237 OA
ATOM    103  O   UNL     1      12.371  16.035   7.776  1.00  0.00    -0.744 OA
ENDBRANCH  99 100
ENDBRANCH  67  92
ENDBRANCH  41  42
ENDBRANCH  33  36
ENDBRANCH  31  32
ENDBRANCH   1  31
TORSDOF 18
