REMARK SMILES N#CC1=C(N)N2C(=O)[C@@H](CC(=O)NCCCNC(=O)c3ccc(-c4c5nc(c(-c6c(F)cc(S(=O)(=O)[O-])cc6F)c6ccc([nH]6)c(-c6c(F)cc(S(=O)(=O)[O-])cc6F)c6nc(c(-c7c(F)cc(S(=O)(=O)[O-])cc7F)c7ccc4[nH]7)C=C6)C=C5)cc3)SC2=C(C#N)[C@H]1c1ccc(Cl)cc1
REMARK SMILES IDX 15 1 14 2 13 3 11 4 12 5 10 7 9 8 3 9 4 10 91 11 6 12 88 13
REMARK SMILES IDX 7 14 87 15 8 16 86 17 2 18 1 19 5 20 92 23 93 24 98 25 94 26
REMARK SMILES IDX 97 27 95 28 96 29 89 30 90 31 16 32 17 33 18 34 19 36 20 37
REMARK SMILES IDX 21 38 85 39 22 40 84 41 23 42 24 43 25 44 78 45 26 46 83 47
REMARK SMILES IDX 77 48 79 49 27 50 82 51 76 52 75 53 28 55 62 56 41 57 61 58
REMARK SMILES IDX 42 59 45 60 60 61 80 62 43 63 44 64 59 66 81 67 46 68 29 69
REMARK SMILES IDX 30 70 39 71 31 72 32 73 38 74 40 75 33 76 34 77 35 78 36 79
REMARK SMILES IDX 37 80 63 81 64 82 73 83 65 84 66 85 72 86 74 87 67 88 68 89
REMARK SMILES IDX 69 90 70 91 71 92 47 93 48 94 57 95 49 96 50 97 56 98 58 99
REMARK SMILES IDX 51 100 52 101 53 102 54 103 55 104
REMARK H PARENT 13 6 5 21 5 22 17 35 79 54 45 65
REMARK Flexibility Score: inf
ROOT
ATOM      1  C   UNL     1       8.184  -5.501   0.309  1.00  0.00     0.042 C 
ENDROOT
BRANCH   1   2
ATOM      2  C   UNL     1       9.095  -4.811  -0.709  1.00  0.00     0.117 C 
BRANCH   2   3
ATOM      3  N   UNL     1       8.390  -4.129  -1.782  1.00  0.00    -0.356 N 
ATOM      4  C   UNL     1       8.212  -2.803  -2.014  1.00  0.00     0.221 C 
ATOM      5  O   UNL     1       7.585  -2.442  -3.010  1.00  0.00    -0.275 OA
ATOM      6  H   UNL     1       7.976  -4.724  -2.448  1.00  0.00     0.163 HD
BRANCH   4   7
ATOM      7  C   UNL     1       8.785  -1.784  -1.062  1.00  0.00     0.125 C 
BRANCH   7   8
ATOM      8  C   UNL     1       8.091  -1.750   0.297  1.00  0.00     0.152 C 
ATOM      9  C   UNL     1       3.739   0.007  -0.090  1.00  0.00     0.083 C 
ATOM     10  C   UNL     1       4.420  -1.123   0.160  1.00  0.00     0.126 C 
ATOM     11  C   UNL     1       4.416   1.340  -0.370  1.00  0.00     0.107 C 
ATOM     12  N   UNL     1       5.805  -1.040   0.245  1.00  0.00    -0.258 N 
ATOM     13  C   UNL     1       5.788   1.359   0.272  1.00  0.00     0.073 C 
ATOM     14  C   UNL     1       6.627  -2.155   0.242  1.00  0.00     0.247 C 
ATOM     15  C   UNL     1       6.411   0.183   0.457  1.00  0.00     0.099 C 
ATOM     16  O   UNL     1       6.237  -3.313   0.137  1.00  0.00    -0.273 OA
ATOM     17  S   UNL     1       8.066  -0.022   0.927  1.00  0.00    -0.093 SA
BRANCH   9  18
ATOM     18  C   UNL     1       2.219   0.007  -0.090  1.00  0.00     0.100 C 
ATOM     19  N   UNL     1       0.958   0.007  -0.090  1.00  0.00    -0.193 NA
ENDBRANCH   9  18
BRANCH  10  20
ATOM     20  N   UNL     1       3.786  -2.324   0.329  1.00  0.00    -0.384 N 
ATOM     21  H   UNL     1       2.805  -2.376   0.267  1.00  0.00     0.158 HD
ATOM     22  H   UNL     1       4.311  -3.136   0.512  1.00  0.00     0.158 HD
ENDBRANCH  10  20
BRANCH  11  23
ATOM     23  C   UNL     1       4.459   1.643  -1.889  1.00  0.00    -0.034 A 
ATOM     24  C   UNL     1       5.663   1.691  -2.625  1.00  0.00     0.006 A 
ATOM     25  C   UNL     1       3.262   1.858  -2.599  1.00  0.00     0.006 A 
ATOM     26  C   UNL     1       5.668   1.941  -4.002  1.00  0.00     0.021 A 
ATOM     27  C   UNL     1       3.266   2.080  -3.982  1.00  0.00     0.021 A 
ATOM     28  C   UNL     1       4.469   2.126  -4.677  1.00  0.00     0.041 A 
ATOM     29  Cl  UNL     1       4.476   2.415  -6.372  1.00  0.00    -0.084 Cl
ENDBRANCH  11  23
BRANCH  13  30
ATOM     30  C   UNL     1       6.396   2.616   0.547  1.00  0.00     0.098 C 
ATOM     31  N   UNL     1       6.870   3.658   0.745  1.00  0.00    -0.193 NA
ENDBRANCH  13  30
ENDBRANCH   7   8
ENDBRANCH   4   7
ENDBRANCH   2   3
ENDBRANCH   1   2
BRANCH   1  32
ATOM     32  C   UNL     1       7.112  -6.389  -0.315  1.00  0.00     0.118 C 
BRANCH  32  33
ATOM     33  N   UNL     1       7.716  -7.596  -0.862  1.00  0.00    -0.352 N 
ATOM     34  C   UNL     1       7.628  -8.881  -0.387  1.00  0.00     0.251 C 
ATOM     35  H   UNL     1       8.256  -7.475  -1.676  1.00  0.00     0.163 HD
ATOM     36  O   UNL     1       8.488  -9.701  -0.697  1.00  0.00    -0.269 OA
BRANCH  34  37
ATOM     37  C   UNL     1       6.502  -9.268   0.491  1.00  0.00     0.039 A 
ATOM     38  C   UNL     1       6.742 -10.118   1.573  1.00  0.00     0.014 A 
ATOM     39  C   UNL     1       5.202  -8.826   0.223  1.00  0.00     0.014 A 
ATOM     40  C   UNL     1       5.686 -10.487   2.411  1.00  0.00     0.010 A 
ATOM     41  C   UNL     1       4.166  -9.135   1.102  1.00  0.00     0.010 A 
ATOM     42  C   UNL     1       4.394  -9.975   2.202  1.00  0.00    -0.014 A 
BRANCH  42  43
ATOM     43  C   UNL     1       3.275 -10.307   3.124  1.00  0.00     0.031 A 
ATOM     44  C   UNL     1       2.070 -11.056   2.619  1.00  0.00     0.074 A 
ATOM     45  C   UNL     1       3.326  -9.897   4.407  1.00  0.00     0.049 A 
ATOM     46  N   UNL     1       0.972 -11.379   3.254  1.00  0.00    -0.248 NA
ATOM     47  C   UNL     1       2.091 -11.480   1.209  1.00  0.00     0.031 C 
ATOM     48  C   UNL     1       4.425  -9.138   5.009  1.00  0.00     0.029 A 
ATOM     49  N   UNL     1       2.431 -10.051   5.437  1.00  0.00    -0.354 N 
ATOM     50  C   UNL     1       0.179 -12.047   2.329  1.00  0.00     0.074 A 
ATOM     51  C   UNL     1       0.889 -12.021   1.069  1.00  0.00     0.031 C 
ATOM     52  C   UNL     1       4.151  -8.916   6.305  1.00  0.00     0.029 A 
ATOM     53  C   UNL     1       2.837  -9.469   6.616  1.00  0.00     0.049 A 
ATOM     54  H   UNL     1       1.579 -10.534   5.341  1.00  0.00     0.167 HD
ATOM     55  C   UNL     1      -1.018 -12.655   2.518  1.00  0.00     0.037 A 
ATOM     56  C   UNL     1       2.214  -9.373   7.808  1.00  0.00     0.037 A 
ATOM     57  C   UNL     1      -1.720 -12.676   3.776  1.00  0.00     0.049 A 
ATOM     58  C   UNL     1       0.853  -9.998   7.972  1.00  0.00     0.074 A 
ATOM     59  C   UNL     1      -2.930 -13.279   4.075  1.00  0.00     0.029 A 
ATOM     60  N   UNL     1      -1.281 -12.066   4.942  1.00  0.00    -0.354 N 
ATOM     61  N   UNL     1       0.142 -10.673   7.098  1.00  0.00    -0.248 NA
ATOM     62  C   UNL     1       0.209  -9.855   9.285  1.00  0.00     0.031 C 
ATOM     63  C   UNL     1      -3.250 -12.984   5.403  1.00  0.00     0.029 A 
ATOM     64  C   UNL     1      -2.207 -12.258   5.955  1.00  0.00     0.049 A 
ATOM     65  H   UNL     1      -0.436 -11.569   5.036  1.00  0.00     0.167 HD
ATOM     66  C   UNL     1      -1.011 -11.067   7.770  1.00  0.00     0.074 A 
ATOM     67  C   UNL     1      -0.895 -10.569   9.124  1.00  0.00     0.031 C 
ATOM     68  C   UNL     1      -2.071 -11.776   7.307  1.00  0.00     0.037 A 
BRANCH  55  69
ATOM     69  C   UNL     1      -1.641 -13.360   1.342  1.00  0.00     0.058 A 
ATOM     70  C   UNL     1      -1.078 -14.530   0.806  1.00  0.00     0.135 A 
ATOM     71  C   UNL     1      -2.844 -12.900   0.781  1.00  0.00     0.135 A 
ATOM     72  F   UNL     1       0.078 -15.010   1.292  1.00  0.00    -0.206 F 
ATOM     73  C   UNL     1      -1.669 -15.202  -0.259  1.00  0.00     0.059 A 
ATOM     74  C   UNL     1      -3.471 -13.576  -0.263  1.00  0.00     0.059 A 
ATOM     75  F   UNL     1      -3.429 -11.787   1.252  1.00  0.00    -0.206 F 
ATOM     76  C   UNL     1      -2.869 -14.720  -0.783  1.00  0.00     0.060 A 
BRANCH  76  77
ATOM     77  S   UNL     1      -3.630 -15.621  -2.150  1.00  0.00     0.124 S 
ATOM     78  O   UNL     1      -2.684 -15.363  -3.231  1.00  0.00    -0.237 OA
ATOM     79  O   UNL     1      -3.654 -16.989  -1.643  1.00  0.00    -0.237 OA
ATOM     80  O   UNL     1      -4.935 -14.985  -2.294  1.00  0.00    -0.744 OA
ENDBRANCH  76  77
ENDBRANCH  55  69
BRANCH  56  81
ATOM     81  C   UNL     1       2.860  -8.658   8.944  1.00  0.00     0.058 A 
ATOM     82  C   UNL     1       3.230  -9.340  10.114  1.00  0.00     0.135 A 
ATOM     83  C   UNL     1       3.088  -7.273   8.900  1.00  0.00     0.135 A 
ATOM     84  F   UNL     1       3.031 -10.664  10.210  1.00  0.00    -0.206 F 
ATOM     85  C   UNL     1       3.761  -8.672  11.212  1.00  0.00     0.059 A 
ATOM     86  C   UNL     1       3.653  -6.588   9.972  1.00  0.00     0.059 A 
ATOM     87  F   UNL     1       2.771  -6.572   7.800  1.00  0.00    -0.206 F 
ATOM     88  C   UNL     1       3.967  -7.294  11.132  1.00  0.00     0.060 A 
BRANCH  88  89
ATOM     89  S   UNL     1       4.663  -6.438  12.560  1.00  0.00     0.124 S 
ATOM     90  O   UNL     1       3.558  -6.502  13.509  1.00  0.00    -0.237 OA
ATOM     91  O   UNL     1       5.825  -7.264  12.874  1.00  0.00    -0.237 OA
ATOM     92  O   UNL     1       4.971  -5.109  12.038  1.00  0.00    -0.744 OA
ENDBRANCH  88  89
ENDBRANCH  56  81
BRANCH  68  93
ATOM     93  C   UNL     1      -3.168 -12.109   8.284  1.00  0.00     0.058 A 
ATOM     94  C   UNL     1      -4.032 -11.128   8.796  1.00  0.00     0.135 A 
ATOM     95  C   UNL     1      -3.392 -13.442   8.668  1.00  0.00     0.135 A 
ATOM     96  F   UNL     1      -3.861  -9.838   8.470  1.00  0.00    -0.206 F 
ATOM     97  C   UNL     1      -5.061 -11.453   9.675  1.00  0.00     0.059 A 
ATOM     98  C   UNL     1      -4.437 -13.794   9.516  1.00  0.00     0.059 A 
ATOM     99  F   UNL     1      -2.602 -14.422   8.202  1.00  0.00    -0.206 F 
ATOM    100  C   UNL     1      -5.260 -12.791  10.023  1.00  0.00     0.060 A 
BRANCH 100 101
ATOM    101  S   UNL     1      -6.627 -13.200  11.128  1.00  0.00     0.124 S 
ATOM    102  O   UNL     1      -6.161 -12.644  12.394  1.00  0.00    -0.237 OA
ATOM    103  O   UNL     1      -7.748 -12.505  10.504  1.00  0.00    -0.237 OA
ATOM    104  O   UNL     1      -6.689 -14.658  11.069  1.00  0.00    -0.744 OA
ENDBRANCH 100 101
ENDBRANCH  68  93
ENDBRANCH  42  43
ENDBRANCH  34  37
ENDBRANCH  32  33
ENDBRANCH   1  32
TORSDOF 18
