REMARK SMILES CC(C)[NH2+][C@]1(C(=O)NCCCNC(=O)c2ccc(-c3c4nc(c(-c5c(F)cc(S(=O)(=O)[O-])cc5F)c5ccc([nH]5)c(-c5c(F)cc(S(=O)(=O)[O-])cc5F)c5nc(c(-c6c(F)cc(S(=O)(=O)[O-])cc6F)c6ccc3[nH]6)C=C5)C=C4)cc2)CCC[C@H]([N@H+](C)C2CCCCC2)C1
REMARK SMILES IDX 10 1 9 2 8 3 6 4 7 5 5 7 81 8 93 9 82 10 84 11 83 12 4 13
REMARK SMILES IDX 2 16 1 17 3 18 85 19 86 20 87 22 88 23 92 24 89 25 91 26
REMARK SMILES IDX 90 27 11 28 12 29 13 30 14 32 15 33 16 34 80 35 17 36 79 37
REMARK SMILES IDX 18 38 19 39 20 40 73 41 21 42 78 43 72 44 74 45 22 46 77 47
REMARK SMILES IDX 71 48 70 49 23 51 57 52 36 53 56 54 37 55 40 56 55 57 75 58
REMARK SMILES IDX 38 59 39 60 54 62 76 63 41 64 24 65 25 66 34 67 26 68 27 69
REMARK SMILES IDX 33 70 35 71 28 72 29 73 30 74 31 75 32 76 58 77 59 78 68 79
REMARK SMILES IDX 60 80 61 81 67 82 69 83 62 84 63 85 64 86 65 87 66 88 42 89
REMARK SMILES IDX 43 90 52 91 44 92 45 93 51 94 53 95 46 96 47 97 48 98 49 99
REMARK SMILES IDX 50 100
REMARK H PARENT 8 6 4 14 4 15 85 21 12 31 74 50 40 61
REMARK Flexibility Score: inf
ROOT
ATOM      1  C   UNL     1      -1.310   2.530   2.636  1.00  0.00     0.042 C 
ENDROOT
BRANCH   1   2
ATOM      2  C   UNL     1      -0.750   2.663   1.227  1.00  0.00     0.118 C 
BRANCH   2   3
ATOM      3  N   UNL     1      -0.879   1.414   0.493  1.00  0.00    -0.351 N 
ATOM      4  C   UNL     1      -1.383   1.126  -0.736  1.00  0.00     0.281 C 
ATOM      5  O   UNL     1      -1.409  -0.076  -1.037  1.00  0.00    -0.268 OA
ATOM      6  H   UNL     1      -0.537   0.629   0.978  1.00  0.00     0.163 HD
BRANCH   4   7
ATOM      7  C   UNL     1      -1.922   2.230  -1.734  1.00  0.00     0.181 C 
ATOM      8  C   UNL     1      -3.195   2.837  -1.120  1.00  0.00     0.079 C 
ATOM      9  C   UNL     1      -0.772   3.229  -1.995  1.00  0.00     0.144 C 
ATOM     10  C   UNL     1      -3.575   4.214  -1.644  1.00  0.00     0.013 C 
ATOM     11  C   UNL     1      -1.052   4.747  -2.081  1.00  0.00     0.190 C 
ATOM     12  C   UNL     1      -2.429   5.211  -1.553  1.00  0.00     0.065 C 
BRANCH   7  13
ATOM     13  N   UNL     1      -2.143   1.480  -3.008  1.00  0.00    -0.331 N 
ATOM     14  H   UNL     1      -1.219   1.313  -3.407  1.00  0.00     0.347 HD
ATOM     15  H   UNL     1      -2.695   0.680  -2.698  1.00  0.00     0.347 HD
BRANCH  13  16
ATOM     16  C   UNL     1      -2.956   2.024  -4.075  1.00  0.00     0.176 C 
ATOM     17  C   UNL     1      -2.290   1.662  -5.407  1.00  0.00     0.075 C 
ATOM     18  C   UNL     1      -4.383   1.482  -4.063  1.00  0.00     0.075 C 
ENDBRANCH  13  16
ENDBRANCH   7  13
BRANCH  11  19
ATOM     19  N   UNL     1      -0.603   5.406  -3.341  1.00  0.00    -0.332 N 
ATOM     20  C   UNL     1      -1.504   5.250  -4.470  1.00  0.00     0.333 C 
ATOM     21  H   UNL     1      -0.667   6.406  -3.149  1.00  0.00     0.348 HD
BRANCH  19  22
ATOM     22  C   UNL     1       0.838   5.176  -3.644  1.00  0.00     0.184 C 
ATOM     23  C   UNL     1       1.208   4.931  -5.127  1.00  0.00     0.065 C 
ATOM     24  C   UNL     1       1.657   6.355  -3.085  1.00  0.00     0.065 C 
ATOM     25  C   UNL     1       2.709   4.720  -5.313  1.00  0.00     0.006 C 
ATOM     26  C   UNL     1       3.159   6.140  -3.287  1.00  0.00     0.006 C 
ATOM     27  C   UNL     1       3.504   5.891  -4.751  1.00  0.00     0.000 C 
ENDBRANCH  19  22
ENDBRANCH  11  19
ENDBRANCH   4   7
ENDBRANCH   2   3
ENDBRANCH   1   2
BRANCH   1  28
ATOM     28  C   UNL     1      -0.495   1.594   3.519  1.00  0.00     0.118 C 
BRANCH  28  29
ATOM     29  N   UNL     1       0.834   2.116   3.818  1.00  0.00    -0.352 N 
ATOM     30  C   UNL     1       1.372   2.519   5.017  1.00  0.00     0.251 C 
ATOM     31  H   UNL     1       1.437   2.191   3.044  1.00  0.00     0.163 HD
ATOM     32  O   UNL     1       2.449   3.110   5.035  1.00  0.00    -0.269 OA
BRANCH  30  33
ATOM     33  C   UNL     1       0.638   2.266   6.275  1.00  0.00     0.039 A 
ATOM     34  C   UNL     1       0.553   3.278   7.234  1.00  0.00     0.014 A 
ATOM     35  C   UNL     1       0.012   1.038   6.496  1.00  0.00     0.014 A 
ATOM     36  C   UNL     1      -0.234   3.085   8.372  1.00  0.00     0.010 A 
ATOM     37  C   UNL     1      -0.857   0.891   7.569  1.00  0.00     0.010 A 
ATOM     38  C   UNL     1      -0.986   1.909   8.525  1.00  0.00    -0.014 A 
BRANCH  38  39
ATOM     39  C   UNL     1      -1.898   1.705   9.681  1.00  0.00     0.031 A 
ATOM     40  C   UNL     1      -1.682   0.532  10.603  1.00  0.00     0.074 A 
ATOM     41  C   UNL     1      -2.959   2.520   9.856  1.00  0.00     0.049 A 
ATOM     42  N   UNL     1      -2.432   0.104  11.586  1.00  0.00    -0.248 NA
ATOM     43  C   UNL     1      -0.483  -0.291  10.366  1.00  0.00     0.031 C 
ATOM     44  C   UNL     1      -3.310   3.656   8.999  1.00  0.00     0.029 A 
ATOM     45  N   UNL     1      -3.950   2.509  10.807  1.00  0.00    -0.354 N 
ATOM     46  C   UNL     1      -1.806  -1.040  12.068  1.00  0.00     0.074 A 
ATOM     47  C   UNL     1      -0.654  -1.280  11.229  1.00  0.00     0.031 C 
ATOM     48  C   UNL     1      -4.420   4.243   9.475  1.00  0.00     0.029 A 
ATOM     49  C   UNL     1      -4.887   3.503  10.642  1.00  0.00     0.049 A 
ATOM     50  H   UNL     1      -3.986   1.852  11.538  1.00  0.00     0.167 HD
ATOM     51  C   UNL     1      -2.140  -1.803  13.135  1.00  0.00     0.037 A 
ATOM     52  C   UNL     1      -6.004   3.779  11.345  1.00  0.00     0.037 A 
ATOM     53  C   UNL     1      -3.264  -1.534  13.993  1.00  0.00     0.049 A 
ATOM     54  C   UNL     1      -6.349   2.918  12.532  1.00  0.00     0.074 A 
ATOM     55  C   UNL     1      -3.661  -2.219  15.128  1.00  0.00     0.029 A 
ATOM     56  N   UNL     1      -4.160  -0.491  13.819  1.00  0.00    -0.354 N 
ATOM     57  N   UNL     1      -5.716   1.869  13.002  1.00  0.00    -0.248 NA
ATOM     58  C   UNL     1      -7.555   3.280  13.290  1.00  0.00     0.031 C 
ATOM     59  C   UNL     1      -4.819  -1.611  15.620  1.00  0.00     0.029 A 
ATOM     60  C   UNL     1      -5.115  -0.518  14.821  1.00  0.00     0.049 A 
ATOM     61  H   UNL     1      -4.124   0.170  13.091  1.00  0.00     0.167 HD
ATOM     62  C   UNL     1      -6.427   1.470  14.129  1.00  0.00     0.074 A 
ATOM     63  C   UNL     1      -7.530   2.396  14.277  1.00  0.00     0.031 C 
ATOM     64  C   UNL     1      -6.190   0.430  14.966  1.00  0.00     0.037 A 
BRANCH  51  65
ATOM     65  C   UNL     1      -1.264  -2.982  13.457  1.00  0.00     0.058 A 
ATOM     66  C   UNL     1       0.035  -2.811  13.964  1.00  0.00     0.135 A 
ATOM     67  C   UNL     1      -1.744  -4.293  13.316  1.00  0.00     0.135 A 
ATOM     68  F   UNL     1       0.551  -1.579  14.100  1.00  0.00    -0.206 F 
ATOM     69  C   UNL     1       0.832  -3.898  14.303  1.00  0.00     0.059 A 
ATOM     70  C   UNL     1      -0.974  -5.396  13.676  1.00  0.00     0.059 A 
ATOM     71  F   UNL     1      -2.977  -4.514  12.832  1.00  0.00    -0.206 F 
ATOM     72  C   UNL     1       0.316  -5.187  14.161  1.00  0.00     0.060 A 
BRANCH  72  73
ATOM     73  S   UNL     1       1.354  -6.584  14.643  1.00  0.00     0.124 S 
ATOM     74  O   UNL     1       2.349  -6.589  13.574  1.00  0.00    -0.237 OA
ATOM     75  O   UNL     1       1.838  -6.173  15.957  1.00  0.00    -0.237 OA
ATOM     76  O   UNL     1       0.428  -7.712  14.643  1.00  0.00    -0.744 OA
ENDBRANCH  72  73
ENDBRANCH  51  65
BRANCH  52  77
ATOM     77  C   UNL     1      -6.878   4.920  10.957  1.00  0.00     0.058 A 
ATOM     78  C   UNL     1      -6.996   6.052  11.778  1.00  0.00     0.135 A 
ATOM     79  C   UNL     1      -7.633   4.892   9.774  1.00  0.00     0.135 A 
ATOM     80  F   UNL     1      -6.298   6.127  12.922  1.00  0.00    -0.206 F 
ATOM     81  C   UNL     1      -7.859   7.097  11.462  1.00  0.00     0.059 A 
ATOM     82  C   UNL     1      -8.480   5.938   9.421  1.00  0.00     0.059 A 
ATOM     83  F   UNL     1      -7.540   3.844   8.942  1.00  0.00    -0.206 F 
ATOM     84  C   UNL     1      -8.602   7.028  10.283  1.00  0.00     0.060 A 
BRANCH  84  85
ATOM     85  S   UNL     1      -9.715   8.390   9.876  1.00  0.00     0.124 S 
ATOM     86  O   UNL     1     -10.806   8.167  10.817  1.00  0.00    -0.237 OA
ATOM     87  O   UNL     1      -8.878   9.558  10.133  1.00  0.00    -0.237 OA
ATOM     88  O   UNL     1     -10.033   8.154   8.471  1.00  0.00    -0.744 OA
ENDBRANCH  84  85
ENDBRANCH  52  77
BRANCH  64  89
ATOM     89  C   UNL     1      -7.105   0.266  16.147  1.00  0.00     0.058 A 
ATOM     90  C   UNL     1      -8.422  -0.195  16.005  1.00  0.00     0.135 A 
ATOM     91  C   UNL     1      -6.633   0.516  17.446  1.00  0.00     0.135 A 
ATOM     92  F   UNL     1      -8.923  -0.443  14.784  1.00  0.00    -0.206 F 
ATOM     93  C   UNL     1      -9.248  -0.381  17.108  1.00  0.00     0.059 A 
ATOM     94  C   UNL     1      -7.431   0.308  18.566  1.00  0.00     0.059 A 
ATOM     95  F   UNL     1      -5.375   0.947  17.638  1.00  0.00    -0.206 F 
ATOM     96  C   UNL     1      -8.742  -0.130  18.385  1.00  0.00     0.060 A 
BRANCH  96  97
ATOM     97  S   UNL     1      -9.812  -0.414  19.810  1.00  0.00     0.124 S 
ATOM     98  O   UNL     1     -10.728   0.718  19.721  1.00  0.00    -0.237 OA
ATOM     99  O   UNL     1     -10.389  -1.721  19.512  1.00  0.00    -0.237 OA
ATOM    100  O   UNL     1      -8.888  -0.387  20.940  1.00  0.00    -0.744 OA
ENDBRANCH  96  97
ENDBRANCH  64  89
ENDBRANCH  38  39
ENDBRANCH  30  33
ENDBRANCH  28  29
ENDBRANCH   1  28
TORSDOF 17
