REMARK SMILES C[NH2+][C@@]1(C(=O)NCCCNC(=O)c2ccc(-c3c4nc(c(-c5c(F)cc(S(=O)(=O)[O-])cc5F)c5ccc([nH]5)c(-c5c(F)cc(S(=O)(=O)[O-])cc5F)c5nc(c(-c6c(F)cc(S(=O)(=O)[O-])cc6F)c6ccc3[nH]6)C=C5)C=C4)cc2)CC[C@H](Sc2nccc(=O)[nH]2)C1
REMARK SMILES IDX 8 1 7 2 6 3 4 4 5 5 3 7 79 8 90 9 80 10 81 11 2 12 1 13
REMARK SMILES IDX 82 16 83 17 84 18 89 19 85 20 87 21 86 23 88 24 9 25 10 26
REMARK SMILES IDX 11 27 12 29 13 30 14 31 78 32 15 33 77 34 16 35 17 36 18 37
REMARK SMILES IDX 71 38 19 39 76 40 70 41 72 42 20 43 75 44 69 45 68 46 21 48
REMARK SMILES IDX 55 49 34 50 54 51 35 52 38 53 53 54 73 55 36 56 37 57 52 59
REMARK SMILES IDX 74 60 39 61 22 62 23 63 32 64 24 65 25 66 31 67 33 68 26 69
REMARK SMILES IDX 27 70 28 71 29 72 30 73 56 74 57 75 66 76 58 77 59 78 65 79
REMARK SMILES IDX 67 80 60 81 61 82 62 83 63 84 64 85 40 86 41 87 50 88 42 89
REMARK SMILES IDX 43 90 49 91 51 92 44 93 45 94 46 95 47 96 48 97
REMARK H PARENT 6 6 2 14 2 15 89 22 10 28 72 47 38 58
REMARK Flexibility Score: inf
ROOT
ATOM      1  C   UNL     1      -4.599  -2.505   1.452  1.00  0.00     0.042 C 
ENDROOT
BRANCH   1   2
ATOM      2  C   UNL     1      -3.872  -1.216   1.114  1.00  0.00     0.118 C 
BRANCH   2   3
ATOM      3  N   UNL     1      -2.524  -1.210   1.617  1.00  0.00    -0.351 N 
ATOM      4  C   UNL     1      -1.328  -1.365   0.993  1.00  0.00     0.281 C 
ATOM      5  O   UNL     1      -0.398  -1.614   1.773  1.00  0.00    -0.268 OA
ATOM      6  H   UNL     1      -2.457  -1.068   2.589  1.00  0.00     0.163 HD
BRANCH   4   7
ATOM      7  C   UNL     1      -1.115  -1.266  -0.585  1.00  0.00     0.176 C 
ATOM      8  C   UNL     1      -1.780  -0.074  -1.297  1.00  0.00     0.080 C 
ATOM      9  C   UNL     1      -1.686  -2.521  -1.281  1.00  0.00     0.094 C 
ATOM     10  C   UNL     1      -2.982  -0.585  -2.096  1.00  0.00     0.022 C 
ATOM     11  C   UNL     1      -2.785  -2.087  -2.279  1.00  0.00     0.062 C 
BRANCH   7  12
ATOM     12  N   UNL     1       0.360  -1.235  -0.838  1.00  0.00    -0.336 N 
ATOM     13  C   UNL     1       1.055  -0.064  -0.309  1.00  0.00     0.331 C 
ATOM     14  H   UNL     1       0.772  -2.066  -0.412  1.00  0.00     0.346 HD
ATOM     15  H   UNL     1       0.474  -1.199  -1.851  1.00  0.00     0.346 HD
ENDBRANCH   7  12
BRANCH  11  16
ATOM     16  S   UNL     1      -4.159  -3.280  -2.149  1.00  0.00    -0.084 SA
BRANCH  16  17
ATOM     17  C   UNL     1      -5.660  -2.427  -2.233  1.00  0.00     0.168 A 
ATOM     18  N   UNL     1      -5.837  -1.296  -2.828  1.00  0.00    -0.233 NA
ATOM     19  N   UNL     1      -6.649  -3.118  -1.598  1.00  0.00    -0.301 N 
ATOM     20  C   UNL     1      -7.117  -0.794  -2.794  1.00  0.00     0.120 A 
ATOM     21  C   UNL     1      -7.928  -2.657  -1.515  1.00  0.00     0.251 A 
ATOM     22  H   UNL     1      -6.431  -3.984  -1.184  1.00  0.00     0.172 HD
ATOM     23  C   UNL     1      -8.161  -1.373  -2.191  1.00  0.00     0.091 A 
ATOM     24  O   UNL     1      -8.821  -3.243  -0.924  1.00  0.00    -0.269 OA
ENDBRANCH  16  17
ENDBRANCH  11  16
ENDBRANCH   4   7
ENDBRANCH   2   3
ENDBRANCH   1   2
BRANCH   1  25
ATOM     25  C   UNL     1      -5.223  -2.486   2.834  1.00  0.00     0.118 C 
BRANCH  25  26
ATOM     26  N   UNL     1      -6.301  -1.506   2.929  1.00  0.00    -0.352 N 
ATOM     27  C   UNL     1      -7.668  -1.621   2.845  1.00  0.00     0.251 C 
ATOM     28  H   UNL     1      -5.988  -0.585   3.083  1.00  0.00     0.163 HD
ATOM     29  O   UNL     1      -8.326  -0.592   2.703  1.00  0.00    -0.269 OA
BRANCH  27  30
ATOM     30  C   UNL     1      -8.351  -2.935   2.903  1.00  0.00     0.039 A 
ATOM     31  C   UNL     1      -9.574  -3.095   2.243  1.00  0.00     0.014 A 
ATOM     32  C   UNL     1      -7.834  -4.001   3.637  1.00  0.00     0.014 A 
ATOM     33  C   UNL     1     -10.226  -4.333   2.259  1.00  0.00     0.010 A 
ATOM     34  C   UNL     1      -8.408  -5.263   3.542  1.00  0.00     0.010 A 
ATOM     35  C   UNL     1      -9.625  -5.440   2.874  1.00  0.00    -0.014 A 
BRANCH  35  36
ATOM     36  C   UNL     1     -10.262  -6.782   2.881  1.00  0.00     0.031 A 
ATOM     37  C   UNL     1     -10.601  -7.439   4.195  1.00  0.00     0.074 A 
ATOM     38  C   UNL     1     -10.460  -7.438   1.721  1.00  0.00     0.049 A 
ATOM     39  N   UNL     1     -11.061  -8.641   4.426  1.00  0.00    -0.248 NA
ATOM     40  C   UNL     1     -10.356  -6.651   5.416  1.00  0.00     0.031 C 
ATOM     41  C   UNL     1     -10.133  -6.925   0.388  1.00  0.00     0.029 A 
ATOM     42  N   UNL     1     -10.972  -8.688   1.476  1.00  0.00    -0.354 N 
ATOM     43  C   UNL     1     -11.140  -8.758   5.809  1.00  0.00     0.074 A 
ATOM     44  C   UNL     1     -10.614  -7.534   6.368  1.00  0.00     0.031 C 
ATOM     45  C   UNL     1     -10.472  -7.841  -0.532  1.00  0.00     0.029 A 
ATOM     46  C   UNL     1     -11.002  -9.022   0.143  1.00  0.00     0.049 A 
ATOM     47  H   UNL     1     -11.290  -9.288   2.189  1.00  0.00     0.167 HD
ATOM     48  C   UNL     1     -11.636  -9.778   6.548  1.00  0.00     0.037 A 
ATOM     49  C   UNL     1     -11.403 -10.156  -0.465  1.00  0.00     0.037 A 
ATOM     50  C   UNL     1     -12.186 -10.980   5.980  1.00  0.00     0.049 A 
ATOM     51  C   UNL     1     -11.941 -11.283   0.377  1.00  0.00     0.074 A 
ATOM     52  C   UNL     1     -12.771 -12.050   6.633  1.00  0.00     0.029 A 
ATOM     53  N   UNL     1     -12.217 -11.273   4.624  1.00  0.00    -0.354 N 
ATOM     54  N   UNL     1     -12.073 -11.349   1.681  1.00  0.00    -0.248 NA
ATOM     55  C   UNL     1     -12.393 -12.486  -0.335  1.00  0.00     0.031 C 
ATOM     56  C   UNL     1     -13.106 -13.014   5.677  1.00  0.00     0.029 A 
ATOM     57  C   UNL     1     -12.786 -12.519   4.422  1.00  0.00     0.049 A 
ATOM     58  H   UNL     1     -11.884 -10.681   3.911  1.00  0.00     0.167 HD
ATOM     59  C   UNL     1     -12.652 -12.587   1.943  1.00  0.00     0.074 A 
ATOM     60  C   UNL     1     -12.855 -13.230   0.661  1.00  0.00     0.031 C 
ATOM     61  C   UNL     1     -12.987 -13.140   3.135  1.00  0.00     0.037 A 
BRANCH  48  62
ATOM     62  C   UNL     1     -11.608  -9.634   8.047  1.00  0.00     0.058 A 
ATOM     63  C   UNL     1     -12.407  -8.692   8.715  1.00  0.00     0.135 A 
ATOM     64  C   UNL     1     -10.787 -10.464   8.829  1.00  0.00     0.135 A 
ATOM     65  F   UNL     1     -13.198  -7.860   8.019  1.00  0.00    -0.206 F 
ATOM     66  C   UNL     1     -12.366  -8.551  10.099  1.00  0.00     0.059 A 
ATOM     67  C   UNL     1     -10.756 -10.364  10.217  1.00  0.00     0.059 A 
ATOM     68  F   UNL     1     -10.001 -11.382   8.245  1.00  0.00    -0.206 F 
ATOM     69  C   UNL     1     -11.537  -9.393  10.841  1.00  0.00     0.060 A 
BRANCH  69  70
ATOM     70  S   UNL     1     -11.498  -9.197  12.635  1.00  0.00     0.124 S 
ATOM     71  O   UNL     1     -10.782  -7.933  12.775  1.00  0.00    -0.237 OA
ATOM     72  O   UNL     1     -12.917  -9.162  12.975  1.00  0.00    -0.237 OA
ATOM     73  O   UNL     1     -10.775 -10.380  13.092  1.00  0.00    -0.744 OA
ENDBRANCH  69  70
ENDBRANCH  48  62
BRANCH  49  74
ATOM     74  C   UNL     1     -11.336 -10.270  -1.947  1.00  0.00     0.058 A 
ATOM     75  C   UNL     1     -12.505 -10.303  -2.723  1.00  0.00     0.135 A 
ATOM     76  C   UNL     1     -10.106 -10.336  -2.621  1.00  0.00     0.135 A 
ATOM     77  F   UNL     1     -13.706 -10.251  -2.127  1.00  0.00    -0.206 F 
ATOM     78  C   UNL     1     -12.459 -10.416  -4.109  1.00  0.00     0.059 A 
ATOM     79  C   UNL     1     -10.034 -10.420  -4.008  1.00  0.00     0.059 A 
ATOM     80  F   UNL     1      -8.956 -10.292  -1.929  1.00  0.00    -0.206 F 
ATOM     81  C   UNL     1     -11.217 -10.470  -4.743  1.00  0.00     0.060 A 
BRANCH  81  82
ATOM     82  S   UNL     1     -11.171 -10.570  -6.546  1.00  0.00     0.124 S 
ATOM     83  O   UNL     1     -11.642 -11.930  -6.778  1.00  0.00    -0.237 OA
ATOM     84  O   UNL     1     -12.086  -9.502  -6.935  1.00  0.00    -0.237 OA
ATOM     85  O   UNL     1      -9.766 -10.327  -6.860  1.00  0.00    -0.744 OA
ENDBRANCH  81  82
ENDBRANCH  49  74
BRANCH  61  86
ATOM     86  C   UNL     1     -13.643 -14.494   3.114  1.00  0.00     0.058 A 
ATOM     87  C   UNL     1     -12.929 -15.657   2.786  1.00  0.00     0.135 A 
ATOM     88  C   UNL     1     -14.990 -14.635   3.487  1.00  0.00     0.135 A 
ATOM     89  F   UNL     1     -11.641 -15.579   2.416  1.00  0.00    -0.206 F 
ATOM     90  C   UNL     1     -13.534 -16.910   2.805  1.00  0.00     0.059 A 
ATOM     91  C   UNL     1     -15.606 -15.881   3.545  1.00  0.00     0.059 A 
ATOM     92  F   UNL     1     -15.716 -13.556   3.822  1.00  0.00    -0.206 F 
ATOM     93  C   UNL     1     -14.873 -17.012   3.191  1.00  0.00     0.060 A 
BRANCH  93  94
ATOM     94  S   UNL     1     -15.633 -18.647   3.248  1.00  0.00     0.124 S 
ATOM     95  O   UNL     1     -15.767 -18.960   1.829  1.00  0.00    -0.237 OA
ATOM     96  O   UNL     1     -14.639 -19.427   3.979  1.00  0.00    -0.237 OA
ATOM     97  O   UNL     1     -16.887 -18.416   3.960  1.00  0.00    -0.744 OA
ENDBRANCH  93  94
ENDBRANCH  61  86
ENDBRANCH  35  36
ENDBRANCH  27  30
ENDBRANCH  25  26
ENDBRANCH   1  25
TORSDOF 16
