REMARK SMILES COc1ccc([C@H](CC(=O)NCCCNC(=O)c2ccc(-c3c4nc(c(-c5c(F)cc(S(=O)(=O)[O-])cc5F)c5ccc([nH]5)c(-c5c(F)cc(S(=O)(=O)[O-])cc5F)c5nc(c(-c6c(F)cc(S(=O)(=O)[O-])cc6F)c6ccc3[nH]6)C=C5)C=C4)cc2)NC(C)=O)cc1
REMARK SMILES IDX 13 1 12 2 11 3 9 4 10 5 8 7 7 8 6 9 3 10 4 11 89 12 5 13
REMARK SMILES IDX 88 14 2 15 1 16 84 17 85 18 86 20 87 21 14 22 15 23 16 24
REMARK SMILES IDX 17 26 18 27 19 28 83 29 20 30 82 31 21 32 22 33 23 34 76 35
REMARK SMILES IDX 24 36 81 37 75 38 77 39 25 40 80 41 74 42 73 43 26 45 60 46
REMARK SMILES IDX 39 47 59 48 40 49 43 50 58 51 78 52 41 53 42 54 57 56 79 57
REMARK SMILES IDX 44 58 27 59 28 60 37 61 29 62 30 63 36 64 38 65 31 66 32 67
REMARK SMILES IDX 33 68 34 69 35 70 61 71 62 72 71 73 63 74 64 75 70 76 72 77
REMARK SMILES IDX 65 78 66 79 67 80 68 81 69 82 45 83 46 84 55 85 47 86 48 87
REMARK SMILES IDX 54 88 56 89 49 90 50 91 51 92 52 93 53 94
REMARK H PARENT 11 6 84 19 15 25 77 44 43 55
REMARK Flexibility Score: inf
ROOT
ATOM      1  C   UNL     1       5.043   0.480   5.761  1.00  0.00     0.042 C 
ENDROOT
BRANCH   1   2
ATOM      2  C   UNL     1       4.384   0.856   4.438  1.00  0.00     0.117 C 
BRANCH   2   3
ATOM      3  N   UNL     1       3.169   0.098   4.202  1.00  0.00    -0.356 N 
ATOM      4  C   UNL     1       1.869   0.468   4.329  1.00  0.00     0.222 C 
ATOM      5  O   UNL     1       0.997  -0.389   4.173  1.00  0.00    -0.275 OA
ATOM      6  H   UNL     1       3.310  -0.829   3.903  1.00  0.00     0.163 HD
BRANCH   4   7
ATOM      7  C   UNL     1       1.494   1.907   4.588  1.00  0.00     0.129 C 
BRANCH   7   8
ATOM      8  C   UNL     1       1.637   2.343   6.051  1.00  0.00     0.121 C 
BRANCH   8   9
ATOM      9  C   UNL     1       1.224   3.793   6.305  1.00  0.00    -0.025 A 
ATOM     10  C   UNL     1       0.502   6.471   6.881  1.00  0.00     0.118 A 
ATOM     11  C   UNL     1       0.045   5.844   5.724  1.00  0.00     0.047 A 
ATOM     12  C   UNL     1       1.310   5.758   7.764  1.00  0.00     0.047 A 
ATOM     13  C   UNL     1       0.401   4.523   5.436  1.00  0.00     0.010 A 
ATOM     14  C   UNL     1       1.665   4.433   7.478  1.00  0.00     0.010 A 
BRANCH  10  15
ATOM     15  O   UNL     1       0.064   7.756   7.046  1.00  0.00    -0.497 OA
ATOM     16  C   UNL     1       0.816   8.566   7.941  1.00  0.00     0.278 C 
ENDBRANCH  10  15
ENDBRANCH   8   9
BRANCH   8  17
ATOM     17  N   UNL     1       0.880   1.466   6.936  1.00  0.00    -0.349 N 
ATOM     18  C   UNL     1       1.453   0.840   8.018  1.00  0.00     0.217 C 
ATOM     19  H   UNL     1      -0.075   1.316   6.752  1.00  0.00     0.164 HD
ATOM     20  C   UNL     1       0.537  -0.103   8.747  1.00  0.00     0.114 C 
ATOM     21  O   UNL     1       2.624   0.993   8.348  1.00  0.00    -0.275 OA
ENDBRANCH   8  17
ENDBRANCH   7   8
ENDBRANCH   4   7
ENDBRANCH   2   3
ENDBRANCH   1   2
BRANCH   1  22
ATOM     22  C   UNL     1       5.434  -0.990   5.881  1.00  0.00     0.118 C 
BRANCH  22  23
ATOM     23  N   UNL     1       6.506  -1.356   4.969  1.00  0.00    -0.352 N 
ATOM     24  C   UNL     1       7.710  -1.961   5.241  1.00  0.00     0.251 C 
ATOM     25  H   UNL     1       6.347  -1.140   4.022  1.00  0.00     0.163 HD
ATOM     26  O   UNL     1       8.568  -2.018   4.365  1.00  0.00    -0.269 OA
BRANCH  24  27
ATOM     27  C   UNL     1       7.979  -2.525   6.583  1.00  0.00     0.039 A 
ATOM     28  C   UNL     1       9.226  -2.298   7.172  1.00  0.00     0.014 A 
ATOM     29  C   UNL     1       7.023  -3.299   7.248  1.00  0.00     0.014 A 
ATOM     30  C   UNL     1       9.497  -2.804   8.446  1.00  0.00     0.010 A 
ATOM     31  C   UNL     1       7.271  -3.749   8.543  1.00  0.00     0.010 A 
ATOM     32  C   UNL     1       8.513  -3.513   9.153  1.00  0.00    -0.014 A 
BRANCH  32  33
ATOM     33  C   UNL     1       8.768  -4.029  10.523  1.00  0.00     0.031 A 
ATOM     34  C   UNL     1       8.791  -5.513  10.778  1.00  0.00     0.074 A 
ATOM     35  C   UNL     1       8.917  -3.167  11.548  1.00  0.00     0.049 A 
ATOM     36  N   UNL     1       8.914  -6.156  11.910  1.00  0.00    -0.248 NA
ATOM     37  C   UNL     1       8.631  -6.389   9.606  1.00  0.00     0.031 C 
ATOM     38  C   UNL     1       8.871  -1.707  11.438  1.00  0.00     0.029 A 
ATOM     39  N   UNL     1       9.121  -3.392  12.886  1.00  0.00    -0.354 N 
ATOM     40  C   UNL     1       8.826  -7.506  11.592  1.00  0.00     0.074 A 
ATOM     41  C   UNL     1       8.597  -7.589  10.166  1.00  0.00     0.031 C 
ATOM     42  C   UNL     1       9.057  -1.168  12.654  1.00  0.00     0.029 A 
ATOM     43  C   UNL     1       9.199  -2.241  13.634  1.00  0.00     0.049 A 
ATOM     44  H   UNL     1       9.204  -4.293  13.274  1.00  0.00     0.167 HD
ATOM     45  C   UNL     1       8.944  -8.579  12.411  1.00  0.00     0.037 A 
ATOM     46  C   UNL     1       9.357  -2.068  14.961  1.00  0.00     0.037 A 
ATOM     47  C   UNL     1       9.203  -8.493  13.824  1.00  0.00     0.049 A 
ATOM     48  C   UNL     1       9.498  -3.275  15.848  1.00  0.00     0.074 A 
ATOM     49  C   UNL     1       9.396  -9.522  14.729  1.00  0.00     0.029 A 
ATOM     50  N   UNL     1       9.307  -7.308  14.539  1.00  0.00    -0.354 N 
ATOM     51  N   UNL     1       9.466  -4.545  15.523  1.00  0.00    -0.248 NA
ATOM     52  C   UNL     1       9.703  -3.027  17.282  1.00  0.00     0.031 C 
ATOM     53  C   UNL     1       9.584  -8.961  15.997  1.00  0.00     0.029 A 
ATOM     54  C   UNL     1       9.549  -7.582  15.875  1.00  0.00     0.049 A 
ATOM     55  H   UNL     1       9.222  -6.407  14.153  1.00  0.00     0.167 HD
ATOM     56  C   UNL     1       9.672  -5.247  16.705  1.00  0.00     0.074 A 
ATOM     57  C   UNL     1       9.837  -4.260  17.753  1.00  0.00     0.031 C 
ATOM     58  C   UNL     1       9.722  -6.587  16.905  1.00  0.00     0.037 A 
BRANCH  45  59
ATOM     59  C   UNL     1       8.798  -9.944  11.794  1.00  0.00     0.058 A 
ATOM     60  C   UNL     1       9.785 -10.479  10.950  1.00  0.00     0.135 A 
ATOM     61  C   UNL     1       7.675 -10.738  12.072  1.00  0.00     0.135 A 
ATOM     62  F   UNL     1      10.873  -9.756  10.639  1.00  0.00    -0.206 F 
ATOM     63  C   UNL     1       9.648 -11.739  10.379  1.00  0.00     0.059 A 
ATOM     64  C   UNL     1       7.529 -12.013  11.533  1.00  0.00     0.059 A 
ATOM     65  F   UNL     1       6.702 -10.277  12.874  1.00  0.00    -0.206 F 
ATOM     66  C   UNL     1       8.514 -12.499  10.674  1.00  0.00     0.060 A 
BRANCH  66  67
ATOM     67  S   UNL     1       8.351 -14.133   9.925  1.00  0.00     0.124 S 
ATOM     68  O   UNL     1       7.995 -13.788   8.552  1.00  0.00    -0.237 OA
ATOM     69  O   UNL     1       9.683 -14.699  10.111  1.00  0.00    -0.237 OA
ATOM     70  O   UNL     1       7.292 -14.761  10.708  1.00  0.00    -0.744 OA
ENDBRANCH  66  67
ENDBRANCH  45  59
BRANCH  46  71
ATOM     71  C   UNL     1       9.413  -0.695  15.529  1.00  0.00     0.058 A 
ATOM     72  C   UNL     1      10.620  -0.162  16.006  1.00  0.00     0.135 A 
ATOM     73  C   UNL     1       8.270   0.116  15.591  1.00  0.00     0.135 A 
ATOM     74  F   UNL     1      11.739  -0.902  15.974  1.00  0.00    -0.206 F 
ATOM     75  C   UNL     1      10.690   1.121  16.538  1.00  0.00     0.059 A 
ATOM     76  C   UNL     1       8.319   1.411  16.098  1.00  0.00     0.059 A 
ATOM     77  F   UNL     1       7.094  -0.343  15.134  1.00  0.00    -0.206 F 
ATOM     78  C   UNL     1       9.533   1.901  16.579  1.00  0.00     0.060 A 
BRANCH  78  79
ATOM     79  S   UNL     1       9.644   3.584  17.225  1.00  0.00     0.124 S 
ATOM     80  O   UNL     1       9.742   3.342  18.660  1.00  0.00    -0.237 OA
ATOM     81  O   UNL     1      10.853   4.084  16.578  1.00  0.00    -0.237 OA
ATOM     82  O   UNL     1       8.400   4.200  16.772  1.00  0.00    -0.744 OA
ENDBRANCH  78  79
ENDBRANCH  46  71
BRANCH  58  83
ATOM     83  C   UNL     1      10.002  -7.069  18.300  1.00  0.00     0.058 A 
ATOM     84  C   UNL     1       9.028  -7.016  19.308  1.00  0.00     0.135 A 
ATOM     85  C   UNL     1      11.244  -7.644  18.616  1.00  0.00     0.135 A 
ATOM     86  F   UNL     1       7.827  -6.471  19.059  1.00  0.00    -0.206 F 
ATOM     87  C   UNL     1       9.281  -7.499  20.588  1.00  0.00     0.059 A 
ATOM     88  C   UNL     1      11.511  -8.154  19.882  1.00  0.00     0.059 A 
ATOM     89  F   UNL     1      12.207  -7.727  17.685  1.00  0.00    -0.206 F 
ATOM     90  C   UNL     1      10.526  -8.068  20.865  1.00  0.00     0.060 A 
BRANCH  90  91
ATOM     91  S   UNL     1      10.830  -8.727  22.519  1.00  0.00     0.124 S 
ATOM     92  O   UNL     1      11.036  -7.505  23.289  1.00  0.00    -0.237 OA
ATOM     93  O   UNL     1       9.595  -9.453  22.800  1.00  0.00    -0.237 OA
ATOM     94  O   UNL     1      12.013  -9.563  22.338  1.00  0.00    -0.744 OA
ENDBRANCH  90  91
ENDBRANCH  58  83
ENDBRANCH  32  33
ENDBRANCH  24  27
ENDBRANCH  22  23
ENDBRANCH   1  22
TORSDOF 17
