REMARK SMILES [NH3+]CC(=O)N1C[C@H](O)C[C@H]1C(=O)NCCCNC(=O)c1ccc(-c2c3nc(c(-c4c(F)cc(S(=O)(=O)[O-])cc4F)c4ccc([nH]4)c(-c4c(F)cc(S(=O)(=O)[O-])cc4F)c4nc(c(-c5c(F)cc(S(=O)(=O)[O-])cc5F)c5ccc2[nH]5)C=C4)C=C3)cc1
REMARK SMILES IDX 15 1 14 2 13 3 11 4 12 5 10 7 5 8 6 9 7 10 9 11 3 12 4 13
REMARK SMILES IDX 2 14 1 15 8 19 16 21 17 22 18 23 19 25 20 26 21 27 85 28
REMARK SMILES IDX 22 29 84 30 23 31 24 32 25 33 78 34 26 35 83 36 77 37 79 38
REMARK SMILES IDX 27 39 82 40 76 41 75 42 28 44 62 45 41 46 61 47 42 48 45 49
REMARK SMILES IDX 60 50 80 51 43 52 44 53 59 55 81 56 46 57 29 58 30 59 39 60
REMARK SMILES IDX 31 61 32 62 38 63 40 64 33 65 34 66 35 67 36 68 37 69 63 70
REMARK SMILES IDX 64 71 73 72 65 73 66 74 72 75 74 76 67 77 68 78 69 79 70 80
REMARK SMILES IDX 71 81 47 82 48 83 57 84 49 85 50 86 56 87 58 88 51 89 52 90
REMARK SMILES IDX 53 91 54 92 55 93
REMARK H PARENT 13 6 1 16 1 17 1 18 8 20 17 24 79 43 45 54
REMARK Flexibility Score: inf
ROOT
ATOM      1  C   UNL     1       1.801  -4.834   1.457  1.00  0.00     0.042 C 
ENDROOT
BRANCH   1   2
ATOM      2  C   UNL     1       3.005  -4.994   0.547  1.00  0.00     0.117 C 
BRANCH   2   3
ATOM      3  N   UNL     1       2.650  -5.460  -0.776  1.00  0.00    -0.354 N 
ATOM      4  C   UNL     1       2.728  -4.834  -1.982  1.00  0.00     0.242 C 
ATOM      5  O   UNL     1       2.583  -5.539  -2.987  1.00  0.00    -0.273 OA
ATOM      6  H   UNL     1       2.296  -6.378  -0.809  1.00  0.00     0.163 HD
BRANCH   4   7
ATOM      7  C   UNL     1       3.200  -3.375  -2.122  1.00  0.00     0.177 C 
ATOM      8  N   UNL     1       2.587  -2.334  -1.287  1.00  0.00    -0.323 N 
ATOM      9  C   UNL     1       3.589  -1.495  -0.646  1.00  0.00     0.152 C 
ATOM     10  C   UNL     1       4.912  -1.871  -1.311  1.00  0.00     0.136 C 
ATOM     11  C   UNL     1       4.708  -3.282  -1.846  1.00  0.00     0.069 C 
BRANCH   8  12
ATOM     12  C   UNL     1       1.236  -2.078  -1.422  1.00  0.00     0.278 C 
ATOM     13  O   UNL     1       0.486  -2.923  -1.917  1.00  0.00    -0.268 OA
BRANCH  12  14
ATOM     14  C   UNL     1       0.689  -0.687  -1.066  1.00  0.00     0.360 C 
BRANCH  14  15
ATOM     15  N   UNL     1       0.809  -0.330   0.346  1.00  0.00    -0.350 N 
ATOM     16  H   UNL     1       0.424   0.603   0.495  1.00  0.00     0.344 HD
ATOM     17  H   UNL     1       1.792  -0.339   0.617  1.00  0.00     0.344 HD
ATOM     18  H   UNL     1       0.294  -1.004   0.913  1.00  0.00     0.344 HD
ENDBRANCH  14  15
ENDBRANCH  12  14
ENDBRANCH   8  12
BRANCH  10  19
ATOM     19  O   UNL     1       5.201  -0.986  -2.391  1.00  0.00    -0.391 OA
ATOM     20  H   UNL     1       4.478  -1.018  -3.036  1.00  0.00     0.211 HD
ENDBRANCH  10  19
ENDBRANCH   4   7
ENDBRANCH   2   3
ENDBRANCH   1   2
BRANCH   1  21
ATOM     21  C   UNL     1       1.063  -6.139   1.731  1.00  0.00     0.118 C 
BRANCH  21  22
ATOM     22  N   UNL     1       1.909  -7.139   2.374  1.00  0.00    -0.352 N 
ATOM     23  C   UNL     1       1.808  -7.724   3.612  1.00  0.00     0.251 C 
ATOM     24  H   UNL     1       2.673  -7.444   1.834  1.00  0.00     0.163 HD
ATOM     25  O   UNL     1       2.749  -8.393   4.039  1.00  0.00    -0.269 OA
BRANCH  23  26
ATOM     26  C   UNL     1       0.595  -7.539   4.434  1.00  0.00     0.039 A 
ATOM     27  C   UNL     1       0.731  -7.347   5.812  1.00  0.00     0.014 A 
ATOM     28  C   UNL     1      -0.677  -7.569   3.857  1.00  0.00     0.014 A 
ATOM     29  C   UNL     1      -0.402  -7.113   6.593  1.00  0.00     0.010 A 
ATOM     30  C   UNL     1      -1.793  -7.241   4.619  1.00  0.00     0.010 A 
ATOM     31  C   UNL     1      -1.670  -7.016   5.997  1.00  0.00    -0.014 A 
BRANCH  31  32
ATOM     32  C   UNL     1      -2.876  -6.678   6.796  1.00  0.00     0.031 A 
ATOM     33  C   UNL     1      -4.024  -7.650   6.883  1.00  0.00     0.074 A 
ATOM     34  C   UNL     1      -2.965  -5.468   7.385  1.00  0.00     0.049 A 
ATOM     35  N   UNL     1      -5.181  -7.508   7.477  1.00  0.00    -0.248 NA
ATOM     36  C   UNL     1      -3.863  -8.938   6.189  1.00  0.00     0.031 C 
ATOM     37  C   UNL     1      -1.944  -4.419   7.321  1.00  0.00     0.029 A 
ATOM     38  N   UNL     1      -3.965  -4.909   8.141  1.00  0.00    -0.354 N 
ATOM     39  C   UNL     1      -5.889  -8.675   7.213  1.00  0.00     0.074 A 
ATOM     40  C   UNL     1      -5.053  -9.493   6.363  1.00  0.00     0.031 C 
ATOM     41  C   UNL     1      -2.360  -3.355   8.026  1.00  0.00     0.029 A 
ATOM     42  C   UNL     1      -3.693  -3.626   8.555  1.00  0.00     0.049 A 
ATOM     43  H   UNL     1      -4.798  -5.382   8.367  1.00  0.00     0.167 HD
ATOM     44  C   UNL     1      -7.115  -9.040   7.658  1.00  0.00     0.037 A 
ATOM     45  C   UNL     1      -4.437  -2.759   9.269  1.00  0.00     0.037 A 
ATOM     46  C   UNL     1      -7.928  -8.229   8.528  1.00  0.00     0.049 A 
ATOM     47  C   UNL     1      -5.793  -3.192   9.758  1.00  0.00     0.074 A 
ATOM     48  C   UNL     1      -9.151  -8.540   9.095  1.00  0.00     0.029 A 
ATOM     49  N   UNL     1      -7.606  -6.947   8.949  1.00  0.00    -0.354 N 
ATOM     50  N   UNL     1      -6.412  -4.333   9.569  1.00  0.00    -0.248 NA
ATOM     51  C   UNL     1      -6.550  -2.224  10.564  1.00  0.00     0.031 C 
ATOM     52  C   UNL     1      -9.596  -7.425   9.812  1.00  0.00     0.029 A 
ATOM     53  C   UNL     1      -8.621  -6.442   9.745  1.00  0.00     0.049 A 
ATOM     54  H   UNL     1      -6.779  -6.467   8.716  1.00  0.00     0.167 HD
ATOM     55  C   UNL     1      -7.617  -4.231  10.255  1.00  0.00     0.074 A 
ATOM     56  C   UNL     1      -7.632  -2.923  10.876  1.00  0.00     0.031 C 
ATOM     57  C   UNL     1      -8.620  -5.138  10.362  1.00  0.00     0.037 A 
BRANCH  44  58
ATOM     58  C   UNL     1      -7.656 -10.373   7.216  1.00  0.00     0.058 A 
ATOM     59  C   UNL     1      -7.105 -11.584   7.668  1.00  0.00     0.135 A 
ATOM     60  C   UNL     1      -8.775 -10.442   6.370  1.00  0.00     0.135 A 
ATOM     61  F   UNL     1      -6.026 -11.580   8.466  1.00  0.00    -0.206 F 
ATOM     62  C   UNL     1      -7.628 -12.812   7.277  1.00  0.00     0.059 A 
ATOM     63  C   UNL     1      -9.334 -11.659   5.991  1.00  0.00     0.059 A 
ATOM     64  F   UNL     1      -9.342  -9.317   5.907  1.00  0.00    -0.206 F 
ATOM     65  C   UNL     1      -8.745 -12.840   6.441  1.00  0.00     0.060 A 
BRANCH  65  66
ATOM     66  S   UNL     1      -9.421 -14.443   5.961  1.00  0.00     0.124 S 
ATOM     67  O   UNL     1      -8.393 -14.931   5.046  1.00  0.00    -0.237 OA
ATOM     68  O   UNL     1      -9.512 -15.138   7.241  1.00  0.00    -0.237 OA
ATOM     69  O   UNL     1     -10.699 -14.103   5.343  1.00  0.00    -0.744 OA
ENDBRANCH  65  66
ENDBRANCH  44  58
BRANCH  45  70
ATOM     70  C   UNL     1      -3.913  -1.399   9.572  1.00  0.00     0.058 A 
ATOM     71  C   UNL     1      -3.568  -1.029  10.881  1.00  0.00     0.135 A 
ATOM     72  C   UNL     1      -3.739  -0.444   8.558  1.00  0.00     0.135 A 
ATOM     73  F   UNL     1      -3.720  -1.904  11.887  1.00  0.00    -0.206 F 
ATOM     74  C   UNL     1      -3.094   0.245  11.178  1.00  0.00     0.059 A 
ATOM     75  C   UNL     1      -3.238   0.826   8.825  1.00  0.00     0.059 A 
ATOM     76  F   UNL     1      -4.034  -0.752   7.285  1.00  0.00    -0.206 F 
ATOM     77  C   UNL     1      -2.930   1.165  10.142  1.00  0.00     0.060 A 
BRANCH  77  78
ATOM     78  S   UNL     1      -2.274   2.802  10.532  1.00  0.00     0.124 S 
ATOM     79  O   UNL     1      -3.404   3.415  11.220  1.00  0.00    -0.237 OA
ATOM     80  O   UNL     1      -1.119   2.478  11.364  1.00  0.00    -0.237 OA
ATOM     81  O   UNL     1      -1.955   3.357   9.220  1.00  0.00    -0.744 OA
ENDBRANCH  77  78
ENDBRANCH  45  70
BRANCH  57  82
ATOM     82  C   UNL     1      -9.804  -4.766  11.212  1.00  0.00     0.058 A 
ATOM     83  C   UNL     1     -10.732  -3.794  10.807  1.00  0.00     0.135 A 
ATOM     84  C   UNL     1     -10.040  -5.430  12.428  1.00  0.00     0.135 A 
ATOM     85  F   UNL     1     -10.552  -3.125   9.657  1.00  0.00    -0.206 F 
ATOM     86  C   UNL     1     -11.835  -3.472  11.591  1.00  0.00     0.059 A 
ATOM     87  C   UNL     1     -11.154  -5.147  13.211  1.00  0.00     0.059 A 
ATOM     88  F   UNL     1      -9.190  -6.377  12.858  1.00  0.00    -0.206 F 
ATOM     89  C   UNL     1     -12.039  -4.157  12.790  1.00  0.00     0.060 A 
BRANCH  89  90
ATOM     90  S   UNL     1     -13.491  -3.749  13.783  1.00  0.00     0.124 S 
ATOM     91  O   UNL     1     -13.123  -2.443  14.319  1.00  0.00    -0.237 OA
ATOM     92  O   UNL     1     -14.559  -3.749  12.788  1.00  0.00    -0.237 OA
ATOM     93  O   UNL     1     -13.552  -4.833  14.759  1.00  0.00    -0.744 OA
ENDBRANCH  89  90
ENDBRANCH  57  82
ENDBRANCH  31  32
ENDBRANCH  23  26
ENDBRANCH  21  22
ENDBRANCH   1  21
TORSDOF 17
