REMARK SMILES O=C(NCCCNC(=O)c1ccc(-c2c3nc(c(-c4c(F)cc(S(=O)(=O)[O-])cc4F)c4ccc([nH]4)c(-c4c(F)cc(S(=O)(=O)[O-])cc4F)c4nc(c(-c5c(F)cc(S(=O)(=O)[O-])cc5F)c5ccc2[nH]5)C=C4)C=C3)cc1)c1ccc(C#CC#C[C@H]2C[C@@H](O)C2)cc1
REMARK SMILES IDX 4 1 3 2 1 3 2 4 76 6 77 7 90 8 78 9 89 10 79 11 80 12 81 13
REMARK SMILES IDX 82 14 83 15 84 16 88 17 85 18 86 19 87 20 5 22 6 23 7 24
REMARK SMILES IDX 8 25 9 27 10 28 11 29 75 30 12 31 74 32 13 33 14 34 15 35
REMARK SMILES IDX 68 36 16 37 73 38 67 39 69 40 17 41 72 42 66 43 65 44 18 46
REMARK SMILES IDX 52 47 31 48 51 49 32 50 35 51 50 52 70 53 33 54 34 55 49 57
REMARK SMILES IDX 71 58 36 59 19 60 20 61 29 62 21 63 22 64 28 65 30 66 23 67
REMARK SMILES IDX 24 68 25 69 26 70 27 71 53 72 54 73 63 74 55 75 56 76 62 77
REMARK SMILES IDX 64 78 57 79 58 80 59 81 60 82 61 83 37 84 38 85 47 86 39 87
REMARK SMILES IDX 40 88 46 89 48 90 41 91 42 92 43 93 44 94 45 95
REMARK H PARENT 3 5 87 21 7 26 69 45 35 56
REMARK Flexibility Score: inf
ROOT
ATOM      1  C   UNL     1       4.517   0.780  -0.919  1.00  0.00     0.118 C 
ENDROOT
BRANCH   1   2
ATOM      2  N   UNL     1       3.087   0.686  -0.651  1.00  0.00    -0.352 N 
ATOM      3  O   UNL     1       1.177  -0.147   0.212  1.00  0.00    -0.269 OA
ATOM      4  C   UNL     1       2.404  -0.131   0.217  1.00  0.00     0.251 C 
ATOM      5  H   UNL     1       2.524   1.304  -1.172  1.00  0.00     0.163 HD
BRANCH   4   6
ATOM      6  C   UNL     1       3.145  -1.017   1.139  1.00  0.00     0.039 A 
ATOM      7  C   UNL     1       4.199  -0.532   1.919  1.00  0.00     0.015 A 
ATOM      8  C   UNL     1       2.775  -2.364   1.217  1.00  0.00     0.015 A 
ATOM      9  C   UNL     1       4.966  -1.416   2.675  1.00  0.00     0.018 A 
ATOM     10  C   UNL     1       3.524  -3.243   2.002  1.00  0.00     0.018 A 
ATOM     11  C   UNL     1       4.636  -2.772   2.706  1.00  0.00     0.026 A 
BRANCH  11  12
ATOM     12  C   UNL     1       5.448  -3.671   3.461  1.00  0.00    -0.053 C 
ATOM     13  C   UNL     1       6.158  -4.393   4.107  1.00  0.00    -0.010 C 
BRANCH  13  14
ATOM     14  C   UNL     1       7.075  -5.273   4.952  1.00  0.00    -0.015 C 
ATOM     15  C   UNL     1       7.800  -5.941   5.638  1.00  0.00    -0.085 C 
BRANCH  15  16
ATOM     16  C   UNL     1       8.675  -6.726   6.472  1.00  0.00     0.070 C 
ATOM     17  C   UNL     1       8.310  -6.764   7.977  1.00  0.00     0.048 C 
ATOM     18  C   UNL     1       8.431  -8.255   6.462  1.00  0.00     0.048 C 
ATOM     19  C   UNL     1       8.750  -8.246   7.976  1.00  0.00     0.116 C 
BRANCH  19  20
ATOM     20  O   UNL     1       7.990  -9.142   8.804  1.00  0.00    -0.393 OA
ATOM     21  H   UNL     1       7.044  -9.028   8.621  1.00  0.00     0.210 HD
ENDBRANCH  19  20
ENDBRANCH  15  16
ENDBRANCH  13  14
ENDBRANCH  11  12
ENDBRANCH   4   6
ENDBRANCH   1   2
BRANCH   1  22
ATOM     22  C   UNL     1       4.891   0.347  -2.328  1.00  0.00     0.042 C 
BRANCH  22  23
ATOM     23  C   UNL     1       4.338   1.247  -3.424  1.00  0.00     0.118 C 
BRANCH  23  24
ATOM     24  N   UNL     1       4.840   2.614  -3.343  1.00  0.00    -0.352 N 
ATOM     25  C   UNL     1       5.686   3.306  -4.178  1.00  0.00     0.251 C 
ATOM     26  H   UNL     1       4.520   3.125  -2.565  1.00  0.00     0.163 HD
ATOM     27  O   UNL     1       6.127   4.396  -3.824  1.00  0.00    -0.269 OA
BRANCH  25  28
ATOM     28  C   UNL     1       6.092   2.728  -5.477  1.00  0.00     0.039 A 
ATOM     29  C   UNL     1       7.433   2.804  -5.864  1.00  0.00     0.014 A 
ATOM     30  C   UNL     1       5.162   2.098  -6.306  1.00  0.00     0.014 A 
ATOM     31  C   UNL     1       7.857   2.149  -7.023  1.00  0.00     0.010 A 
ATOM     32  C   UNL     1       5.600   1.372  -7.410  1.00  0.00     0.010 A 
ATOM     33  C   UNL     1       6.956   1.372  -7.768  1.00  0.00    -0.014 A 
BRANCH  33  34
ATOM     34  C   UNL     1       7.412   0.505  -8.887  1.00  0.00     0.031 A 
ATOM     35  C   UNL     1       6.888   0.725 -10.280  1.00  0.00     0.074 A 
ATOM     36  C   UNL     1       8.231  -0.535  -8.626  1.00  0.00     0.049 A 
ATOM     37  N   UNL     1       7.067  -0.004 -11.351  1.00  0.00    -0.248 NA
ATOM     38  C   UNL     1       6.037   1.907 -10.493  1.00  0.00     0.031 C 
ATOM     39  C   UNL     1       8.785  -0.868  -7.311  1.00  0.00     0.029 A 
ATOM     40  N   UNL     1       8.729  -1.517  -9.448  1.00  0.00    -0.354 N 
ATOM     41  C   UNL     1       6.357   0.630 -12.364  1.00  0.00     0.074 A 
ATOM     42  C   UNL     1       5.696   1.770 -11.767  1.00  0.00     0.031 C 
ATOM     43  C   UNL     1       9.556  -1.961  -7.419  1.00  0.00     0.029 A 
ATOM     44  C   UNL     1       9.506  -2.446  -8.793  1.00  0.00     0.049 A 
ATOM     45  H   UNL     1       8.547  -1.553 -10.415  1.00  0.00     0.167 HD
ATOM     46  C   UNL     1       6.286   0.304 -13.677  1.00  0.00     0.037 A 
ATOM     47  C   UNL     1      10.088  -3.576  -9.241  1.00  0.00     0.037 A 
ATOM     48  C   UNL     1       6.950  -0.831 -14.264  1.00  0.00     0.049 A 
ATOM     49  C   UNL     1       9.920  -3.958 -10.690  1.00  0.00     0.074 A 
ATOM     50  C   UNL     1       6.959  -1.228 -15.589  1.00  0.00     0.029 A 
ATOM     51  N   UNL     1       7.717  -1.753 -13.566  1.00  0.00    -0.354 N 
ATOM     52  N   UNL     1       9.297  -3.312 -11.646  1.00  0.00    -0.248 NA
ATOM     53  C   UNL     1      10.529  -5.225 -11.120  1.00  0.00     0.031 C 
ATOM     54  C   UNL     1       7.680  -2.421 -15.684  1.00  0.00     0.029 A 
ATOM     55  C   UNL     1       8.174  -2.736 -14.428  1.00  0.00     0.049 A 
ATOM     56  H   UNL     1       7.907  -1.714 -12.601  1.00  0.00     0.167 HD
ATOM     57  C   UNL     1       9.465  -4.079 -12.794  1.00  0.00     0.074 A 
ATOM     58  C   UNL     1      10.267  -5.224 -12.419  1.00  0.00     0.031 C 
ATOM     59  C   UNL     1       8.990  -3.861 -14.045  1.00  0.00     0.037 A 
BRANCH  46  60
ATOM     60  C   UNL     1       5.474   1.191 -14.582  1.00  0.00     0.058 A 
ATOM     61  C   UNL     1       5.900   2.488 -14.910  1.00  0.00     0.135 A 
ATOM     62  C   UNL     1       4.303   0.713 -15.195  1.00  0.00     0.135 A 
ATOM     63  F   UNL     1       7.003   3.002 -14.342  1.00  0.00    -0.206 F 
ATOM     64  C   UNL     1       5.190   3.283 -15.803  1.00  0.00     0.059 A 
ATOM     65  C   UNL     1       3.594   1.480 -16.115  1.00  0.00     0.059 A 
ATOM     66  F   UNL     1       3.849  -0.519 -14.916  1.00  0.00    -0.206 F 
ATOM     67  C   UNL     1       4.043   2.767 -16.408  1.00  0.00     0.060 A 
BRANCH  67  68
ATOM     68  S   UNL     1       3.162   3.802 -17.594  1.00  0.00     0.124 S 
ATOM     69  O   UNL     1       2.630   4.851 -16.729  1.00  0.00    -0.237 OA
ATOM     70  O   UNL     1       4.230   4.211 -18.501  1.00  0.00    -0.237 OA
ATOM     71  O   UNL     1       2.168   2.899 -18.165  1.00  0.00    -0.744 OA
ENDBRANCH  67  68
ENDBRANCH  46  60
BRANCH  47  72
ATOM     72  C   UNL     1      10.869  -4.447  -8.318  1.00  0.00     0.058 A 
ATOM     73  C   UNL     1      12.244  -4.651  -8.509  1.00  0.00     0.135 A 
ATOM     74  C   UNL     1      10.254  -5.128  -7.255  1.00  0.00     0.135 A 
ATOM     75  F   UNL     1      12.881  -4.029  -9.514  1.00  0.00    -0.206 F 
ATOM     76  C   UNL     1      12.972  -5.526  -7.710  1.00  0.00     0.059 A 
ATOM     77  C   UNL     1      10.968  -5.980  -6.418  1.00  0.00     0.059 A 
ATOM     78  F   UNL     1       8.944  -4.961  -7.014  1.00  0.00    -0.206 F 
ATOM     79  C   UNL     1      12.323  -6.189  -6.667  1.00  0.00     0.060 A 
BRANCH  79  80
ATOM     80  S   UNL     1      13.278  -7.322  -5.636  1.00  0.00     0.124 S 
ATOM     81  O   UNL     1      13.525  -8.422  -6.560  1.00  0.00    -0.237 OA
ATOM     82  O   UNL     1      14.438  -6.509  -5.284  1.00  0.00    -0.237 OA
ATOM     83  O   UNL     1      12.370  -7.617  -4.532  1.00  0.00    -0.744 OA
ENDBRANCH  79  80
ENDBRANCH  47  72
BRANCH  59  84
ATOM     84  C   UNL     1       9.344  -4.860 -15.113  1.00  0.00     0.058 A 
ATOM     85  C   UNL     1       8.778  -6.144 -15.135  1.00  0.00     0.135 A 
ATOM     86  C   UNL     1      10.193  -4.500 -16.174  1.00  0.00     0.135 A 
ATOM     87  F   UNL     1       7.970  -6.544 -14.139  1.00  0.00    -0.206 F 
ATOM     88  C   UNL     1       9.046  -7.038 -16.165  1.00  0.00     0.059 A 
ATOM     89  C   UNL     1      10.447  -5.367 -17.232  1.00  0.00     0.059 A 
ATOM     90  F   UNL     1      10.757  -3.282 -16.205  1.00  0.00    -0.206 F 
ATOM     91  C   UNL     1       9.871  -6.636 -17.217  1.00  0.00     0.060 A 
BRANCH  91  92
ATOM     92  S   UNL     1      10.143  -7.783 -18.583  1.00  0.00     0.124 S 
ATOM     93  O   UNL     1      10.951  -8.817 -17.945  1.00  0.00    -0.237 OA
ATOM     94  O   UNL     1       8.781  -8.170 -18.937  1.00  0.00    -0.237 OA
ATOM     95  O   UNL     1      10.837  -6.971 -19.578  1.00  0.00    -0.744 OA
ENDBRANCH  91  92
ENDBRANCH  59  84
ENDBRANCH  33  34
ENDBRANCH  25  28
ENDBRANCH  23  24
ENDBRANCH  22  23
ENDBRANCH   1  22
TORSDOF 17
