REMARK SMILES O=C(NCCCNC(=O)c1nnn(-c2cccc(C(F)(F)F)c2)c1[C@@H]1COc2ccccc2O1)c1ccc(-c2c3nc(c(-c4c(F)cc(S(=O)(=O)[O-])cc4F)c4ccc([nH]4)c(-c4c(F)cc(S(=O)(=O)[O-])cc4F)c4nc(c(-c5c(F)cc(S(=O)(=O)[O-])cc5F)c5ccc2[nH]5)C=C4)C=C3)cc1
REMARK SMILES IDX 4 1 3 2 1 3 2 4 35 6 36 7 100 8 37 9 99 10 38 11 39 12 40 13
REMARK SMILES IDX 93 14 41 15 98 16 92 17 94 18 42 19 97 20 91 21 90 22 43 24
REMARK SMILES IDX 77 25 56 26 76 27 57 28 60 29 75 30 95 31 58 32 59 33 74 35
REMARK SMILES IDX 96 36 61 37 44 38 45 39 54 40 46 41 47 42 53 43 55 44 48 45
REMARK SMILES IDX 49 46 50 47 51 48 52 49 78 50 79 51 88 52 80 53 81 54 87 55
REMARK SMILES IDX 89 56 82 57 83 58 84 59 85 60 86 61 62 62 63 63 72 64 64 65
REMARK SMILES IDX 65 66 71 67 73 68 66 69 67 70 68 71 69 72 70 73 5 74 6 75
REMARK SMILES IDX 7 76 8 77 9 79 10 80 11 81 24 82 12 83 13 84 25 85 26 86
REMARK SMILES IDX 34 87 27 88 33 89 28 90 32 91 29 92 31 93 30 94 14 95 15 96
REMARK SMILES IDX 23 97 16 98 18 99 17 100 19 101 20 102 21 103 22 104
REMARK H PARENT 3 5 94 23 60 34 7 78
REMARK Flexibility Score: inf
ROOT
ATOM      1  C   UNL     1       4.741   0.036   0.768  1.00  0.00     0.118 C 
ENDROOT
BRANCH   1   2
ATOM      2  N   UNL     1       3.303  -0.165   0.736  1.00  0.00    -0.352 N 
ATOM      3  O   UNL     1       1.177  -0.338   0.239  1.00  0.00    -0.269 OA
ATOM      4  C   UNL     1       2.271   0.114  -0.117  1.00  0.00     0.251 C 
ATOM      5  H   UNL     1       2.986  -0.624   1.547  1.00  0.00     0.163 HD
BRANCH   4   6
ATOM      6  C   UNL     1       2.334   0.906  -1.381  1.00  0.00     0.039 A 
ATOM      7  C   UNL     1       3.486   1.404  -1.990  1.00  0.00     0.014 A 
ATOM      8  C   UNL     1       1.094   1.153  -2.010  1.00  0.00     0.014 A 
ATOM      9  C   UNL     1       3.394   2.133  -3.186  1.00  0.00     0.010 A 
ATOM     10  C   UNL     1       0.999   1.880  -3.198  1.00  0.00     0.010 A 
ATOM     11  C   UNL     1       2.153   2.379  -3.792  1.00  0.00    -0.014 A 
BRANCH  11  12
ATOM     12  C   UNL     1       2.119   2.984  -5.133  1.00  0.00     0.031 A 
ATOM     13  C   UNL     1       2.707   2.142  -6.220  1.00  0.00     0.074 A 
ATOM     14  C   UNL     1       1.450   4.105  -5.481  1.00  0.00     0.049 A 
ATOM     15  N   UNL     1       3.720   2.401  -6.982  1.00  0.00    -0.248 NA
ATOM     16  C   UNL     1       2.130   0.805  -6.432  1.00  0.00     0.031 C 
ATOM     17  C   UNL     1       0.521   4.886  -4.664  1.00  0.00     0.029 A 
ATOM     18  N   UNL     1       1.391   4.730  -6.699  1.00  0.00    -0.354 N 
ATOM     19  C   UNL     1       3.794   1.351  -7.901  1.00  0.00     0.074 A 
ATOM     20  C   UNL     1       2.887   0.340  -7.426  1.00  0.00     0.031 C 
ATOM     21  C   UNL     1      -0.154   5.750  -5.458  1.00  0.00     0.029 A 
ATOM     22  C   UNL     1       0.378   5.678  -6.810  1.00  0.00     0.049 A 
ATOM     23  H   UNL     1       2.012   4.526  -7.434  1.00  0.00     0.167 HD
ATOM     24  C   UNL     1       4.456   1.469  -9.087  1.00  0.00     0.037 A 
ATOM     25  C   UNL     1      -0.030   6.321  -7.936  1.00  0.00     0.037 A 
ATOM     26  C   UNL     1       5.357   2.592  -9.078  1.00  0.00     0.049 A 
ATOM     27  C   UNL     1       1.067   6.233  -8.932  1.00  0.00     0.074 A 
ATOM     28  C   UNL     1       6.431   2.978  -8.299  1.00  0.00     0.029 A 
ATOM     29  N   UNL     1       5.011   3.704  -9.806  1.00  0.00    -0.354 N 
ATOM     30  N   UNL     1       2.209   6.854  -8.832  1.00  0.00    -0.248 NA
ATOM     31  C   UNL     1       1.029   5.151  -9.902  1.00  0.00     0.031 C 
ATOM     32  C   UNL     1       6.352   4.400  -8.236  1.00  0.00     0.029 A 
ATOM     33  C   UNL     1       5.264   4.794  -9.015  1.00  0.00     0.049 A 
ATOM     34  H   UNL     1       4.650   3.716 -10.721  1.00  0.00     0.167 HD
ATOM     35  C   UNL     1       3.131   5.988  -9.396  1.00  0.00     0.074 A 
ATOM     36  C   UNL     1       2.335   5.018 -10.140  1.00  0.00     0.031 C 
ATOM     37  C   UNL     1       4.431   5.975  -8.982  1.00  0.00     0.037 A 
BRANCH  24  38
ATOM     38  C   UNL     1       4.059   0.777 -10.377  1.00  0.00     0.058 A 
ATOM     39  C   UNL     1       4.902   0.880 -11.507  1.00  0.00     0.135 A 
ATOM     40  C   UNL     1       2.765   0.274 -10.635  1.00  0.00     0.135 A 
ATOM     41  F   UNL     1       6.158   1.341 -11.386  1.00  0.00    -0.206 F 
ATOM     42  C   UNL     1       4.462   0.599 -12.802  1.00  0.00     0.059 A 
ATOM     43  C   UNL     1       2.325  -0.066 -11.911  1.00  0.00     0.059 A 
ATOM     44  F   UNL     1       1.832   0.181  -9.681  1.00  0.00    -0.206 F 
ATOM     45  C   UNL     1       3.161   0.148 -12.994  1.00  0.00     0.060 A 
BRANCH  45  46
ATOM     46  S   UNL     1       2.545  -0.089 -14.670  1.00  0.00     0.124 S 
ATOM     47  O   UNL     1       2.424   1.290 -15.129  1.00  0.00    -0.237 OA
ATOM     48  O   UNL     1       3.612  -0.875 -15.280  1.00  0.00    -0.237 OA
ATOM     49  O   UNL     1       1.287  -0.801 -14.466  1.00  0.00    -0.744 OA
ENDBRANCH  45  46
ENDBRANCH  24  38
BRANCH  25  50
ATOM     50  C   UNL     1      -1.389   6.795  -8.320  1.00  0.00     0.058 A 
ATOM     51  C   UNL     1      -1.581   7.657  -9.418  1.00  0.00     0.135 A 
ATOM     52  C   UNL     1      -2.550   6.183  -7.808  1.00  0.00     0.135 A 
ATOM     53  F   UNL     1      -0.532   8.273  -9.986  1.00  0.00    -0.206 F 
ATOM     54  C   UNL     1      -2.834   7.852 -10.009  1.00  0.00     0.059 A 
ATOM     55  C   UNL     1      -3.812   6.373  -8.371  1.00  0.00     0.059 A 
ATOM     56  F   UNL     1      -2.479   5.301  -6.800  1.00  0.00    -0.206 F 
ATOM     57  C   UNL     1      -3.943   7.185  -9.491  1.00  0.00     0.060 A 
BRANCH  57  58
ATOM     58  S   UNL     1      -5.525   7.275 -10.364  1.00  0.00     0.124 S 
ATOM     59  O   UNL     1      -5.937   8.649 -10.101  1.00  0.00    -0.237 OA
ATOM     60  O   UNL     1      -5.137   6.976 -11.739  1.00  0.00    -0.237 OA
ATOM     61  O   UNL     1      -6.330   6.245  -9.711  1.00  0.00    -0.744 OA
ENDBRANCH  57  58
ENDBRANCH  25  50
BRANCH  37  62
ATOM     62  C   UNL     1       4.959   7.156  -8.215  1.00  0.00     0.058 A 
ATOM     63  C   UNL     1       4.468   7.590  -6.971  1.00  0.00     0.135 A 
ATOM     64  C   UNL     1       6.116   7.787  -8.704  1.00  0.00     0.135 A 
ATOM     65  F   UNL     1       3.435   6.972  -6.380  1.00  0.00    -0.206 F 
ATOM     66  C   UNL     1       5.076   8.631  -6.268  1.00  0.00     0.059 A 
ATOM     67  C   UNL     1       6.759   8.802  -8.002  1.00  0.00     0.059 A 
ATOM     68  F   UNL     1       6.668   7.379  -9.859  1.00  0.00    -0.206 F 
ATOM     69  C   UNL     1       6.224   9.229  -6.789  1.00  0.00     0.060 A 
BRANCH  69  70
ATOM     70  S   UNL     1       7.068  10.506  -5.831  1.00  0.00     0.124 S 
ATOM     71  O   UNL     1       6.168  11.649  -5.988  1.00  0.00    -0.237 OA
ATOM     72  O   UNL     1       7.110   9.920  -4.490  1.00  0.00    -0.237 OA
ATOM     73  O   UNL     1       8.359  10.632  -6.486  1.00  0.00    -0.744 OA
ENDBRANCH  69  70
ENDBRANCH  37  62
ENDBRANCH  11  12
ENDBRANCH   4   6
ENDBRANCH   1   2
BRANCH   1  74
ATOM     74  C   UNL     1       5.174   1.397   1.307  1.00  0.00     0.042 C 
BRANCH  74  75
ATOM     75  C   UNL     1       4.587   1.762   2.674  1.00  0.00     0.118 C 
BRANCH  75  76
ATOM     76  N   UNL     1       5.464   1.526   3.810  1.00  0.00    -0.351 N 
ATOM     77  C   UNL     1       5.987   2.192   4.899  1.00  0.00     0.273 C 
ATOM     78  H   UNL     1       5.787   0.596   3.798  1.00  0.00     0.163 HD
ATOM     79  O   UNL     1       6.586   1.417   5.659  1.00  0.00    -0.267 OA
BRANCH  77  80
ATOM     80  C   UNL     1       5.940   3.631   5.243  1.00  0.00     0.178 A 
ATOM     81  N   UNL     1       6.750   4.037   6.300  1.00  0.00    -0.124 NA
ATOM     82  C   UNL     1       5.320   4.781   4.750  1.00  0.00     0.122 A 
ATOM     83  N   UNL     1       6.686   5.349   6.437  1.00  0.00    -0.061 NA
ATOM     84  N   UNL     1       5.785   5.810   5.557  1.00  0.00    -0.213 N 
BRANCH  82  85
ATOM     85  C   UNL     1       4.531   5.001   3.508  1.00  0.00     0.262 C 
ATOM     86  C   UNL     1       5.487   5.061   2.301  1.00  0.00     0.281 C 
ATOM     87  O   UNL     1       3.594   6.078   3.591  1.00  0.00    -0.477 OA
ATOM     88  O   UNL     1       6.027   6.378   2.148  1.00  0.00    -0.485 OA
ATOM     89  C   UNL     1       3.743   7.007   2.596  1.00  0.00     0.162 A 
ATOM     90  C   UNL     1       4.964   7.220   1.950  1.00  0.00     0.161 A 
ATOM     91  C   UNL     1       2.641   7.792   2.282  1.00  0.00     0.050 A 
ATOM     92  C   UNL     1       5.125   8.284   1.074  1.00  0.00     0.050 A 
ATOM     93  C   UNL     1       2.778   8.818   1.347  1.00  0.00     0.004 A 
ATOM     94  C   UNL     1       4.023   9.081   0.767  1.00  0.00     0.004 A 
ENDBRANCH  82  85
BRANCH  84  95
ATOM     95  C   UNL     1       5.388   7.159   5.591  1.00  0.00     0.067 A 
ATOM     96  C   UNL     1       6.212   8.133   5.023  1.00  0.00     0.028 A 
ATOM     97  C   UNL     1       4.098   7.470   6.037  1.00  0.00     0.041 A 
ATOM     98  C   UNL     1       5.697   9.413   4.815  1.00  0.00     0.003 A 
ATOM     99  C   UNL     1       3.585   8.760   5.842  1.00  0.00     0.058 A 
ATOM    100  C   UNL     1       4.389   9.720   5.205  1.00  0.00     0.013 A 
BRANCH  99 101
ATOM    101  C   UNL     1       2.164   9.084   6.226  1.00  0.00     0.416 C 
ATOM    102  F   UNL     1       2.055  10.268   6.893  1.00  0.00    -0.166 F 
ATOM    103  F   UNL     1       1.333   9.181   5.152  1.00  0.00    -0.166 F 
ATOM    104  F   UNL     1       1.600   8.150   7.046  1.00  0.00    -0.166 F 
ENDBRANCH  99 101
ENDBRANCH  84  95
ENDBRANCH  77  80
ENDBRANCH  75  76
ENDBRANCH  74  75
ENDBRANCH   1  74
TORSDOF 16
