REMARK SMILES CCC(=O)Nc1ccc(NC(=O)[C@@H]2CC=CC[C@@H]2C(=O)NCCCNC(=O)c2ccc(-c3c4nc(c(-c5c(F)cc(S(=O)(=O)[O-])cc5F)c5ccc([nH]5)c(-c5c(F)cc(S(=O)(=O)[O-])cc5F)c5nc(c(-c6c(F)cc(S(=O)(=O)[O-])cc6F)c6ccc3[nH]6)C=C5)C=C4)cc2)cc1
REMARK SMILES IDX 22 1 21 2 19 3 20 4 18 6 13 7 14 8 15 9 17 10 16 11 11 12
REMARK SMILES IDX 10 13 12 15 9 16 6 17 7 18 95 19 8 20 94 21 5 22 3 23 4 24
REMARK SMILES IDX 2 26 1 27 23 28 24 29 25 30 26 31 27 33 28 34 29 35 93 36
REMARK SMILES IDX 30 37 92 38 31 39 32 40 33 41 86 42 34 43 91 44 85 45 87 46
REMARK SMILES IDX 35 47 90 48 84 49 83 50 36 52 70 53 49 54 69 55 50 56 53 57
REMARK SMILES IDX 68 58 88 59 51 60 52 61 67 63 89 64 54 65 37 66 38 67 47 68
REMARK SMILES IDX 39 69 40 70 46 71 48 72 41 73 42 74 43 75 44 76 45 77 71 78
REMARK SMILES IDX 72 79 81 80 73 81 74 82 80 83 82 84 75 85 76 86 77 87 78 88
REMARK SMILES IDX 79 89 55 90 56 91 65 92 57 93 58 94 64 95 66 96 59 97 60 98
REMARK SMILES IDX 61 99 62 100 63 101
REMARK H PARENT 21 5 10 14 5 25 25 32 87 51 53 62
REMARK Flexibility Score: inf
ROOT
ATOM      1  C   UNL     1       5.618   4.688   1.069  1.00  0.00     0.117 C 
ENDROOT
BRANCH   1   2
ATOM      2  N   UNL     1       6.765   4.541   0.180  1.00  0.00    -0.356 N 
ATOM      3  C   UNL     1       7.447   3.465  -0.327  1.00  0.00     0.224 C 
ATOM      4  O   UNL     1       8.079   3.696  -1.365  1.00  0.00    -0.275 OA
ATOM      5  H   UNL     1       7.131   5.404  -0.122  1.00  0.00     0.163 HD
BRANCH   3   6
ATOM      6  C   UNL     1       7.427   2.043   0.282  1.00  0.00     0.095 C 
ATOM      7  C   UNL     1       8.008   1.810   1.702  1.00  0.00     0.095 C 
ATOM      8  C   UNL     1       9.204   0.866   1.932  1.00  0.00     0.041 C 
ATOM      9  C   UNL     1       9.835   0.287   0.719  1.00  0.00    -0.030 C 
ATOM     10  C   UNL     1       7.941   0.990  -0.748  1.00  0.00     0.041 C 
ATOM     11  C   UNL     1       9.278   0.361  -0.491  1.00  0.00    -0.030 C 
BRANCH   7  12
ATOM     12  C   UNL     1       8.223   3.011   2.590  1.00  0.00     0.228 C 
ATOM     13  N   UNL     1       9.003   4.077   2.289  1.00  0.00    -0.326 N 
ATOM     14  H   UNL     1       8.975   4.776   2.982  1.00  0.00     0.169 HD
ATOM     15  O   UNL     1       7.622   3.047   3.672  1.00  0.00    -0.274 OA
BRANCH  13  16
ATOM     16  C   UNL     1       9.839   4.410   1.218  1.00  0.00     0.041 A 
ATOM     17  C   UNL     1      11.541   5.466  -0.735  1.00  0.00     0.041 A 
ATOM     18  C   UNL     1      11.680   4.138  -0.334  1.00  0.00     0.028 A 
ATOM     19  C   UNL     1      10.452   6.192  -0.300  1.00  0.00     0.028 A 
ATOM     20  C   UNL     1      10.820   3.608   0.648  1.00  0.00     0.028 A 
ATOM     21  C   UNL     1       9.676   5.702   0.728  1.00  0.00     0.028 A 
BRANCH  17  22
ATOM     22  N   UNL     1      12.505   6.093  -1.526  1.00  0.00    -0.326 N 
ATOM     23  C   UNL     1      12.966   7.384  -1.383  1.00  0.00     0.224 C 
ATOM     24  O   UNL     1      13.628   7.890  -2.292  1.00  0.00    -0.275 OA
ATOM     25  H   UNL     1      12.893   5.561  -2.257  1.00  0.00     0.169 HD
BRANCH  23  26
ATOM     26  C   UNL     1      12.773   8.117  -0.050  1.00  0.00     0.097 C 
ATOM     27  C   UNL     1      11.649   9.143  -0.022  1.00  0.00     0.014 C 
ENDBRANCH  23  26
ENDBRANCH  17  22
ENDBRANCH  13  16
ENDBRANCH   7  12
ENDBRANCH   3   6
ENDBRANCH   1   2
BRANCH   1  28
ATOM     28  C   UNL     1       5.790   5.520   2.358  1.00  0.00     0.042 C 
BRANCH  28  29
ATOM     29  C   UNL     1       6.418   6.916   2.357  1.00  0.00     0.118 C 
BRANCH  29  30
ATOM     30  N   UNL     1       5.593   8.010   1.899  1.00  0.00    -0.352 N 
ATOM     31  C   UNL     1       5.572   9.306   2.386  1.00  0.00     0.251 C 
ATOM     32  H   UNL     1       4.976   7.811   1.158  1.00  0.00     0.163 HD
ATOM     33  O   UNL     1       4.806  10.126   1.903  1.00  0.00    -0.269 OA
BRANCH  31  34
ATOM     34  C   UNL     1       6.457   9.700   3.516  1.00  0.00     0.039 A 
ATOM     35  C   UNL     1       5.869  10.193   4.685  1.00  0.00     0.014 A 
ATOM     36  C   UNL     1       7.852   9.634   3.419  1.00  0.00     0.014 A 
ATOM     37  C   UNL     1       6.671  10.589   5.764  1.00  0.00     0.010 A 
ATOM     38  C   UNL     1       8.650   9.997   4.516  1.00  0.00     0.010 A 
ATOM     39  C   UNL     1       8.072  10.487   5.700  1.00  0.00    -0.014 A 
BRANCH  39  40
ATOM     40  C   UNL     1       8.917  10.916   6.858  1.00  0.00     0.031 A 
ATOM     41  C   UNL     1       9.829  12.113   6.743  1.00  0.00     0.074 A 
ATOM     42  C   UNL     1       8.874  10.232   8.021  1.00  0.00     0.049 A 
ATOM     43  N   UNL     1      10.621  12.643   7.643  1.00  0.00    -0.248 NA
ATOM     44  C   UNL     1       9.870  12.794   5.440  1.00  0.00     0.031 C 
ATOM     45  C   UNL     1       8.067   9.035   8.265  1.00  0.00     0.029 A 
ATOM     46  N   UNL     1       9.521  10.441   9.217  1.00  0.00    -0.354 N 
ATOM     47  C   UNL     1      11.255  13.712   7.017  1.00  0.00     0.074 A 
ATOM     48  C   UNL     1      10.796  13.721   5.644  1.00  0.00     0.031 C 
ATOM     49  C   UNL     1       8.249   8.632   9.534  1.00  0.00     0.029 A 
ATOM     50  C   UNL     1       9.205   9.520  10.190  1.00  0.00     0.049 A 
ATOM     51  H   UNL     1      10.152  11.183   9.363  1.00  0.00     0.167 HD
ATOM     52  C   UNL     1      12.119  14.618   7.538  1.00  0.00     0.037 A 
ATOM     53  C   UNL     1       9.633   9.399  11.464  1.00  0.00     0.037 A 
ATOM     54  C   UNL     1      12.562  14.623   8.910  1.00  0.00     0.049 A 
ATOM     55  C   UNL     1      10.601  10.412  12.020  1.00  0.00     0.074 A 
ATOM     56  C   UNL     1      13.395  15.531   9.542  1.00  0.00     0.029 A 
ATOM     57  N   UNL     1      12.216  13.674   9.861  1.00  0.00    -0.354 N 
ATOM     58  N   UNL     1      11.134  11.455  11.429  1.00  0.00    -0.248 NA
ATOM     59  C   UNL     1      11.018  10.239  13.420  1.00  0.00     0.031 C 
ATOM     60  C   UNL     1      13.591  15.105  10.860  1.00  0.00     0.029 A 
ATOM     61  C   UNL     1      12.836  13.962  11.066  1.00  0.00     0.049 A 
ATOM     62  H   UNL     1      11.617  12.909   9.703  1.00  0.00     0.167 HD
ATOM     63  C   UNL     1      11.925  12.077  12.391  1.00  0.00     0.074 A 
ATOM     64  C   UNL     1      11.790  11.302  13.606  1.00  0.00     0.031 C 
ATOM     65  C   UNL     1      12.691  13.190  12.276  1.00  0.00     0.037 A 
BRANCH  52  66
ATOM     66  C   UNL     1      12.646  15.692   6.621  1.00  0.00     0.058 A 
ATOM     67  C   UNL     1      11.821  16.720   6.138  1.00  0.00     0.135 A 
ATOM     68  C   UNL     1      14.002  15.718   6.253  1.00  0.00     0.135 A 
ATOM     69  F   UNL     1      10.515  16.741   6.448  1.00  0.00    -0.206 F 
ATOM     70  C   UNL     1      12.312  17.715   5.297  1.00  0.00     0.059 A 
ATOM     71  C   UNL     1      14.522  16.721   5.438  1.00  0.00     0.059 A 
ATOM     72  F   UNL     1      14.840  14.765   6.690  1.00  0.00    -0.206 F 
ATOM     73  C   UNL     1      13.664  17.706   4.951  1.00  0.00     0.060 A 
BRANCH  73  74
ATOM     74  S   UNL     1      14.282  19.004   3.859  1.00  0.00     0.124 S 
ATOM     75  O   UNL     1      13.694  18.613   2.581  1.00  0.00    -0.237 OA
ATOM     76  O   UNL     1      13.731  20.211   4.466  1.00  0.00    -0.237 OA
ATOM     77  O   UNL     1      15.732  18.865   3.951  1.00  0.00    -0.744 OA
ENDBRANCH  73  74
ENDBRANCH  52  66
BRANCH  53  78
ATOM     78  C   UNL     1       9.134   8.284  12.317  1.00  0.00     0.058 A 
ATOM     79  C   UNL     1       8.280   8.526  13.404  1.00  0.00     0.135 A 
ATOM     80  C   UNL     1       9.501   6.953  12.062  1.00  0.00     0.135 A 
ATOM     81  F   UNL     1       7.909   9.781  13.698  1.00  0.00    -0.206 F 
ATOM     82  C   UNL     1       7.821   7.494  14.217  1.00  0.00     0.059 A 
ATOM     83  C   UNL     1       9.032   5.900  12.843  1.00  0.00     0.059 A 
ATOM     84  F   UNL     1      10.306   6.664  11.028  1.00  0.00    -0.206 F 
ATOM     85  C   UNL     1       8.200   6.182  13.925  1.00  0.00     0.060 A 
BRANCH  85  86
ATOM     86  S   UNL     1       7.557   4.845  14.956  1.00  0.00     0.124 S 
ATOM     87  O   UNL     1       8.310   5.036  16.190  1.00  0.00    -0.237 OA
ATOM     88  O   UNL     1       6.135   5.164  15.019  1.00  0.00    -0.237 OA
ATOM     89  O   UNL     1       7.889   3.645  14.193  1.00  0.00    -0.744 OA
ENDBRANCH  85  86
ENDBRANCH  53  78
BRANCH  65  90
ATOM     90  C   UNL     1      13.421  13.666  13.504  1.00  0.00     0.058 A 
ATOM     91  C   UNL     1      14.531  12.978  14.020  1.00  0.00     0.135 A 
ATOM     92  C   UNL     1      13.038  14.858  14.141  1.00  0.00     0.135 A 
ATOM     93  F   UNL     1      14.938  11.830  13.454  1.00  0.00    -0.206 F 
ATOM     94  C   UNL     1      15.220  13.442  15.136  1.00  0.00     0.059 A 
ATOM     95  C   UNL     1      13.730  15.356  15.241  1.00  0.00     0.059 A 
ATOM     96  F   UNL     1      11.990  15.562  13.684  1.00  0.00    -0.206 F 
ATOM     97  C   UNL     1      14.814  14.634  15.739  1.00  0.00     0.060 A 
BRANCH  97  98
ATOM     98  S   UNL     1      15.738  15.242  17.166  1.00  0.00     0.124 S 
ATOM     99  O   UNL     1      15.315  14.313  18.208  1.00  0.00    -0.237 OA
ATOM    100  O   UNL     1      17.122  15.110  16.721  1.00  0.00    -0.237 OA
ATOM    101  O   UNL     1      15.264  16.615  17.319  1.00  0.00    -0.744 OA
ENDBRANCH  97  98
ENDBRANCH  65  90
ENDBRANCH  39  40
ENDBRANCH  31  34
ENDBRANCH  29  30
ENDBRANCH  28  29
ENDBRANCH   1  28
TORSDOF 17
