REMARK SMILES O=C(NCCCNC(=O)[C@@H]1CCCC[C@@H]1C(=O)Nc1cccc(C(F)(F)F)c1)c1ccc(-c2c3nc(c(-c4c(F)cc(S(=O)(=O)[O-])cc4F)c4ccc([nH]4)c(-c4c(F)cc(S(=O)(=O)[O-])cc4F)c4nc(c(-c5c(F)cc(S(=O)(=O)[O-])cc5F)c5ccc2[nH]5)C=C4)C=C3)cc1
REMARK SMILES IDX 5 1 4 2 3 3 1 4 2 5 29 7 30 8 94 9 31 10 93 11 32 12 33 13
REMARK SMILES IDX 34 14 87 15 35 16 92 17 86 18 88 19 36 20 91 21 85 22 84 23
REMARK SMILES IDX 37 25 71 26 50 27 70 28 51 29 54 30 69 31 89 32 52 33 53 34
REMARK SMILES IDX 68 36 90 37 55 38 38 39 39 40 48 41 40 42 41 43 47 44 49 45
REMARK SMILES IDX 42 46 43 47 44 48 45 49 46 50 72 51 73 52 82 53 74 54 75 55
REMARK SMILES IDX 81 56 83 57 76 58 77 59 78 60 79 61 80 62 56 63 57 64 66 65
REMARK SMILES IDX 58 66 59 67 65 68 67 69 60 70 61 71 62 72 63 73 64 74 6 75
REMARK SMILES IDX 7 76 8 77 9 79 10 80 11 81 15 82 12 83 14 84 13 85 16 86
REMARK SMILES IDX 17 87 18 88 19 90 20 91 28 92 21 93 23 94 22 95 24 96 25 97
REMARK SMILES IDX 26 98 27 99
REMARK H PARENT 3 6 88 24 54 35 7 78 18 89
REMARK Flexibility Score: inf
ROOT
ATOM      1  C   UNL     1       4.500   0.012  -2.633  1.00  0.00     0.042 C 
ENDROOT
BRANCH   1   2
ATOM      2  C   UNL     1       4.365   0.744  -1.305  1.00  0.00     0.118 C 
BRANCH   2   3
ATOM      3  N   UNL     1       2.971   0.813  -0.867  1.00  0.00    -0.352 N 
ATOM      4  O   UNL     1       1.099   0.111   0.169  1.00  0.00    -0.269 OA
ATOM      5  C   UNL     1       2.329   0.137   0.140  1.00  0.00     0.251 C 
ATOM      6  H   UNL     1       2.406   1.442  -1.373  1.00  0.00     0.163 HD
BRANCH   5   7
ATOM      7  C   UNL     1       3.115  -0.550   1.185  1.00  0.00     0.039 A 
ATOM      8  C   UNL     1       4.282   0.037   1.671  1.00  0.00     0.014 A 
ATOM      9  C   UNL     1       2.674  -1.768   1.713  1.00  0.00     0.014 A 
ATOM     10  C   UNL     1       5.097  -0.665   2.542  1.00  0.00     0.010 A 
ATOM     11  C   UNL     1       3.433  -2.415   2.694  1.00  0.00     0.010 A 
ATOM     12  C   UNL     1       4.664  -1.879   3.099  1.00  0.00    -0.014 A 
BRANCH  12  13
ATOM     13  C   UNL     1       5.494  -2.487   4.170  1.00  0.00     0.031 A 
ATOM     14  C   UNL     1       6.126  -3.839   4.005  1.00  0.00     0.074 A 
ATOM     15  C   UNL     1       5.730  -1.749   5.275  1.00  0.00     0.049 A 
ATOM     16  N   UNL     1       6.930  -4.470   4.822  1.00  0.00    -0.248 NA
ATOM     17  C   UNL     1       5.813  -4.586   2.777  1.00  0.00     0.031 C 
ATOM     18  C   UNL     1       5.144  -0.430   5.545  1.00  0.00     0.029 A 
ATOM     19  N   UNL     1       6.545  -1.971   6.353  1.00  0.00    -0.354 N 
ATOM     20  C   UNL     1       7.218  -5.686   4.213  1.00  0.00     0.074 A 
ATOM     21  C   UNL     1       6.469  -5.722   2.975  1.00  0.00     0.031 C 
ATOM     22  C   UNL     1       5.670   0.066   6.672  1.00  0.00     0.029 A 
ATOM     23  C   UNL     1       6.564  -0.928   7.249  1.00  0.00     0.049 A 
ATOM     24  H   UNL     1       7.067  -2.797   6.474  1.00  0.00     0.167 HD
ATOM     25  C   UNL     1       8.043  -6.671   4.645  1.00  0.00     0.037 A 
ATOM     26  C   UNL     1       7.210  -0.791   8.421  1.00  0.00     0.037 A 
ATOM     27  C   UNL     1       8.783  -6.616   5.882  1.00  0.00     0.049 A 
ATOM     28  C   UNL     1       8.101  -1.907   8.882  1.00  0.00     0.074 A 
ATOM     29  C   UNL     1       9.643  -7.561   6.414  1.00  0.00     0.029 A 
ATOM     30  N   UNL     1       8.755  -5.557   6.780  1.00  0.00    -0.354 N 
ATOM     31  N   UNL     1       8.368  -3.045   8.285  1.00  0.00    -0.248 NA
ATOM     32  C   UNL     1       8.777  -1.725  10.171  1.00  0.00     0.031 C 
ATOM     33  C   UNL     1      10.102  -7.092   7.650  1.00  0.00     0.029 A 
ATOM     34  C   UNL     1       9.571  -5.831   7.866  1.00  0.00     0.049 A 
ATOM     35  H   UNL     1       8.231  -4.731   6.662  1.00  0.00     0.167 HD
ATOM     36  C   UNL     1       9.251  -3.712   9.123  1.00  0.00     0.074 A 
ATOM     37  C   UNL     1       9.498  -2.834  10.250  1.00  0.00     0.031 C 
ATOM     38  C   UNL     1       9.800  -4.944   8.980  1.00  0.00     0.037 A 
BRANCH  25  39
ATOM     39  C   UNL     1       8.189  -7.896   3.781  1.00  0.00     0.058 A 
ATOM     40  C   UNL     1       8.882  -7.857   2.560  1.00  0.00     0.135 A 
ATOM     41  C   UNL     1       7.684  -9.137   4.204  1.00  0.00     0.135 A 
ATOM     42  F   UNL     1       9.373  -6.696   2.098  1.00  0.00    -0.206 F 
ATOM     43  C   UNL     1       9.054  -8.998   1.782  1.00  0.00     0.059 A 
ATOM     44  C   UNL     1       7.867 -10.297   3.455  1.00  0.00     0.059 A 
ATOM     45  F   UNL     1       7.012  -9.234   5.362  1.00  0.00    -0.206 F 
ATOM     46  C   UNL     1       8.546 -10.215   2.240  1.00  0.00     0.060 A 
BRANCH  46  47
ATOM     47  S   UNL     1       8.799 -11.689   1.228  1.00  0.00     0.124 S 
ATOM     48  O   UNL     1       7.905 -11.428   0.104  1.00  0.00    -0.237 OA
ATOM     49  O   UNL     1      10.226 -11.621   0.930  1.00  0.00    -0.237 OA
ATOM     50  O   UNL     1       8.397 -12.781   2.108  1.00  0.00    -0.744 OA
ENDBRANCH  46  47
ENDBRANCH  25  39
BRANCH  26  51
ATOM     51  C   UNL     1       7.002   0.430   9.245  1.00  0.00     0.058 A 
ATOM     52  C   UNL     1       8.038   1.346   9.473  1.00  0.00     0.135 A 
ATOM     53  C   UNL     1       5.748   0.707   9.813  1.00  0.00     0.135 A 
ATOM     54  F   UNL     1       9.255   1.128   8.952  1.00  0.00    -0.206 F 
ATOM     55  C   UNL     1       7.847   2.479  10.258  1.00  0.00     0.059 A 
ATOM     56  C   UNL     1       5.522   1.850  10.570  1.00  0.00     0.059 A 
ATOM     57  F   UNL     1       4.715  -0.126   9.606  1.00  0.00    -0.206 F 
ATOM     58  C   UNL     1       6.584   2.721  10.803  1.00  0.00     0.060 A 
BRANCH  58  59
ATOM     59  S   UNL     1       6.337   4.204  11.802  1.00  0.00     0.124 S 
ATOM     60  O   UNL     1       7.020   3.840  13.037  1.00  0.00    -0.237 OA
ATOM     61  O   UNL     1       6.983   5.232  10.992  1.00  0.00    -0.237 OA
ATOM     62  O   UNL     1       4.883   4.309  11.891  1.00  0.00    -0.744 OA
ENDBRANCH  58  59
ENDBRANCH  26  51
BRANCH  38  63
ATOM     63  C   UNL     1      10.741  -5.394  10.063  1.00  0.00     0.058 A 
ATOM     64  C   UNL     1      10.283  -5.728  11.347  1.00  0.00     0.135 A 
ATOM     65  C   UNL     1      12.118  -5.500   9.809  1.00  0.00     0.135 A 
ATOM     66  F   UNL     1       8.977  -5.636  11.644  1.00  0.00    -0.206 F 
ATOM     67  C   UNL     1      11.161  -6.110  12.355  1.00  0.00     0.059 A 
ATOM     68  C   UNL     1      13.011  -5.912  10.792  1.00  0.00     0.059 A 
ATOM     69  F   UNL     1      12.607  -5.203   8.595  1.00  0.00    -0.206 F 
ATOM     70  C   UNL     1      12.525  -6.196  12.068  1.00  0.00     0.060 A 
BRANCH  70  71
ATOM     71  S   UNL     1      13.655  -6.697  13.383  1.00  0.00     0.124 S 
ATOM     72  O   UNL     1      13.692  -5.497  14.211  1.00  0.00    -0.237 OA
ATOM     73  O   UNL     1      12.969  -7.848  13.963  1.00  0.00    -0.237 OA
ATOM     74  O   UNL     1      14.890  -7.007  12.669  1.00  0.00    -0.744 OA
ENDBRANCH  70  71
ENDBRANCH  38  63
ENDBRANCH  12  13
ENDBRANCH   5   7
ENDBRANCH   2   3
ENDBRANCH   1   2
BRANCH   1  75
ATOM     75  C   UNL     1       3.891   0.800  -3.784  1.00  0.00     0.117 C 
BRANCH  75  76
ATOM     76  N   UNL     1       4.741   1.900  -4.193  1.00  0.00    -0.356 N 
ATOM     77  C   UNL     1       5.751   2.018  -5.082  1.00  0.00     0.223 C 
ATOM     78  H   UNL     1       4.540   2.741  -3.723  1.00  0.00     0.163 HD
ATOM     79  O   UNL     1       6.338   3.110  -5.069  1.00  0.00    -0.275 OA
BRANCH  77  80
ATOM     80  C   UNL     1       6.159   0.972  -6.131  1.00  0.00     0.091 C 
ATOM     81  C   UNL     1       5.534  -0.420  -6.113  1.00  0.00     0.014 C 
ATOM     82  C   UNL     1       7.708   0.946  -6.216  1.00  0.00     0.091 C 
ATOM     83  C   UNL     1       6.097  -1.349  -7.181  1.00  0.00     0.001 C 
ATOM     84  C   UNL     1       8.247  -0.077  -7.229  1.00  0.00     0.014 C 
ATOM     85  C   UNL     1       7.608  -1.452  -7.087  1.00  0.00     0.001 C 
BRANCH  82  86
ATOM     86  C   UNL     1       8.372   0.709  -4.851  1.00  0.00     0.228 C 
ATOM     87  O   UNL     1       7.845  -0.020  -4.007  1.00  0.00    -0.274 OA
ATOM     88  N   UNL     1       9.650   1.149  -4.621  1.00  0.00    -0.326 N 
ATOM     89  H   UNL     1      10.120   0.688  -3.888  1.00  0.00     0.169 HD
BRANCH  88  90
ATOM     90  C   UNL     1      10.396   2.149  -5.260  1.00  0.00     0.041 A 
ATOM     91  C   UNL     1      11.783   1.997  -5.322  1.00  0.00     0.026 A 
ATOM     92  C   UNL     1       9.816   3.304  -5.787  1.00  0.00     0.039 A 
ATOM     93  C   UNL     1      12.563   2.933  -6.004  1.00  0.00     0.003 A 
ATOM     94  C   UNL     1      10.582   4.246  -6.489  1.00  0.00     0.058 A 
ATOM     95  C   UNL     1      11.963   4.042  -6.602  1.00  0.00     0.013 A 
BRANCH  94  96
ATOM     96  C   UNL     1       9.931   5.450  -7.123  1.00  0.00     0.416 C 
ATOM     97  F   UNL     1      10.428   6.626  -6.651  1.00  0.00    -0.166 F 
ATOM     98  F   UNL     1      10.124   5.483  -8.473  1.00  0.00    -0.166 F 
ATOM     99  F   UNL     1       8.584   5.513  -6.945  1.00  0.00    -0.166 F 
ENDBRANCH  94  96
ENDBRANCH  88  90
ENDBRANCH  82  86
ENDBRANCH  77  80
ENDBRANCH  75  76
ENDBRANCH   1  75
TORSDOF 16
