REMARK SMILES O=C(NCCCNC(=O)[C@@H]1O[C@H](OC(=O)c2cccnc2)[C@@H](O)[C@H](O)[C@H]1O)c1ccc(-c2c3nc(c(-c4c(F)cc(S(=O)(=O)[O-])cc4F)c4ccc([nH]4)c(-c4c(F)cc(S(=O)(=O)[O-])cc4F)c4nc(c(-c5c(F)cc(S(=O)(=O)[O-])cc5F)c5ccc2[nH]5)C=C4)C=C3)cc1
REMARK SMILES IDX 5 1 4 2 3 3 1 4 2 5 28 7 29 8 93 9 30 10 92 11 31 12 32 13
REMARK SMILES IDX 33 14 86 15 34 16 91 17 85 18 87 19 35 20 90 21 84 22 83 23
REMARK SMILES IDX 36 25 70 26 49 27 69 28 50 29 53 30 68 31 88 32 51 33 52 34
REMARK SMILES IDX 67 36 89 37 54 38 37 39 38 40 47 41 39 42 40 43 46 44 48 45
REMARK SMILES IDX 41 46 42 47 43 48 44 49 45 50 71 51 72 52 81 53 73 54 74 55
REMARK SMILES IDX 80 56 82 57 75 58 76 59 77 60 78 61 79 62 55 63 56 64 65 65
REMARK SMILES IDX 57 66 58 67 64 68 66 69 59 70 60 71 61 72 62 73 63 74 6 75
REMARK SMILES IDX 7 76 8 77 9 79 10 80 11 81 26 82 12 83 24 84 22 85 27 86
REMARK SMILES IDX 13 88 14 89 15 90 16 91 17 92 21 93 18 94 20 95 19 96 25 97
REMARK SMILES IDX 23 99
REMARK H PARENT 3 6 87 24 53 35 7 78 27 87 25 98 23 100
REMARK Flexibility Score: inf
ROOT
ATOM      1  C   UNL     1       2.779  -0.992   3.556  1.00  0.00     0.042 C 
ENDROOT
BRANCH   1   2
ATOM      2  C   UNL     1       1.497  -0.390   4.109  1.00  0.00     0.118 C 
BRANCH   2   3
ATOM      3  N   UNL     1       1.358   1.027   3.804  1.00  0.00    -0.352 N 
ATOM      4  O   UNL     1       0.737   2.866   2.671  1.00  0.00    -0.269 OA
ATOM      5  C   UNL     1       0.554   1.672   2.895  1.00  0.00     0.251 C 
ATOM      6  H   UNL     1       1.936   1.621   4.336  1.00  0.00     0.163 HD
BRANCH   5   7
ATOM      7  C   UNL     1      -0.506   0.938   2.169  1.00  0.00     0.039 A 
ATOM      8  C   UNL     1      -1.315   0.004   2.820  1.00  0.00     0.014 A 
ATOM      9  C   UNL     1      -0.719   1.218   0.816  1.00  0.00     0.014 A 
ATOM     10  C   UNL     1      -2.216  -0.764   2.091  1.00  0.00     0.010 A 
ATOM     11  C   UNL     1      -1.697   0.517   0.106  1.00  0.00     0.010 A 
ATOM     12  C   UNL     1      -2.431  -0.503   0.730  1.00  0.00    -0.014 A 
BRANCH  12  13
ATOM     13  C   UNL     1      -3.473  -1.257  -0.010  1.00  0.00     0.031 A 
ATOM     14  C   UNL     1      -3.112  -2.133  -1.175  1.00  0.00     0.074 A 
ATOM     15  C   UNL     1      -4.760  -1.128   0.369  1.00  0.00     0.049 A 
ATOM     16  N   UNL     1      -3.900  -2.804  -1.976  1.00  0.00    -0.248 NA
ATOM     17  C   UNL     1      -1.682  -2.266  -1.490  1.00  0.00     0.031 C 
ATOM     18  C   UNL     1      -5.230  -0.294   1.478  1.00  0.00     0.029 A 
ATOM     19  N   UNL     1      -5.906  -1.685  -0.136  1.00  0.00    -0.354 N 
ATOM     20  C   UNL     1      -3.068  -3.411  -2.909  1.00  0.00     0.074 A 
ATOM     21  C   UNL     1      -1.713  -3.017  -2.582  1.00  0.00     0.031 C 
ATOM     22  C   UNL     1      -6.561  -0.405   1.579  1.00  0.00     0.029 A 
ATOM     23  C   UNL     1      -7.046  -1.264   0.505  1.00  0.00     0.049 A 
ATOM     24  H   UNL     1      -5.912  -2.325  -0.884  1.00  0.00     0.167 HD
ATOM     25  C   UNL     1      -3.406  -4.221  -3.941  1.00  0.00     0.037 A 
ATOM     26  C   UNL     1      -8.343  -1.507   0.240  1.00  0.00     0.037 A 
ATOM     27  C   UNL     1      -4.757  -4.619  -4.244  1.00  0.00     0.049 A 
ATOM     28  C   UNL     1      -8.698  -2.400  -0.910  1.00  0.00     0.074 A 
ATOM     29  C   UNL     1      -5.201  -5.476  -5.236  1.00  0.00     0.029 A 
ATOM     30  N   UNL     1      -5.884  -4.179  -3.563  1.00  0.00    -0.354 N 
ATOM     31  N   UNL     1      -7.896  -2.997  -1.760  1.00  0.00    -0.248 NA
ATOM     32  C   UNL     1     -10.124  -2.654  -1.143  1.00  0.00     0.031 C 
ATOM     33  C   UNL     1      -6.598  -5.522  -5.180  1.00  0.00     0.029 A 
ATOM     34  C   UNL     1      -7.024  -4.727  -4.127  1.00  0.00     0.049 A 
ATOM     35  H   UNL     1      -5.875  -3.566  -2.792  1.00  0.00     0.167 HD
ATOM     36  C   UNL     1      -8.720  -3.707  -2.623  1.00  0.00     0.074 A 
ATOM     37  C   UNL     1     -10.082  -3.472  -2.187  1.00  0.00     0.031 C 
ATOM     38  C   UNL     1      -8.374  -4.485  -3.678  1.00  0.00     0.037 A 
BRANCH  25  39
ATOM     39  C   UNL     1      -2.297  -4.702  -4.836  1.00  0.00     0.058 A 
ATOM     40  C   UNL     1      -1.363  -5.660  -4.412  1.00  0.00     0.135 A 
ATOM     41  C   UNL     1      -2.165  -4.192  -6.138  1.00  0.00     0.135 A 
ATOM     42  F   UNL     1      -1.435  -6.173  -3.173  1.00  0.00    -0.206 F 
ATOM     43  C   UNL     1      -0.311  -6.061  -5.229  1.00  0.00     0.059 A 
ATOM     44  C   UNL     1      -1.135  -4.597  -6.982  1.00  0.00     0.059 A 
ATOM     45  F   UNL     1      -3.034  -3.277  -6.597  1.00  0.00    -0.206 F 
ATOM     46  C   UNL     1      -0.198  -5.514  -6.509  1.00  0.00     0.060 A 
BRANCH  46  47
ATOM     47  S   UNL     1       1.200  -6.004  -7.542  1.00  0.00     0.124 S 
ATOM     48  O   UNL     1       2.285  -5.234  -6.943  1.00  0.00    -0.237 OA
ATOM     49  O   UNL     1       1.258  -7.447  -7.331  1.00  0.00    -0.237 OA
ATOM     50  O   UNL     1       0.796  -5.586  -8.880  1.00  0.00    -0.744 OA
ENDBRANCH  46  47
ENDBRANCH  25  39
BRANCH  26  51
ATOM     51  C   UNL     1      -9.378  -0.864   1.087  1.00  0.00     0.058 A 
ATOM     52  C   UNL     1     -10.076  -1.595   2.057  1.00  0.00     0.135 A 
ATOM     53  C   UNL     1      -9.606   0.521   1.016  1.00  0.00     0.135 A 
ATOM     54  F   UNL     1      -9.892  -2.919   2.161  1.00  0.00    -0.206 F 
ATOM     55  C   UNL     1     -10.954  -0.974   2.941  1.00  0.00     0.059 A 
ATOM     56  C   UNL     1     -10.461   1.167   1.901  1.00  0.00     0.059 A 
ATOM     57  F   UNL     1      -8.944   1.264   0.116  1.00  0.00    -0.206 F 
ATOM     58  C   UNL     1     -11.129   0.410   2.863  1.00  0.00     0.060 A 
BRANCH  58  59
ATOM     59  S   UNL     1     -12.180   1.222   4.087  1.00  0.00     0.124 S 
ATOM     60  O   UNL     1     -13.512   0.875   3.606  1.00  0.00    -0.237 OA
ATOM     61  O   UNL     1     -11.761   0.578   5.328  1.00  0.00    -0.237 OA
ATOM     62  O   UNL     1     -11.809   2.629   3.966  1.00  0.00    -0.744 OA
ENDBRANCH  58  59
ENDBRANCH  26  51
BRANCH  38  63
ATOM     63  C   UNL     1      -9.482  -5.162  -4.431  1.00  0.00     0.058 A 
ATOM     64  C   UNL     1     -10.278  -4.463  -5.350  1.00  0.00     0.135 A 
ATOM     65  C   UNL     1      -9.689  -6.544  -4.295  1.00  0.00     0.135 A 
ATOM     66  F   UNL     1     -10.125  -3.139  -5.507  1.00  0.00    -0.206 F 
ATOM     67  C   UNL     1     -11.241  -5.113  -6.114  1.00  0.00     0.059 A 
ATOM     68  C   UNL     1     -10.633  -7.217  -5.062  1.00  0.00     0.059 A 
ATOM     69  F   UNL     1      -8.949  -7.256  -3.430  1.00  0.00    -0.206 F 
ATOM     70  C   UNL     1     -11.406  -6.492  -5.969  1.00  0.00     0.060 A 
BRANCH  70  71
ATOM     71  S   UNL     1     -12.605  -7.338  -7.021  1.00  0.00     0.124 S 
ATOM     72  O   UNL     1     -13.866  -6.961  -6.392  1.00  0.00    -0.237 OA
ATOM     73  O   UNL     1     -12.347  -6.745  -8.330  1.00  0.00    -0.237 OA
ATOM     74  O   UNL     1     -12.234  -8.745  -6.894  1.00  0.00    -0.744 OA
ENDBRANCH  70  71
ENDBRANCH  38  63
ENDBRANCH  12  13
ENDBRANCH   5   7
ENDBRANCH   2   3
ENDBRANCH   1   2
BRANCH   1  75
ATOM     75  C   UNL     1       4.048  -0.414   4.159  1.00  0.00     0.117 C 
BRANCH  75  76
ATOM     76  N   UNL     1       4.128  -0.596   5.599  1.00  0.00    -0.354 N 
ATOM     77  C   UNL     1       5.183  -1.027   6.354  1.00  0.00     0.252 C 
ATOM     78  H   UNL     1       3.309  -0.378   6.100  1.00  0.00     0.163 HD
ATOM     79  O   UNL     1       5.065  -0.966   7.580  1.00  0.00    -0.272 OA
BRANCH  77  80
ATOM     80  C   UNL     1       6.430  -1.604   5.664  1.00  0.00     0.242 C 
ATOM     81  O   UNL     1       7.116  -2.454   6.593  1.00  0.00    -0.324 OA
ATOM     82  C   UNL     1       7.372  -0.479   5.208  1.00  0.00     0.184 C 
ATOM     83  C   UNL     1       8.284  -3.083   6.079  1.00  0.00     0.343 C 
ATOM     84  C   UNL     1       8.559  -1.129   4.499  1.00  0.00     0.181 C 
ATOM     85  C   UNL     1       9.283  -2.119   5.399  1.00  0.00     0.214 C 
BRANCH  82  86
ATOM     86  O   UNL     1       6.784   0.438   4.283  1.00  0.00    -0.387 OA
ATOM     87  H   UNL     1       6.531  -0.035   3.475  1.00  0.00     0.211 HD
ENDBRANCH  82  86
BRANCH  83  88
ATOM     88  O   UNL     1       8.955  -3.837   7.112  1.00  0.00    -0.429 OA
BRANCH  88  89
ATOM     89  C   UNL     1       9.359  -3.137   8.196  1.00  0.00     0.342 C 
ATOM     90  O   UNL     1       9.193  -1.945   8.417  1.00  0.00    -0.246 OA
BRANCH  89  91
ATOM     91  C   UNL     1      10.117  -4.008   9.103  1.00  0.00     0.078 A 
ATOM     92  C   UNL     1      10.947  -5.031   8.640  1.00  0.00     0.019 A 
ATOM     93  C   UNL     1      10.078  -3.756  10.467  1.00  0.00     0.126 A 
ATOM     94  C   UNL     1      11.699  -5.760   9.557  1.00  0.00     0.021 A 
ATOM     95  N   UNL     1      10.794  -4.458  11.381  1.00  0.00    -0.264 NA
ATOM     96  C   UNL     1      11.588  -5.442  10.902  1.00  0.00     0.111 A 
ENDBRANCH  89  91
ENDBRANCH  88  89
ENDBRANCH  83  88
BRANCH  84  97
ATOM     97  O   UNL     1       9.478  -0.113   4.051  1.00  0.00    -0.387 OA
ATOM     98  H   UNL     1       9.819   0.375   4.817  1.00  0.00     0.211 HD
ENDBRANCH  84  97
BRANCH  85  99
ATOM     99  O   UNL     1      10.243  -2.851   4.617  1.00  0.00    -0.384 OA
ATOM    100  H   UNL     1       9.785  -3.338   3.914  1.00  0.00     0.211 HD
ENDBRANCH  85  99
ENDBRANCH  77  80
ENDBRANCH  75  76
ENDBRANCH   1  75
TORSDOF 19
