REMARK SMILES O=C(Cc1ccccc1-c1ccn(C(F)F)c(=O)c1)NCCCNC(=O)c1ccc(-c2c3nc(c(-c4c(F)cc(S(=O)(=O)[O-])cc4F)c4ccc([nH]4)c(-c4c(F)cc(S(=O)(=O)[O-])cc4F)c4nc(c(-c5c(F)cc(S(=O)(=O)[O-])cc5F)c5ccc2[nH]5)C=C4)C=C3)cc1
REMARK SMILES IDX 22 1 21 2 20 3 1 4 2 5 3 7 4 8 5 9 9 10 6 11 8 12 7 13 10 14
REMARK SMILES IDX 11 15 19 16 12 17 17 18 13 19 18 20 14 21 15 22 16 23 23 24
REMARK SMILES IDX 24 25 25 26 26 28 27 29 28 30 92 31 29 32 91 33 30 34 31 35
REMARK SMILES IDX 32 36 85 37 33 38 90 39 84 40 86 41 34 42 89 43 83 44 82 45
REMARK SMILES IDX 35 47 69 48 48 49 68 50 49 51 52 52 67 53 87 54 50 55 51 56
REMARK SMILES IDX 66 58 88 59 53 60 36 61 37 62 46 63 38 64 39 65 45 66 47 67
REMARK SMILES IDX 40 68 41 69 42 70 43 71 44 72 70 73 71 74 80 75 72 76 73 77
REMARK SMILES IDX 79 78 81 79 74 80 75 81 76 82 77 83 78 84 54 85 55 86 64 87
REMARK SMILES IDX 56 88 57 89 63 90 65 91 58 92 59 93 60 94 61 95 62 96
REMARK H PARENT 20 6 24 27 86 46 52 57
REMARK Flexibility Score: inf
ROOT
ATOM      1  C   UNL     1       2.501   1.134  -3.334  1.00  0.00     0.042 C 
ENDROOT
BRANCH   1   2
ATOM      2  C   UNL     1       2.185  -0.129  -2.540  1.00  0.00     0.117 C 
BRANCH   2   3
ATOM      3  N   UNL     1       2.819  -0.125  -1.237  1.00  0.00    -0.356 N 
ATOM      4  O   UNL     1       0.879  -0.129   0.000  1.00  0.00    -0.275 OA
ATOM      5  C   UNL     1       2.105  -0.117  -0.059  1.00  0.00     0.224 C 
ATOM      6  H   UNL     1       3.802  -0.128  -1.192  1.00  0.00     0.163 HD
BRANCH   5   7
ATOM      7  C   UNL     1       2.968  -0.031   1.186  1.00  0.00     0.136 C 
BRANCH   7   8
ATOM      8  C   UNL     1       3.921  -1.198   1.367  1.00  0.00    -0.031 A 
ATOM      9  C   UNL     1       3.407  -2.506   1.280  1.00  0.00     0.005 A 
ATOM     10  C   UNL     1       5.295  -1.025   1.653  1.00  0.00    -0.014 A 
ATOM     11  C   UNL     1       4.233  -3.617   1.444  1.00  0.00     0.000 A 
ATOM     12  C   UNL     1       6.111  -2.156   1.831  1.00  0.00     0.009 A 
ATOM     13  C   UNL     1       5.584  -3.443   1.721  1.00  0.00     0.001 A 
BRANCH  10  14
ATOM     14  C   UNL     1       5.915   0.315   1.739  1.00  0.00    -0.011 A 
ATOM     15  C   UNL     1       5.597   1.273   2.781  1.00  0.00     0.027 A 
ATOM     16  C   UNL     1       6.760   0.675   0.757  1.00  0.00     0.080 A 
ATOM     17  C   UNL     1       6.060   2.527   2.714  1.00  0.00     0.095 A 
ATOM     18  C   UNL     1       7.321   2.052   0.696  1.00  0.00     0.255 A 
ATOM     19  N   UNL     1       6.887   2.924   1.680  1.00  0.00    -0.258 N 
ATOM     20  O   UNL     1       8.085   2.324  -0.224  1.00  0.00    -0.269 OA
BRANCH  19  21
ATOM     21  C   UNL     1       7.339   4.290   1.581  1.00  0.00     0.451 C 
ATOM     22  F   UNL     1       8.687   4.363   1.680  1.00  0.00    -0.185 F 
ATOM     23  F   UNL     1       6.967   4.833   0.398  1.00  0.00    -0.185 F 
ENDBRANCH  19  21
ENDBRANCH  10  14
ENDBRANCH   7   8
ENDBRANCH   5   7
ENDBRANCH   2   3
ENDBRANCH   1   2
BRANCH   1  24
ATOM     24  C   UNL     1       3.981   1.323  -3.655  1.00  0.00     0.118 C 
BRANCH  24  25
ATOM     25  N   UNL     1       4.516   0.282  -4.523  1.00  0.00    -0.352 N 
ATOM     26  C   UNL     1       5.181   0.395  -5.721  1.00  0.00     0.251 C 
ATOM     27  H   UNL     1       4.382  -0.639  -4.204  1.00  0.00     0.163 HD
ATOM     28  O   UNL     1       5.424  -0.614  -6.377  1.00  0.00    -0.269 OA
BRANCH  26  29
ATOM     29  C   UNL     1       5.572   1.727  -6.234  1.00  0.00     0.039 A 
ATOM     30  C   UNL     1       5.333   2.033  -7.577  1.00  0.00     0.014 A 
ATOM     31  C   UNL     1       6.167   2.674  -5.396  1.00  0.00     0.014 A 
ATOM     32  C   UNL     1       5.617   3.314  -8.060  1.00  0.00     0.010 A 
ATOM     33  C   UNL     1       6.380   3.970  -5.860  1.00  0.00     0.010 A 
ATOM     34  C   UNL     1       6.104   4.306  -7.194  1.00  0.00    -0.014 A 
BRANCH  34  35
ATOM     35  C   UNL     1       6.335   5.703  -7.650  1.00  0.00     0.031 A 
ATOM     36  C   UNL     1       7.721   6.287  -7.602  1.00  0.00     0.074 A 
ATOM     37  C   UNL     1       5.290   6.473  -8.015  1.00  0.00     0.049 A 
ATOM     38  N   UNL     1       8.107   7.520  -7.807  1.00  0.00    -0.248 NA
ATOM     39  C   UNL     1       8.813   5.366  -7.249  1.00  0.00     0.031 C 
ATOM     40  C   UNL     1       3.894   6.036  -8.077  1.00  0.00     0.029 A 
ATOM     41  N   UNL     1       5.237   7.796  -8.382  1.00  0.00    -0.354 N 
ATOM     42  C   UNL     1       9.479   7.529  -7.583  1.00  0.00     0.074 A 
ATOM     43  C   UNL     1       9.851   6.189  -7.185  1.00  0.00     0.031 C 
ATOM     44  C   UNL     1       3.125   7.066  -8.464  1.00  0.00     0.029 A 
ATOM     45  C   UNL     1       3.962   8.250  -8.631  1.00  0.00     0.049 A 
ATOM     46  H   UNL     1       6.036   8.366  -8.458  1.00  0.00     0.167 HD
ATOM     47  C   UNL     1      10.352   8.557  -7.713  1.00  0.00     0.037 A 
ATOM     48  C   UNL     1       3.515   9.484  -8.938  1.00  0.00     0.037 A 
ATOM     49  C   UNL     1       9.979   9.883  -8.131  1.00  0.00     0.049 A 
ATOM     50  C   UNL     1       4.501  10.614  -9.064  1.00  0.00     0.074 A 
ATOM     51  C   UNL     1      10.796  10.981  -8.339  1.00  0.00     0.029 A 
ATOM     52  N   UNL     1       8.682  10.293  -8.406  1.00  0.00    -0.354 N 
ATOM     53  N   UNL     1       5.802  10.596  -8.892  1.00  0.00    -0.248 NA
ATOM     54  C   UNL     1       3.963  11.932  -9.430  1.00  0.00     0.031 C 
ATOM     55  C   UNL     1       9.989  12.066  -8.697  1.00  0.00     0.029 A 
ATOM     56  C   UNL     1       8.675  11.630  -8.766  1.00  0.00     0.049 A 
ATOM     57  H   UNL     1       7.885   9.718  -8.352  1.00  0.00     0.167 HD
ATOM     58  C   UNL     1       6.240  11.887  -9.165  1.00  0.00     0.074 A 
ATOM     59  C   UNL     1       5.068  12.661  -9.515  1.00  0.00     0.031 C 
ATOM     60  C   UNL     1       7.502  12.384  -9.134  1.00  0.00     0.037 A 
BRANCH  47  61
ATOM     61  C   UNL     1      11.799   8.288  -7.396  1.00  0.00     0.058 A 
ATOM     62  C   UNL     1      12.597   7.478  -8.219  1.00  0.00     0.135 A 
ATOM     63  C   UNL     1      12.406   8.877  -6.274  1.00  0.00     0.135 A 
ATOM     64  F   UNL     1      12.066   6.879  -9.297  1.00  0.00    -0.206 F 
ATOM     65  C   UNL     1      13.935   7.236  -7.926  1.00  0.00     0.059 A 
ATOM     66  C   UNL     1      13.751   8.673  -5.978  1.00  0.00     0.059 A 
ATOM     67  F   UNL     1      11.691   9.663  -5.453  1.00  0.00    -0.206 F 
ATOM     68  C   UNL     1      14.503   7.838  -6.803  1.00  0.00     0.060 A 
BRANCH  68  69
ATOM     69  S   UNL     1      16.244   7.521  -6.443  1.00  0.00     0.124 S 
ATOM     70  O   UNL     1      16.198   6.141  -5.971  1.00  0.00    -0.237 OA
ATOM     71  O   UNL     1      16.874   7.725  -7.743  1.00  0.00    -0.237 OA
ATOM     72  O   UNL     1      16.570   8.520  -5.429  1.00  0.00    -0.744 OA
ENDBRANCH  68  69
ENDBRANCH  47  61
BRANCH  48  73
ATOM     73  C   UNL     1       2.061   9.715  -9.161  1.00  0.00     0.058 A 
ATOM     74  C   UNL     1       1.564   9.996 -10.442  1.00  0.00     0.135 A 
ATOM     75  C   UNL     1       1.140   9.651  -8.104  1.00  0.00     0.135 A 
ATOM     76  F   UNL     1       2.406  10.076 -11.484  1.00  0.00    -0.206 F 
ATOM     77  C   UNL     1       0.210  10.223 -10.667  1.00  0.00     0.059 A 
ATOM     78  C   UNL     1      -0.223   9.848  -8.307  1.00  0.00     0.059 A 
ATOM     79  F   UNL     1       1.560   9.370  -6.860  1.00  0.00    -0.206 F 
ATOM     80  C   UNL     1      -0.677  10.144  -9.592  1.00  0.00     0.060 A 
BRANCH  80  81
ATOM     81  S   UNL     1      -2.438  10.396  -9.903  1.00  0.00     0.124 S 
ATOM     82  O   UNL     1      -2.491  11.835 -10.137  1.00  0.00    -0.237 OA
ATOM     83  O   UNL     1      -2.667   9.550 -11.069  1.00  0.00    -0.237 OA
ATOM     84  O   UNL     1      -3.066   9.934  -8.669  1.00  0.00    -0.744 OA
ENDBRANCH  80  81
ENDBRANCH  48  73
BRANCH  60  85
ATOM     85  C   UNL     1       7.699  13.818  -9.545  1.00  0.00     0.058 A 
ATOM     86  C   UNL     1       7.312  14.887  -8.724  1.00  0.00     0.135 A 
ATOM     87  C   UNL     1       8.353  14.121 -10.751  1.00  0.00     0.135 A 
ATOM     88  F   UNL     1       6.677  14.654  -7.564  1.00  0.00    -0.206 F 
ATOM     89  C   UNL     1       7.553  16.208  -9.090  1.00  0.00     0.059 A 
ATOM     90  C   UNL     1       8.629  15.432 -11.124  1.00  0.00     0.059 A 
ATOM     91  F   UNL     1       8.752  13.134 -11.570  1.00  0.00    -0.206 F 
ATOM     92  C   UNL     1       8.217  16.470 -10.290  1.00  0.00     0.060 A 
BRANCH  92  93
ATOM     93  S   UNL     1       8.569  18.186 -10.729  1.00  0.00     0.124 S 
ATOM     94  O   UNL     1       7.246  18.670 -11.110  1.00  0.00    -0.237 OA
ATOM     95  O   UNL     1       9.106  18.723  -9.483  1.00  0.00    -0.237 OA
ATOM     96  O   UNL     1       9.531  18.068 -11.820  1.00  0.00    -0.744 OA
ENDBRANCH  92  93
ENDBRANCH  60  85
ENDBRANCH  34  35
ENDBRANCH  26  29
ENDBRANCH  24  25
ENDBRANCH   1  24
TORSDOF 16
