REMARK SMILES COc1ccc(OC)c(-c2cc(C(=O)NCCCNC(=O)c3ccc(-c4c5nc(c(-c6c(F)cc(S(=O)(=O)[O-])cc6F)c6ccc([nH]6)c(-c6c(F)cc(S(=O)(=O)[O-])cc6F)c6nc(c(-c7c(F)cc(S(=O)(=O)[O-])cc7F)c7ccc4[nH]7)C=C6)C=C5)cc3)ccn2)c1
REMARK SMILES IDX 17 1 16 2 15 3 13 4 14 5 12 7 10 8 11 9 90 10 89 11 88 12
REMARK SMILES IDX 9 13 3 14 4 15 91 16 5 17 6 18 2 19 1 20 7 21 8 22 18 23
REMARK SMILES IDX 19 24 20 25 21 27 22 28 23 29 87 30 24 31 86 32 25 33 26 34
REMARK SMILES IDX 27 35 80 36 28 37 85 38 79 39 81 40 29 41 84 42 78 43 77 44
REMARK SMILES IDX 30 46 64 47 43 48 63 49 44 50 47 51 62 52 82 53 45 54 46 55
REMARK SMILES IDX 61 57 83 58 48 59 31 60 32 61 41 62 33 63 34 64 40 65 42 66
REMARK SMILES IDX 35 67 36 68 37 69 38 70 39 71 65 72 66 73 75 74 67 75 68 76
REMARK SMILES IDX 74 77 76 78 69 79 70 80 71 81 72 82 73 83 49 84 50 85 59 86
REMARK SMILES IDX 51 87 52 88 58 89 60 90 53 91 54 92 55 93 56 94 57 95
REMARK H PARENT 15 6 19 26 81 45 47 56
REMARK Flexibility Score: inf
ROOT
ATOM      1  C   UNL     1       5.285   0.909   4.437  1.00  0.00     0.042 C 
ENDROOT
BRANCH   1   2
ATOM      2  C   UNL     1       6.011   0.429   3.181  1.00  0.00     0.118 C 
BRANCH   2   3
ATOM      3  N   UNL     1       7.139  -0.427   3.515  1.00  0.00    -0.352 N 
ATOM      4  C   UNL     1       7.314  -1.786   3.444  1.00  0.00     0.251 C 
ATOM      5  O   UNL     1       8.425  -2.246   3.704  1.00  0.00    -0.269 OA
ATOM      6  H   UNL     1       7.923   0.060   3.857  1.00  0.00     0.163 HD
BRANCH   4   7
ATOM      7  C   UNL     1       6.244  -2.712   3.000  1.00  0.00     0.043 A 
ATOM      8  C   UNL     1       3.962  -3.368   2.680  1.00  0.00     0.075 A 
ATOM      9  C   UNL     1       4.892  -2.502   3.244  1.00  0.00     0.043 A 
ATOM     10  N   UNL     1       4.324  -4.456   1.960  1.00  0.00    -0.256 NA
ATOM     11  C   UNL     1       5.646  -4.699   1.825  1.00  0.00     0.112 A 
ATOM     12  C   UNL     1       6.631  -3.861   2.310  1.00  0.00     0.034 A 
BRANCH   8  13
ATOM     13  C   UNL     1       2.532  -3.054   2.740  1.00  0.00     0.046 A 
ATOM     14  C   UNL     1       0.770  -1.575   1.856  1.00  0.00     0.119 A 
ATOM     15  C   UNL     1      -0.100  -2.057   2.825  1.00  0.00     0.050 A 
ATOM     16  C   UNL     1       2.068  -2.083   1.810  1.00  0.00     0.060 A 
ATOM     17  C   UNL     1       0.323  -3.032   3.729  1.00  0.00     0.051 A 
ATOM     18  C   UNL     1       1.632  -3.541   3.704  1.00  0.00     0.128 A 
BRANCH  14  19
ATOM     19  O   UNL     1       0.253  -0.600   1.052  1.00  0.00    -0.497 OA
ATOM     20  C   UNL     1       1.050  -0.159  -0.039  1.00  0.00     0.278 C 
ENDBRANCH  14  19
BRANCH  18  21
ATOM     21  O   UNL     1       1.845  -4.425   4.726  1.00  0.00    -0.496 OA
ATOM     22  C   UNL     1       2.946  -5.316   4.670  1.00  0.00     0.278 C 
ENDBRANCH  18  21
ENDBRANCH   8  13
ENDBRANCH   4   7
ENDBRANCH   2   3
ENDBRANCH   1   2
BRANCH   1  23
ATOM     23  C   UNL     1       6.027   2.017   5.180  1.00  0.00     0.118 C 
BRANCH  23  24
ATOM     24  N   UNL     1       6.032   3.263   4.428  1.00  0.00    -0.352 N 
ATOM     25  C   UNL     1       5.638   4.523   4.800  1.00  0.00     0.251 C 
ATOM     26  H   UNL     1       6.373   3.190   3.507  1.00  0.00     0.163 HD
ATOM     27  O   UNL     1       5.515   5.384   3.934  1.00  0.00    -0.269 OA
BRANCH  25  28
ATOM     28  C   UNL     1       5.357   4.850   6.217  1.00  0.00     0.039 A 
ATOM     29  C   UNL     1       4.304   5.726   6.503  1.00  0.00     0.014 A 
ATOM     30  C   UNL     1       6.156   4.363   7.256  1.00  0.00     0.014 A 
ATOM     31  C   UNL     1       4.033   6.082   7.826  1.00  0.00     0.010 A 
ATOM     32  C   UNL     1       5.844   4.668   8.580  1.00  0.00     0.010 A 
ATOM     33  C   UNL     1       4.788   5.541   8.878  1.00  0.00    -0.014 A 
BRANCH  33  34
ATOM     34  C   UNL     1       4.486   5.891  10.290  1.00  0.00     0.031 A 
ATOM     35  C   UNL     1       5.481   6.665  11.113  1.00  0.00     0.074 A 
ATOM     36  C   UNL     1       3.330   5.474  10.842  1.00  0.00     0.049 A 
ATOM     37  N   UNL     1       5.406   7.036  12.366  1.00  0.00    -0.248 NA
ATOM     38  C   UNL     1       6.736   7.051  10.449  1.00  0.00     0.031 C 
ATOM     39  C   UNL     1       2.309   4.673  10.163  1.00  0.00     0.029 A 
ATOM     40  N   UNL     1       2.819   5.662  12.102  1.00  0.00    -0.354 N 
ATOM     41  C   UNL     1       6.604   7.686  12.643  1.00  0.00     0.074 A 
ATOM     42  C   UNL     1       7.408   7.615  11.443  1.00  0.00     0.031 C 
ATOM     43  C   UNL     1       1.285   4.459  11.004  1.00  0.00     0.029 A 
ATOM     44  C   UNL     1       1.587   5.081  12.289  1.00  0.00     0.049 A 
ATOM     45  H   UNL     1       3.290   6.165  12.805  1.00  0.00     0.167 HD
ATOM     46  C   UNL     1       6.989   8.304  13.786  1.00  0.00     0.037 A 
ATOM     47  C   UNL     1       0.789   5.055  13.374  1.00  0.00     0.037 A 
ATOM     48  C   UNL     1       6.172   8.394  14.970  1.00  0.00     0.049 A 
ATOM     49  C   UNL     1       1.226   5.772  14.621  1.00  0.00     0.074 A 
ATOM     50  C   UNL     1       6.448   9.042  16.161  1.00  0.00     0.029 A 
ATOM     51  N   UNL     1       4.916   7.821  15.110  1.00  0.00    -0.354 N 
ATOM     52  N   UNL     1       2.339   6.430  14.847  1.00  0.00    -0.248 NA
ATOM     53  C   UNL     1       0.294   5.757  15.756  1.00  0.00     0.031 C 
ATOM     54  C   UNL     1       5.373   8.834  17.033  1.00  0.00     0.029 A 
ATOM     55  C   UNL     1       4.409   8.092  16.370  1.00  0.00     0.049 A 
ATOM     56  H   UNL     1       4.453   7.299  14.415  1.00  0.00     0.167 HD
ATOM     57  C   UNL     1       2.229   6.928  16.141  1.00  0.00     0.074 A 
ATOM     58  C   UNL     1       0.936   6.507  16.641  1.00  0.00     0.031 C 
ATOM     59  C   UNL     1       3.118   7.667  16.851  1.00  0.00     0.037 A 
BRANCH  46  60
ATOM     60  C   UNL     1       8.354   8.938  13.809  1.00  0.00     0.058 A 
ATOM     61  C   UNL     1       8.638  10.099  13.073  1.00  0.00     0.135 A 
ATOM     62  C   UNL     1       9.383   8.396  14.596  1.00  0.00     0.135 A 
ATOM     63  F   UNL     1       7.696  10.652  12.292  1.00  0.00    -0.206 F 
ATOM     64  C   UNL     1       9.901  10.682  13.090  1.00  0.00     0.059 A 
ATOM     65  C   UNL     1      10.647   8.978  14.649  1.00  0.00     0.059 A 
ATOM     66  F   UNL     1       9.167   7.287  15.321  1.00  0.00    -0.206 F 
ATOM     67  C   UNL     1      10.900  10.112  13.879  1.00  0.00     0.060 A 
BRANCH  67  68
ATOM     68  S   UNL     1      12.535  10.879  13.890  1.00  0.00     0.124 S 
ATOM     69  O   UNL     1      13.056  10.469  12.590  1.00  0.00    -0.237 OA
ATOM     70  O   UNL     1      12.216  12.297  14.026  1.00  0.00    -0.237 OA
ATOM     71  O   UNL     1      13.187  10.273  15.047  1.00  0.00    -0.744 OA
ENDBRANCH  67  68
ENDBRANCH  46  60
BRANCH  47  72
ATOM     72  C   UNL     1      -0.520   4.354  13.313  1.00  0.00     0.058 A 
ATOM     73  C   UNL     1      -1.722   5.077  13.288  1.00  0.00     0.135 A 
ATOM     74  C   UNL     1      -0.596   2.954  13.260  1.00  0.00     0.135 A 
ATOM     75  F   UNL     1      -1.700   6.417  13.342  1.00  0.00    -0.206 F 
ATOM     76  C   UNL     1      -2.956   4.437  13.229  1.00  0.00     0.059 A 
ATOM     77  C   UNL     1      -1.817   2.292  13.176  1.00  0.00     0.059 A 
ATOM     78  F   UNL     1       0.526   2.219  13.262  1.00  0.00    -0.206 F 
ATOM     79  C   UNL     1      -2.993   3.042  13.172  1.00  0.00     0.060 A 
BRANCH  79  80
ATOM     80  S   UNL     1      -4.596   2.222  13.044  1.00  0.00     0.124 S 
ATOM     81  O   UNL     1      -5.102   2.354  14.405  1.00  0.00    -0.237 OA
ATOM     82  O   UNL     1      -5.273   3.025  12.030  1.00  0.00    -0.237 OA
ATOM     83  O   UNL     1      -4.246   0.867  12.627  1.00  0.00    -0.744 OA
ENDBRANCH  79  80
ENDBRANCH  47  72
BRANCH  59  84
ATOM     84  C   UNL     1       2.704   8.094  18.231  1.00  0.00     0.058 A 
ATOM     85  C   UNL     1       2.644   7.185  19.299  1.00  0.00     0.135 A 
ATOM     86  C   UNL     1       2.382   9.436  18.492  1.00  0.00     0.135 A 
ATOM     87  F   UNL     1       2.937   5.890  19.100  1.00  0.00    -0.206 F 
ATOM     88  C   UNL     1       2.245   7.584  20.570  1.00  0.00     0.059 A 
ATOM     89  C   UNL     1       2.006   9.862  19.762  1.00  0.00     0.059 A 
ATOM     90  F   UNL     1       2.435  10.348  17.509  1.00  0.00    -0.206 F 
ATOM     91  C   UNL     1       1.923   8.924  20.791  1.00  0.00     0.060 A 
BRANCH  91  92
ATOM     92  S   UNL     1       1.413   9.434  22.446  1.00  0.00     0.124 S 
ATOM     93  O   UNL     1       0.038   8.946  22.491  1.00  0.00    -0.237 OA
ATOM     94  O   UNL     1       2.364   8.729  23.300  1.00  0.00    -0.237 OA
ATOM     95  O   UNL     1       1.564  10.885  22.415  1.00  0.00    -0.744 OA
ENDBRANCH  91  92
ENDBRANCH  59  84
ENDBRANCH  33  34
ENDBRANCH  25  28
ENDBRANCH  23  24
ENDBRANCH   1  23
TORSDOF 16
