REMARK SMILES O=C(NCCCNC(=O)c1ccc(S(=O)(=O)Cc2cnoc2)c(F)c1)c1ccc(-c2c3nc(c(-c4c(F)cc(S(=O)(=O)[O-])cc4F)c4ccc([nH]4)c(-c4c(F)cc(S(=O)(=O)[O-])cc4F)c4nc(c(-c5c(F)cc(S(=O)(=O)[O-])cc5F)c5ccc2[nH]5)C=C4)C=C3)cc1
REMARK SMILES IDX 5 1 4 2 3 3 1 4 2 5 26 7 27 8 91 9 28 10 90 11 29 12 30 13
REMARK SMILES IDX 31 14 84 15 32 16 89 17 83 18 85 19 33 20 88 21 82 22 81 23
REMARK SMILES IDX 34 25 68 26 47 27 67 28 48 29 51 30 66 31 86 32 49 33 50 34
REMARK SMILES IDX 65 36 87 37 52 38 35 39 36 40 45 41 37 42 38 43 44 44 46 45
REMARK SMILES IDX 39 46 40 47 41 48 42 49 43 50 69 51 70 52 79 53 71 54 72 55
REMARK SMILES IDX 78 56 80 57 73 58 74 59 75 60 76 61 77 62 53 63 54 64 63 65
REMARK SMILES IDX 55 66 56 67 62 68 64 69 57 70 58 71 59 72 60 73 61 74 6 75
REMARK SMILES IDX 7 76 8 77 9 79 10 80 11 81 25 82 12 83 23 84 13 85 24 86
REMARK SMILES IDX 14 87 15 88 16 89 17 90 18 91 19 92 22 93 20 94 21 95
REMARK H PARENT 3 6 85 24 51 35 7 78
REMARK Flexibility Score: inf
ROOT
ATOM      1  C   UNL     1       4.952  -0.670   2.375  1.00  0.00     0.042 C 
ENDROOT
BRANCH   1   2
ATOM      2  C   UNL     1       4.576  -1.039   0.946  1.00  0.00     0.118 C 
BRANCH   2   3
ATOM      3  N   UNL     1       3.138  -1.022   0.723  1.00  0.00    -0.352 N 
ATOM      4  O   UNL     1       1.138  -0.209   0.109  1.00  0.00    -0.269 OA
ATOM      5  C   UNL     1       2.360  -0.162  -0.011  1.00  0.00     0.251 C 
ATOM      6  H   UNL     1       2.642  -1.745   1.172  1.00  0.00     0.163 HD
BRANCH   5   7
ATOM      7  C   UNL     1       2.978   0.827  -0.922  1.00  0.00     0.039 A 
ATOM      8  C   UNL     1       4.050   0.481  -1.748  1.00  0.00     0.014 A 
ATOM      9  C   UNL     1       2.437   2.114  -0.984  1.00  0.00     0.014 A 
ATOM     10  C   UNL     1       4.668   1.452  -2.532  1.00  0.00     0.010 A 
ATOM     11  C   UNL     1       3.005   3.066  -1.834  1.00  0.00     0.010 A 
ATOM     12  C   UNL     1       4.142   2.750  -2.594  1.00  0.00    -0.014 A 
BRANCH  12  13
ATOM     13  C   UNL     1       4.744   3.763  -3.498  1.00  0.00     0.031 A 
ATOM     14  C   UNL     1       5.369   5.010  -2.942  1.00  0.00     0.074 A 
ATOM     15  C   UNL     1       4.692   3.566  -4.829  1.00  0.00     0.049 A 
ATOM     16  N   UNL     1       5.852   6.044  -3.580  1.00  0.00    -0.248 NA
ATOM     17  C   UNL     1       5.457   5.113  -1.477  1.00  0.00     0.031 C 
ATOM     18  C   UNL     1       4.119   2.388  -5.483  1.00  0.00     0.029 A 
ATOM     19  N   UNL     1       5.115   4.352  -5.871  1.00  0.00    -0.354 N 
ATOM     20  C   UNL     1       6.276   6.933  -2.600  1.00  0.00     0.074 A 
ATOM     21  C   UNL     1       5.975   6.324  -1.322  1.00  0.00     0.031 C 
ATOM     22  C   UNL     1       4.240   2.520  -6.811  1.00  0.00     0.029 A 
ATOM     23  C   UNL     1       4.834   3.820  -7.107  1.00  0.00     0.049 A 
ATOM     24  H   UNL     1       5.575   5.213  -5.746  1.00  0.00     0.167 HD
ATOM     25  C   UNL     1       6.863   8.143  -2.757  1.00  0.00     0.037 A 
ATOM     26  C   UNL     1       4.999   4.331  -8.343  1.00  0.00     0.037 A 
ATOM     27  C   UNL     1       7.164   8.730  -4.038  1.00  0.00     0.049 A 
ATOM     28  C   UNL     1       5.601   5.696  -8.497  1.00  0.00     0.074 A 
ATOM     29  C   UNL     1       7.798   9.931  -4.303  1.00  0.00     0.029 A 
ATOM     30  N   UNL     1       6.841   8.168  -5.266  1.00  0.00    -0.354 N 
ATOM     31  N   UNL     1       6.022   6.514  -7.562  1.00  0.00    -0.248 NA
ATOM     32  C   UNL     1       5.746   6.216  -9.863  1.00  0.00     0.031 C 
ATOM     33  C   UNL     1       7.804  10.124  -5.688  1.00  0.00     0.029 A 
ATOM     34  C   UNL     1       7.231   9.015  -6.291  1.00  0.00     0.049 A 
ATOM     35  H   UNL     1       6.399   7.297  -5.391  1.00  0.00     0.167 HD
ATOM     36  C   UNL     1       6.502   7.637  -8.225  1.00  0.00     0.074 A 
ATOM     37  C   UNL     1       6.318   7.394  -9.642  1.00  0.00     0.031 C 
ATOM     38  C   UNL     1       7.049   8.760  -7.701  1.00  0.00     0.037 A 
BRANCH  25  39
ATOM     39  C   UNL     1       7.191   8.932  -1.518  1.00  0.00     0.058 A 
ATOM     40  C   UNL     1       6.489  10.112  -1.223  1.00  0.00     0.135 A 
ATOM     41  C   UNL     1       8.216   8.546  -0.639  1.00  0.00     0.135 A 
ATOM     42  F   UNL     1       5.499  10.530  -2.027  1.00  0.00    -0.206 F 
ATOM     43  C   UNL     1       6.788  10.878  -0.101  1.00  0.00     0.059 A 
ATOM     44  C   UNL     1       8.514   9.282   0.505  1.00  0.00     0.059 A 
ATOM     45  F   UNL     1       8.910   7.418  -0.864  1.00  0.00    -0.206 F 
ATOM     46  C   UNL     1       7.797  10.451   0.762  1.00  0.00     0.060 A 
BRANCH  46  47
ATOM     47  S   UNL     1       8.115  11.410   2.259  1.00  0.00     0.124 S 
ATOM     48  O   UNL     1       8.756  12.604   1.722  1.00  0.00    -0.237 OA
ATOM     49  O   UNL     1       6.770  11.593   2.797  1.00  0.00    -0.237 OA
ATOM     50  O   UNL     1       8.977  10.531   3.045  1.00  0.00    -0.744 OA
ENDBRANCH  46  47
ENDBRANCH  25  39
BRANCH  26  51
ATOM     51  C   UNL     1       4.579   3.516  -9.512  1.00  0.00     0.058 A 
ATOM     52  C   UNL     1       3.222   3.256  -9.765  1.00  0.00     0.135 A 
ATOM     53  C   UNL     1       5.530   2.878 -10.319  1.00  0.00     0.135 A 
ATOM     54  F   UNL     1       2.274   3.834  -9.010  1.00  0.00    -0.206 F 
ATOM     55  C   UNL     1       2.825   2.349 -10.739  1.00  0.00     0.059 A 
ATOM     56  C   UNL     1       5.156   1.984 -11.318  1.00  0.00     0.059 A 
ATOM     57  F   UNL     1       6.838   3.105 -10.121  1.00  0.00    -0.206 F 
ATOM     58  C   UNL     1       3.801   1.704 -11.500  1.00  0.00     0.060 A 
BRANCH  58  59
ATOM     59  S   UNL     1       3.270   0.464 -12.700  1.00  0.00     0.124 S 
ATOM     60  O   UNL     1       2.744  -0.580 -11.825  1.00  0.00    -0.237 OA
ATOM     61  O   UNL     1       2.280   1.199 -13.479  1.00  0.00    -0.237 OA
ATOM     62  O   UNL     1       4.501   0.128 -13.407  1.00  0.00    -0.744 OA
ENDBRANCH  58  59
ENDBRANCH  26  51
BRANCH  38  63
ATOM     63  C   UNL     1       7.524   9.828  -8.647  1.00  0.00     0.058 A 
ATOM     64  C   UNL     1       8.899  10.072  -8.800  1.00  0.00     0.135 A 
ATOM     65  C   UNL     1       6.626  10.701  -9.278  1.00  0.00     0.135 A 
ATOM     66  F   UNL     1       9.798   9.264  -8.216  1.00  0.00    -0.206 F 
ATOM     67  C   UNL     1       9.366  11.176  -9.503  1.00  0.00     0.059 A 
ATOM     68  C   UNL     1       7.073  11.800 -10.008  1.00  0.00     0.059 A 
ATOM     69  F   UNL     1       5.303  10.500  -9.176  1.00  0.00    -0.206 F 
ATOM     70  C   UNL     1       8.444  12.044 -10.090  1.00  0.00     0.060 A 
BRANCH  70  71
ATOM     71  S   UNL     1       9.070  13.509 -10.940  1.00  0.00     0.124 S 
ATOM     72  O   UNL     1       9.609  14.290  -9.832  1.00  0.00    -0.237 OA
ATOM     73  O   UNL     1      10.056  12.937 -11.851  1.00  0.00    -0.237 OA
ATOM     74  O   UNL     1       7.881  14.064 -11.580  1.00  0.00    -0.744 OA
ENDBRANCH  70  71
ENDBRANCH  38  63
ENDBRANCH  12  13
ENDBRANCH   5   7
ENDBRANCH   2   3
ENDBRANCH   1   2
BRANCH   1  75
ATOM     75  C   UNL     1       4.392  -1.613   3.433  1.00  0.00     0.118 C 
BRANCH  75  76
ATOM     76  N   UNL     1       4.877  -2.978   3.272  1.00  0.00    -0.352 N 
ATOM     77  C   UNL     1       5.708  -3.709   4.078  1.00  0.00     0.251 C 
ATOM     78  H   UNL     1       4.560  -3.443   2.464  1.00  0.00     0.163 HD
ATOM     79  O   UNL     1       6.162  -4.786   3.701  1.00  0.00    -0.269 OA
BRANCH  77  80
ATOM     80  C   UNL     1       6.074  -3.199   5.411  1.00  0.00     0.042 A 
ATOM     81  C   UNL     1       5.085  -2.836   6.332  1.00  0.00     0.015 A 
ATOM     82  C   UNL     1       7.426  -3.115   5.749  1.00  0.00     0.054 A 
ATOM     83  C   UNL     1       5.455  -2.331   7.576  1.00  0.00     0.024 A 
ATOM     84  C   UNL     1       7.788  -2.601   6.990  1.00  0.00     0.142 A 
ATOM     85  C   UNL     1       6.813  -2.212   7.900  1.00  0.00     0.103 A 
ATOM     86  F   UNL     1       9.091  -2.473   7.264  1.00  0.00    -0.206 F 
BRANCH  85  87
ATOM     87  S   UNL     1       7.224  -1.557   9.486  1.00  0.00     0.185 S 
ATOM     88  O   UNL     1       7.284  -0.118   9.312  1.00  0.00    -0.223 OA
ATOM     89  O   UNL     1       6.266  -2.132  10.417  1.00  0.00    -0.223 OA
BRANCH  87  90
ATOM     90  C   UNL     1       8.837  -2.118   9.980  1.00  0.00     0.183 C 
BRANCH  90  91
ATOM     91  C   UNL     1       9.066  -3.586   9.968  1.00  0.00     0.027 A 
ATOM     92  C   UNL     1       8.190  -4.649  10.292  1.00  0.00     0.162 A 
ATOM     93  C   UNL     1      10.236  -4.237   9.649  1.00  0.00     0.235 A 
ATOM     94  N   UNL     1       8.772  -5.842  10.159  1.00  0.00    -0.088 NA
ATOM     95  O   UNL     1      10.068  -5.576   9.754  1.00  0.00    -0.364 OA
ENDBRANCH  90  91
ENDBRANCH  87  90
ENDBRANCH  85  87
ENDBRANCH  77  80
ENDBRANCH  75  76
ENDBRANCH   1  75
TORSDOF 16
