REMARK SMILES O=C(NCCCNC(=O)[C@H](CO)NC(=O)[C@H](Cc1c[nH]c2ccccc12)NC(=O)[C@H](Cc1ccc(O)cc1)NC(=O)c1ccc(F)cc1)c1ccc(-c2c3nc(c(-c4c(F)cc(S(=O)(=O)[O-])cc4F)c4ccc([nH]4)c(-c4c(F)cc(S(=O)(=O)[O-])cc4F)c4nc(c(-c5c(F)cc(S(=O)(=O)[O-])cc5F)c5ccc2[nH]5)C=C4)C=C3)cc1
REMARK SMILES IDX 7 1 8 2 9 3 6 5 5 6 4 7 3 8 1 9 2 10 49 12 50 13 114 14
REMARK SMILES IDX 51 15 113 16 52 17 53 18 54 19 107 20 55 21 112 22 106 23
REMARK SMILES IDX 108 24 56 25 111 26 105 27 104 28 57 30 91 31 70 32 90 33
REMARK SMILES IDX 71 34 74 35 89 36 109 37 72 38 73 39 88 41 110 42 75 43
REMARK SMILES IDX 58 44 59 45 68 46 60 47 61 48 67 49 69 50 62 51 63 52 64 53
REMARK SMILES IDX 65 54 66 55 92 56 93 57 102 58 94 59 95 60 101 61 103 62
REMARK SMILES IDX 96 63 97 64 98 65 99 66 100 67 76 68 77 69 86 70 78 71 79 72
REMARK SMILES IDX 85 73 87 74 80 75 81 76 82 77 83 78 84 79 10 80 13 81 14 82
REMARK SMILES IDX 15 84 16 85 27 86 28 87 29 89 30 90 39 91 40 92 41 94 42 95
REMARK SMILES IDX 43 96 48 97 44 98 47 99 45 100 46 101 31 102 32 103 33 104
REMARK SMILES IDX 38 105 34 106 37 107 35 108 36 109 17 111 18 112 19 113
REMARK SMILES IDX 26 114 20 115 21 116 25 117 22 119 24 120 23 121 11 122
REMARK SMILES IDX 12 123
REMARK H PARENT 7 4 3 11 108 29 74 40 13 83 27 88 39 93 36 110 20 118 12 124
REMARK Flexibility Score: inf
ROOT
ATOM      1  N   UNL     1       6.322 -15.346  -7.160  1.00  0.00    -0.354 N 
ATOM      2  C   UNL     1       6.935 -15.198  -5.956  1.00  0.00     0.244 C 
ATOM      3  O   UNL     1       8.170 -15.212  -5.958  1.00  0.00    -0.273 OA
ATOM      4  H   UNL     1       6.837 -15.012  -7.930  1.00  0.00     0.163 HD
ENDROOT
BRANCH   1   5
ATOM      5  C   UNL     1       5.031 -15.918  -7.489  1.00  0.00     0.117 C 
BRANCH   5   6
ATOM      6  C   UNL     1       4.122 -14.943  -8.218  1.00  0.00     0.042 C 
BRANCH   6   7
ATOM      7  C   UNL     1       4.757 -14.303  -9.446  1.00  0.00     0.118 C 
BRANCH   7   8
ATOM      8  N   UNL     1       5.130 -15.274 -10.469  1.00  0.00    -0.352 N 
ATOM      9  O   UNL     1       4.916 -16.568 -12.297  1.00  0.00    -0.269 OA
ATOM     10  C   UNL     1       4.538 -15.579 -11.672  1.00  0.00     0.251 C 
ATOM     11  H   UNL     1       5.938 -15.798 -10.264  1.00  0.00     0.163 HD
BRANCH  10  12
ATOM     12  C   UNL     1       3.434 -14.747 -12.193  1.00  0.00     0.039 A 
ATOM     13  C   UNL     1       3.494 -13.357 -12.114  1.00  0.00     0.014 A 
ATOM     14  C   UNL     1       2.320 -15.365 -12.771  1.00  0.00     0.014 A 
ATOM     15  C   UNL     1       2.370 -12.601 -12.415  1.00  0.00     0.010 A 
ATOM     16  C   UNL     1       1.231 -14.590 -13.183  1.00  0.00     0.010 A 
ATOM     17  C   UNL     1       1.225 -13.205 -12.960  1.00  0.00    -0.014 A 
BRANCH  17  18
ATOM     18  C   UNL     1       0.056 -12.353 -13.302  1.00  0.00     0.031 A 
ATOM     19  C   UNL     1      -1.267 -12.534 -12.607  1.00  0.00     0.074 A 
ATOM     20  C   UNL     1       0.219 -11.358 -14.197  1.00  0.00     0.049 A 
ATOM     21  N   UNL     1      -2.371 -11.845 -12.750  1.00  0.00    -0.248 NA
ATOM     22  C   UNL     1      -1.372 -13.632 -11.633  1.00  0.00     0.031 C 
ATOM     23  C   UNL     1       1.456 -11.088 -14.935  1.00  0.00     0.029 A 
ATOM     24  N   UNL     1      -0.634 -10.368 -14.610  1.00  0.00    -0.354 N 
ATOM     25  C   UNL     1      -3.304 -12.434 -11.904  1.00  0.00     0.074 A 
ATOM     26  C   UNL     1      -2.646 -13.556 -11.271  1.00  0.00     0.031 C 
ATOM     27  C   UNL     1       1.307  -9.963 -15.649  1.00  0.00     0.029 A 
ATOM     28  C   UNL     1      -0.055  -9.470 -15.475  1.00  0.00     0.049 A 
ATOM     29  H   UNL     1      -1.572 -10.306 -14.315  1.00  0.00     0.167 HD
ATOM     30  C   UNL     1      -4.587 -12.065 -11.670  1.00  0.00     0.037 A 
ATOM     31  C   UNL     1      -0.559  -8.372 -16.069  1.00  0.00     0.037 A 
ATOM     32  C   UNL     1      -5.227 -10.932 -12.289  1.00  0.00     0.049 A 
ATOM     33  C   UNL     1      -1.980  -7.982 -15.791  1.00  0.00     0.074 A 
ATOM     34  C   UNL     1      -6.524 -10.479 -12.121  1.00  0.00     0.029 A 
ATOM     35  N   UNL     1      -4.615 -10.066 -13.185  1.00  0.00    -0.354 N 
ATOM     36  N   UNL     1      -2.852  -8.565 -15.003  1.00  0.00    -0.248 NA
ATOM     37  C   UNL     1      -2.491  -6.793 -16.484  1.00  0.00     0.031 C 
ATOM     38  C   UNL     1      -6.706  -9.357 -12.938  1.00  0.00     0.029 A 
ATOM     39  C   UNL     1      -5.509  -9.085 -13.582  1.00  0.00     0.049 A 
ATOM     40  H   UNL     1      -3.683 -10.139 -13.493  1.00  0.00     0.167 HD
ATOM     41  C   UNL     1      -4.013  -7.808 -15.097  1.00  0.00     0.074 A 
ATOM     42  C   UNL     1      -3.726  -6.716 -16.006  1.00  0.00     0.031 C 
ATOM     43  C   UNL     1      -5.207  -8.005 -14.488  1.00  0.00     0.037 A 
BRANCH  30  44
ATOM     44  C   UNL     1      -5.391 -12.901 -10.712  1.00  0.00     0.058 A 
ATOM     45  C   UNL     1      -6.427 -13.726 -11.180  1.00  0.00     0.135 A 
ATOM     46  C   UNL     1      -5.164 -12.860  -9.327  1.00  0.00     0.135 A 
ATOM     47  F   UNL     1      -6.685 -13.807 -12.494  1.00  0.00    -0.206 F 
ATOM     48  C   UNL     1      -7.212 -14.476 -10.309  1.00  0.00     0.059 A 
ATOM     49  C   UNL     1      -5.922 -13.620  -8.439  1.00  0.00     0.059 A 
ATOM     50  F   UNL     1      -4.171 -12.107  -8.827  1.00  0.00    -0.206 F 
ATOM     51  C   UNL     1      -6.951 -14.418  -8.940  1.00  0.00     0.060 A 
BRANCH  51  52
ATOM     52  S   UNL     1      -7.935 -15.446  -7.827  1.00  0.00     0.124 S 
ATOM     53  O   UNL     1      -9.208 -14.736  -7.809  1.00  0.00    -0.237 OA
ATOM     54  O   UNL     1      -7.933 -16.734  -8.515  1.00  0.00    -0.237 OA
ATOM     55  O   UNL     1      -7.176 -15.414  -6.580  1.00  0.00    -0.744 OA
ENDBRANCH  51  52
ENDBRANCH  30  44
BRANCH  31  56
ATOM     56  C   UNL     1       0.311  -7.567 -16.964  1.00  0.00     0.058 A 
ATOM     57  C   UNL     1       0.737  -8.070 -18.203  1.00  0.00     0.135 A 
ATOM     58  C   UNL     1       0.801  -6.317 -16.560  1.00  0.00     0.135 A 
ATOM     59  F   UNL     1       0.306  -9.268 -18.627  1.00  0.00    -0.206 F 
ATOM     60  C   UNL     1       1.648  -7.380 -18.993  1.00  0.00     0.059 A 
ATOM     61  C   UNL     1       1.695  -5.595 -17.346  1.00  0.00     0.059 A 
ATOM     62  F   UNL     1       0.414  -5.793 -15.387  1.00  0.00    -0.206 F 
ATOM     63  C   UNL     1       2.131  -6.148 -18.550  1.00  0.00     0.060 A 
BRANCH  63  64
ATOM     64  S   UNL     1       3.345  -5.287 -19.571  1.00  0.00     0.124 S 
ATOM     65  O   UNL     1       4.531  -6.113 -19.370  1.00  0.00    -0.237 OA
ATOM     66  O   UNL     1       2.738  -5.358 -20.896  1.00  0.00    -0.237 OA
ATOM     67  O   UNL     1       3.399  -3.954 -18.979  1.00  0.00    -0.744 OA
ENDBRANCH  63  64
ENDBRANCH  31  56
BRANCH  43  68
ATOM     68  C   UNL     1      -6.294  -7.006 -14.767  1.00  0.00     0.058 A 
ATOM     69  C   UNL     1      -6.679  -6.083 -13.783  1.00  0.00     0.135 A 
ATOM     70  C   UNL     1      -6.991  -7.000 -15.985  1.00  0.00     0.135 A 
ATOM     71  F   UNL     1      -6.045  -6.050 -12.600  1.00  0.00    -0.206 F 
ATOM     72  C   UNL     1      -7.727  -5.194 -13.992  1.00  0.00     0.059 A 
ATOM     73  C   UNL     1      -8.028  -6.104 -16.225  1.00  0.00     0.059 A 
ATOM     74  F   UNL     1      -6.651  -7.856 -16.962  1.00  0.00    -0.206 F 
ATOM     75  C   UNL     1      -8.398  -5.214 -15.216  1.00  0.00     0.060 A 
BRANCH  75  76
ATOM     76  S   UNL     1      -9.741  -4.037 -15.483  1.00  0.00     0.124 S 
ATOM     77  O   UNL     1     -10.806  -4.611 -14.668  1.00  0.00    -0.237 OA
ATOM     78  O   UNL     1      -9.165  -2.791 -14.988  1.00  0.00    -0.237 OA
ATOM     79  O   UNL     1      -9.954  -4.090 -16.926  1.00  0.00    -0.744 OA
ENDBRANCH  75  76
ENDBRANCH  43  68
ENDBRANCH  17  18
ENDBRANCH  10  12
ENDBRANCH   7   8
ENDBRANCH   6   7
ENDBRANCH   5   6
ENDBRANCH   1   5
BRANCH   2  80
ATOM     80  C   UNL     1       6.157 -15.266  -4.633  1.00  0.00     0.197 C 
BRANCH  80  81
ATOM     81  N   UNL     1       4.928 -14.458  -4.600  1.00  0.00    -0.340 N 
ATOM     82  C   UNL     1       4.455 -13.615  -3.625  1.00  0.00     0.243 C 
ATOM     83  H   UNL     1       4.358 -14.533  -5.399  1.00  0.00     0.164 HD
ATOM     84  O   UNL     1       3.440 -12.964  -3.880  1.00  0.00    -0.273 OA
BRANCH  82  85
ATOM     85  C   UNL     1       5.168 -13.518  -2.259  1.00  0.00     0.175 C 
BRANCH  85  86
ATOM     86  N   UNL     1       4.880 -12.267  -1.538  1.00  0.00    -0.342 N 
ATOM     87  C   UNL     1       5.635 -11.147  -1.312  1.00  0.00     0.243 C 
ATOM     88  H   UNL     1       3.978 -12.228  -1.145  1.00  0.00     0.164 HD
ATOM     89  O   UNL     1       5.163 -10.281  -0.569  1.00  0.00    -0.273 OA
BRANCH  87  90
ATOM     90  C   UNL     1       7.105 -11.059  -1.799  1.00  0.00     0.176 C 
BRANCH  90  91
ATOM     91  N   UNL     1       7.197 -11.472  -3.202  1.00  0.00    -0.340 N 
ATOM     92  C   UNL     1       8.086 -12.262  -3.881  1.00  0.00     0.251 C 
ATOM     93  H   UNL     1       6.478 -11.111  -3.768  1.00  0.00     0.164 HD
ATOM     94  O   UNL     1       8.041 -12.209  -5.110  1.00  0.00    -0.269 OA
BRANCH  92  95
ATOM     95  C   UNL     1       9.023 -13.239  -3.234  1.00  0.00     0.040 A 
ATOM     96  C   UNL     1       8.800 -13.874  -2.002  1.00  0.00     0.017 A 
ATOM     97  C   UNL     1      10.102 -13.686  -4.016  1.00  0.00     0.017 A 
ATOM     98  C   UNL     1       9.613 -14.928  -1.573  1.00  0.00     0.040 A 
ATOM     99  C   UNL     1      10.915 -14.742  -3.591  1.00  0.00     0.040 A 
ATOM    100  C   UNL     1      10.658 -15.358  -2.375  1.00  0.00     0.123 A 
ATOM    101  F   UNL     1      11.403 -16.398  -1.983  1.00  0.00    -0.207 F 
ENDBRANCH  92  95
ENDBRANCH  90  91
BRANCH  90 102
ATOM    102  C   UNL     1       7.686  -9.633  -1.603  1.00  0.00     0.070 C 
BRANCH 102 103
ATOM    103  C   UNL     1       9.017  -9.435  -2.305  1.00  0.00    -0.045 A 
ATOM    104  C   UNL     1      10.123 -10.244  -2.003  1.00  0.00     0.007 A 
ATOM    105  C   UNL     1       9.119  -8.512  -3.357  1.00  0.00     0.007 A 
ATOM    106  C   UNL     1      11.265 -10.211  -2.808  1.00  0.00     0.046 A 
ATOM    107  C   UNL     1      10.271  -8.459  -4.143  1.00  0.00     0.046 A 
ATOM    108  C   UNL     1      11.318  -9.333  -3.884  1.00  0.00     0.115 A 
BRANCH 108 109
ATOM    109  O   UNL     1      12.387  -9.316  -4.731  1.00  0.00    -0.508 OA
ATOM    110  H   UNL     1      13.110  -9.894  -4.583  1.00  0.00     0.293 HD
ENDBRANCH 108 109
ENDBRANCH 102 103
ENDBRANCH  90 102
ENDBRANCH  87  90
ENDBRANCH  85  86
BRANCH  85 111
ATOM    111  C   UNL     1       4.988 -14.785  -1.409  1.00  0.00     0.072 C 
BRANCH 111 112
ATOM    112  C   UNL     1       3.878 -14.788  -0.409  1.00  0.00    -0.020 A 
ATOM    113  C   UNL     1       4.036 -14.732   0.964  1.00  0.00     0.087 A 
ATOM    114  C   UNL     1       2.477 -14.924  -0.662  1.00  0.00     0.003 A 
ATOM    115  N   UNL     1       2.801 -14.829   1.542  1.00  0.00    -0.361 N 
ATOM    116  C   UNL     1       1.833 -14.949   0.575  1.00  0.00     0.046 A 
ATOM    117  C   UNL     1       1.691 -15.042  -1.826  1.00  0.00     0.010 A 
ATOM    118  H   UNL     1       2.631 -14.814   2.511  1.00  0.00     0.166 HD
ATOM    119  C   UNL     1       0.446 -15.082   0.707  1.00  0.00     0.026 A 
ATOM    120  C   UNL     1       0.302 -15.162  -1.714  1.00  0.00     0.001 A 
ATOM    121  C   UNL     1      -0.310 -15.184  -0.464  1.00  0.00     0.002 A 
ENDBRANCH 111 112
ENDBRANCH  85 111
ENDBRANCH  82  85
ENDBRANCH  80  81
BRANCH  80 122
ATOM    122  C   UNL     1       5.935 -16.748  -4.289  1.00  0.00     0.191 C 
BRANCH 122 123
ATOM    123  O   UNL     1       6.719 -17.111  -3.146  1.00  0.00    -0.394 OA
ATOM    124  H   UNL     1       7.659 -16.971  -3.341  1.00  0.00     0.210 HD
ENDBRANCH 122 123
ENDBRANCH  80 122
ENDBRANCH   2  80
TORSDOF 26
