REMARK SMILES Cc1ccc(S(=O)(=O)Nc2ccc(C(=O)CCC(=O)NCCCNC(=O)c3ccc(-c4c5nc(c(-c6c(F)cc(S(=O)(=O)[O-])cc6F)c6ccc([nH]6)c(-c6c(F)cc(S(=O)(=O)[O-])cc6F)c6nc(c(-c7c(F)cc(S(=O)(=O)[O-])cc7F)c7ccc4[nH]7)C=C6)C=C5)cc3)cc2)c(C)c1
REMARK SMILES IDX 18 1 19 2 20 3 17 5 16 6 14 7 15 8 13 9 10 10 11 11 94 12
REMARK SMILES IDX 12 13 93 14 9 15 6 17 7 18 8 19 5 20 1 21 2 22 3 23 97 24
REMARK SMILES IDX 4 25 95 26 96 27 21 28 22 29 23 30 24 31 25 32 26 34 27 35
REMARK SMILES IDX 28 36 92 37 29 38 91 39 30 40 31 41 32 42 85 43 33 44 90 45
REMARK SMILES IDX 84 46 86 47 34 48 89 49 83 50 82 51 35 53 69 54 48 55 68 56
REMARK SMILES IDX 49 57 52 58 67 59 87 60 50 61 51 62 66 64 88 65 53 66 36 67
REMARK SMILES IDX 37 68 46 69 38 70 39 71 45 72 47 73 40 74 41 75 42 76 43 77
REMARK SMILES IDX 44 78 70 79 71 80 80 81 72 82 73 83 79 84 81 85 74 86 75 87
REMARK SMILES IDX 76 88 77 89 78 90 54 91 55 92 64 93 56 94 57 95 63 96 65 97
REMARK SMILES IDX 58 98 59 99 60 100 61 101 62 102
REMARK H PARENT 20 4 9 16 24 33 86 52 52 63
REMARK Flexibility Score: inf
ROOT
ATOM      1  C   UNL     1       3.853  -3.141   1.149  1.00  0.00     0.220 C 
ATOM      2  O   UNL     1       4.161  -2.564   2.194  1.00  0.00    -0.275 OA
ATOM      3  N   UNL     1       3.066  -2.463   0.249  1.00  0.00    -0.356 N 
ATOM      4  H   UNL     1       3.049  -1.482   0.338  1.00  0.00     0.163 HD
ENDROOT
BRANCH   1   5
ATOM      5  C   UNL     1       4.330  -4.579   0.865  1.00  0.00     0.108 C 
BRANCH   5   6
ATOM      6  C   UNL     1       3.577  -5.708   1.631  1.00  0.00     0.091 C 
BRANCH   6   7
ATOM      7  C   UNL     1       2.779  -6.729   0.762  1.00  0.00     0.163 C 
ATOM      8  O   UNL     1       3.298  -7.736   0.292  1.00  0.00    -0.294 OA
BRANCH   7   9
ATOM      9  C   UNL     1       1.398  -6.336   0.267  1.00  0.00     0.018 A 
ATOM     10  C   UNL     1      -0.379  -3.380  -0.894  1.00  0.00     0.049 A 
ATOM     11  C   UNL     1       0.628  -4.386  -2.069  1.00  0.00     0.027 A 
ATOM     12  C   UNL     1      -0.481  -3.884   0.826  1.00  0.00     0.027 A 
ATOM     13  C   UNL     1       1.457  -5.887  -1.495  1.00  0.00     0.014 A 
ATOM     14  C   UNL     1       0.398  -5.368   1.391  1.00  0.00     0.014 A 
BRANCH  10  15
ATOM     15  N   UNL     1      -1.471  -2.642  -1.487  1.00  0.00    -0.280 N 
ATOM     16  H   UNL     1      -1.799  -2.923  -2.372  1.00  0.00     0.180 HD
BRANCH  15  17
ATOM     17  S   UNL     1      -2.213  -1.317  -0.740  1.00  0.00     0.262 S 
ATOM     18  O   UNL     1      -2.433  -1.649   0.650  1.00  0.00    -0.201 OA
ATOM     19  O   UNL     1      -3.305  -0.931  -1.605  1.00  0.00    -0.201 OA
BRANCH  17  20
ATOM     20  C   UNL     1      -1.006  -0.022  -0.816  1.00  0.00     0.090 A 
ATOM     21  C   UNL     1       2.539   2.153   0.129  1.00  0.00     0.044 C 
ATOM     22  C   UNL     1       1.267   1.480  -0.282  1.00  0.00    -0.051 A 
ATOM     23  C   UNL     1       1.304   0.490  -1.262  1.00  0.00     0.005 A 
ATOM     24  C   UNL     1       0.034   1.842   0.280  1.00  0.00     0.008 A 
ATOM     25  C   UNL     1       0.159  -0.240  -1.549  1.00  0.00     0.023 A 
ATOM     26  C   UNL     1      -1.125   1.097   0.016  1.00  0.00    -0.030 A 
ATOM     27  C   UNL     1      -2.458   1.596   0.504  1.00  0.00     0.046 C 
ENDBRANCH  17  20
ENDBRANCH  15  17
ENDBRANCH  10  15
ENDBRANCH   7   9
ENDBRANCH   6   7
ENDBRANCH   5   6
ENDBRANCH   1   5
BRANCH   3  28
ATOM     28  C   UNL     1       2.247  -3.031  -0.832  1.00  0.00     0.117 C 
BRANCH  28  29
ATOM     29  C   UNL     1       1.345  -4.244  -0.164  1.00  0.00     0.042 C 
BRANCH  29  30
ATOM     30  C   UNL     1      -0.409  -5.458  -0.621  1.00  0.00     0.118 C 
BRANCH  30  31
ATOM     31  N   UNL     1      -1.464  -5.309  -1.901  1.00  0.00    -0.352 N 
ATOM     32  C   UNL     1      -2.565  -5.886  -2.412  1.00  0.00     0.251 C 
ATOM     33  H   UNL     1      -1.192  -4.552  -2.468  1.00  0.00     0.163 HD
ATOM     34  O   UNL     1      -2.941  -5.486  -3.513  1.00  0.00    -0.269 OA
BRANCH  32  35
ATOM     35  C   UNL     1      -3.318  -6.891  -1.707  1.00  0.00     0.039 A 
ATOM     36  C   UNL     1      -3.943  -7.862  -2.494  1.00  0.00     0.014 A 
ATOM     37  C   UNL     1      -3.528  -6.787  -0.334  1.00  0.00     0.014 A 
ATOM     38  C   UNL     1      -4.793  -8.757  -1.889  1.00  0.00     0.010 A 
ATOM     39  C   UNL     1      -4.306  -7.733   0.285  1.00  0.00     0.010 A 
ATOM     40  C   UNL     1      -4.952  -8.693  -0.500  1.00  0.00    -0.014 A 
BRANCH  40  41
ATOM     41  C   UNL     1      -5.829  -9.643   0.168  1.00  0.00     0.031 A 
ATOM     42  C   UNL     1      -7.107  -9.141   0.745  1.00  0.00     0.074 A 
ATOM     43  C   UNL     1      -5.373 -10.900   0.271  1.00  0.00     0.049 A 
ATOM     44  N   UNL     1      -7.996  -9.787   1.439  1.00  0.00    -0.248 NA
ATOM     45  C   UNL     1      -7.407  -7.707   0.562  1.00  0.00     0.031 C 
ATOM     46  C   UNL     1      -4.080 -11.372  -0.245  1.00  0.00     0.029 A 
ATOM     47  N   UNL     1      -5.929 -12.003   0.835  1.00  0.00    -0.354 N 
ATOM     48  C   UNL     1      -8.950  -8.841   1.791  1.00  0.00     0.074 A 
ATOM     49  C   UNL     1      -8.499  -7.563   1.296  1.00  0.00     0.031 C 
ATOM     50  C   UNL     1      -3.962 -12.684  -0.002  1.00  0.00     0.029 A 
ATOM     51  C   UNL     1      -5.150 -13.126   0.712  1.00  0.00     0.049 A 
ATOM     52  H   UNL     1      -6.804 -11.997   1.288  1.00  0.00     0.167 HD
ATOM     53  C   UNL     1     -10.110  -9.058   2.448  1.00  0.00     0.037 A 
ATOM     54  C   UNL     1      -5.401 -14.374   1.135  1.00  0.00     0.037 A 
ATOM     55  C   UNL     1     -10.496 -10.374   2.884  1.00  0.00     0.049 A 
ATOM     56  C   UNL     1      -6.726 -14.596   1.805  1.00  0.00     0.074 A 
ATOM     57  C   UNL     1     -11.650 -10.775   3.524  1.00  0.00     0.029 A 
ATOM     58  N   UNL     1      -9.716 -11.514   2.699  1.00  0.00    -0.354 N 
ATOM     59  N   UNL     1      -7.652 -13.710   2.103  1.00  0.00    -0.248 NA
ATOM     60  C   UNL     1      -7.056 -15.971   2.175  1.00  0.00     0.031 C 
ATOM     61  C   UNL     1     -11.552 -12.153   3.756  1.00  0.00     0.029 A 
ATOM     62  C   UNL     1     -10.361 -12.621   3.213  1.00  0.00     0.049 A 
ATOM     63  H   UNL     1      -8.833 -11.528   2.265  1.00  0.00     0.167 HD
ATOM     64  C   UNL     1      -8.694 -14.423   2.671  1.00  0.00     0.074 A 
ATOM     65  C   UNL     1      -8.282 -15.818   2.659  1.00  0.00     0.031 C 
ATOM     66  C   UNL     1      -9.882 -13.983   3.160  1.00  0.00     0.037 A 
BRANCH  53  67
ATOM     67  C   UNL     1     -10.998  -7.872   2.713  1.00  0.00     0.058 A 
ATOM     68  C   UNL     1     -11.620  -7.164   1.670  1.00  0.00     0.135 A 
ATOM     69  C   UNL     1     -11.221  -7.422   4.023  1.00  0.00     0.135 A 
ATOM     70  F   UNL     1     -11.423  -7.529   0.392  1.00  0.00    -0.206 F 
ATOM     71  C   UNL     1     -12.403  -6.039   1.912  1.00  0.00     0.059 A 
ATOM     72  C   UNL     1     -12.027  -6.317   4.293  1.00  0.00     0.059 A 
ATOM     73  F   UNL     1     -10.643  -8.047   5.061  1.00  0.00    -0.206 F 
ATOM     74  C   UNL     1     -12.602  -5.624   3.229  1.00  0.00     0.060 A 
BRANCH  74  75
ATOM     75  S   UNL     1     -13.635  -4.173   3.528  1.00  0.00     0.124 S 
ATOM     76  O   UNL     1     -12.768  -3.095   3.064  1.00  0.00    -0.237 OA
ATOM     77  O   UNL     1     -14.804  -4.447   2.698  1.00  0.00    -0.237 OA
ATOM     78  O   UNL     1     -13.870  -4.214   4.968  1.00  0.00    -0.744 OA
ENDBRANCH  74  75
ENDBRANCH  53  67
BRANCH  54  79
ATOM     79  C   UNL     1      -4.428 -15.458   0.859  1.00  0.00     0.058 A 
ATOM     80  C   UNL     1      -4.708 -16.453  -0.088  1.00  0.00     0.135 A 
ATOM     81  C   UNL     1      -3.164 -15.479   1.471  1.00  0.00     0.135 A 
ATOM     82  F   UNL     1      -5.891 -16.462  -0.721  1.00  0.00    -0.206 F 
ATOM     83  C   UNL     1      -3.785 -17.446  -0.399  1.00  0.00     0.059 A 
ATOM     84  C   UNL     1      -2.213 -16.446   1.158  1.00  0.00     0.059 A 
ATOM     85  F   UNL     1      -2.827 -14.524   2.352  1.00  0.00    -0.206 F 
ATOM     86  C   UNL     1      -2.539 -17.435   0.231  1.00  0.00     0.060 A 
BRANCH  86  87
ATOM     87  S   UNL     1      -1.340 -18.714  -0.201  1.00  0.00     0.124 S 
ATOM     88  O   UNL     1      -1.932 -19.892   0.424  1.00  0.00    -0.237 OA
ATOM     89  O   UNL     1      -1.369 -18.682  -1.660  1.00  0.00    -0.237 OA
ATOM     90  O   UNL     1      -0.102 -18.234   0.406  1.00  0.00    -0.744 OA
ENDBRANCH  86  87
ENDBRANCH  54  79
BRANCH  66  91
ATOM     91  C   UNL     1     -10.809 -15.038   3.679  1.00  0.00     0.058 A 
ATOM     92  C   UNL     1     -10.565 -15.694   4.893  1.00  0.00     0.135 A 
ATOM     93  C   UNL     1     -11.975 -15.357   2.967  1.00  0.00     0.135 A 
ATOM     94  F   UNL     1      -9.456 -15.421   5.600  1.00  0.00    -0.206 F 
ATOM     95  C   UNL     1     -11.434 -16.662   5.372  1.00  0.00     0.059 A 
ATOM     96  C   UNL     1     -12.876 -16.298   3.445  1.00  0.00     0.059 A 
ATOM     97  F   UNL     1     -12.252 -14.741   1.807  1.00  0.00    -0.206 F 
ATOM     98  C   UNL     1     -12.588 -16.956   4.640  1.00  0.00     0.060 A 
BRANCH  98  99
ATOM     99  S   UNL     1     -13.722 -18.198   5.287  1.00  0.00     0.124 S 
ATOM    100  O   UNL     1     -12.992 -19.430   5.008  1.00  0.00    -0.237 OA
ATOM    101  O   UNL     1     -13.823 -17.824   6.694  1.00  0.00    -0.237 OA
ATOM    102  O   UNL     1     -14.934 -17.992   4.501  1.00  0.00    -0.744 OA
ENDBRANCH  98  99
ENDBRANCH  66  91
ENDBRANCH  40  41
ENDBRANCH  32  35
ENDBRANCH  30  31
ENDBRANCH  29  30
ENDBRANCH  28  29
ENDBRANCH   3  28
TORSDOF 19
