REMARK SMILES CCOc1ccc(C(=O)N2CCC(C(=O)NCCCNC(=O)c3ccc(-c4c5nc(c(-c6c(F)cc(S(=O)(=O)[O-])cc6F)c6ccc([nH]6)c(-c6c(F)cc(S(=O)(=O)[O-])cc6F)c6nc(c(-c7c(F)cc(S(=O)(=O)[O-])cc7F)c7ccc4[nH]7)C=C6)C=C5)cc3)(c3ccccc3)CC2)cc1OC
REMARK SMILES IDX 18 1 17 2 16 3 14 4 15 5 13 7 8 8 9 9 10 10 11 11 96 12
REMARK SMILES IDX 12 13 95 14 7 15 4 16 5 17 98 18 6 19 97 20 3 21 2 22 1 23
REMARK SMILES IDX 99 24 100 25 89 26 90 27 94 28 91 29 93 30 92 31 19 32 20 33
REMARK SMILES IDX 21 34 22 36 23 37 24 38 88 39 25 40 87 41 26 42 27 43 28 44
REMARK SMILES IDX 81 45 29 46 86 47 80 48 82 49 30 50 85 51 79 52 78 53 31 55
REMARK SMILES IDX 65 56 44 57 64 58 45 59 48 60 63 61 83 62 46 63 47 64 62 66
REMARK SMILES IDX 84 67 49 68 32 69 33 70 42 71 34 72 35 73 41 74 43 75 36 76
REMARK SMILES IDX 37 77 38 78 39 79 40 80 66 81 67 82 76 83 68 84 69 85 75 86
REMARK SMILES IDX 77 87 70 88 71 89 72 90 73 91 74 92 50 93 51 94 60 95 52 96
REMARK SMILES IDX 53 97 59 98 61 99 54 100 55 101 56 102 57 103 58 104
REMARK H PARENT 16 6 20 35 82 54 48 65
REMARK Flexibility Score: inf
ROOT
ATOM      1  C   UNL     1      11.049   0.838  -5.307  1.00  0.00     0.042 C 
ENDROOT
BRANCH   1   2
ATOM      2  C   UNL     1      10.286  -0.424  -4.933  1.00  0.00     0.117 C 
BRANCH   2   3
ATOM      3  N   UNL     1      11.083  -1.319  -4.100  1.00  0.00    -0.355 N 
ATOM      4  C   UNL     1      10.978  -1.721  -2.796  1.00  0.00     0.230 C 
ATOM      5  O   UNL     1      11.972  -2.324  -2.387  1.00  0.00    -0.274 OA
ATOM      6  H   UNL     1      11.851  -1.714  -4.572  1.00  0.00     0.163 HD
BRANCH   4   7
ATOM      7  C   UNL     1       9.715  -1.390  -1.927  1.00  0.00     0.077 C 
ATOM      8  C   UNL     1       6.454   1.307  -2.957  1.00  0.00     0.253 C 
ATOM      9  O   UNL     1       6.807   2.384  -3.438  1.00  0.00    -0.269 OA
ATOM     10  N   UNL     1       7.403   0.360  -2.527  1.00  0.00    -0.339 N 
ATOM     11  C   UNL     1       8.455   0.897  -1.683  1.00  0.00     0.121 C 
ATOM     12  C   UNL     1       7.216  -1.089  -2.552  1.00  0.00     0.121 C 
ATOM     13  C   UNL     1       9.775   0.149  -1.724  1.00  0.00     0.043 C 
ATOM     14  C   UNL     1       8.487  -1.898  -2.737  1.00  0.00     0.043 C 
BRANCH   8  15
ATOM     15  C   UNL     1       4.992   1.104  -2.691  1.00  0.00     0.043 A 
ATOM     16  C   UNL     1       2.257   0.846  -2.010  1.00  0.00     0.161 A 
ATOM     17  C   UNL     1       2.693   1.887  -2.847  1.00  0.00     0.051 A 
ATOM     18  C   UNL     1       3.179  -0.083  -1.541  1.00  0.00     0.161 A 
ATOM     19  C   UNL     1       4.050   2.006  -3.198  1.00  0.00     0.018 A 
ATOM     20  C   UNL     1       4.529   0.118  -1.825  1.00  0.00     0.064 A 
BRANCH  16  21
ATOM     21  O   UNL     1       0.927   0.719  -1.727  1.00  0.00    -0.490 OA
BRANCH  21  22
ATOM     22  C   UNL     1       0.429   1.754  -0.868  1.00  0.00     0.226 C 
ATOM     23  C   UNL     1      -0.185   1.108   0.365  1.00  0.00     0.049 C 
ENDBRANCH  21  22
ENDBRANCH  16  21
BRANCH  18  24
ATOM     24  O   UNL     1       3.014  -1.226  -0.816  1.00  0.00    -0.493 OA
ATOM     25  C   UNL     1       1.740  -1.597  -0.341  1.00  0.00     0.278 C 
ENDBRANCH  18  24
ENDBRANCH   8  15
BRANCH   7  26
ATOM     26  C   UNL     1       9.641  -2.085  -0.517  1.00  0.00    -0.032 A 
ATOM     27  C   UNL     1      10.517  -3.097  -0.091  1.00  0.00     0.005 A 
ATOM     28  C   UNL     1       8.613  -1.750   0.395  1.00  0.00     0.005 A 
ATOM     29  C   UNL     1      10.389  -3.717   1.162  1.00  0.00     0.000 A 
ATOM     30  C   UNL     1       8.463  -2.385   1.634  1.00  0.00     0.000 A 
ATOM     31  C   UNL     1       9.357  -3.369   2.021  1.00  0.00     0.000 A 
ENDBRANCH   7  26
ENDBRANCH   4   7
ENDBRANCH   2   3
ENDBRANCH   1   2
BRANCH   1  32
ATOM     32  C   UNL     1      12.339   0.575  -6.066  1.00  0.00     0.118 C 
BRANCH  32  33
ATOM     33  N   UNL     1      12.112  -0.069  -7.351  1.00  0.00    -0.352 N 
ATOM     34  C   UNL     1      12.350   0.400  -8.621  1.00  0.00     0.251 C 
ATOM     35  H   UNL     1      11.731  -0.976  -7.304  1.00  0.00     0.163 HD
ATOM     36  O   UNL     1      11.903  -0.208  -9.587  1.00  0.00    -0.269 OA
BRANCH  34  37
ATOM     37  C   UNL     1      13.123   1.646  -8.813  1.00  0.00     0.039 A 
ATOM     38  C   UNL     1      12.682   2.579  -9.754  1.00  0.00     0.014 A 
ATOM     39  C   UNL     1      14.278   1.895  -8.067  1.00  0.00     0.014 A 
ATOM     40  C   UNL     1      13.362   3.791  -9.894  1.00  0.00     0.010 A 
ATOM     41  C   UNL     1      14.894   3.140  -8.138  1.00  0.00     0.010 A 
ATOM     42  C   UNL     1      14.449   4.099  -9.059  1.00  0.00    -0.014 A 
BRANCH  42  43
ATOM     43  C   UNL     1      15.138   5.413  -9.137  1.00  0.00     0.031 A 
ATOM     44  C   UNL     1      16.597   5.480  -9.502  1.00  0.00     0.074 A 
ATOM     45  C   UNL     1      14.466   6.539  -8.819  1.00  0.00     0.049 A 
ATOM     46  N   UNL     1      17.388   6.520  -9.557  1.00  0.00    -0.248 NA
ATOM     47  C   UNL     1      17.262   4.206  -9.822  1.00  0.00     0.031 C 
ATOM     48  C   UNL     1      13.063   6.598  -8.403  1.00  0.00     0.029 A 
ATOM     49  N   UNL     1      14.875   7.849  -8.789  1.00  0.00    -0.354 N 
ATOM     50  C   UNL     1      18.640   6.027  -9.905  1.00  0.00     0.074 A 
ATOM     51  C   UNL     1      18.520   4.588  -9.987  1.00  0.00     0.031 C 
ATOM     52  C   UNL     1      12.721   7.878  -8.187  1.00  0.00     0.029 A 
ATOM     53  C   UNL     1      13.889   8.727  -8.403  1.00  0.00     0.049 A 
ATOM     54  H   UNL     1      15.788   8.133  -9.021  1.00  0.00     0.167 HD
ATOM     55  C   UNL     1      19.781   6.712 -10.159  1.00  0.00     0.037 A 
ATOM     56  C   UNL     1      13.923  10.063  -8.234  1.00  0.00     0.037 A 
ATOM     57  C   UNL     1      19.887   8.147 -10.094  1.00  0.00     0.049 A 
ATOM     58  C   UNL     1      15.207  10.801  -8.506  1.00  0.00     0.074 A 
ATOM     59  C   UNL     1      20.982   8.941 -10.383  1.00  0.00     0.029 A 
ATOM     60  N   UNL     1      18.863   9.002  -9.711  1.00  0.00    -0.354 N 
ATOM     61  N   UNL     1      16.366  10.324  -8.896  1.00  0.00    -0.248 NA
ATOM     62  C   UNL     1      15.189  12.258  -8.320  1.00  0.00     0.031 C 
ATOM     63  C   UNL     1      20.638  10.272 -10.124  1.00  0.00     0.029 A 
ATOM     64  C   UNL     1      19.309  10.313  -9.733  1.00  0.00     0.049 A 
ATOM     65  H   UNL     1      17.954   8.718  -9.461  1.00  0.00     0.167 HD
ATOM     66  C   UNL     1      17.204  11.425  -9.032  1.00  0.00     0.074 A 
ATOM     67  C   UNL     1      16.416  12.593  -8.695  1.00  0.00     0.031 C 
ATOM     68  C   UNL     1      18.508  11.467  -9.402  1.00  0.00     0.037 A 
BRANCH  55  69
ATOM     69  C   UNL     1      21.004   5.920 -10.537  1.00  0.00     0.058 A 
ATOM     70  C   UNL     1      21.094   5.240 -11.763  1.00  0.00     0.135 A 
ATOM     71  C   UNL     1      22.117   5.870  -9.681  1.00  0.00     0.135 A 
ATOM     72  F   UNL     1      20.055   5.240 -12.614  1.00  0.00    -0.206 F 
ATOM     73  C   UNL     1      22.229   4.517 -12.114  1.00  0.00     0.059 A 
ATOM     74  C   UNL     1      23.275   5.179 -10.026  1.00  0.00     0.059 A 
ATOM     75  F   UNL     1      22.087   6.500  -8.496  1.00  0.00    -0.206 F 
ATOM     76  C   UNL     1      23.316   4.493 -11.239  1.00  0.00     0.060 A 
BRANCH  76  77
ATOM     77  S   UNL     1      24.784   3.558 -11.716  1.00  0.00     0.124 S 
ATOM     78  O   UNL     1      24.309   2.184 -11.587  1.00  0.00    -0.237 OA
ATOM     79  O   UNL     1      25.018   4.022 -13.080  1.00  0.00    -0.237 OA
ATOM     80  O   UNL     1      25.784   3.970 -10.737  1.00  0.00    -0.744 OA
ENDBRANCH  76  77
ENDBRANCH  55  69
BRANCH  56  81
ATOM     81  C   UNL     1      12.700  10.793  -7.802  1.00  0.00     0.058 A 
ATOM     82  C   UNL     1      12.034  11.667  -8.675  1.00  0.00     0.135 A 
ATOM     83  C   UNL     1      12.169  10.631  -6.513  1.00  0.00     0.135 A 
ATOM     84  F   UNL     1      12.505  11.862  -9.916  1.00  0.00    -0.206 F 
ATOM     85  C   UNL     1      10.901  12.371  -8.280  1.00  0.00     0.059 A 
ATOM     86  C   UNL     1      11.019  11.300  -6.104  1.00  0.00     0.059 A 
ATOM     87  F   UNL     1      12.757   9.794  -5.643  1.00  0.00    -0.206 F 
ATOM     88  C   UNL     1      10.399  12.179  -6.992  1.00  0.00     0.060 A 
BRANCH  88  89
ATOM     89  S   UNL     1       8.907  13.071  -6.503  1.00  0.00     0.124 S 
ATOM     90  O   UNL     1       9.408  14.435  -6.378  1.00  0.00    -0.237 OA
ATOM     91  O   UNL     1       8.016  12.818  -7.631  1.00  0.00    -0.237 OA
ATOM     92  O   UNL     1       8.523  12.423  -5.252  1.00  0.00    -0.744 OA
ENDBRANCH  88  89
ENDBRANCH  56  81
BRANCH  68  93
ATOM     93  C   UNL     1      19.159  12.820  -9.502  1.00  0.00     0.058 A 
ATOM     94  C   UNL     1      19.467  13.581  -8.364  1.00  0.00     0.135 A 
ATOM     95  C   UNL     1      19.527  13.338 -10.755  1.00  0.00     0.135 A 
ATOM     96  F   UNL     1      19.131  13.136  -7.142  1.00  0.00    -0.206 F 
ATOM     97  C   UNL     1      20.094  14.819  -8.465  1.00  0.00     0.059 A 
ATOM     98  C   UNL     1      20.184  14.559 -10.878  1.00  0.00     0.059 A 
ATOM     99  F   UNL     1      19.267  12.647 -11.877  1.00  0.00    -0.206 F 
ATOM    100  C   UNL     1      20.452  15.298  -9.727  1.00  0.00     0.060 A 
BRANCH 100 101
ATOM    101  S   UNL     1      21.296  16.889  -9.839  1.00  0.00     0.124 S 
ATOM    102  O   UNL     1      20.215  17.819  -9.531  1.00  0.00    -0.237 OA
ATOM    103  O   UNL     1      22.334  16.764  -8.821  1.00  0.00    -0.237 OA
ATOM    104  O   UNL     1      21.778  16.922 -11.217  1.00  0.00    -0.744 OA
ENDBRANCH 100 101
ENDBRANCH  68  93
ENDBRANCH  42  43
ENDBRANCH  34  37
ENDBRANCH  32  33
ENDBRANCH   1  32
TORSDOF 18
