REMARK SMILES O=C(NCCCNC(=O)c1cn2ccccc2n1)c1ccc(-c2c3nc(c(-c4c(F)cc(S(=O)(=O)[O-])cc4F)c4ccc([nH]4)c(-c4c(F)cc(S(=O)(=O)[O-])cc4F)c4nc(c(-c5c(F)cc(S(=O)(=O)[O-])cc5F)c5ccc2[nH]5)C=C4)C=C3)cc1
REMARK SMILES IDX 1 1 2 2 3 3 19 5 20 6 84 7 21 8 83 9 22 10 23 11 24 12 77 13
REMARK SMILES IDX 25 14 82 15 76 16 78 17 26 18 81 19 75 20 74 21 27 23 61 24
REMARK SMILES IDX 40 25 60 26 41 27 44 28 59 29 79 30 42 31 43 32 58 34 80 35
REMARK SMILES IDX 45 36 28 37 29 38 38 39 30 40 31 41 37 42 39 43 32 44 33 45
REMARK SMILES IDX 34 46 35 47 36 48 62 49 63 50 72 51 64 52 65 53 71 54 73 55
REMARK SMILES IDX 66 56 67 57 68 58 69 59 70 60 46 61 47 62 56 63 48 64 49 65
REMARK SMILES IDX 55 66 57 67 50 68 51 69 52 70 53 71 54 72 4 73 5 74 6 75
REMARK SMILES IDX 7 76 8 77 9 79 10 80 11 81 18 82 12 83 17 84 13 85 16 86
REMARK SMILES IDX 14 87 15 88
REMARK H PARENT 3 4 78 22 44 33 7 78
REMARK Flexibility Score: inf
ROOT
ATOM      1  O   UNL     1       1.349  -0.359  -0.226  1.00  0.00    -0.269 OA
ATOM      2  C   UNL     1       2.572  -0.239  -0.221  1.00  0.00     0.251 C 
ATOM      3  N   UNL     1       3.325  -1.228   0.360  1.00  0.00    -0.352 N 
ATOM      4  H   UNL     1       2.826  -2.051   0.567  1.00  0.00     0.163 HD
ENDROOT
BRANCH   2   5
ATOM      5  C   UNL     1       3.193   0.961  -0.828  1.00  0.00     0.039 A 
ATOM      6  C   UNL     1       4.338   0.877  -1.625  1.00  0.00     0.014 A 
ATOM      7  C   UNL     1       2.550   2.195  -0.670  1.00  0.00     0.014 A 
ATOM      8  C   UNL     1       4.894   2.034  -2.176  1.00  0.00     0.010 A 
ATOM      9  C   UNL     1       3.078   3.345  -1.264  1.00  0.00     0.010 A 
ATOM     10  C   UNL     1       4.268   3.278  -2.002  1.00  0.00    -0.014 A 
BRANCH  10  11
ATOM     11  C   UNL     1       4.845   4.499  -2.619  1.00  0.00     0.031 A 
ATOM     12  C   UNL     1       5.462   5.569  -1.764  1.00  0.00     0.074 A 
ATOM     13  C   UNL     1       4.808   4.648  -3.956  1.00  0.00     0.049 A 
ATOM     14  N   UNL     1       5.987   6.712  -2.126  1.00  0.00    -0.248 NA
ATOM     15  C   UNL     1       5.483   5.329  -0.313  1.00  0.00     0.031 C 
ATOM     16  C   UNL     1       4.220   3.693  -4.896  1.00  0.00     0.029 A 
ATOM     17  N   UNL     1       5.277   5.659  -4.756  1.00  0.00    -0.354 N 
ATOM     18  C   UNL     1       6.377   7.341  -0.951  1.00  0.00     0.074 A 
ATOM     19  C   UNL     1       6.022   6.454   0.138  1.00  0.00     0.031 C 
ATOM     20  C   UNL     1       4.383   4.152  -6.146  1.00  0.00     0.029 A 
ATOM     21  C   UNL     1       5.059   5.445  -6.095  1.00  0.00     0.049 A 
ATOM     22  H   UNL     1       5.726   6.461  -4.404  1.00  0.00     0.167 HD
ATOM     23  C   UNL     1       6.976   8.545  -0.791  1.00  0.00     0.037 A 
ATOM     24  C   UNL     1       5.363   6.206  -7.164  1.00  0.00     0.037 A 
ATOM     25  C   UNL     1       7.356   9.419  -1.869  1.00  0.00     0.049 A 
ATOM     26  C   UNL     1       6.061   7.519  -6.968  1.00  0.00     0.074 A 
ATOM     27  C   UNL     1       7.993  10.646  -1.802  1.00  0.00     0.029 A 
ATOM     28  N   UNL     1       7.137   9.155  -3.213  1.00  0.00    -0.354 N 
ATOM     29  N   UNL     1       6.434   8.090  -5.849  1.00  0.00    -0.248 NA
ATOM     30  C   UNL     1       6.375   8.293  -8.177  1.00  0.00     0.031 C 
ATOM     31  C   UNL     1       8.150  11.130  -3.108  1.00  0.00     0.029 A 
ATOM     32  C   UNL     1       7.623  10.197  -3.986  1.00  0.00     0.049 A 
ATOM     33  H   UNL     1       6.701   8.346  -3.566  1.00  0.00     0.167 HD
ATOM     34  C   UNL     1       7.029   9.290  -6.217  1.00  0.00     0.074 A 
ATOM     35  C   UNL     1       6.977   9.359  -7.664  1.00  0.00     0.031 C 
ATOM     36  C   UNL     1       7.564  10.250  -5.424  1.00  0.00     0.037 A 
BRANCH  23  37
ATOM     37  C   UNL     1       7.241   8.988   0.616  1.00  0.00     0.058 A 
ATOM     38  C   UNL     1       8.338   8.501   1.342  1.00  0.00     0.135 A 
ATOM     39  C   UNL     1       6.380   9.895   1.251  1.00  0.00     0.135 A 
ATOM     40  F   UNL     1       9.178   7.618   0.782  1.00  0.00    -0.206 F 
ATOM     41  C   UNL     1       8.556   8.875   2.664  1.00  0.00     0.059 A 
ATOM     42  C   UNL     1       6.586  10.291   2.569  1.00  0.00     0.059 A 
ATOM     43  F   UNL     1       5.315  10.384   0.599  1.00  0.00    -0.206 F 
ATOM     44  C   UNL     1       7.665   9.759   3.274  1.00  0.00     0.060 A 
BRANCH  44  45
ATOM     45  S   UNL     1       7.921  10.212   5.003  1.00  0.00     0.124 S 
ATOM     46  O   UNL     1       7.252   9.112   5.690  1.00  0.00    -0.237 OA
ATOM     47  O   UNL     1       9.376  10.238   5.119  1.00  0.00    -0.237 OA
ATOM     48  O   UNL     1       7.265  11.512   5.106  1.00  0.00    -0.744 OA
ENDBRANCH  44  45
ENDBRANCH  23  37
BRANCH  24  49
ATOM     49  C   UNL     1       5.011   5.716  -8.517  1.00  0.00     0.058 A 
ATOM     50  C   UNL     1       5.972   5.102  -9.330  1.00  0.00     0.135 A 
ATOM     51  C   UNL     1       3.692   5.779  -8.988  1.00  0.00     0.135 A 
ATOM     52  F   UNL     1       7.246   5.024  -8.918  1.00  0.00    -0.206 F 
ATOM     53  C   UNL     1       5.636   4.551 -10.562  1.00  0.00     0.059 A 
ATOM     54  C   UNL     1       3.329   5.225 -10.210  1.00  0.00     0.059 A 
ATOM     55  F   UNL     1       2.738   6.347  -8.235  1.00  0.00    -0.206 F 
ATOM     56  C   UNL     1       4.309   4.611 -10.990  1.00  0.00     0.060 A 
BRANCH  56  57
ATOM     57  S   UNL     1       3.846   3.799 -12.536  1.00  0.00     0.124 S 
ATOM     58  O   UNL     1       4.145   4.838 -13.513  1.00  0.00    -0.237 OA
ATOM     59  O   UNL     1       4.723   2.632 -12.556  1.00  0.00    -0.237 OA
ATOM     60  O   UNL     1       2.430   3.501 -12.338  1.00  0.00    -0.744 OA
ENDBRANCH  56  57
ENDBRANCH  24  49
BRANCH  36  61
ATOM     61  C   UNL     1       8.140  11.456  -6.102  1.00  0.00     0.058 A 
ATOM     62  C   UNL     1       7.322  12.522  -6.502  1.00  0.00     0.135 A 
ATOM     63  C   UNL     1       9.523  11.570  -6.307  1.00  0.00     0.135 A 
ATOM     64  F   UNL     1       5.993  12.453  -6.330  1.00  0.00    -0.206 F 
ATOM     65  C   UNL     1       7.855  13.664  -7.090  1.00  0.00     0.059 A 
ATOM     66  C   UNL     1      10.078  12.707  -6.885  1.00  0.00     0.059 A 
ATOM     67  F   UNL     1      10.345  10.576  -5.938  1.00  0.00    -0.206 F 
ATOM     68  C   UNL     1       9.236  13.747  -7.280  1.00  0.00     0.060 A 
BRANCH  68  69
ATOM     69  S   UNL     1       9.934  15.247  -8.003  1.00  0.00     0.124 S 
ATOM     70  O   UNL     1       9.772  14.987  -9.429  1.00  0.00    -0.237 OA
ATOM     71  O   UNL     1       9.084  16.296  -7.450  1.00  0.00    -0.237 OA
ATOM     72  O   UNL     1      11.309  15.243  -7.513  1.00  0.00    -0.744 OA
ENDBRANCH  68  69
ENDBRANCH  36  61
ENDBRANCH  10  11
ENDBRANCH   2   5
BRANCH   3  73
ATOM     73  C   UNL     1       4.734  -1.272   0.724  1.00  0.00     0.118 C 
BRANCH  73  74
ATOM     74  C   UNL     1       4.950  -1.253   2.236  1.00  0.00     0.042 C 
BRANCH  74  75
ATOM     75  C   UNL     1       4.302  -2.412   2.991  1.00  0.00     0.118 C 
BRANCH  75  76
ATOM     76  N   UNL     1       4.826  -3.706   2.589  1.00  0.00    -0.351 N 
ATOM     77  C   UNL     1       5.730  -4.536   3.211  1.00  0.00     0.271 C 
ATOM     78  H   UNL     1       4.477  -4.044   1.733  1.00  0.00     0.163 HD
ATOM     79  O   UNL     1       6.171  -5.486   2.566  1.00  0.00    -0.267 OA
BRANCH  77  80
ATOM     80  C   UNL     1       6.120  -4.284   4.599  1.00  0.00     0.147 A 
ATOM     81  C   UNL     1       5.292  -3.987   5.668  1.00  0.00     0.127 A 
ATOM     82  N   UNL     1       7.428  -4.411   5.043  1.00  0.00    -0.223 NA
ATOM     83  N   UNL     1       6.108  -3.872   6.761  1.00  0.00    -0.306 N 
ATOM     84  C   UNL     1       7.399  -4.149   6.331  1.00  0.00     0.137 A 
ATOM     85  C   UNL     1       5.785  -3.549   8.077  1.00  0.00     0.093 A 
ATOM     86  C   UNL     1       8.431  -4.107   7.311  1.00  0.00     0.048 A 
ATOM     87  C   UNL     1       6.764  -3.502   8.997  1.00  0.00     0.018 A 
ATOM     88  C   UNL     1       8.130  -3.797   8.587  1.00  0.00     0.005 A 
ENDBRANCH  77  80
ENDBRANCH  75  76
ENDBRANCH  74  75
ENDBRANCH  73  74
ENDBRANCH   3  73
TORSDOF 13
