REMARK SMILES NC(=O)c1ccc(Nc2ccc(C(=O)NCCCNC(=O)c3ccc(-c4c5nc(c(-c6c(F)cc(S(=O)(=O)[O-])cc6F)c6ccc([nH]6)c(-c6c(F)cc(S(=O)(=O)[O-])cc6F)c6nc(c(-c7c(F)cc(S(=O)(=O)[O-])cc7F)c7ccc4[nH]7)C=C6)C=C5)cc3)c(Cl)c2)nn1
REMARK SMILES IDX 17 1 16 2 15 3 13 4 14 5 12 7 9 8 10 9 90 10 11 11 88 12
REMARK SMILES IDX 89 13 8 14 7 16 4 17 5 18 92 19 6 20 91 21 2 22 1 23 3 26
REMARK SMILES IDX 18 27 19 28 20 29 21 31 22 32 23 33 87 34 24 35 86 36 25 37
REMARK SMILES IDX 26 38 27 39 80 40 28 41 85 42 79 43 81 44 29 45 84 46 78 47
REMARK SMILES IDX 77 48 30 50 64 51 43 52 63 53 44 54 47 55 62 56 82 57 45 58
REMARK SMILES IDX 46 59 61 61 83 62 48 63 31 64 32 65 41 66 33 67 34 68 40 69
REMARK SMILES IDX 42 70 35 71 36 72 37 73 38 74 39 75 65 76 66 77 75 78 67 79
REMARK SMILES IDX 68 80 74 81 76 82 69 83 70 84 71 85 72 86 73 87 49 88 50 89
REMARK SMILES IDX 59 90 51 91 52 92 58 93 60 94 53 95 54 96 55 97 56 98 57 99
REMARK H PARENT 15 6 8 15 1 24 1 25 19 30 81 49 47 60
REMARK Flexibility Score: inf
ROOT
ATOM      1  C   UNL     1       0.549  -8.041   9.798  1.00  0.00     0.042 C 
ENDROOT
BRANCH   1   2
ATOM      2  C   UNL     1       1.813  -8.412   9.018  1.00  0.00     0.118 C 
BRANCH   2   3
ATOM      3  N   UNL     1       1.470  -8.814   7.668  1.00  0.00    -0.352 N 
ATOM      4  C   UNL     1       1.519  -8.203   6.445  1.00  0.00     0.252 C 
ATOM      5  O   UNL     1       1.089  -8.877   5.502  1.00  0.00    -0.269 OA
ATOM      6  H   UNL     1       1.123  -9.735   7.621  1.00  0.00     0.163 HD
BRANCH   4   7
ATOM      7  C   UNL     1       2.131  -6.878   6.131  1.00  0.00     0.058 A 
ATOM      8  C   UNL     1       3.238  -4.470   5.073  1.00  0.00     0.041 A 
ATOM      9  C   UNL     1       3.247  -5.635   4.317  1.00  0.00     0.027 A 
ATOM     10  C   UNL     1       2.669  -4.512   6.346  1.00  0.00     0.047 A 
ATOM     11  C   UNL     1       2.735  -6.824   4.853  1.00  0.00     0.017 A 
ATOM     12  C   UNL     1       2.070  -5.679   6.850  1.00  0.00     0.055 A 
ATOM     13  Cl  UNL     1       1.135  -5.384   8.261  1.00  0.00    -0.083 Cl
BRANCH   8  14
ATOM     14  N   UNL     1       3.569  -3.216   4.519  1.00  0.00    -0.339 N 
ATOM     15  H   UNL     1       4.420  -2.795   4.780  1.00  0.00     0.168 HD
BRANCH  14  16
ATOM     16  C   UNL     1       2.729  -2.539   3.604  1.00  0.00     0.153 A 
ATOM     17  C   UNL     1       1.083  -1.192   1.874  1.00  0.00     0.150 A 
ATOM     18  C   UNL     1       2.188  -0.532   2.387  1.00  0.00     0.040 A 
ATOM     19  N   UNL     1       0.810  -2.469   2.197  1.00  0.00    -0.143 NA
ATOM     20  C   UNL     1       3.028  -1.225   3.259  1.00  0.00     0.051 A 
ATOM     21  N   UNL     1       1.649  -3.143   3.060  1.00  0.00    -0.132 NA
BRANCH  17  22
ATOM     22  C   UNL     1       0.158  -0.538   0.912  1.00  0.00     0.269 C 
ATOM     23  N   UNL     1       0.728   0.262  -0.049  1.00  0.00    -0.364 N 
ATOM     24  H   UNL     1       0.160   0.718  -0.710  1.00  0.00     0.160 HD
ATOM     25  H   UNL     1       1.705   0.378  -0.076  1.00  0.00     0.160 HD
ATOM     26  O   UNL     1      -1.055  -0.700   0.939  1.00  0.00    -0.268 OA
ENDBRANCH  17  22
ENDBRANCH  14  16
ENDBRANCH   8  14
ENDBRANCH   4   7
ENDBRANCH   2   3
ENDBRANCH   1   2
BRANCH   1  27
ATOM     27  C   UNL     1      -0.235  -9.232  10.332  1.00  0.00     0.118 C 
BRANCH  27  28
ATOM     28  N   UNL     1       0.368  -9.778  11.535  1.00  0.00    -0.352 N 
ATOM     29  C   UNL     1      -0.101  -9.786  12.827  1.00  0.00     0.251 C 
ATOM     30  H   UNL     1       1.245 -10.206  11.406  1.00  0.00     0.163 HD
ATOM     31  O   UNL     1       0.677 -10.057  13.739  1.00  0.00    -0.269 OA
BRANCH  29  32
ATOM     32  C   UNL     1      -1.518  -9.469  13.135  1.00  0.00     0.039 A 
ATOM     33  C   UNL     1      -1.809  -8.759  14.305  1.00  0.00     0.014 A 
ATOM     34  C   UNL     1      -2.564  -9.921  12.325  1.00  0.00     0.014 A 
ATOM     35  C   UNL     1      -3.137  -8.470  14.638  1.00  0.00     0.010 A 
ATOM     36  C   UNL     1      -3.881  -9.569  12.618  1.00  0.00     0.010 A 
ATOM     37  C   UNL     1      -4.184  -8.855  13.787  1.00  0.00    -0.014 A 
BRANCH  37  38
ATOM     38  C   UNL     1      -5.601  -8.548  14.114  1.00  0.00     0.031 A 
ATOM     39  C   UNL     1      -6.573  -9.668  14.381  1.00  0.00     0.074 A 
ATOM     40  C   UNL     1      -6.029  -7.270  14.112  1.00  0.00     0.049 A 
ATOM     41  N   UNL     1      -7.862  -9.611  14.599  1.00  0.00    -0.248 NA
ATOM     42  C   UNL     1      -6.027 -11.035  14.377  1.00  0.00     0.031 C 
ATOM     43  C   UNL     1      -5.195  -6.100  13.827  1.00  0.00     0.029 A 
ATOM     44  N   UNL     1      -7.273  -6.740  14.347  1.00  0.00    -0.354 N 
ATOM     45  C   UNL     1      -8.284 -10.929  14.733  1.00  0.00     0.074 A 
ATOM     46  C   UNL     1      -7.121 -11.766  14.531  1.00  0.00     0.031 C 
ATOM     47  C   UNL     1      -5.947  -4.990  13.921  1.00  0.00     0.029 A 
ATOM     48  C   UNL     1      -7.320  -5.370  14.240  1.00  0.00     0.049 A 
ATOM     49  H   UNL     1      -8.058  -7.290  14.572  1.00  0.00     0.167 HD
ATOM     50  C   UNL     1      -9.522 -11.400  15.018  1.00  0.00     0.037 A 
ATOM     51  C   UNL     1      -8.353  -4.516  14.376  1.00  0.00     0.037 A 
ATOM     52  C   UNL     1     -10.668 -10.561  15.256  1.00  0.00     0.049 A 
ATOM     53  C   UNL     1      -9.714  -5.060  14.715  1.00  0.00     0.074 A 
ATOM     54  C   UNL     1     -11.952 -10.936  15.610  1.00  0.00     0.029 A 
ATOM     55  N   UNL     1     -10.666  -9.176  15.171  1.00  0.00    -0.354 N 
ATOM     56  N   UNL     1     -10.084  -6.307  14.885  1.00  0.00    -0.248 NA
ATOM     57  C   UNL     1     -10.797  -4.082  14.885  1.00  0.00     0.031 C 
ATOM     58  C   UNL     1     -12.734  -9.780  15.710  1.00  0.00     0.029 A 
ATOM     59  C   UNL     1     -11.928  -8.682  15.455  1.00  0.00     0.049 A 
ATOM     60  H   UNL     1      -9.882  -8.626  14.941  1.00  0.00     0.167 HD
ATOM     61  C   UNL     1     -11.435  -6.262  15.206  1.00  0.00     0.074 A 
ATOM     62  C   UNL     1     -11.816  -4.864  15.216  1.00  0.00     0.031 C 
ATOM     63  C   UNL     1     -12.285  -7.286  15.469  1.00  0.00     0.037 A 
BRANCH  50  64
ATOM     64  C   UNL     1      -9.699 -12.891  15.097  1.00  0.00     0.058 A 
ATOM     65  C   UNL     1      -9.175 -13.639  16.164  1.00  0.00     0.135 A 
ATOM     66  C   UNL     1     -10.422 -13.580  14.110  1.00  0.00     0.135 A 
ATOM     67  F   UNL     1      -8.462 -13.033  17.128  1.00  0.00    -0.206 F 
ATOM     68  C   UNL     1      -9.333 -15.019  16.234  1.00  0.00     0.059 A 
ATOM     69  C   UNL     1     -10.615 -14.958  14.173  1.00  0.00     0.059 A 
ATOM     70  F   UNL     1     -10.947 -12.915  13.069  1.00  0.00    -0.206 F 
ATOM     71  C   UNL     1     -10.052 -15.671  15.230  1.00  0.00     0.060 A 
BRANCH  71  72
ATOM     72  S   UNL     1     -10.249 -17.463  15.333  1.00  0.00     0.124 S 
ATOM     73  O   UNL     1      -8.925 -17.923  14.924  1.00  0.00    -0.237 OA
ATOM     74  O   UNL     1     -10.582 -17.663  16.740  1.00  0.00    -0.237 OA
ATOM     75  O   UNL     1     -11.329 -17.740  14.391  1.00  0.00    -0.744 OA
ENDBRANCH  71  72
ENDBRANCH  50  64
BRANCH  51  76
ATOM     76  C   UNL     1      -8.132  -3.055  14.222  1.00  0.00     0.058 A 
ATOM     77  C   UNL     1      -8.148  -2.205  15.337  1.00  0.00     0.135 A 
ATOM     78  C   UNL     1      -7.880  -2.481  12.966  1.00  0.00     0.135 A 
ATOM     79  F   UNL     1      -8.392  -2.706  16.558  1.00  0.00    -0.206 F 
ATOM     80  C   UNL     1      -7.933  -0.836  15.214  1.00  0.00     0.059 A 
ATOM     81  C   UNL     1      -7.640  -1.118  12.820  1.00  0.00     0.059 A 
ATOM     82  F   UNL     1      -7.838  -3.255  11.870  1.00  0.00    -0.206 F 
ATOM     83  C   UNL     1      -7.678  -0.302  13.950  1.00  0.00     0.060 A 
BRANCH  83  84
ATOM     84  S   UNL     1      -7.343   1.468  13.809  1.00  0.00     0.124 S 
ATOM     85  O   UNL     1      -8.680   2.032  13.950  1.00  0.00    -0.237 OA
ATOM     86  O   UNL     1      -6.430   1.700  14.925  1.00  0.00    -0.237 OA
ATOM     87  O   UNL     1      -6.741   1.589  12.484  1.00  0.00    -0.744 OA
ENDBRANCH  83  84
ENDBRANCH  51  76
BRANCH  63  88
ATOM     88  C   UNL     1     -13.702  -6.932  15.821  1.00  0.00     0.058 A 
ATOM     89  C   UNL     1     -14.618  -6.512  14.845  1.00  0.00     0.135 A 
ATOM     90  C   UNL     1     -14.159  -7.064  17.141  1.00  0.00     0.135 A 
ATOM     91  F   UNL     1     -14.227  -6.364  13.570  1.00  0.00    -0.206 F 
ATOM     92  C   UNL     1     -15.938  -6.215  15.171  1.00  0.00     0.059 A 
ATOM     93  C   UNL     1     -15.480  -6.794  17.485  1.00  0.00     0.059 A 
ATOM     94  F   UNL     1     -13.323  -7.472  18.109  1.00  0.00    -0.206 F 
ATOM     95  C   UNL     1     -16.359  -6.359  16.494  1.00  0.00     0.060 A 
BRANCH  95  96
ATOM     96  S   UNL     1     -18.083  -6.005  16.900  1.00  0.00     0.124 S 
ATOM     97  O   UNL     1     -18.088  -4.546  16.909  1.00  0.00    -0.237 OA
ATOM     98  O   UNL     1     -18.802  -6.635  15.797  1.00  0.00    -0.237 OA
ATOM     99  O   UNL     1     -18.262  -6.643  18.201  1.00  0.00    -0.744 OA
ENDBRANCH  95  96
ENDBRANCH  63  88
ENDBRANCH  37  38
ENDBRANCH  29  32
ENDBRANCH  27  28
ENDBRANCH   1  27
TORSDOF 16
