REMARK SMILES C[C@]1(C(=O)NCCCNC(=O)c2ccc(-c3c4nc(c(-c5c(F)cc(S(=O)(=O)[O-])cc5F)c5ccc([nH]5)c(-c5c(F)cc(S(=O)(=O)[O-])cc5F)c5nc(c(-c6c(F)cc(S(=O)(=O)[O-])cc6F)c6ccc3[nH]6)C=C5)C=C4)cc2)[NH2+]C2(C(=O)c3ccccc3C2=O)[C@@H]2C(=O)N(c3ccccc3)C(=O)[C@H]21
REMARK SMILES IDX 8 1 7 2 6 3 5 4 3 5 4 6 2 8 1 9 78 10 102 11 79 12 90 15
REMARK SMILES IDX 100 16 80 17 88 18 91 19 93 20 101 21 81 22 82 23 87 24
REMARK SMILES IDX 89 25 92 26 83 27 86 28 84 29 85 30 94 31 95 32 99 33 96 34
REMARK SMILES IDX 98 35 97 36 9 37 10 38 11 40 12 41 13 42 77 43 14 44 76 45
REMARK SMILES IDX 15 46 16 47 17 48 70 49 18 50 75 51 69 52 71 53 19 54 74 55
REMARK SMILES IDX 68 56 67 57 20 59 54 60 33 61 53 62 34 63 37 64 52 65 72 66
REMARK SMILES IDX 35 67 36 68 51 70 73 71 38 72 21 73 22 74 31 75 23 76 24 77
REMARK SMILES IDX 30 78 32 79 25 80 26 81 27 82 28 83 29 84 55 85 56 86 65 87
REMARK SMILES IDX 57 88 58 89 64 90 66 91 59 92 60 93 61 94 62 95 63 96 39 97
REMARK SMILES IDX 40 98 49 99 41 100 42 101 48 102 50 103 43 104 44 105 45 106
REMARK SMILES IDX 46 107 47 108
REMARK H PARENT 5 7 78 13 78 14 9 39 71 58 37 69
REMARK Flexibility Score: inf
ROOT
ATOM      1  C   UNL     1      -1.115  -3.784   5.231  1.00  0.00     0.118 C 
ENDROOT
BRANCH   1   2
ATOM      2  C   UNL     1      -0.318  -3.790   3.940  1.00  0.00     0.042 C 
BRANCH   2   3
ATOM      3  C   UNL     1      -1.071  -3.122   2.805  1.00  0.00     0.118 C 
BRANCH   3   4
ATOM      4  N   UNL     1      -0.833  -1.710   2.640  1.00  0.00    -0.351 N 
ATOM      5  C   UNL     1      -0.255  -0.998   1.633  1.00  0.00     0.281 C 
ATOM      6  O   UNL     1      -0.278   0.230   1.803  1.00  0.00    -0.268 OA
ATOM      7  H   UNL     1      -1.145  -1.159   3.394  1.00  0.00     0.163 HD
BRANCH   5   8
ATOM      8  C   UNL     1       0.387  -1.603   0.322  1.00  0.00     0.186 C 
ATOM      9  C   UNL     1       1.438  -0.565  -0.142  1.00  0.00     0.091 C 
ATOM     10  N   UNL     1       1.088  -2.935   0.556  1.00  0.00    -0.314 N 
ATOM     11  C   UNL     1      -0.540  -1.904  -0.839  1.00  0.00     0.170 C 
ATOM     12  C   UNL     1       0.415  -3.999  -0.322  1.00  0.00     0.236 C 
ATOM     13  H   UNL     1       1.007  -3.198   1.539  1.00  0.00     0.348 HD
ATOM     14  H   UNL     1       2.076  -2.857   0.317  1.00  0.00     0.348 HD
ATOM     15  C   UNL     1      -0.894  -3.355  -0.619  1.00  0.00     0.177 C 
ATOM     16  C   UNL     1      -1.908  -1.357  -1.115  1.00  0.00     0.244 C 
ATOM     17  C   UNL     1       1.379  -4.427  -1.435  1.00  0.00     0.232 C 
ATOM     18  C   UNL     1       0.250  -5.312   0.457  1.00  0.00     0.232 C 
ATOM     19  C   UNL     1      -1.846  -3.589  -1.724  1.00  0.00     0.245 C 
ATOM     20  N   UNL     1      -2.579  -2.403  -1.757  1.00  0.00    -0.250 N 
ATOM     21  O   UNL     1      -2.292  -0.228  -0.863  1.00  0.00    -0.273 OA
ATOM     22  O   UNL     1       1.719  -3.761  -2.396  1.00  0.00    -0.286 OA
ATOM     23  C   UNL     1       1.960  -5.731  -1.054  1.00  0.00     0.036 A 
ATOM     24  C   UNL     1       1.325  -6.210   0.084  1.00  0.00     0.036 A 
ATOM     25  O   UNL     1      -0.645  -5.649   1.212  1.00  0.00    -0.286 OA
ATOM     26  O   UNL     1      -2.003  -4.639  -2.317  1.00  0.00    -0.273 OA
ATOM     27  C   UNL     1       3.005  -6.438  -1.618  1.00  0.00     0.013 A 
ATOM     28  C   UNL     1       1.695  -7.379   0.725  1.00  0.00     0.013 A 
ATOM     29  C   UNL     1       3.400  -7.630  -0.989  1.00  0.00     0.001 A 
ATOM     30  C   UNL     1       2.757  -8.091   0.177  1.00  0.00     0.001 A 
BRANCH  20  31
ATOM     31  C   UNL     1      -3.928  -2.331  -2.150  1.00  0.00     0.052 A 
ATOM     32  C   UNL     1      -4.393  -1.275  -2.936  1.00  0.00     0.027 A 
ATOM     33  C   UNL     1      -4.835  -3.287  -1.671  1.00  0.00     0.027 A 
ATOM     34  C   UNL     1      -5.748  -1.198  -3.271  1.00  0.00     0.002 A 
ATOM     35  C   UNL     1      -6.195  -3.173  -1.957  1.00  0.00     0.002 A 
ATOM     36  C   UNL     1      -6.649  -2.137  -2.769  1.00  0.00     0.000 A 
ENDBRANCH  20  31
ENDBRANCH   5   8
ENDBRANCH   3   4
ENDBRANCH   2   3
ENDBRANCH   1   2
BRANCH   1  37
ATOM     37  N   UNL     1      -2.321  -4.612   5.165  1.00  0.00    -0.352 N 
ATOM     38  C   UNL     1      -2.593  -5.932   5.440  1.00  0.00     0.251 C 
ATOM     39  H   UNL     1      -3.111  -4.113   4.856  1.00  0.00     0.163 HD
ATOM     40  O   UNL     1      -3.695  -6.374   5.110  1.00  0.00    -0.269 OA
BRANCH  38  41
ATOM     41  C   UNL     1      -1.618  -6.840   6.093  1.00  0.00     0.039 A 
ATOM     42  C   UNL     1      -0.663  -6.372   6.986  1.00  0.00     0.014 A 
ATOM     43  C   UNL     1      -1.699  -8.223   5.865  1.00  0.00     0.014 A 
ATOM     44  C   UNL     1       0.329  -7.218   7.465  1.00  0.00     0.010 A 
ATOM     45  C   UNL     1      -0.792  -9.102   6.477  1.00  0.00     0.010 A 
ATOM     46  C   UNL     1       0.265  -8.602   7.248  1.00  0.00    -0.014 A 
BRANCH  46  47
ATOM     47  C   UNL     1       1.300  -9.468   7.883  1.00  0.00     0.031 A 
ATOM     48  C   UNL     1       2.200 -10.346   7.056  1.00  0.00     0.074 A 
ATOM     49  C   UNL     1       1.488  -9.383   9.217  1.00  0.00     0.049 A 
ATOM     50  N   UNL     1       3.207 -11.087   7.446  1.00  0.00    -0.248 NA
ATOM     51  C   UNL     1       1.933 -10.417   5.612  1.00  0.00     0.031 C 
ATOM     52  C   UNL     1       0.671  -8.578  10.130  1.00  0.00     0.029 A 
ATOM     53  N   UNL     1       2.451  -9.924  10.033  1.00  0.00    -0.354 N 
ATOM     54  C   UNL     1       3.673 -11.732   6.306  1.00  0.00     0.074 A 
ATOM     55  C   UNL     1       2.821 -11.318   5.213  1.00  0.00     0.031 C 
ATOM     56  C   UNL     1       1.228  -8.588  11.349  1.00  0.00     0.029 A 
ATOM     57  C   UNL     1       2.385  -9.474  11.332  1.00  0.00     0.049 A 
ATOM     58  H   UNL     1       3.123 -10.571   9.719  1.00  0.00     0.167 HD
ATOM     59  C   UNL     1       4.721 -12.582   6.181  1.00  0.00     0.037 A 
ATOM     60  C   UNL     1       3.161  -9.744  12.400  1.00  0.00     0.037 A 
ATOM     61  C   UNL     1       5.583 -12.967   7.269  1.00  0.00     0.049 A 
ATOM     62  C   UNL     1       4.311 -10.692  12.241  1.00  0.00     0.074 A 
ATOM     63  C   UNL     1       6.686 -13.802   7.238  1.00  0.00     0.029 A 
ATOM     64  N   UNL     1       5.440 -12.544   8.583  1.00  0.00    -0.354 N 
ATOM     65  N   UNL     1       4.735 -11.289  11.153  1.00  0.00    -0.248 NA
ATOM     66  C   UNL     1       5.073 -11.024  13.451  1.00  0.00     0.031 C 
ATOM     67  C   UNL     1       7.184 -13.918   8.540  1.00  0.00     0.029 A 
ATOM     68  C   UNL     1       6.421 -13.118   9.376  1.00  0.00     0.049 A 
ATOM     69  H   UNL     1       4.744 -11.926   8.905  1.00  0.00     0.167 HD
ATOM     70  C   UNL     1       5.811 -12.072  11.545  1.00  0.00     0.074 A 
ATOM     71  C   UNL     1       5.989 -11.855  12.968  1.00  0.00     0.031 C 
ATOM     72  C   UNL     1       6.577 -12.901  10.794  1.00  0.00     0.037 A 
BRANCH  59  73
ATOM     73  C   UNL     1       4.979 -13.170   4.820  1.00  0.00     0.058 A 
ATOM     74  C   UNL     1       5.487 -12.399   3.763  1.00  0.00     0.135 A 
ATOM     75  C   UNL     1       4.726 -14.530   4.573  1.00  0.00     0.135 A 
ATOM     76  F   UNL     1       5.732 -11.090   3.936  1.00  0.00    -0.206 F 
ATOM     77  C   UNL     1       5.699 -12.945   2.501  1.00  0.00     0.059 A 
ATOM     78  C   UNL     1       4.954 -15.103   3.325  1.00  0.00     0.059 A 
ATOM     79  F   UNL     1       4.241 -15.315   5.549  1.00  0.00    -0.206 F 
ATOM     80  C   UNL     1       5.422 -14.297   2.290  1.00  0.00     0.060 A 
BRANCH  80  81
ATOM     81  S   UNL     1       5.668 -14.975   0.635  1.00  0.00     0.124 S 
ATOM     82  O   UNL     1       4.568 -14.354  -0.097  1.00  0.00    -0.237 OA
ATOM     83  O   UNL     1       7.003 -14.491   0.296  1.00  0.00    -0.237 OA
ATOM     84  O   UNL     1       5.556 -16.415   0.835  1.00  0.00    -0.744 OA
ENDBRANCH  80  81
ENDBRANCH  59  73
BRANCH  60  85
ATOM     85  C   UNL     1       2.855  -9.091  13.700  1.00  0.00     0.058 A 
ATOM     86  C   UNL     1       3.668  -8.066  14.203  1.00  0.00     0.135 A 
ATOM     87  C   UNL     1       1.685  -9.407  14.411  1.00  0.00     0.135 A 
ATOM     88  F   UNL     1       4.801  -7.735  13.566  1.00  0.00    -0.206 F 
ATOM     89  C   UNL     1       3.320  -7.359  15.350  1.00  0.00     0.059 A 
ATOM     90  C   UNL     1       1.303  -8.698  15.544  1.00  0.00     0.059 A 
ATOM     91  F   UNL     1       0.866 -10.371  13.962  1.00  0.00    -0.206 F 
ATOM     92  C   UNL     1       2.126  -7.670  16.003  1.00  0.00     0.060 A 
BRANCH  92  93
ATOM     93  S   UNL     1       1.622  -6.662  17.415  1.00  0.00     0.124 S 
ATOM     94  O   UNL     1       2.563  -7.099  18.440  1.00  0.00    -0.237 OA
ATOM     95  O   UNL     1       1.814  -5.308  16.906  1.00  0.00    -0.237 OA
ATOM     96  O   UNL     1       0.231  -7.052  17.627  1.00  0.00    -0.744 OA
ENDBRANCH  92  93
ENDBRANCH  60  85
BRANCH  72  97
ATOM     97  C   UNL     1       7.680 -13.644  11.491  1.00  0.00     0.058 A 
ATOM     98  C   UNL     1       7.410 -14.751  12.309  1.00  0.00     0.135 A 
ATOM     99  C   UNL     1       9.022 -13.295  11.275  1.00  0.00     0.135 A 
ATOM    100  F   UNL     1       6.143 -15.118  12.555  1.00  0.00    -0.206 F 
ATOM    101  C   UNL     1       8.436 -15.487  12.893  1.00  0.00     0.059 A 
ATOM    102  C   UNL     1      10.064 -14.030  11.831  1.00  0.00     0.059 A 
ATOM    103  F   UNL     1       9.331 -12.247  10.495  1.00  0.00    -0.206 F 
ATOM    104  C   UNL     1       9.760 -15.123  12.642  1.00  0.00     0.060 A 
BRANCH 104 105
ATOM    105  S   UNL     1      11.081 -16.124  13.358  1.00  0.00     0.124 S 
ATOM    106  O   UNL     1      10.995 -15.759  14.768  1.00  0.00    -0.237 OA
ATOM    107  O   UNL     1      10.656 -17.481  13.027  1.00  0.00    -0.237 OA
ATOM    108  O   UNL     1      12.276 -15.660  12.660  1.00  0.00    -0.744 OA
ENDBRANCH 104 105
ENDBRANCH  72  97
ENDBRANCH  46  47
ENDBRANCH  38  41
ENDBRANCH   1  37
TORSDOF 14
