REMARK SMILES O=C(NCCCNC(=O)c1ccc(-c2c3nc(c(-c4c(F)cc(S(=O)(=O)[O-])cc4F)c4ccc([nH]4)c(-c4c(F)cc(S(=O)(=O)[O-])cc4F)c4nc(c(-c5c(F)cc(S(=O)(=O)[O-])cc5F)c5ccc2[nH]5)C=C4)C=C3)cc1)C1=Cc2cc(Cl)cc(Cl)c2O[C@@H]1C(F)(F)F
REMARK SMILES IDX 6 1 5 2 4 3 3 4 1 5 2 6 76 8 77 9 87 10 78 11 86 12 79 13
REMARK SMILES IDX 85 14 80 15 83 16 81 17 82 18 84 19 88 20 89 21 90 22 91 23
REMARK SMILES IDX 7 24 8 25 9 27 10 28 11 29 75 30 12 31 74 32 13 33 14 34
REMARK SMILES IDX 15 35 68 36 16 37 73 38 67 39 69 40 17 41 72 42 66 43 65 44
REMARK SMILES IDX 18 46 52 47 31 48 51 49 32 50 35 51 50 52 70 53 33 54 34 55
REMARK SMILES IDX 49 57 71 58 36 59 19 60 20 61 29 62 21 63 22 64 28 65 30 66
REMARK SMILES IDX 23 67 24 68 25 69 26 70 27 71 53 72 54 73 63 74 55 75 56 76
REMARK SMILES IDX 62 77 64 78 57 79 58 80 59 81 60 82 61 83 37 84 38 85 47 86
REMARK SMILES IDX 39 87 40 88 46 89 48 90 41 91 42 92 43 93 44 94 45 95
REMARK H PARENT 3 7 7 26 69 45 35 56
REMARK Flexibility Score: inf
ROOT
ATOM      1  C   UNL     1       4.148   1.423   3.741  1.00  0.00     0.118 C 
ENDROOT
BRANCH   1   2
ATOM      2  C   UNL     1       4.155   1.569   2.225  1.00  0.00     0.042 C 
BRANCH   2   3
ATOM      3  C   UNL     1       3.370   0.465   1.528  1.00  0.00     0.118 C 
BRANCH   3   4
ATOM      4  N   UNL     1       2.401   0.975   0.555  1.00  0.00    -0.352 N 
ATOM      5  O   UNL     1       1.266   1.065  -1.405  1.00  0.00    -0.270 OA
ATOM      6  C   UNL     1       2.271   0.736  -0.790  1.00  0.00     0.251 C 
ATOM      7  H   UNL     1       1.730   1.591   0.929  1.00  0.00     0.163 HD
BRANCH   6   8
ATOM      8  C   UNL     1       3.352  -0.018  -1.448  1.00  0.00     0.067 C 
ATOM      9  C   UNL     1       4.546   0.571  -1.578  1.00  0.00     0.025 C 
ATOM     10  C   UNL     1       3.162  -1.494  -1.579  1.00  0.00     0.314 C 
ATOM     11  C   UNL     1       5.638  -0.268  -1.061  1.00  0.00     0.020 A 
ATOM     12  O   UNL     1       4.204  -2.246  -0.916  1.00  0.00    -0.474 OA
ATOM     13  C   UNL     1       6.788   0.394  -0.615  1.00  0.00     0.032 A 
ATOM     14  C   UNL     1       5.374  -1.583  -0.624  1.00  0.00     0.146 A 
ATOM     15  C   UNL     1       7.612  -0.212   0.331  1.00  0.00     0.043 A 
ATOM     16  C   UNL     1       6.231  -2.185   0.309  1.00  0.00     0.085 A 
ATOM     17  Cl  UNL     1       8.916   0.681   1.008  1.00  0.00    -0.084 Cl
ATOM     18  C   UNL     1       7.332  -1.490   0.807  1.00  0.00     0.045 A 
ATOM     19  Cl  UNL     1       5.851  -3.722   1.005  1.00  0.00    -0.080 Cl
BRANCH  10  20
ATOM     20  C   UNL     1       3.056  -1.900  -3.058  1.00  0.00     0.429 C 
ATOM     21  F   UNL     1       2.739  -3.211  -3.186  1.00  0.00    -0.167 F 
ATOM     22  F   UNL     1       2.095  -1.202  -3.709  1.00  0.00    -0.167 F 
ATOM     23  F   UNL     1       4.217  -1.703  -3.728  1.00  0.00    -0.167 F 
ENDBRANCH  10  20
ENDBRANCH   6   8
ENDBRANCH   3   4
ENDBRANCH   2   3
ENDBRANCH   1   2
BRANCH   1  24
ATOM     24  N   UNL     1       4.813   0.224   4.237  1.00  0.00    -0.352 N 
ATOM     25  C   UNL     1       5.677   0.064   5.307  1.00  0.00     0.251 C 
ATOM     26  H   UNL     1       4.618  -0.599   3.734  1.00  0.00     0.163 HD
ATOM     27  O   UNL     1       6.175  -1.029   5.515  1.00  0.00    -0.269 OA
BRANCH  25  28
ATOM     28  C   UNL     1       6.031   1.225   6.165  1.00  0.00     0.039 A 
ATOM     29  C   UNL     1       7.340   1.346   6.642  1.00  0.00     0.014 A 
ATOM     30  C   UNL     1       5.093   2.206   6.478  1.00  0.00     0.014 A 
ATOM     31  C   UNL     1       7.717   2.490   7.356  1.00  0.00     0.010 A 
ATOM     32  C   UNL     1       5.504   3.401   7.054  1.00  0.00     0.010 A 
ATOM     33  C   UNL     1       6.813   3.550   7.527  1.00  0.00    -0.014 A 
BRANCH  33  34
ATOM     34  C   UNL     1       7.184   4.802   8.240  1.00  0.00     0.031 A 
ATOM     35  C   UNL     1       6.374   5.247   9.435  1.00  0.00     0.074 A 
ATOM     36  C   UNL     1       8.181   5.579   7.770  1.00  0.00     0.049 A 
ATOM     37  N   UNL     1       6.450   6.358  10.122  1.00  0.00    -0.248 NA
ATOM     38  C   UNL     1       5.295   4.348   9.881  1.00  0.00     0.031 C 
ATOM     39  C   UNL     1       8.985   5.305   6.576  1.00  0.00     0.029 A 
ATOM     40  N   UNL     1       8.686   6.766   8.239  1.00  0.00    -0.354 N 
ATOM     41  C   UNL     1       5.409   6.305  11.043  1.00  0.00     0.074 A 
ATOM     42  C   UNL     1       4.668   5.095  10.775  1.00  0.00     0.031 C 
ATOM     43  C   UNL     1       9.907   6.270   6.432  1.00  0.00     0.029 A 
ATOM     44  C   UNL     1       9.740   7.250   7.500  1.00  0.00     0.049 A 
ATOM     45  H   UNL     1       8.327   7.228   9.031  1.00  0.00     0.167 HD
ATOM     46  C   UNL     1       5.120   7.161  12.052  1.00  0.00     0.037 A 
ATOM     47  C   UNL     1      10.492   8.355   7.672  1.00  0.00     0.037 A 
ATOM     48  C   UNL     1       5.910   8.322  12.360  1.00  0.00     0.049 A 
ATOM     49  C   UNL     1      10.205   9.250   8.848  1.00  0.00     0.074 A 
ATOM     50  C   UNL     1       5.760   9.217  13.404  1.00  0.00     0.029 A 
ATOM     51  N   UNL     1       7.016   8.737  11.632  1.00  0.00    -0.354 N 
ATOM     52  N   UNL     1       9.251   9.153   9.744  1.00  0.00    -0.248 NA
ATOM     53  C   UNL     1      11.106  10.392   9.046  1.00  0.00     0.031 C 
ATOM     54  C   UNL     1       6.761  10.189  13.291  1.00  0.00     0.029 A 
ATOM     55  C   UNL     1       7.560   9.874  12.202  1.00  0.00     0.049 A 
ATOM     56  H   UNL     1       7.364   8.287  10.827  1.00  0.00     0.167 HD
ATOM     57  C   UNL     1       9.456  10.205  10.631  1.00  0.00     0.074 A 
ATOM     58  C   UNL     1      10.633  10.914  10.169  1.00  0.00     0.031 C 
ATOM     59  C   UNL     1       8.738  10.555  11.727  1.00  0.00     0.037 A 
BRANCH  46  60
ATOM     60  C   UNL     1       3.919   6.850  12.905  1.00  0.00     0.058 A 
ATOM     61  C   UNL     1       3.887   5.734  13.760  1.00  0.00     0.135 A 
ATOM     62  C   UNL     1       2.784   7.676  12.872  1.00  0.00     0.135 A 
ATOM     63  F   UNL     1       4.937   4.899  13.819  1.00  0.00    -0.206 F 
ATOM     64  C   UNL     1       2.761   5.423  14.513  1.00  0.00     0.059 A 
ATOM     65  C   UNL     1       1.657   7.403  13.644  1.00  0.00     0.059 A 
ATOM     66  F   UNL     1       2.756   8.756  12.075  1.00  0.00    -0.206 F 
ATOM     67  C   UNL     1       1.648   6.263  14.446  1.00  0.00     0.060 A 
BRANCH  67  68
ATOM     68  S   UNL     1       0.191   5.842  15.425  1.00  0.00     0.124 S 
ATOM     69  O   UNL     1      -0.357   4.723  14.663  1.00  0.00    -0.237 OA
ATOM     70  O   UNL     1       0.772   5.501  16.720  1.00  0.00    -0.237 OA
ATOM     71  O   UNL     1      -0.601   7.067  15.400  1.00  0.00    -0.744 OA
ENDBRANCH  67  68
ENDBRANCH  46  60
BRANCH  47  72
ATOM     72  C   UNL     1      11.621   8.641   6.747  1.00  0.00     0.058 A 
ATOM     73  C   UNL     1      12.951   8.496   7.170  1.00  0.00     0.135 A 
ATOM     74  C   UNL     1      11.400   9.045   5.422  1.00  0.00     0.135 A 
ATOM     75  F   UNL     1      13.215   8.114   8.429  1.00  0.00    -0.206 F 
ATOM     76  C   UNL     1      14.022   8.761   6.323  1.00  0.00     0.059 A 
ATOM     77  C   UNL     1      12.454   9.292   4.546  1.00  0.00     0.059 A 
ATOM     78  F   UNL     1      10.147   9.178   4.960  1.00  0.00    -0.206 F 
ATOM     79  C   UNL     1      13.763   9.158   5.010  1.00  0.00     0.060 A 
BRANCH  79  80
ATOM     80  S   UNL     1      15.159   9.453   3.903  1.00  0.00     0.124 S 
ATOM     81  O   UNL     1      15.667  10.725   4.403  1.00  0.00    -0.237 OA
ATOM     82  O   UNL     1      16.001   8.287   4.152  1.00  0.00    -0.237 OA
ATOM     83  O   UNL     1      14.537   9.495   2.583  1.00  0.00    -0.744 OA
ENDBRANCH  79  80
ENDBRANCH  47  72
BRANCH  59  84
ATOM     84  C   UNL     1       9.235  11.728  12.523  1.00  0.00     0.058 A 
ATOM     85  C   UNL     1       9.129  13.044  12.046  1.00  0.00     0.135 A 
ATOM     86  C   UNL     1       9.808  11.531  13.790  1.00  0.00     0.135 A 
ATOM     87  F   UNL     1       8.590  13.284  10.841  1.00  0.00    -0.206 F 
ATOM     88  C   UNL     1       9.614  14.121  12.779  1.00  0.00     0.059 A 
ATOM     89  C   UNL     1      10.272  12.597  14.553  1.00  0.00     0.059 A 
ATOM     90  F   UNL     1       9.917  10.294  14.299  1.00  0.00    -0.206 F 
ATOM     91  C   UNL     1      10.190  13.886  14.029  1.00  0.00     0.060 A 
BRANCH  91  92
ATOM     92  S   UNL     1      10.820  15.291  14.971  1.00  0.00     0.124 S 
ATOM     93  O   UNL     1      12.070  15.572  14.273  1.00  0.00    -0.237 OA
ATOM     94  O   UNL     1       9.763  16.282  14.803  1.00  0.00    -0.237 OA
ATOM     95  O   UNL     1      10.961  14.756  16.322  1.00  0.00    -0.744 OA
ENDBRANCH  91  92
ENDBRANCH  59  84
ENDBRANCH  33  34
ENDBRANCH  25  28
ENDBRANCH   1  24
TORSDOF 14
