REMARK SMILES Nc1ccc2[nH]cc(C(=O)NCCCNC(=O)c3ccc(-c4c5nc(c(-c6c(F)cc(S(=O)(=O)[O-])cc6F)c6ccc([nH]6)c(-c6c(F)cc(S(=O)(=O)[O-])cc6F)c6nc(c(-c7c(F)cc(S(=O)(=O)[O-])cc7F)c7ccc4[nH]7)C=C6)C=C5)cc3)c2c1
REMARK SMILES IDX 14 1 13 2 12 3 11 4 9 5 10 6 8 8 2 9 3 10 85 11 4 12 84 13
REMARK SMILES IDX 5 14 6 15 7 16 1 18 15 21 16 22 17 24 18 25 19 26 83 27
REMARK SMILES IDX 20 28 82 29 21 30 22 31 23 32 76 33 24 34 81 35 75 36 77 37
REMARK SMILES IDX 25 38 80 39 74 40 73 41 26 43 60 44 39 45 59 46 40 47 43 48
REMARK SMILES IDX 58 49 78 50 41 51 42 52 57 54 79 55 44 56 27 57 28 58 37 59
REMARK SMILES IDX 29 60 30 61 36 62 38 63 31 64 32 65 33 66 34 67 35 68 61 69
REMARK SMILES IDX 62 70 71 71 63 72 64 73 70 74 72 75 65 76 66 77 67 78 68 79
REMARK SMILES IDX 69 80 45 81 46 82 55 83 47 84 48 85 54 86 56 87 49 88 50 89
REMARK SMILES IDX 51 90 52 91 53 92
REMARK H PARENT 11 7 6 17 1 19 1 20 15 23 77 42 43 53
REMARK Flexibility Score: inf
ROOT
ATOM      1  C   UNL     1      -1.685   4.723  -1.286  1.00  0.00     0.118 C 
ENDROOT
BRANCH   1   2
ATOM      2  C   UNL     1      -1.403   3.220  -1.399  1.00  0.00     0.042 C 
BRANCH   2   3
ATOM      3  C   UNL     1      -2.634   2.354  -1.109  1.00  0.00     0.118 C 
BRANCH   3   4
ATOM      4  N   UNL     1      -3.418   2.101  -2.289  1.00  0.00    -0.352 N 
ATOM      5  C   UNL     1      -3.547   1.034  -3.130  1.00  0.00     0.253 C 
ATOM      6  O   UNL     1      -4.501   1.151  -3.914  1.00  0.00    -0.269 OA
ATOM      7  H   UNL     1      -3.983   2.865  -2.546  1.00  0.00     0.163 HD
BRANCH   5   8
ATOM      8  C   UNL     1      -2.688  -0.162  -3.194  1.00  0.00     0.065 A 
ATOM      9  C   UNL     1       0.572  -1.050  -1.221  1.00  0.00     0.032 A 
ATOM     10  C   UNL     1       0.807  -2.242  -1.888  1.00  0.00     0.027 A 
ATOM     11  C   UNL     1      -0.561  -0.286  -1.557  1.00  0.00     0.036 A 
ATOM     12  C   UNL     1      -0.046  -2.679  -2.897  1.00  0.00     0.029 A 
ATOM     13  C   UNL     1      -1.474  -0.677  -2.572  1.00  0.00     0.014 A 
ATOM     14  C   UNL     1      -1.167  -1.895  -3.203  1.00  0.00     0.046 A 
ATOM     15  N   UNL     1      -2.138  -2.144  -4.132  1.00  0.00    -0.360 N 
ATOM     16  C   UNL     1      -3.046  -1.137  -4.128  1.00  0.00     0.097 A 
ATOM     17  H   UNL     1      -2.172  -2.935  -4.717  1.00  0.00     0.166 HD
BRANCH   9  18
ATOM     18  N   UNL     1       1.375  -0.691  -0.148  1.00  0.00    -0.399 N 
ATOM     19  H   UNL     1       2.165  -1.232   0.079  1.00  0.00     0.156 HD
ATOM     20  H   UNL     1       1.153   0.106   0.388  1.00  0.00     0.156 HD
ENDBRANCH   9  18
ENDBRANCH   5   8
ENDBRANCH   3   4
ENDBRANCH   2   3
ENDBRANCH   1   2
BRANCH   1  21
ATOM     21  N   UNL     1      -2.208   5.106   0.014  1.00  0.00    -0.352 N 
ATOM     22  C   UNL     1      -1.683   5.384   1.245  1.00  0.00     0.251 C 
ATOM     23  H   UNL     1      -3.189   5.187   0.006  1.00  0.00     0.163 HD
ATOM     24  O   UNL     1      -2.512   5.648   2.121  1.00  0.00    -0.269 OA
BRANCH  22  25
ATOM     25  C   UNL     1      -0.237   5.376   1.607  1.00  0.00     0.039 A 
ATOM     26  C   UNL     1       0.821   5.068   0.753  1.00  0.00     0.014 A 
ATOM     27  C   UNL     1       0.061   5.700   2.947  1.00  0.00     0.014 A 
ATOM     28  C   UNL     1       2.131   5.039   1.236  1.00  0.00     0.010 A 
ATOM     29  C   UNL     1       1.368   5.685   3.430  1.00  0.00     0.010 A 
ATOM     30  C   UNL     1       2.406   5.324   2.579  1.00  0.00    -0.014 A 
BRANCH  30  31
ATOM     31  C   UNL     1       3.805   5.312   3.013  1.00  0.00     0.031 A 
ATOM     32  C   UNL     1       4.701   6.281   2.316  1.00  0.00     0.074 A 
ATOM     33  C   UNL     1       4.287   4.575   4.035  1.00  0.00     0.049 A 
ATOM     34  N   UNL     1       5.696   6.032   1.527  1.00  0.00    -0.248 NA
ATOM     35  C   UNL     1       4.388   7.712   2.448  1.00  0.00     0.031 C 
ATOM     36  C   UNL     1       3.531   3.804   5.026  1.00  0.00     0.029 A 
ATOM     37  N   UNL     1       5.580   4.429   4.451  1.00  0.00    -0.354 N 
ATOM     38  C   UNL     1       6.257   7.268   1.211  1.00  0.00     0.074 A 
ATOM     39  C   UNL     1       5.337   8.266   1.693  1.00  0.00     0.031 C 
ATOM     40  C   UNL     1       4.355   3.446   6.037  1.00  0.00     0.029 A 
ATOM     41  C   UNL     1       5.715   3.827   5.696  1.00  0.00     0.049 A 
ATOM     42  H   UNL     1       6.351   4.726   3.915  1.00  0.00     0.167 HD
ATOM     43  C   UNL     1       7.533   7.389   0.749  1.00  0.00     0.037 A 
ATOM     44  C   UNL     1       6.858   3.689   6.411  1.00  0.00     0.037 A 
ATOM     45  C   UNL     1       8.062   6.127   0.307  1.00  0.00     0.049 A 
ATOM     46  C   UNL     1       7.993   3.766   5.461  1.00  0.00     0.074 A 
ATOM     47  C   UNL     1       7.800   5.247  -0.722  1.00  0.00     0.029 A 
ATOM     48  N   UNL     1       8.855   5.458   1.202  1.00  0.00    -0.354 N 
ATOM     49  N   UNL     1       8.245   2.874   4.543  1.00  0.00    -0.248 NA
ATOM     50  C   UNL     1       8.716   5.022   5.322  1.00  0.00     0.031 C 
ATOM     51  C   UNL     1       8.139   3.958  -0.217  1.00  0.00     0.029 A 
ATOM     52  C   UNL     1       8.609   4.114   1.088  1.00  0.00     0.049 A 
ATOM     53  H   UNL     1       9.495   5.873   1.825  1.00  0.00     0.167 HD
ATOM     54  C   UNL     1       8.822   3.588   3.508  1.00  0.00     0.074 A 
ATOM     55  C   UNL     1       9.231   4.853   4.103  1.00  0.00     0.031 C 
ATOM     56  C   UNL     1       8.656   3.200   2.211  1.00  0.00     0.037 A 
BRANCH  43  57
ATOM     57  C   UNL     1       8.444   8.565   1.028  1.00  0.00     0.058 A 
ATOM     58  C   UNL     1       9.669   8.683   0.335  1.00  0.00     0.135 A 
ATOM     59  C   UNL     1       8.299   9.407   2.152  1.00  0.00     0.135 A 
ATOM     60  F   UNL     1       9.921   7.921  -0.741  1.00  0.00    -0.206 F 
ATOM     61  C   UNL     1      10.696   9.526   0.767  1.00  0.00     0.059 A 
ATOM     62  C   UNL     1       9.289  10.292   2.569  1.00  0.00     0.059 A 
ATOM     63  F   UNL     1       7.232   9.336   2.958  1.00  0.00    -0.206 F 
ATOM     64  C   UNL     1      10.501  10.314   1.897  1.00  0.00     0.060 A 
BRANCH  64  65
ATOM     65  S   UNL     1      11.863  11.315   2.524  1.00  0.00     0.124 S 
ATOM     66  O   UNL     1      12.778  10.289   3.010  1.00  0.00    -0.237 OA
ATOM     67  O   UNL     1      12.286  12.036   1.329  1.00  0.00    -0.237 OA
ATOM     68  O   UNL     1      11.229  12.136   3.552  1.00  0.00    -0.744 OA
ENDBRANCH  64  65
ENDBRANCH  43  57
BRANCH  44  69
ATOM     69  C   UNL     1       7.055   3.797   7.881  1.00  0.00     0.058 A 
ATOM     70  C   UNL     1       8.282   3.439   8.470  1.00  0.00     0.135 A 
ATOM     71  C   UNL     1       6.175   4.548   8.685  1.00  0.00     0.135 A 
ATOM     72  F   UNL     1       9.182   2.725   7.776  1.00  0.00    -0.206 F 
ATOM     73  C   UNL     1       8.653   3.876   9.745  1.00  0.00     0.059 A 
ATOM     74  C   UNL     1       6.518   4.984   9.964  1.00  0.00     0.059 A 
ATOM     75  F   UNL     1       4.993   4.970   8.213  1.00  0.00    -0.206 F 
ATOM     76  C   UNL     1       7.775   4.678  10.471  1.00  0.00     0.060 A 
BRANCH  76  77
ATOM     77  S   UNL     1       8.340   5.431  12.015  1.00  0.00     0.124 S 
ATOM     78  O   UNL     1       8.466   4.270  12.889  1.00  0.00    -0.237 OA
ATOM     79  O   UNL     1       9.591   6.062  11.606  1.00  0.00    -0.237 OA
ATOM     80  O   UNL     1       7.261   6.355  12.355  1.00  0.00    -0.744 OA
ENDBRANCH  76  77
ENDBRANCH  44  69
BRANCH  56  81
ATOM     81  C   UNL     1       8.264   1.771   1.952  1.00  0.00     0.058 A 
ATOM     82  C   UNL     1       7.033   1.202   2.319  1.00  0.00     0.135 A 
ATOM     83  C   UNL     1       9.137   0.980   1.188  1.00  0.00     0.135 A 
ATOM     84  F   UNL     1       6.106   1.920   2.970  1.00  0.00    -0.206 F 
ATOM     85  C   UNL     1       6.700  -0.107   1.969  1.00  0.00     0.059 A 
ATOM     86  C   UNL     1       8.810  -0.316   0.799  1.00  0.00     0.059 A 
ATOM     87  F   UNL     1      10.306   1.487   0.764  1.00  0.00    -0.206 F 
ATOM     88  C   UNL     1       7.591  -0.856   1.201  1.00  0.00     0.060 A 
BRANCH  88  89
ATOM     89  S   UNL     1       7.106  -2.507   0.654  1.00  0.00     0.124 S 
ATOM     90  O   UNL     1       7.176  -3.275   1.897  1.00  0.00    -0.237 OA
ATOM     91  O   UNL     1       5.757  -2.281   0.131  1.00  0.00    -0.237 OA
ATOM     92  O   UNL     1       8.104  -2.846  -0.348  1.00  0.00    -0.744 OA
ENDBRANCH  88  89
ENDBRANCH  56  81
ENDBRANCH  30  31
ENDBRANCH  22  25
ENDBRANCH   1  21
TORSDOF 14
