REMARK SMILES Cc1ccccc1C[C@H](CCSc1ccccc1)C(=O)NCCCNC(=O)c1ccc(-c2c3nc(c(-c4c(F)cc(S(=O)(=O)[O-])cc4F)c4ccc([nH]4)c(-c4c(F)cc(S(=O)(=O)[O-])cc4F)c4nc(c(-c5c(F)cc(S(=O)(=O)[O-])cc5F)c5ccc2[nH]5)C=C4)C=C3)cc1
REMARK SMILES IDX 22 1 21 2 19 3 20 4 9 6 8 7 7 8 1 9 2 10 3 11 4 12 6 13 5 14
REMARK SMILES IDX 10 15 11 16 12 17 13 18 14 19 18 20 15 21 17 22 16 23 23 24
REMARK SMILES IDX 24 25 25 26 26 27 27 29 28 30 29 31 93 32 30 33 92 34 31 35
REMARK SMILES IDX 32 36 33 37 86 38 34 39 91 40 85 41 87 42 35 43 90 44 84 45
REMARK SMILES IDX 83 46 36 48 70 49 49 50 69 51 50 52 53 53 68 54 88 55 51 56
REMARK SMILES IDX 52 57 67 59 89 60 54 61 37 62 38 63 47 64 39 65 40 66 46 67
REMARK SMILES IDX 48 68 41 69 42 70 43 71 44 72 45 73 71 74 72 75 81 76 73 77
REMARK SMILES IDX 74 78 80 79 82 80 75 81 76 82 77 83 78 84 79 85 55 86 56 87
REMARK SMILES IDX 65 88 57 89 58 90 64 91 66 92 59 93 60 94 61 95 62 96 63 97
REMARK H PARENT 21 5 25 28 87 47 53 58
REMARK Flexibility Score: inf
ROOT
ATOM      1  C   UNL     1      -0.035   5.003   1.825  1.00  0.00     0.117 C 
ENDROOT
BRANCH   1   2
ATOM      2  N   UNL     1       1.044   5.139   0.853  1.00  0.00    -0.356 N 
ATOM      3  C   UNL     1       1.177   4.650  -0.411  1.00  0.00     0.223 C 
ATOM      4  O   UNL     1       2.174   4.990  -1.054  1.00  0.00    -0.275 OA
ATOM      5  H   UNL     1       1.808   5.675   1.165  1.00  0.00     0.163 HD
BRANCH   3   6
ATOM      6  C   UNL     1       0.191   3.648  -1.005  1.00  0.00     0.083 C 
BRANCH   6   7
ATOM      7  C   UNL     1      -1.287   4.101  -1.079  1.00  0.00     0.049 C 
BRANCH   7   8
ATOM      8  C   UNL     1      -1.601   5.353  -1.886  1.00  0.00    -0.044 A 
ATOM      9  C   UNL     1      -3.284   4.158  -3.424  1.00  0.00     0.044 C 
ATOM     10  C   UNL     1      -2.504   5.362  -2.973  1.00  0.00    -0.048 A 
ATOM     11  C   UNL     1      -2.799   6.580  -3.619  1.00  0.00     0.004 A 
ATOM     12  C   UNL     1      -2.224   7.779  -3.207  1.00  0.00     0.000 A 
ATOM     13  C   UNL     1      -1.063   6.588  -1.472  1.00  0.00     0.004 A 
ATOM     14  C   UNL     1      -1.360   7.783  -2.126  1.00  0.00     0.000 A 
ENDBRANCH   7   8
ENDBRANCH   6   7
BRANCH   6  15
ATOM     15  C   UNL     1       0.435   2.300  -0.281  1.00  0.00     0.025 C 
BRANCH  15  16
ATOM     16  C   UNL     1      -0.300   1.062  -0.801  1.00  0.00     0.076 C 
BRANCH  16  17
ATOM     17  S   UNL     1       0.539   0.224  -2.191  1.00  0.00    -0.126 SA
BRANCH  17  18
ATOM     18  C   UNL     1      -0.262   0.988  -3.583  1.00  0.00     0.007 A 
ATOM     19  C   UNL     1       0.348   2.066  -4.228  1.00  0.00     0.015 A 
ATOM     20  C   UNL     1      -1.466   0.483  -4.083  1.00  0.00     0.015 A 
ATOM     21  C   UNL     1      -0.265   2.674  -5.323  1.00  0.00     0.001 A 
ATOM     22  C   UNL     1      -2.066   1.071  -5.200  1.00  0.00     0.001 A 
ATOM     23  C   UNL     1      -1.469   2.173  -5.813  1.00  0.00     0.000 A 
ENDBRANCH  17  18
ENDBRANCH  16  17
ENDBRANCH  15  16
ENDBRANCH   6  15
ENDBRANCH   3   6
ENDBRANCH   1   2
BRANCH   1  24
ATOM     24  C   UNL     1       0.442   4.566   3.201  1.00  0.00     0.042 C 
BRANCH  24  25
ATOM     25  C   UNL     1       1.200   5.650   3.928  1.00  0.00     0.118 C 
BRANCH  25  26
ATOM     26  N   UNL     1       0.406   6.763   4.427  1.00  0.00    -0.352 N 
ATOM     27  C   UNL     1       0.931   7.489   5.498  1.00  0.00     0.251 C 
ATOM     28  H   UNL     1      -0.464   6.993   4.027  1.00  0.00     0.163 HD
ATOM     29  O   UNL     1       0.819   7.189   6.672  1.00  0.00    -0.269 OA
BRANCH  27  30
ATOM     30  C   UNL     1       1.904   8.508   5.044  1.00  0.00     0.039 A 
ATOM     31  C   UNL     1       1.629   9.873   5.010  1.00  0.00     0.014 A 
ATOM     32  C   UNL     1       3.047   7.989   4.436  1.00  0.00     0.014 A 
ATOM     33  C   UNL     1       2.473  10.709   4.267  1.00  0.00     0.010 A 
ATOM     34  C   UNL     1       3.764   8.777   3.577  1.00  0.00     0.010 A 
ATOM     35  C   UNL     1       3.498  10.146   3.505  1.00  0.00    -0.014 A 
BRANCH  35  36
ATOM     36  C   UNL     1       4.408  10.850   2.613  1.00  0.00     0.031 A 
ATOM     37  C   UNL     1       5.842  10.965   2.986  1.00  0.00     0.074 A 
ATOM     38  C   UNL     1       4.013  11.142   1.355  1.00  0.00     0.049 A 
ATOM     39  N   UNL     1       6.683  11.743   2.397  1.00  0.00    -0.248 NA
ATOM     40  C   UNL     1       6.450  10.200   4.076  1.00  0.00     0.031 C 
ATOM     41  C   UNL     1       4.870  11.398   0.201  1.00  0.00     0.029 A 
ATOM     42  N   UNL     1       2.728  11.442   0.903  1.00  0.00    -0.354 N 
ATOM     43  C   UNL     1       7.948  11.397   2.816  1.00  0.00     0.074 A 
ATOM     44  C   UNL     1       7.748  10.451   3.887  1.00  0.00     0.031 C 
ATOM     45  C   UNL     1       4.163  12.052  -0.732  1.00  0.00     0.029 A 
ATOM     46  C   UNL     1       2.877  12.376  -0.144  1.00  0.00     0.049 A 
ATOM     47  H   UNL     1       1.883  11.075   1.248  1.00  0.00     0.167 HD
ATOM     48  C   UNL     1       9.031  11.861   2.133  1.00  0.00     0.037 A 
ATOM     49  C   UNL     1       2.379  13.644  -0.024  1.00  0.00     0.037 A 
ATOM     50  C   UNL     1       8.622  12.726   1.032  1.00  0.00     0.049 A 
ATOM     51  C   UNL     1       3.435  14.727  -0.059  1.00  0.00     0.074 A 
ATOM     52  C   UNL     1       8.431  12.498  -0.321  1.00  0.00     0.029 A 
ATOM     53  N   UNL     1       8.027  13.948   1.315  1.00  0.00    -0.354 N 
ATOM     54  N   UNL     1       4.713  14.512   0.091  1.00  0.00    -0.248 NA
ATOM     55  C   UNL     1       3.140  16.142  -0.269  1.00  0.00     0.031 C 
ATOM     56  C   UNL     1       7.677  13.576  -0.846  1.00  0.00     0.029 A 
ATOM     57  C   UNL     1       7.424  14.464   0.185  1.00  0.00     0.049 A 
ATOM     58  H   UNL     1       8.034  14.385   2.197  1.00  0.00     0.167 HD
ATOM     59  C   UNL     1       5.401  15.700   0.042  1.00  0.00     0.074 A 
ATOM     60  C   UNL     1       4.370  16.686  -0.220  1.00  0.00     0.031 C 
ATOM     61  C   UNL     1       6.755  15.757   0.232  1.00  0.00     0.037 A 
BRANCH  48  62
ATOM     62  C   UNL     1      10.435  11.331   2.314  1.00  0.00     0.058 A 
ATOM     63  C   UNL     1      11.322  11.244   1.219  1.00  0.00     0.135 A 
ATOM     64  C   UNL     1      10.959  10.874   3.539  1.00  0.00     0.135 A 
ATOM     65  F   UNL     1      10.987  11.699   0.005  1.00  0.00    -0.206 F 
ATOM     66  C   UNL     1      12.590  10.668   1.312  1.00  0.00     0.059 A 
ATOM     67  C   UNL     1      12.204  10.244   3.647  1.00  0.00     0.059 A 
ATOM     68  F   UNL     1      10.293  11.056   4.689  1.00  0.00    -0.206 F 
ATOM     69  C   UNL     1      13.013  10.141   2.523  1.00  0.00     0.060 A 
BRANCH  69  70
ATOM     70  S   UNL     1      14.619   9.327   2.597  1.00  0.00     0.124 S 
ATOM     71  O   UNL     1      14.534   8.372   1.496  1.00  0.00    -0.237 OA
ATOM     72  O   UNL     1      15.536  10.444   2.398  1.00  0.00    -0.237 OA
ATOM     73  O   UNL     1      14.637   8.731   3.930  1.00  0.00    -0.744 OA
ENDBRANCH  69  70
ENDBRANCH  48  62
BRANCH  49  74
ATOM     74  C   UNL     1       1.096  13.672   0.740  1.00  0.00     0.058 A 
ATOM     75  C   UNL     1      -0.010  13.043   0.133  1.00  0.00     0.135 A 
ATOM     76  C   UNL     1       1.100  13.762   2.140  1.00  0.00     0.135 A 
ATOM     77  F   UNL     1      -0.083  12.966  -1.206  1.00  0.00    -0.206 F 
ATOM     78  C   UNL     1      -0.942  12.328   0.878  1.00  0.00     0.059 A 
ATOM     79  C   UNL     1       0.160  13.068   2.907  1.00  0.00     0.059 A 
ATOM     80  F   UNL     1       2.115  14.366   2.776  1.00  0.00    -0.206 F 
ATOM     81  C   UNL     1      -0.786  12.270   2.261  1.00  0.00     0.060 A 
BRANCH  81  82
ATOM     82  S   UNL     1      -1.698  10.997   3.172  1.00  0.00     0.124 S 
ATOM     83  O   UNL     1      -3.056  11.165   2.666  1.00  0.00    -0.237 OA
ATOM     84  O   UNL     1      -1.014   9.773   2.752  1.00  0.00    -0.237 OA
ATOM     85  O   UNL     1      -1.497  11.372   4.567  1.00  0.00    -0.744 OA
ENDBRANCH  81  82
ENDBRANCH  49  74
BRANCH  61  86
ATOM     86  C   UNL     1       7.621  16.994   0.411  1.00  0.00     0.058 A 
ATOM     87  C   UNL     1       7.155  18.239   0.862  1.00  0.00     0.135 A 
ATOM     88  C   UNL     1       9.032  16.903   0.260  1.00  0.00     0.135 A 
ATOM     89  F   UNL     1       5.864  18.443   1.150  1.00  0.00    -0.206 F 
ATOM     90  C   UNL     1       8.009  19.323   1.093  1.00  0.00     0.059 A 
ATOM     91  C   UNL     1       9.905  17.950   0.546  1.00  0.00     0.059 A 
ATOM     92  F   UNL     1       9.627  15.775  -0.158  1.00  0.00    -0.206 F 
ATOM     93  C   UNL     1       9.383  19.169   0.939  1.00  0.00     0.060 A 
BRANCH  93  94
ATOM     94  S   UNL     1      10.495  20.535   1.318  1.00  0.00     0.124 S 
ATOM     95  O   UNL     1      10.598  21.195   0.021  1.00  0.00    -0.237 OA
ATOM     96  O   UNL     1       9.763  21.274   2.343  1.00  0.00    -0.237 OA
ATOM     97  O   UNL     1      11.702  19.863   1.786  1.00  0.00    -0.744 OA
ENDBRANCH  93  94
ENDBRANCH  61  86
ENDBRANCH  35  36
ENDBRANCH  27  30
ENDBRANCH  25  26
ENDBRANCH  24  25
ENDBRANCH   1  24
TORSDOF 19
