REMARK SMILES Cc1c(CC(=O)NCCCNC(=O)c2ccc(-c3c4nc(c(-c5c(F)cc(S(=O)(=O)[O-])cc5F)c5ccc([nH]5)c(-c5c(F)cc(S(=O)(=O)[O-])cc5F)c5nc(c(-c6c(F)cc(S(=O)(=O)[O-])cc6F)c6ccc3[nH]6)C=C5)C=C4)cc2)cc(-c2ccc(S(C)(=O)=O)cc2)n1-c1ccccc1
REMARK SMILES IDX 9 1 8 2 7 3 5 4 6 5 4 7 3 8 1 9 2 10 92 11 80 12 81 13 93 14
REMARK SMILES IDX 94 15 98 16 95 17 97 18 96 19 82 20 83 21 91 22 84 23 90 24
REMARK SMILES IDX 85 25 86 26 87 27 88 28 89 29 10 30 11 31 12 32 13 34 14 35
REMARK SMILES IDX 15 36 79 37 16 38 78 39 17 40 18 41 19 42 72 43 20 44 77 45
REMARK SMILES IDX 71 46 73 47 21 48 76 49 70 50 69 51 22 53 56 54 35 55 55 56
REMARK SMILES IDX 36 57 39 58 54 59 74 60 37 61 38 62 53 64 75 65 40 66 23 67
REMARK SMILES IDX 24 68 33 69 25 70 26 71 32 72 34 73 27 74 28 75 29 76 30 77
REMARK SMILES IDX 31 78 57 79 58 80 67 81 59 82 60 83 66 84 68 85 61 86 62 87
REMARK SMILES IDX 63 88 64 89 65 90 41 91 42 92 51 93 43 94 44 95 50 96 52 97
REMARK SMILES IDX 45 98 46 99 47 100 48 101 49 102
REMARK H PARENT 7 6 11 33 73 52 39 63
REMARK Flexibility Score: inf
ROOT
ATOM      1  C   UNL     1       3.750  -1.493  -2.959  1.00  0.00     0.042 C 
ENDROOT
BRANCH   1   2
ATOM      2  C   UNL     1       3.766  -2.800  -2.147  1.00  0.00     0.117 C 
BRANCH   2   3
ATOM      3  N   UNL     1       3.719  -2.608  -0.709  1.00  0.00    -0.356 N 
ATOM      4  C   UNL     1       2.675  -2.637   0.167  1.00  0.00     0.224 C 
ATOM      5  O   UNL     1       2.915  -2.407   1.356  1.00  0.00    -0.275 OA
ATOM      6  H   UNL     1       4.593  -2.426  -0.294  1.00  0.00     0.163 HD
BRANCH   4   7
ATOM      7  C   UNL     1       1.273  -3.011  -0.280  1.00  0.00     0.137 C 
BRANCH   7   8
ATOM      8  C   UNL     1       0.643  -2.040  -1.229  1.00  0.00    -0.017 A 
ATOM      9  C   UNL     1       0.891   0.171   0.097  1.00  0.00     0.065 C 
ATOM     10  C   UNL     1       0.509  -0.664  -1.085  1.00  0.00     0.024 A 
ATOM     11  N   UNL     1      -0.111  -0.162  -2.227  1.00  0.00    -0.314 N 
ATOM     12  C   UNL     1       0.033  -2.385  -2.461  1.00  0.00     0.033 A 
ATOM     13  C   UNL     1      -0.384  -1.226  -3.090  1.00  0.00     0.053 A 
BRANCH  11  14
ATOM     14  C   UNL     1      -0.418   1.202  -2.488  1.00  0.00     0.046 A 
ATOM     15  C   UNL     1      -1.701   1.548  -2.932  1.00  0.00     0.026 A 
ATOM     16  C   UNL     1       0.573   2.180  -2.357  1.00  0.00     0.026 A 
ATOM     17  C   UNL     1      -1.990   2.874  -3.247  1.00  0.00     0.002 A 
ATOM     18  C   UNL     1       0.279   3.504  -2.688  1.00  0.00     0.002 A 
ATOM     19  C   UNL     1      -1.000   3.849  -3.131  1.00  0.00     0.000 A 
ENDBRANCH  11  14
BRANCH  13  20
ATOM     20  C   UNL     1      -0.896  -1.101  -4.460  1.00  0.00    -0.001 A 
ATOM     21  C   UNL     1      -0.247  -0.280  -5.397  1.00  0.00     0.011 A 
ATOM     22  C   UNL     1      -2.029  -1.822  -4.855  1.00  0.00     0.011 A 
ATOM     23  C   UNL     1      -0.743  -0.149  -6.695  1.00  0.00     0.021 A 
ATOM     24  C   UNL     1      -2.533  -1.696  -6.153  1.00  0.00     0.021 A 
ATOM     25  C   UNL     1      -1.894  -0.849  -7.062  1.00  0.00     0.067 A 
BRANCH  25  26
ATOM     26  S   UNL     1      -2.526  -0.689  -8.714  1.00  0.00     0.175 S 
ATOM     27  C   UNL     1      -3.002   1.015  -8.841  1.00  0.00     0.163 C 
ATOM     28  O   UNL     1      -1.405  -0.917  -9.619  1.00  0.00    -0.224 OA
ATOM     29  O   UNL     1      -3.726  -1.486  -8.811  1.00  0.00    -0.224 OA
ENDBRANCH  25  26
ENDBRANCH  13  20
ENDBRANCH   7   8
ENDBRANCH   4   7
ENDBRANCH   2   3
ENDBRANCH   1   2
BRANCH   1  30
ATOM     30  C   UNL     1       4.658  -0.347  -2.467  1.00  0.00     0.118 C 
BRANCH  30  31
ATOM     31  N   UNL     1       5.881  -0.177  -3.222  1.00  0.00    -0.352 N 
ATOM     32  C   UNL     1       6.621   0.982  -3.413  1.00  0.00     0.251 C 
ATOM     33  H   UNL     1       6.233  -0.988  -3.657  1.00  0.00     0.163 HD
ATOM     34  O   UNL     1       7.602   0.906  -4.151  1.00  0.00    -0.269 OA
BRANCH  32  35
ATOM     35  C   UNL     1       6.184   2.324  -2.857  1.00  0.00     0.039 A 
ATOM     36  C   UNL     1       5.539   3.205  -3.711  1.00  0.00     0.014 A 
ATOM     37  C   UNL     1       6.557   2.851  -1.607  1.00  0.00     0.014 A 
ATOM     38  C   UNL     1       5.207   4.537  -3.293  1.00  0.00     0.010 A 
ATOM     39  C   UNL     1       6.290   4.245  -1.218  1.00  0.00     0.010 A 
ATOM     40  C   UNL     1       5.590   5.156  -2.043  1.00  0.00    -0.014 A 
BRANCH  40  41
ATOM     41  C   UNL     1       5.725   6.806  -2.065  1.00  0.00     0.031 A 
ATOM     42  C   UNL     1       6.536   6.980  -3.311  1.00  0.00     0.074 A 
ATOM     43  C   UNL     1       5.469   7.992  -1.347  1.00  0.00     0.049 A 
ATOM     44  N   UNL     1       7.682   6.361  -3.406  1.00  0.00    -0.248 NA
ATOM     45  C   UNL     1       5.964   7.392  -4.594  1.00  0.00     0.031 C 
ATOM     46  C   UNL     1       4.932   8.132   0.021  1.00  0.00     0.029 A 
ATOM     47  N   UNL     1       5.632   9.398  -1.655  1.00  0.00    -0.354 N 
ATOM     48  C   UNL     1       8.134   6.554  -4.685  1.00  0.00     0.074 A 
ATOM     49  C   UNL     1       6.939   6.977  -5.414  1.00  0.00     0.031 C 
ATOM     50  C   UNL     1       4.664   9.435   0.352  1.00  0.00     0.029 A 
ATOM     51  C   UNL     1       5.046  10.363  -0.717  1.00  0.00     0.049 A 
ATOM     52  H   UNL     1       6.116   9.694  -2.459  1.00  0.00     0.167 HD
ATOM     53  C   UNL     1       9.384   7.096  -4.761  1.00  0.00     0.037 A 
ATOM     54  C   UNL     1       4.959  11.773  -0.742  1.00  0.00     0.037 A 
ATOM     55  C   UNL     1       9.324   8.534  -4.841  1.00  0.00     0.049 A 
ATOM     56  C   UNL     1       6.119  12.193  -1.536  1.00  0.00     0.074 A 
ATOM     57  C   UNL     1       8.547   9.384  -5.604  1.00  0.00     0.029 A 
ATOM     58  N   UNL     1       9.738   9.251  -3.736  1.00  0.00    -0.354 N 
ATOM     59  N   UNL     1       7.331  12.149  -1.075  1.00  0.00    -0.248 NA
ATOM     60  C   UNL     1       5.966  12.726  -2.884  1.00  0.00     0.031 C 
ATOM     61  C   UNL     1       8.074  10.334  -4.680  1.00  0.00     0.029 A 
ATOM     62  C   UNL     1       8.913  10.342  -3.573  1.00  0.00     0.049 A 
ATOM     63  H   UNL     1      10.500   9.020  -3.158  1.00  0.00     0.167 HD
ATOM     64  C   UNL     1       8.074  12.106  -2.212  1.00  0.00     0.074 A 
ATOM     65  C   UNL     1       7.251  12.723  -3.240  1.00  0.00     0.031 C 
ATOM     66  C   UNL     1       8.940  11.069  -2.329  1.00  0.00     0.037 A 
BRANCH  53  67
ATOM     67  C   UNL     1      10.427   6.350  -3.976  1.00  0.00     0.058 A 
ATOM     68  C   UNL     1      11.412   5.644  -4.675  1.00  0.00     0.135 A 
ATOM     69  C   UNL     1      10.438   6.254  -2.567  1.00  0.00     0.135 A 
ATOM     70  F   UNL     1      11.472   5.719  -6.014  1.00  0.00    -0.206 F 
ATOM     71  C   UNL     1      12.351   4.859  -4.011  1.00  0.00     0.059 A 
ATOM     72  C   UNL     1      11.333   5.437  -1.887  1.00  0.00     0.059 A 
ATOM     73  F   UNL     1       9.592   6.986  -1.823  1.00  0.00    -0.206 F 
ATOM     74  C   UNL     1      12.293   4.748  -2.619  1.00  0.00     0.060 A 
BRANCH  74  75
ATOM     75  S   UNL     1      13.505   3.701  -1.789  1.00  0.00     0.124 S 
ATOM     76  O   UNL     1      13.406   2.455  -2.546  1.00  0.00    -0.237 OA
ATOM     77  O   UNL     1      14.736   4.458  -1.993  1.00  0.00    -0.237 OA
ATOM     78  O   UNL     1      13.018   3.626  -0.416  1.00  0.00    -0.744 OA
ENDBRANCH  74  75
ENDBRANCH  53  67
BRANCH  54  79
ATOM     79  C   UNL     1       4.270  13.088  -0.158  1.00  0.00     0.058 A 
ATOM     80  C   UNL     1       4.921  14.381  -0.216  1.00  0.00     0.135 A 
ATOM     81  C   UNL     1       2.885  13.212   0.048  1.00  0.00     0.135 A 
ATOM     82  F   UNL     1       6.252  14.479  -0.361  1.00  0.00    -0.206 F 
ATOM     83  C   UNL     1       4.261  15.635  -0.220  1.00  0.00     0.059 A 
ATOM     84  C   UNL     1       2.199  14.471   0.076  1.00  0.00     0.059 A 
ATOM     85  F   UNL     1       2.129  12.110   0.139  1.00  0.00    -0.206 F 
ATOM     86  C   UNL     1       2.884  15.675  -0.113  1.00  0.00     0.060 A 
BRANCH  86  87
ATOM     87  S   UNL     1       2.014  17.265  -0.379  1.00  0.00     0.124 S 
ATOM     88  O   UNL     1       2.403  18.049   0.788  1.00  0.00    -0.237 OA
ATOM     89  O   UNL     1       2.568  17.719  -1.653  1.00  0.00    -0.237 OA
ATOM     90  O   UNL     1       0.607  16.877  -0.429  1.00  0.00    -0.744 OA
ENDBRANCH  86  87
ENDBRANCH  54  79
BRANCH  66  91
ATOM     91  C   UNL     1       9.768  10.716  -1.109  1.00  0.00     0.058 A 
ATOM     92  C   UNL     1       9.292  10.432   0.191  1.00  0.00     0.135 A 
ATOM     93  C   UNL     1      11.165  10.758  -1.258  1.00  0.00     0.135 A 
ATOM     94  F   UNL     1       7.985  10.269   0.446  1.00  0.00    -0.206 F 
ATOM     95  C   UNL     1      10.153  10.293   1.285  1.00  0.00     0.059 A 
ATOM     96  C   UNL     1      12.042  10.572  -0.193  1.00  0.00     0.059 A 
ATOM     97  F   UNL     1      11.698  10.993  -2.468  1.00  0.00    -0.206 F 
ATOM     98  C   UNL     1      11.528  10.379   1.085  1.00  0.00     0.060 A 
BRANCH  98  99
ATOM     99  S   UNL     1      12.637  10.242   2.505  1.00  0.00     0.124 S 
ATOM    100  O   UNL     1      12.394  11.504   3.200  1.00  0.00    -0.237 OA
ATOM    101  O   UNL     1      12.143   9.048   3.182  1.00  0.00    -0.237 OA
ATOM    102  O   UNL     1      13.957  10.120   1.894  1.00  0.00    -0.744 OA
ENDBRANCH  98  99
ENDBRANCH  66  91
ENDBRANCH  40  41
ENDBRANCH  32  35
ENDBRANCH  30  31
ENDBRANCH   1  30
TORSDOF 17
