REMARK SMILES CCOc1ccc(N)c(SCc2ccccc2C(=O)NCCCNC(=O)c2ccc(-c3c4nc(c(-c5c(F)cc(S(=O)(=O)[O-])cc5F)c5ccc([nH]5)c(-c5c(F)cc(S(=O)(=O)[O-])cc5F)c5nc(c(-c6c(F)cc(S(=O)(=O)[O-])cc6F)c6ccc3[nH]6)C=C5)C=C4)cc2)c1
REMARK SMILES IDX 21 1 20 2 18 3 19 4 17 6 12 7 13 8 14 9 16 10 15 11 11 12
REMARK SMILES IDX 10 13 9 14 4 15 5 16 93 17 6 18 7 19 3 20 2 21 1 22 8 23
REMARK SMILES IDX 22 26 23 27 24 28 25 29 26 31 27 32 28 33 92 34 29 35 91 36
REMARK SMILES IDX 30 37 31 38 32 39 85 40 33 41 90 42 84 43 86 44 34 45 89 46
REMARK SMILES IDX 83 47 82 48 35 50 69 51 48 52 68 53 49 54 52 55 67 56 87 57
REMARK SMILES IDX 50 58 51 59 66 61 88 62 53 63 36 64 37 65 46 66 38 67 39 68
REMARK SMILES IDX 45 69 47 70 40 71 41 72 42 73 43 74 44 75 70 76 71 77 80 78
REMARK SMILES IDX 72 79 73 80 79 81 81 82 74 83 75 84 76 85 77 86 78 87 54 88
REMARK SMILES IDX 55 89 64 90 56 91 57 92 63 93 65 94 58 95 59 96 60 97 61 98
REMARK SMILES IDX 62 99
REMARK H PARENT 20 5 8 24 8 25 24 30 86 49 52 60
REMARK Flexibility Score: inf
ROOT
ATOM      1  C   UNL     1       7.081   1.542  -8.057  1.00  0.00     0.118 C 
ENDROOT
BRANCH   1   2
ATOM      2  N   UNL     1       6.533   2.708  -7.385  1.00  0.00    -0.352 N 
ATOM      3  C   UNL     1       6.549   3.187  -6.099  1.00  0.00     0.251 C 
ATOM      4  O   UNL     1       5.902   4.223  -5.910  1.00  0.00    -0.269 OA
ATOM      5  H   UNL     1       6.032   3.294  -7.997  1.00  0.00     0.163 HD
BRANCH   3   6
ATOM      6  C   UNL     1       7.382   2.661  -4.965  1.00  0.00     0.043 A 
ATOM      7  C   UNL     1       7.599   1.329  -4.551  1.00  0.00    -0.025 A 
ATOM      8  C   UNL     1       8.546   1.090  -3.525  1.00  0.00     0.005 A 
ATOM      9  C   UNL     1       9.052   2.122  -2.742  1.00  0.00     0.000 A 
ATOM     10  C   UNL     1       7.907   3.691  -4.148  1.00  0.00     0.014 A 
ATOM     11  C   UNL     1       8.690   3.427  -3.024  1.00  0.00     0.001 A 
BRANCH   7  12
ATOM     12  C   UNL     1       6.788   0.131  -4.992  1.00  0.00     0.111 C 
BRANCH  12  13
ATOM     13  S   UNL     1       4.994   0.409  -4.832  1.00  0.00    -0.119 SA
BRANCH  13  14
ATOM     14  C   UNL     1       4.381  -0.160  -3.251  1.00  0.00     0.034 A 
ATOM     15  C   UNL     1       2.265  -0.379  -2.040  1.00  0.00     0.120 A 
ATOM     16  C   UNL     1       2.899  -1.090  -1.038  1.00  0.00     0.048 A 
ATOM     17  C   UNL     1       2.987   0.055  -3.146  1.00  0.00     0.063 A 
ATOM     18  C   UNL     1       4.273  -1.291  -1.106  1.00  0.00     0.030 A 
ATOM     19  C   UNL     1       5.036  -0.798  -2.179  1.00  0.00     0.045 A 
BRANCH  15  20
ATOM     20  O   UNL     1       0.909  -0.228  -2.030  1.00  0.00    -0.494 OA
BRANCH  20  21
ATOM     21  C   UNL     1       0.477   0.860  -1.204  1.00  0.00     0.226 C 
ATOM     22  C   UNL     1       0.361   0.451   0.257  1.00  0.00     0.049 C 
ENDBRANCH  20  21
ENDBRANCH  15  20
BRANCH  19  23
ATOM     23  N   UNL     1       6.403  -1.060  -2.135  1.00  0.00    -0.398 N 
ATOM     24  H   UNL     1       6.793  -1.511  -1.351  1.00  0.00     0.156 HD
ATOM     25  H   UNL     1       6.980  -0.795  -2.888  1.00  0.00     0.156 HD
ENDBRANCH  19  23
ENDBRANCH  13  14
ENDBRANCH  12  13
ENDBRANCH   7  12
ENDBRANCH   3   6
ENDBRANCH   1   2
BRANCH   1  26
ATOM     26  C   UNL     1       5.986   0.491  -8.267  1.00  0.00     0.042 C 
BRANCH  26  27
ATOM     27  C   UNL     1       5.195   0.613  -9.561  1.00  0.00     0.118 C 
BRANCH  27  28
ATOM     28  N   UNL     1       5.835  -0.098 -10.654  1.00  0.00    -0.352 N 
ATOM     29  C   UNL     1       5.433  -1.217 -11.345  1.00  0.00     0.251 C 
ATOM     30  H   UNL     1       6.695   0.283 -10.947  1.00  0.00     0.163 HD
ATOM     31  O   UNL     1       6.257  -1.787 -12.060  1.00  0.00    -0.269 OA
BRANCH  29  32
ATOM     32  C   UNL     1       4.050  -1.757 -11.244  1.00  0.00     0.039 A 
ATOM     33  C   UNL     1       3.859  -3.139 -11.371  1.00  0.00     0.014 A 
ATOM     34  C   UNL     1       2.931  -0.931 -11.105  1.00  0.00     0.014 A 
ATOM     35  C   UNL     1       2.570  -3.684 -11.322  1.00  0.00     0.010 A 
ATOM     36  C   UNL     1       1.656  -1.482 -10.963  1.00  0.00     0.010 A 
ATOM     37  C   UNL     1       1.455  -2.864 -11.094  1.00  0.00    -0.014 A 
BRANCH  37  38
ATOM     38  C   UNL     1       0.075  -3.425 -11.044  1.00  0.00     0.031 A 
ATOM     39  C   UNL     1      -0.954  -2.991 -12.062  1.00  0.00     0.074 A 
ATOM     40  C   UNL     1      -0.268  -4.294 -10.071  1.00  0.00     0.049 A 
ATOM     41  N   UNL     1      -2.223  -3.304 -12.143  1.00  0.00    -0.248 NA
ATOM     42  C   UNL     1      -0.503  -2.064 -13.114  1.00  0.00     0.031 C 
ATOM     43  C   UNL     1       0.618  -4.762  -9.002  1.00  0.00     0.029 A 
ATOM     44  N   UNL     1      -1.457  -4.934  -9.815  1.00  0.00    -0.354 N 
ATOM     45  C   UNL     1      -2.718  -2.610 -13.242  1.00  0.00     0.074 A 
ATOM     46  C   UNL     1      -1.631  -1.811 -13.761  1.00  0.00     0.031 C 
ATOM     47  C   UNL     1      -0.051  -5.625  -8.220  1.00  0.00     0.029 A 
ATOM     48  C   UNL     1      -1.422  -5.746  -8.704  1.00  0.00     0.049 A 
ATOM     49  H   UNL     1      -2.259  -4.823 -10.375  1.00  0.00     0.167 HD
ATOM     50  C   UNL     1      -3.956  -2.657 -13.791  1.00  0.00     0.037 A 
ATOM     51  C   UNL     1      -2.388  -6.494  -8.133  1.00  0.00     0.037 A 
ATOM     52  C   UNL     1      -5.028  -3.479 -13.293  1.00  0.00     0.049 A 
ATOM     53  C   UNL     1      -3.759  -6.522  -8.761  1.00  0.00     0.074 A 
ATOM     54  C   UNL     1      -6.310  -3.620 -13.796  1.00  0.00     0.029 A 
ATOM     55  N   UNL     1      -4.941  -4.308 -12.185  1.00  0.00    -0.354 N 
ATOM     56  N   UNL     1      -4.192  -5.891  -9.826  1.00  0.00    -0.248 NA
ATOM     57  C   UNL     1      -4.770  -7.371  -8.114  1.00  0.00     0.031 C 
ATOM     58  C   UNL     1      -7.007  -4.511 -12.975  1.00  0.00     0.029 A 
ATOM     59  C   UNL     1      -6.147  -4.959 -11.986  1.00  0.00     0.049 A 
ATOM     60  H   UNL     1      -4.140  -4.418 -11.623  1.00  0.00     0.167 HD
ATOM     61  C   UNL     1      -5.514  -6.290  -9.993  1.00  0.00     0.074 A 
ATOM     62  C   UNL     1      -5.804  -7.230  -8.931  1.00  0.00     0.031 C 
ATOM     63  C   UNL     1      -6.409  -5.911 -10.938  1.00  0.00     0.037 A 
BRANCH  50  64
ATOM     64  C   UNL     1      -4.216  -1.823 -15.016  1.00  0.00     0.058 A 
ATOM     65  C   UNL     1      -3.653  -2.156 -16.259  1.00  0.00     0.135 A 
ATOM     66  C   UNL     1      -5.088  -0.724 -14.968  1.00  0.00     0.135 A 
ATOM     67  F   UNL     1      -2.798  -3.187 -16.359  1.00  0.00    -0.206 F 
ATOM     68  C   UNL     1      -3.936  -1.424 -17.406  1.00  0.00     0.059 A 
ATOM     69  C   UNL     1      -5.407   0.008 -16.110  1.00  0.00     0.059 A 
ATOM     70  F   UNL     1      -5.653  -0.359 -13.806  1.00  0.00    -0.206 F 
ATOM     71  C   UNL     1      -4.819  -0.347 -17.324  1.00  0.00     0.060 A 
BRANCH  71  72
ATOM     72  S   UNL     1      -5.208   0.569 -18.831  1.00  0.00     0.124 S 
ATOM     73  O   UNL     1      -3.951   1.280 -19.070  1.00  0.00    -0.237 OA
ATOM     74  O   UNL     1      -5.510  -0.506 -19.777  1.00  0.00    -0.237 OA
ATOM     75  O   UNL     1      -6.335   1.399 -18.448  1.00  0.00    -0.744 OA
ENDBRANCH  71  72
ENDBRANCH  50  64
BRANCH  51  76
ATOM     76  C   UNL     1      -2.107  -7.281  -6.901  1.00  0.00     0.058 A 
ATOM     77  C   UNL     1      -2.107  -8.685  -6.920  1.00  0.00     0.135 A 
ATOM     78  C   UNL     1      -1.871  -6.648  -5.670  1.00  0.00     0.135 A 
ATOM     79  F   UNL     1      -2.331  -9.339  -8.070  1.00  0.00    -0.206 F 
ATOM     80  C   UNL     1      -1.925  -9.432  -5.760  1.00  0.00     0.059 A 
ATOM     81  C   UNL     1      -1.656  -7.373  -4.502  1.00  0.00     0.059 A 
ATOM     82  F   UNL     1      -1.842  -5.309  -5.598  1.00  0.00    -0.206 F 
ATOM     83  C   UNL     1      -1.707  -8.766  -4.553  1.00  0.00     0.060 A 
BRANCH  83  84
ATOM     84  S   UNL     1      -1.477  -9.742  -3.051  1.00  0.00     0.124 S 
ATOM     85  O   UNL     1      -2.840 -10.185  -2.779  1.00  0.00    -0.237 OA
ATOM     86  O   UNL     1      -0.547 -10.777  -3.494  1.00  0.00    -0.237 OA
ATOM     87  O   UNL     1      -0.925  -8.778  -2.105  1.00  0.00    -0.744 OA
ENDBRANCH  83  84
ENDBRANCH  51  76
BRANCH  63  88
ATOM     88  C   UNL     1      -7.771  -6.548 -10.899  1.00  0.00     0.058 A 
ATOM     89  C   UNL     1      -8.715  -6.213  -9.917  1.00  0.00     0.135 A 
ATOM     90  C   UNL     1      -8.152  -7.468 -11.890  1.00  0.00     0.135 A 
ATOM     91  F   UNL     1      -8.399  -5.343  -8.944  1.00  0.00    -0.206 F 
ATOM     92  C   UNL     1      -9.983  -6.786  -9.904  1.00  0.00     0.059 A 
ATOM     93  C   UNL     1      -9.423  -8.031 -11.913  1.00  0.00     0.059 A 
ATOM     94  F   UNL     1      -7.289  -7.814 -12.859  1.00  0.00    -0.206 F 
ATOM     95  C   UNL     1     -10.328  -7.693 -10.908  1.00  0.00     0.060 A 
BRANCH  95  96
ATOM     96  S   UNL     1     -11.988  -8.403 -10.899  1.00  0.00     0.124 S 
ATOM     97  O   UNL     1     -11.895  -9.353  -9.796  1.00  0.00    -0.237 OA
ATOM     98  O   UNL     1     -12.827  -7.233 -10.659  1.00  0.00    -0.237 OA
ATOM     99  O   UNL     1     -12.112  -8.994 -12.228  1.00  0.00    -0.744 OA
ENDBRANCH  95  96
ENDBRANCH  63  88
ENDBRANCH  37  38
ENDBRANCH  29  32
ENDBRANCH  27  28
ENDBRANCH  26  27
ENDBRANCH   1  26
TORSDOF 19
