REMARK SMILES Cc1ccc(OC(F)(F)F)cc1C(=O)NCCCNC(=O)c1ccc(-c2c3nc(c(-c4c(F)cc(S(=O)(=O)[O-])cc4F)c4ccc([nH]4)c(-c4c(F)cc(S(=O)(=O)[O-])cc4F)c4nc(c(-c5c(F)cc(S(=O)(=O)[O-])cc5F)c5ccc2[nH]5)C=C4)C=C3)cc1
REMARK SMILES IDX 17 1 16 2 15 3 13 4 14 5 12 7 1 8 2 9 3 10 4 11 11 12 5 13
REMARK SMILES IDX 6 14 7 15 8 16 9 17 10 18 18 19 19 20 20 21 21 23 22 24
REMARK SMILES IDX 23 25 87 26 24 27 86 28 25 29 26 30 27 31 80 32 28 33 85 34
REMARK SMILES IDX 79 35 81 36 29 37 84 38 78 39 77 40 30 42 64 43 43 44 63 45
REMARK SMILES IDX 44 46 47 47 62 48 82 49 45 50 46 51 61 53 83 54 48 55 31 56
REMARK SMILES IDX 32 57 41 58 33 59 34 60 40 61 42 62 35 63 36 64 37 65 38 66
REMARK SMILES IDX 39 67 65 68 66 69 75 70 67 71 68 72 74 73 76 74 69 75 70 76
REMARK SMILES IDX 71 77 72 78 73 79 49 80 50 81 59 82 51 83 52 84 58 85 60 86
REMARK SMILES IDX 53 87 54 88 55 89 56 90 57 91
REMARK H PARENT 15 6 19 22 81 41 47 52
REMARK Flexibility Score: inf
ROOT
ATOM      1  C   UNL     1       4.493  -0.177   0.343  1.00  0.00     0.042 C 
ENDROOT
BRANCH   1   2
ATOM      2  C   UNL     1       3.163   0.443   1.044  1.00  0.00     0.118 C 
BRANCH   2   3
ATOM      3  N   UNL     1       2.332   1.391   0.265  1.00  0.00    -0.352 N 
ATOM      4  C   UNL     1       1.010   1.556  -0.100  1.00  0.00     0.251 C 
ATOM      5  O   UNL     1       0.606   2.652  -0.499  1.00  0.00    -0.269 OA
ATOM      6  H   UNL     1       2.886   2.118  -0.101  1.00  0.00     0.163 HD
BRANCH   4   7
ATOM      7  C   UNL     1      -0.009   0.475  -0.046  1.00  0.00     0.046 A 
ATOM      8  C   UNL     1       1.550  -1.294  -1.028  1.00  0.00     0.045 C 
ATOM      9  C   UNL     1       0.270  -0.856  -0.381  1.00  0.00    -0.038 A 
ATOM     10  C   UNL     1      -0.727  -1.821  -0.186  1.00  0.00     0.008 A 
ATOM     11  C   UNL     1      -2.029  -1.449   0.141  1.00  0.00     0.047 A 
ATOM     12  C   UNL     1      -1.358   0.855   0.197  1.00  0.00     0.061 A 
ATOM     13  C   UNL     1      -2.373  -0.103   0.252  1.00  0.00     0.130 A 
BRANCH  13  14
ATOM     14  O   UNL     1      -3.709   0.113   0.423  1.00  0.00    -0.406 OA
BRANCH  14  15
ATOM     15  C   UNL     1      -4.226   1.393   0.099  1.00  0.00     0.573 C 
ATOM     16  F   UNL     1      -3.903   2.293   1.048  1.00  0.00    -0.132 F 
ATOM     17  F   UNL     1      -3.811   1.818  -1.111  1.00  0.00    -0.132 F 
ATOM     18  F   UNL     1      -5.579   1.300   0.060  1.00  0.00    -0.132 F 
ENDBRANCH  14  15
ENDBRANCH  13  14
ENDBRANCH   4   7
ENDBRANCH   2   3
ENDBRANCH   1   2
BRANCH   1  19
ATOM     19  C   UNL     1       5.889   0.507   0.713  1.00  0.00     0.118 C 
BRANCH  19  20
ATOM     20  N   UNL     1       7.289   0.208   0.055  1.00  0.00    -0.352 N 
ATOM     21  C   UNL     1       8.520   0.943  -0.234  1.00  0.00     0.251 C 
ATOM     22  H   UNL     1       7.352  -0.728  -0.243  1.00  0.00     0.163 HD
ATOM     23  O   UNL     1       9.501   0.522   0.406  1.00  0.00    -0.269 OA
BRANCH  21  24
ATOM     24  C   UNL     1       8.896   2.107  -1.247  1.00  0.00     0.039 A 
ATOM     25  C   UNL     1       9.838   3.128  -0.886  1.00  0.00     0.014 A 
ATOM     26  C   UNL     1       8.325   2.337  -2.492  1.00  0.00     0.014 A 
ATOM     27  C   UNL     1       9.729   4.481  -1.415  1.00  0.00     0.010 A 
ATOM     28  C   UNL     1       8.206   3.669  -3.011  1.00  0.00     0.010 A 
ATOM     29  C   UNL     1       8.703   4.790  -2.326  1.00  0.00    -0.014 A 
BRANCH  29  30
ATOM     30  C   UNL     1       7.939   6.120  -2.369  1.00  0.00     0.031 A 
ATOM     31  C   UNL     1       8.155   7.083  -3.443  1.00  0.00     0.074 A 
ATOM     32  C   UNL     1       6.886   6.541  -1.596  1.00  0.00     0.049 A 
ATOM     33  N   UNL     1       8.358   8.351  -3.274  1.00  0.00    -0.248 NA
ATOM     34  C   UNL     1       8.018   6.662  -4.824  1.00  0.00     0.031 C 
ATOM     35  C   UNL     1       5.972   7.699  -1.651  1.00  0.00     0.029 A 
ATOM     36  N   UNL     1       6.310   5.901  -0.525  1.00  0.00    -0.354 N 
ATOM     37  C   UNL     1       8.046   8.932  -4.485  1.00  0.00     0.074 A 
ATOM     38  C   UNL     1       8.060   7.842  -5.444  1.00  0.00     0.031 C 
ATOM     39  C   UNL     1       5.308   7.818  -0.474  1.00  0.00     0.029 A 
ATOM     40  C   UNL     1       5.787   6.781   0.415  1.00  0.00     0.049 A 
ATOM     41  H   UNL     1       6.273   4.921  -0.433  1.00  0.00     0.167 HD
ATOM     42  C   UNL     1       7.498  10.185  -4.568  1.00  0.00     0.037 A 
ATOM     43  C   UNL     1       6.374   6.851   1.656  1.00  0.00     0.037 A 
ATOM     44  C   UNL     1       7.045  10.687  -3.254  1.00  0.00     0.049 A 
ATOM     45  C   UNL     1       7.154   8.138   1.758  1.00  0.00     0.074 A 
ATOM     46  C   UNL     1       5.797  10.955  -2.703  1.00  0.00     0.029 A 
ATOM     47  N   UNL     1       7.918  10.712  -2.178  1.00  0.00    -0.354 N 
ATOM     48  N   UNL     1       6.968   9.137   0.945  1.00  0.00    -0.248 NA
ATOM     49  C   UNL     1       8.253   8.389   2.689  1.00  0.00     0.031 C 
ATOM     50  C   UNL     1       5.945  11.160  -1.298  1.00  0.00     0.029 A 
ATOM     51  C   UNL     1       7.286  11.037  -0.988  1.00  0.00     0.049 A 
ATOM     52  H   UNL     1       8.880  10.519  -2.251  1.00  0.00     0.167 HD
ATOM     53  C   UNL     1       7.960  10.055   1.096  1.00  0.00     0.074 A 
ATOM     54  C   UNL     1       8.712   9.574   2.244  1.00  0.00     0.031 C 
ATOM     55  C   UNL     1       8.090  11.103   0.229  1.00  0.00     0.037 A 
BRANCH  42  56
ATOM     56  C   UNL     1       7.093  10.818  -5.897  1.00  0.00     0.058 A 
ATOM     57  C   UNL     1       6.181  11.891  -5.972  1.00  0.00     0.135 A 
ATOM     58  C   UNL     1       7.633  10.436  -7.147  1.00  0.00     0.135 A 
ATOM     59  F   UNL     1       5.701  12.483  -4.871  1.00  0.00    -0.206 F 
ATOM     60  C   UNL     1       5.753  12.447  -7.182  1.00  0.00     0.059 A 
ATOM     61  C   UNL     1       7.163  10.915  -8.373  1.00  0.00     0.059 A 
ATOM     62  F   UNL     1       8.711   9.641  -7.231  1.00  0.00    -0.206 F 
ATOM     63  C   UNL     1       6.225  11.932  -8.382  1.00  0.00     0.060 A 
BRANCH  63  64
ATOM     64  S   UNL     1       5.691  12.677  -9.933  1.00  0.00     0.124 S 
ATOM     65  O   UNL     1       4.238  12.572  -9.848  1.00  0.00    -0.237 OA
ATOM     66  O   UNL     1       6.239  14.026  -9.823  1.00  0.00    -0.237 OA
ATOM     67  O   UNL     1       6.314  11.834 -10.950  1.00  0.00    -0.744 OA
ENDBRANCH  63  64
ENDBRANCH  42  56
BRANCH  43  68
ATOM     68  C   UNL     1       6.811   5.498   2.285  1.00  0.00     0.058 A 
ATOM     69  C   UNL     1       5.733   4.634   2.566  1.00  0.00     0.135 A 
ATOM     70  C   UNL     1       7.813   4.881   1.560  1.00  0.00     0.135 A 
ATOM     71  F   UNL     1       5.036   4.792   3.698  1.00  0.00    -0.206 F 
ATOM     72  C   UNL     1       5.303   3.673   1.645  1.00  0.00     0.059 A 
ATOM     73  C   UNL     1       7.383   3.946   0.611  1.00  0.00     0.059 A 
ATOM     74  F   UNL     1       8.986   5.510   1.365  1.00  0.00    -0.206 F 
ATOM     75  C   UNL     1       6.080   3.495   0.520  1.00  0.00     0.060 A 
BRANCH  75  76
ATOM     76  S   UNL     1       5.245   3.044  -1.211  1.00  0.00     0.124 S 
ATOM     77  O   UNL     1       3.863   2.956  -0.771  1.00  0.00    -0.237 OA
ATOM     78  O   UNL     1       5.480   4.162  -2.087  1.00  0.00    -0.237 OA
ATOM     79  O   UNL     1       5.813   1.780  -1.658  1.00  0.00    -0.744 OA
ENDBRANCH  75  76
ENDBRANCH  43  68
BRANCH  55  80
ATOM     80  C   UNL     1       9.029  12.259   0.436  1.00  0.00     0.058 A 
ATOM     81  C   UNL     1       9.358  12.747   1.711  1.00  0.00     0.135 A 
ATOM     82  C   UNL     1       9.528  13.015  -0.651  1.00  0.00     0.135 A 
ATOM     83  F   UNL     1       8.813  12.223   2.820  1.00  0.00    -0.206 F 
ATOM     84  C   UNL     1      10.226  13.822   1.895  1.00  0.00     0.059 A 
ATOM     85  C   UNL     1      10.356  14.116  -0.492  1.00  0.00     0.059 A 
ATOM     86  F   UNL     1       9.236  12.723  -1.924  1.00  0.00    -0.206 F 
ATOM     87  C   UNL     1      10.734  14.489   0.784  1.00  0.00     0.060 A 
BRANCH  87  88
ATOM     88  S   UNL     1      11.864  15.863   1.020  1.00  0.00     0.124 S 
ATOM     89  O   UNL     1      11.223  16.615   2.094  1.00  0.00    -0.237 OA
ATOM     90  O   UNL     1      13.094  15.166   1.382  1.00  0.00    -0.237 OA
ATOM     91  O   UNL     1      11.877  16.525  -0.281  1.00  0.00    -0.744 OA
ENDBRANCH  87  88
ENDBRANCH  55  80
ENDBRANCH  29  30
ENDBRANCH  21  24
ENDBRANCH  19  20
ENDBRANCH   1  19
TORSDOF 15
