REMARK SMILES CC(=O)N1CCC(C(=O)Nc2sccc2C(=O)NCCCNC(=O)c2ccc(-c3c4nc(c(-c5c(F)cc(S(=O)(=O)[O-])cc5F)c5ccc([nH]5)c(-c5c(F)cc(S(=O)(=O)[O-])cc5F)c5nc(c(-c6c(F)cc(S(=O)(=O)[O-])cc6F)c6ccc3[nH]6)C=C5)C=C4)cc2)CC1
REMARK SMILES IDX 20 1 19 2 18 3 16 4 17 5 15 7 11 8 12 9 13 10 14 11 10 12
REMARK SMILES IDX 8 13 9 14 7 16 1 17 2 18 3 19 4 20 5 21 92 22 6 23 91 24
REMARK SMILES IDX 21 25 22 26 23 27 24 29 25 30 26 31 90 32 27 33 89 34 28 35
REMARK SMILES IDX 29 36 30 37 83 38 31 39 88 40 82 41 84 42 32 43 87 44 81 45
REMARK SMILES IDX 80 46 33 48 67 49 46 50 66 51 47 52 50 53 65 54 85 55 48 56
REMARK SMILES IDX 49 57 64 59 86 60 51 61 34 62 35 63 44 64 36 65 37 66 43 67
REMARK SMILES IDX 45 68 38 69 39 70 40 71 41 72 42 73 68 74 69 75 78 76 70 77
REMARK SMILES IDX 71 78 77 79 79 80 72 81 73 82 74 83 75 84 76 85 52 86 53 87
REMARK SMILES IDX 62 88 54 89 55 90 61 91 63 92 56 93 57 94 58 95 59 96 60 97
REMARK H PARENT 18 6 10 15 22 28 84 47 50 58
REMARK Flexibility Score: inf
ROOT
ATOM      1  C   UNL     1      -0.714  -4.393   7.865  1.00  0.00     0.042 C 
ENDROOT
BRANCH   1   2
ATOM      2  C   UNL     1      -0.005  -3.484   6.875  1.00  0.00     0.118 C 
BRANCH   2   3
ATOM      3  N   UNL     1      -0.917  -2.636   6.137  1.00  0.00    -0.352 N 
ATOM      4  C   UNL     1      -0.720  -1.479   5.437  1.00  0.00     0.254 C 
ATOM      5  O   UNL     1      -1.731  -0.970   4.948  1.00  0.00    -0.269 OA
ATOM      6  H   UNL     1      -1.850  -2.951   6.139  1.00  0.00     0.163 HD
BRANCH   4   7
ATOM      7  C   UNL     1       0.585  -0.820   5.304  1.00  0.00     0.074 A 
ATOM      8  C   UNL     1       1.884  -1.294   5.399  1.00  0.00     0.108 A 
ATOM      9  S   UNL     1       3.028  -0.029   5.576  1.00  0.00    -0.126 S 
ATOM     10  C   UNL     1       1.886   1.149   5.125  1.00  0.00     0.068 A 
ATOM     11  C   UNL     1       0.630   0.603   5.019  1.00  0.00     0.028 A 
BRANCH   8  12
ATOM     12  N   UNL     1       2.497  -2.515   5.524  1.00  0.00    -0.317 N 
ATOM     13  C   UNL     1       2.514  -3.599   4.698  1.00  0.00     0.228 C 
ATOM     14  O   UNL     1       3.043  -4.626   5.144  1.00  0.00    -0.274 OA
ATOM     15  H   UNL     1       3.013  -2.629   6.354  1.00  0.00     0.170 HD
BRANCH  13  16
ATOM     16  C   UNL     1       2.058  -3.590   3.241  1.00  0.00     0.082 C 
ATOM     17  C   UNL     1       1.317   0.042   0.011  1.00  0.00     0.114 C 
ATOM     18  C   UNL     1       0.422  -0.962   0.694  1.00  0.00     0.219 C 
ATOM     19  O   UNL     1      -0.751  -0.676   0.928  1.00  0.00    -0.275 OA
ATOM     20  N   UNL     1       0.975  -2.198   0.994  1.00  0.00    -0.343 N 
ATOM     21  C   UNL     1       0.144  -3.240   1.585  1.00  0.00     0.120 C 
ATOM     22  C   UNL     1       2.398  -2.502   0.986  1.00  0.00     0.120 C 
ATOM     23  C   UNL     1       0.548  -3.486   3.034  1.00  0.00     0.035 C 
ATOM     24  C   UNL     1       2.885  -2.582   2.427  1.00  0.00     0.035 C 
ENDBRANCH  13  16
ENDBRANCH   8  12
ENDBRANCH   4   7
ENDBRANCH   2   3
ENDBRANCH   1   2
BRANCH   1  25
ATOM     25  C   UNL     1      -1.602  -5.434   7.191  1.00  0.00     0.118 C 
BRANCH  25  26
ATOM     26  N   UNL     1      -0.864  -6.551   6.609  1.00  0.00    -0.352 N 
ATOM     27  C   UNL     1      -0.745  -7.859   7.025  1.00  0.00     0.251 C 
ATOM     28  H   UNL     1      -0.371  -6.335   5.785  1.00  0.00     0.163 HD
ATOM     29  O   UNL     1       0.004  -8.626   6.424  1.00  0.00    -0.269 OA
BRANCH  27  30
ATOM     30  C   UNL     1      -1.474  -8.329   8.223  1.00  0.00     0.039 A 
ATOM     31  C   UNL     1      -0.790  -9.074   9.187  1.00  0.00     0.014 A 
ATOM     32  C   UNL     1      -2.812  -7.997   8.423  1.00  0.00     0.014 A 
ATOM     33  C   UNL     1      -1.417  -9.378  10.399  1.00  0.00     0.010 A 
ATOM     34  C   UNL     1      -3.389  -8.188   9.672  1.00  0.00     0.010 A 
ATOM     35  C   UNL     1      -2.699  -8.878  10.680  1.00  0.00    -0.014 A 
BRANCH  35  36
ATOM     36  C   UNL     1      -3.342  -9.053  12.012  1.00  0.00     0.031 A 
ATOM     37  C   UNL     1      -4.695  -9.710  12.113  1.00  0.00     0.074 A 
ATOM     38  C   UNL     1      -2.766  -8.527  13.113  1.00  0.00     0.049 A 
ATOM     39  N   UNL     1      -5.488  -9.815  13.148  1.00  0.00    -0.248 NA
ATOM     40  C   UNL     1      -5.253 -10.279  10.874  1.00  0.00     0.031 C 
ATOM     41  C   UNL     1      -1.496  -7.795  13.143  1.00  0.00     0.029 A 
ATOM     42  N   UNL     1      -3.183  -8.510  14.421  1.00  0.00    -0.354 N 
ATOM     43  C   UNL     1      -6.650 -10.416  12.675  1.00  0.00     0.074 A 
ATOM     44  C   UNL     1      -6.479 -10.605  11.252  1.00  0.00     0.031 C 
ATOM     45  C   UNL     1      -1.225  -7.428  14.407  1.00  0.00     0.029 A 
ATOM     46  C   UNL     1      -2.317  -7.861  15.272  1.00  0.00     0.049 A 
ATOM     47  H   UNL     1      -4.023  -8.925  14.723  1.00  0.00     0.167 HD
ATOM     48  C   UNL     1      -7.748 -10.802  13.367  1.00  0.00     0.037 A 
ATOM     49  C   UNL     1      -2.396  -7.634  16.597  1.00  0.00     0.037 A 
ATOM     50  C   UNL     1      -7.881 -10.685  14.794  1.00  0.00     0.049 A 
ATOM     51  C   UNL     1      -3.589  -8.146  17.358  1.00  0.00     0.074 A 
ATOM     52  C   UNL     1      -8.912 -11.132  15.602  1.00  0.00     0.029 A 
ATOM     53  N   UNL     1      -6.944 -10.094  15.629  1.00  0.00    -0.354 N 
ATOM     54  N   UNL     1      -4.650  -8.768  16.902  1.00  0.00    -0.248 NA
ATOM     55  C   UNL     1      -3.594  -7.934  18.812  1.00  0.00     0.031 C 
ATOM     56  C   UNL     1      -8.608 -10.791  16.925  1.00  0.00     0.029 A 
ATOM     57  C   UNL     1      -7.374 -10.162  16.943  1.00  0.00     0.049 A 
ATOM     58  H   UNL     1      -6.099  -9.686  15.331  1.00  0.00     0.167 HD
ATOM     59  C   UNL     1      -5.436  -9.043  18.015  1.00  0.00     0.074 A 
ATOM     60  C   UNL     1      -4.723  -8.530  19.167  1.00  0.00     0.031 C 
ATOM     61  C   UNL     1      -6.641  -9.661  18.078  1.00  0.00     0.037 A 
BRANCH  48  62
ATOM     62  C   UNL     1      -8.883 -11.412  12.591  1.00  0.00     0.058 A 
ATOM     63  C   UNL     1      -8.780 -12.690  12.019  1.00  0.00     0.135 A 
ATOM     64  C   UNL     1     -10.097 -10.723  12.440  1.00  0.00     0.135 A 
ATOM     65  F   UNL     1      -7.636 -13.386  12.119  1.00  0.00    -0.206 F 
ATOM     66  C   UNL     1      -9.828 -13.251  11.298  1.00  0.00     0.059 A 
ATOM     67  C   UNL     1     -11.169 -11.277  11.746  1.00  0.00     0.059 A 
ATOM     68  F   UNL     1     -10.250  -9.498  12.966  1.00  0.00    -0.206 F 
ATOM     69  C   UNL     1     -11.019 -12.536  11.165  1.00  0.00     0.060 A 
BRANCH  69  70
ATOM     70  S   UNL     1     -12.373 -13.280  10.232  1.00  0.00     0.124 S 
ATOM     71  O   UNL     1     -11.913 -13.099   8.859  1.00  0.00    -0.237 OA
ATOM     72  O   UNL     1     -12.375 -14.654  10.723  1.00  0.00    -0.237 OA
ATOM     73  O   UNL     1     -13.531 -12.479  10.617  1.00  0.00    -0.744 OA
ENDBRANCH  69  70
ENDBRANCH  48  62
BRANCH  49  74
ATOM     74  C   UNL     1      -1.299  -6.916  17.299  1.00  0.00     0.058 A 
ATOM     75  C   UNL     1      -0.420  -7.604  18.150  1.00  0.00     0.135 A 
ATOM     76  C   UNL     1      -1.100  -5.538  17.131  1.00  0.00     0.135 A 
ATOM     77  F   UNL     1      -0.573  -8.922  18.346  1.00  0.00    -0.206 F 
ATOM     78  C   UNL     1       0.603  -6.949  18.826  1.00  0.00     0.059 A 
ATOM     79  C   UNL     1      -0.069  -4.864  17.779  1.00  0.00     0.059 A 
ATOM     80  F   UNL     1      -1.900  -4.838  16.311  1.00  0.00    -0.206 F 
ATOM     81  C   UNL     1       0.771  -5.576  18.635  1.00  0.00     0.060 A 
BRANCH  81  82
ATOM     82  S   UNL     1       2.129  -4.740  19.483  1.00  0.00     0.124 S 
ATOM     83  O   UNL     1       1.609  -4.641  20.841  1.00  0.00    -0.237 OA
ATOM     84  O   UNL     1       3.235  -5.673  19.289  1.00  0.00    -0.237 OA
ATOM     85  O   UNL     1       2.250  -3.479  18.757  1.00  0.00    -0.744 OA
ENDBRANCH  81  82
ENDBRANCH  49  74
BRANCH  61  86
ATOM     86  C   UNL     1      -7.247  -9.854  19.437  1.00  0.00     0.058 A 
ATOM     87  C   UNL     1      -7.834  -8.790  20.138  1.00  0.00     0.135 A 
ATOM     88  C   UNL     1      -7.291 -11.131  20.020  1.00  0.00     0.135 A 
ATOM     89  F   UNL     1      -7.813  -7.550  19.625  1.00  0.00    -0.206 F 
ATOM     90  C   UNL     1      -8.427  -8.981  21.381  1.00  0.00     0.059 A 
ATOM     91  C   UNL     1      -7.899 -11.349  21.251  1.00  0.00     0.059 A 
ATOM     92  F   UNL     1      -6.752 -12.183  19.383  1.00  0.00    -0.206 F 
ATOM     93  C   UNL     1      -8.455 -10.265  21.930  1.00  0.00     0.060 A 
BRANCH  93  94
ATOM     94  S   UNL     1      -9.259 -10.509  23.527  1.00  0.00     0.124 S 
ATOM     95  O   UNL     1      -8.253  -9.987  24.445  1.00  0.00    -0.237 OA
ATOM     96  O   UNL     1     -10.473  -9.709  23.394  1.00  0.00    -0.237 OA
ATOM     97  O   UNL     1      -9.472 -11.952  23.582  1.00  0.00    -0.744 OA
ENDBRANCH  93  94
ENDBRANCH  61  86
ENDBRANCH  35  36
ENDBRANCH  27  30
ENDBRANCH  25  26
ENDBRANCH   1  25
TORSDOF 15
