REMARK SMILES COc1ccc([C@H]2CC(c3ccc(S(C)(=O)=O)cc3)=NN2c2ccc(C(=O)NCCCNC(=O)c3ccc(-c4c5nc(c(-c6c(F)cc(S(=O)(=O)[O-])cc6F)c6ccc([nH]6)c(-c6c(F)cc(S(=O)(=O)[O-])cc6F)c6nc(c(-c7c(F)cc(S(=O)(=O)[O-])cc7F)c7ccc4[nH]7)C=C6)C=C5)cc3)cc2)cc1
REMARK SMILES IDX 30 1 29 2 28 3 26 4 27 5 25 7 22 8 23 9 102 10 24 11 101 12
REMARK SMILES IDX 21 13 7 14 8 15 9 16 20 17 6 18 3 19 4 20 104 21 5 22 103 23
REMARK SMILES IDX 2 24 1 25 10 26 11 27 19 28 12 29 18 30 13 31 14 32 15 33
REMARK SMILES IDX 16 34 17 35 31 36 32 37 33 38 34 40 35 41 36 42 100 43 37 44
REMARK SMILES IDX 99 45 38 46 39 47 40 48 93 49 41 50 98 51 92 52 94 53 42 54
REMARK SMILES IDX 97 55 91 56 90 57 43 59 77 60 56 61 76 62 57 63 60 64 75 65
REMARK SMILES IDX 95 66 58 67 59 68 74 70 96 71 61 72 44 73 45 74 54 75 46 76
REMARK SMILES IDX 47 77 53 78 55 79 48 80 49 81 50 82 51 83 52 84 78 85 79 86
REMARK SMILES IDX 88 87 80 88 81 89 87 90 89 91 82 92 83 93 84 94 85 95 86 96
REMARK SMILES IDX 62 97 63 98 72 99 64 100 65 101 71 102 73 103 66 104 67 105
REMARK SMILES IDX 68 106 69 107 70 108
REMARK H PARENT 28 6 32 39 94 58 60 69
REMARK Flexibility Score: inf
ROOT
ATOM      1  C   UNL     1       0.221  -2.900 -11.316  1.00  0.00     0.042 C 
ENDROOT
BRANCH   1   2
ATOM      2  C   UNL     1       0.387  -3.399  -9.881  1.00  0.00     0.118 C 
BRANCH   2   3
ATOM      3  N   UNL     1       1.693  -4.000  -9.687  1.00  0.00    -0.352 N 
ATOM      4  C   UNL     1       2.850  -3.536  -9.117  1.00  0.00     0.251 C 
ATOM      5  O   UNL     1       3.799  -4.318  -9.047  1.00  0.00    -0.269 OA
ATOM      6  H   UNL     1       1.762  -4.920 -10.030  1.00  0.00     0.163 HD
BRANCH   4   7
ATOM      7  C   UNL     1       2.988  -2.173  -8.530  1.00  0.00     0.039 A 
ATOM      8  C   UNL     1       3.317   0.317  -7.226  1.00  0.00     0.060 A 
ATOM      9  C   UNL     1       4.099  -0.785  -6.871  1.00  0.00     0.029 A 
ATOM     10  C   UNL     1       2.420   0.176  -8.288  1.00  0.00     0.029 A 
ATOM     11  C   UNL     1       3.925  -2.021  -7.499  1.00  0.00     0.016 A 
ATOM     12  C   UNL     1       2.284  -1.047  -8.958  1.00  0.00     0.016 A 
BRANCH   8  13
ATOM     13  N   UNL     1       3.449   1.509  -6.534  1.00  0.00    -0.257 N 
ATOM     14  C   UNL     1       2.335   2.207  -5.895  1.00  0.00     0.144 C 
ATOM     15  C   UNL     1       2.942   3.574  -5.557  1.00  0.00     0.091 C 
ATOM     16  C   UNL     1       4.301   3.416  -6.177  1.00  0.00     0.071 C 
ATOM     17  N   UNL     1       4.560   2.267  -6.715  1.00  0.00    -0.176 NA
BRANCH  14  18
ATOM     18  C   UNL     1       1.853   1.464  -4.660  1.00  0.00    -0.023 A 
ATOM     19  C   UNL     1       0.940   0.111  -2.363  1.00  0.00     0.118 A 
ATOM     20  C   UNL     1       0.055   0.428  -3.393  1.00  0.00     0.047 A 
ATOM     21  C   UNL     1       2.291   0.426  -2.494  1.00  0.00     0.047 A 
ATOM     22  C   UNL     1       0.503   1.109  -4.529  1.00  0.00     0.010 A 
ATOM     23  C   UNL     1       2.742   1.098  -3.634  1.00  0.00     0.010 A 
BRANCH  19  24
ATOM     24  O   UNL     1       0.405  -0.557  -1.296  1.00  0.00    -0.497 OA
ATOM     25  C   UNL     1       0.933  -0.158  -0.034  1.00  0.00     0.278 C 
ENDBRANCH  19  24
ENDBRANCH  14  18
BRANCH  16  26
ATOM     26  C   UNL     1       5.253   4.527  -6.188  1.00  0.00    -0.002 A 
ATOM     27  C   UNL     1       5.676   5.041  -7.416  1.00  0.00     0.011 A 
ATOM     28  C   UNL     1       5.744   5.034  -4.983  1.00  0.00     0.011 A 
ATOM     29  C   UNL     1       6.595   6.090  -7.443  1.00  0.00     0.021 A 
ATOM     30  C   UNL     1       6.682   6.066  -5.008  1.00  0.00     0.021 A 
ATOM     31  C   UNL     1       7.106   6.585  -6.237  1.00  0.00     0.067 A 
BRANCH  31  32
ATOM     32  S   UNL     1       8.307   7.895  -6.276  1.00  0.00     0.175 S 
ATOM     33  C   UNL     1       9.666   7.214  -7.190  1.00  0.00     0.163 C 
ATOM     34  O   UNL     1       7.725   8.976  -7.045  1.00  0.00    -0.224 OA
ATOM     35  O   UNL     1       8.764   8.109  -4.915  1.00  0.00    -0.224 OA
ENDBRANCH  31  32
ENDBRANCH  16  26
ENDBRANCH   8  13
ENDBRANCH   4   7
ENDBRANCH   2   3
ENDBRANCH   1   2
BRANCH   1  36
ATOM     36  C   UNL     1       0.015  -4.029 -12.324  1.00  0.00     0.118 C 
BRANCH  36  37
ATOM     37  N   UNL     1      -1.291  -4.656 -12.176  1.00  0.00    -0.352 N 
ATOM     38  C   UNL     1      -2.301  -4.803 -13.093  1.00  0.00     0.251 C 
ATOM     39  H   UNL     1      -1.477  -5.029 -11.284  1.00  0.00     0.163 HD
ATOM     40  O   UNL     1      -3.415  -5.153 -12.714  1.00  0.00    -0.269 OA
BRANCH  38  41
ATOM     41  C   UNL     1      -2.056  -4.533 -14.527  1.00  0.00     0.039 A 
ATOM     42  C   UNL     1      -3.025  -3.841 -15.260  1.00  0.00     0.014 A 
ATOM     43  C   UNL     1      -0.896  -4.990 -15.157  1.00  0.00     0.014 A 
ATOM     44  C   UNL     1      -2.804  -3.557 -16.610  1.00  0.00     0.010 A 
ATOM     45  C   UNL     1      -0.648  -4.654 -16.485  1.00  0.00     0.010 A 
ATOM     46  C   UNL     1      -1.600  -3.936 -17.226  1.00  0.00    -0.014 A 
BRANCH  46  47
ATOM     47  C   UNL     1      -1.309  -3.592 -18.641  1.00  0.00     0.031 A 
ATOM     48  C   UNL     1      -1.148  -4.685 -19.663  1.00  0.00     0.074 A 
ATOM     49  C   UNL     1      -1.105  -2.305 -18.985  1.00  0.00     0.049 A 
ATOM     50  N   UNL     1      -0.772  -4.598 -20.912  1.00  0.00    -0.248 NA
ATOM     51  C   UNL     1      -1.420  -6.059 -19.211  1.00  0.00     0.031 C 
ATOM     52  C   UNL     1      -1.198  -1.161 -18.075  1.00  0.00     0.029 A 
ATOM     53  N   UNL     1      -0.757  -1.743 -20.188  1.00  0.00    -0.354 N 
ATOM     54  C   UNL     1      -0.738  -5.903 -21.390  1.00  0.00     0.074 A 
ATOM     55  C   UNL     1      -1.096  -6.766 -20.285  1.00  0.00     0.031 C 
ATOM     56  C   UNL     1      -0.925  -0.035 -18.754  1.00  0.00     0.029 A 
ATOM     57  C   UNL     1      -0.596  -0.379 -20.134  1.00  0.00     0.049 A 
ATOM     58  H   UNL     1      -0.635  -2.268 -21.012  1.00  0.00     0.167 HD
ATOM     59  C   UNL     1      -0.450  -6.340 -22.639  1.00  0.00     0.037 A 
ATOM     60  C   UNL     1      -0.209   0.495 -21.084  1.00  0.00     0.037 A 
ATOM     61  C   UNL     1      -0.127  -5.471 -23.741  1.00  0.00     0.049 A 
ATOM     62  C   UNL     1       0.108  -0.014 -22.463  1.00  0.00     0.074 A 
ATOM     63  C   UNL     1       0.116  -5.809 -25.060  1.00  0.00     0.029 A 
ATOM     64  N   UNL     1       0.000  -4.092 -23.652  1.00  0.00    -0.354 N 
ATOM     65  N   UNL     1       0.080  -1.246 -22.912  1.00  0.00    -0.248 NA
ATOM     66  C   UNL     1       0.507   0.983 -23.466  1.00  0.00     0.031 C 
ATOM     67  C   UNL     1       0.428  -4.639 -25.761  1.00  0.00     0.029 A 
ATOM     68  C   UNL     1       0.337  -3.567 -24.888  1.00  0.00     0.049 A 
ATOM     69  H   UNL     1      -0.130  -3.565 -22.831  1.00  0.00     0.167 HD
ATOM     70  C   UNL     1       0.429  -1.169 -24.256  1.00  0.00     0.074 A 
ATOM     71  C   UNL     1       0.658   0.231 -24.548  1.00  0.00     0.031 C 
ATOM     72  C   UNL     1       0.547  -2.168 -25.165  1.00  0.00     0.037 A 
BRANCH  59  73
ATOM     73  C   UNL     1      -0.469  -7.823 -22.884  1.00  0.00     0.058 A 
ATOM     74  C   UNL     1      -1.670  -8.550 -22.912  1.00  0.00     0.135 A 
ATOM     75  C   UNL     1       0.724  -8.521 -23.134  1.00  0.00     0.135 A 
ATOM     76  F   UNL     1      -2.838  -7.936 -22.666  1.00  0.00    -0.206 F 
ATOM     77  C   UNL     1      -1.685  -9.921 -23.151  1.00  0.00     0.059 A 
ATOM     78  C   UNL     1       0.730  -9.887 -23.401  1.00  0.00     0.059 A 
ATOM     79  F   UNL     1       1.900  -7.875 -23.120  1.00  0.00    -0.206 F 
ATOM     80  C   UNL     1      -0.479 -10.581 -23.393  1.00  0.00     0.060 A 
BRANCH  80  81
ATOM     81  S   UNL     1      -0.516 -12.359 -23.706  1.00  0.00     0.124 S 
ATOM     82  O   UNL     1      -0.774 -12.883 -22.368  1.00  0.00    -0.237 OA
ATOM     83  O   UNL     1      -1.615 -12.486 -24.658  1.00  0.00    -0.237 OA
ATOM     84  O   UNL     1       0.811 -12.637 -24.244  1.00  0.00    -0.744 OA
ENDBRANCH  80  81
ENDBRANCH  59  73
BRANCH  60  85
ATOM     85  C   UNL     1      -0.115   1.944 -20.765  1.00  0.00     0.058 A 
ATOM     86  C   UNL     1      -1.044   2.857 -21.285  1.00  0.00     0.135 A 
ATOM     87  C   UNL     1       0.892   2.444 -19.923  1.00  0.00     0.135 A 
ATOM     88  F   UNL     1      -2.021   2.427 -22.099  1.00  0.00    -0.206 F 
ATOM     89  C   UNL     1      -0.974   4.215 -20.995  1.00  0.00     0.059 A 
ATOM     90  C   UNL     1       0.969   3.795 -19.599  1.00  0.00     0.059 A 
ATOM     91  F   UNL     1       1.796   1.610 -19.386  1.00  0.00    -0.206 F 
ATOM     92  C   UNL     1       0.037   4.675 -20.148  1.00  0.00     0.060 A 
BRANCH  92  93
ATOM     93  S   UNL     1       0.089   6.432 -19.736  1.00  0.00     0.124 S 
ATOM     94  O   UNL     1       0.602   7.009 -20.973  1.00  0.00    -0.237 OA
ATOM     95  O   UNL     1      -1.309   6.718 -19.428  1.00  0.00    -0.237 OA
ATOM     96  O   UNL     1       0.996   6.481 -18.592  1.00  0.00    -0.744 OA
ENDBRANCH  92  93
ENDBRANCH  60  85
BRANCH  72  97
ATOM     97  C   UNL     1       0.903  -1.786 -26.574  1.00  0.00     0.058 A 
ATOM     98  C   UNL     1       2.205  -1.405 -26.928  1.00  0.00     0.135 A 
ATOM     99  C   UNL     1      -0.058  -1.874 -27.595  1.00  0.00     0.135 A 
ATOM    100  F   UNL     1       3.157  -1.297 -25.987  1.00  0.00    -0.206 F 
ATOM    101  C   UNL     1       2.543  -1.113 -28.245  1.00  0.00     0.059 A 
ATOM    102  C   UNL     1       0.264  -1.611 -28.923  1.00  0.00     0.059 A 
ATOM    103  F   UNL     1      -1.317  -2.243 -27.309  1.00  0.00    -0.206 F 
ATOM    104  C   UNL     1       1.566  -1.224 -29.237  1.00  0.00     0.060 A 
BRANCH 104 105
ATOM    105  S   UNL     1       2.030  -0.897 -30.951  1.00  0.00     0.124 S 
ATOM    106  O   UNL     1       2.130   0.558 -30.956  1.00  0.00    -0.237 OA
ATOM    107  O   UNL     1       3.291  -1.620 -31.077  1.00  0.00    -0.237 OA
ATOM    108  O   UNL     1       0.917  -1.453 -31.716  1.00  0.00    -0.744 OA
ENDBRANCH 104 105
ENDBRANCH  72  97
ENDBRANCH  46  47
ENDBRANCH  38  41
ENDBRANCH  36  37
ENDBRANCH   1  36
TORSDOF 18
