REMARK SMILES CCc1nc(=O)n([C@H]2CCCOC2)c(CC)c1CC(=O)NCCCNC(=O)c1ccc(-c2c3nc(c(-c4c(F)cc(S(=O)(=O)[O-])cc4F)c4ccc([nH]4)c(-c4c(F)cc(S(=O)(=O)[O-])cc4F)c4nc(c(-c5c(F)cc(S(=O)(=O)[O-])cc5F)c5ccc2[nH]5)C=C4)C=C3)cc1
REMARK SMILES IDX 23 1 22 2 21 3 19 4 20 5 18 7 17 8 3 9 4 10 5 11 14 12 6 13
REMARK SMILES IDX 7 14 2 15 1 16 15 17 16 18 8 19 9 20 13 21 10 22 12 23 11 24
REMARK SMILES IDX 24 25 25 26 26 27 27 29 28 30 29 31 93 32 30 33 92 34 31 35
REMARK SMILES IDX 32 36 33 37 86 38 34 39 91 40 85 41 87 42 35 43 90 44 84 45
REMARK SMILES IDX 83 46 36 48 70 49 49 50 69 51 50 52 53 53 68 54 88 55 51 56
REMARK SMILES IDX 52 57 67 59 89 60 54 61 37 62 38 63 47 64 39 65 40 66 46 67
REMARK SMILES IDX 48 68 41 69 42 70 43 71 44 72 45 73 71 74 72 75 81 76 73 77
REMARK SMILES IDX 74 78 80 79 82 80 75 81 76 82 77 83 78 84 79 85 55 86 56 87
REMARK SMILES IDX 65 88 57 89 58 90 64 91 66 92 59 93 60 94 61 95 62 96 63 97
REMARK H PARENT 21 6 25 28 87 47 53 58
REMARK Flexibility Score: inf
ROOT
ATOM      1  C   UNL     1       1.866  -1.180   6.504  1.00  0.00     0.042 C 
ENDROOT
BRANCH   1   2
ATOM      2  C   UNL     1       2.014  -1.645   7.946  1.00  0.00     0.117 C 
BRANCH   2   3
ATOM      3  N   UNL     1       0.939  -2.517   8.371  1.00  0.00    -0.356 N 
ATOM      4  C   UNL     1       0.912  -3.868   8.525  1.00  0.00     0.224 C 
ATOM      5  O   UNL     1      -0.119  -4.373   8.976  1.00  0.00    -0.275 OA
ATOM      6  H   UNL     1       0.093  -2.059   8.583  1.00  0.00     0.163 HD
BRANCH   4   7
ATOM      7  C   UNL     1       2.129  -4.731   8.203  1.00  0.00     0.139 C 
BRANCH   7   8
ATOM      8  C   UNL     1       2.567  -4.743   6.755  1.00  0.00     0.003 A 
ATOM      9  C   UNL     1       3.938  -4.250   6.418  1.00  0.00     0.051 A 
ATOM     10  N   UNL     1       4.327  -4.019   5.215  1.00  0.00    -0.198 NA
ATOM     11  C   UNL     1       3.503  -4.289   4.167  1.00  0.00     0.348 A 
ATOM     12  C   UNL     1       1.836  -5.188   5.697  1.00  0.00     0.028 A 
ATOM     13  O   UNL     1       3.789  -3.873   3.046  1.00  0.00    -0.246 OA
ATOM     14  N   UNL     1       2.368  -5.111   4.390  1.00  0.00    -0.291 N 
BRANCH   9  15
ATOM     15  C   UNL     1       4.983  -4.037   7.522  1.00  0.00     0.053 C 
ATOM     16  C   UNL     1       6.210  -3.251   7.075  1.00  0.00     0.011 C 
ENDBRANCH   9  15
BRANCH  12  17
ATOM     17  C   UNL     1       0.407  -5.642   5.926  1.00  0.00     0.051 C 
ATOM     18  C   UNL     1      -0.609  -4.577   5.511  1.00  0.00     0.010 C 
ENDBRANCH  12  17
BRANCH  14  19
ATOM     19  C   UNL     1       1.869  -5.739   3.122  1.00  0.00     0.118 C 
ATOM     20  C   UNL     1       2.963  -6.665   2.509  1.00  0.00     0.030 C 
ATOM     21  C   UNL     1       0.565  -6.561   3.027  1.00  0.00     0.185 C 
ATOM     22  C   UNL     1       3.008  -8.014   3.217  1.00  0.00     0.031 C 
ATOM     23  O   UNL     1       0.635  -7.829   3.689  1.00  0.00    -0.379 OA
ATOM     24  C   UNL     1       1.645  -8.682   3.163  1.00  0.00     0.160 C 
ENDBRANCH  14  19
ENDBRANCH   7   8
ENDBRANCH   4   7
ENDBRANCH   2   3
ENDBRANCH   1   2
BRANCH   1  25
ATOM     25  C   UNL     1       0.640  -0.308   6.258  1.00  0.00     0.118 C 
BRANCH  25  26
ATOM     26  N   UNL     1       0.647   0.925   7.037  1.00  0.00    -0.352 N 
ATOM     27  C   UNL     1       0.654   2.239   6.628  1.00  0.00     0.251 C 
ATOM     28  H   UNL     1       0.647   0.797   8.013  1.00  0.00     0.163 HD
ATOM     29  O   UNL     1       0.828   3.127   7.457  1.00  0.00    -0.269 OA
BRANCH  27  30
ATOM     30  C   UNL     1       0.480   2.577   5.199  1.00  0.00     0.039 A 
ATOM     31  C   UNL     1      -0.465   1.909   4.420  1.00  0.00     0.014 A 
ATOM     32  C   UNL     1       1.279   3.571   4.626  1.00  0.00     0.014 A 
ATOM     33  C   UNL     1      -0.472   2.088   3.042  1.00  0.00     0.010 A 
ATOM     34  C   UNL     1       1.198   3.822   3.252  1.00  0.00     0.010 A 
ATOM     35  C   UNL     1       0.362   3.042   2.438  1.00  0.00    -0.014 A 
BRANCH  35  36
ATOM     36  C   UNL     1       0.344   3.190   0.958  1.00  0.00     0.031 A 
ATOM     37  C   UNL     1       1.578   2.903   0.140  1.00  0.00     0.074 A 
ATOM     38  C   UNL     1      -0.809   3.527   0.345  1.00  0.00     0.049 A 
ATOM     39  N   UNL     1       1.737   2.969  -1.157  1.00  0.00    -0.248 NA
ATOM     40  C   UNL     1       2.792   2.495   0.867  1.00  0.00     0.031 C 
ATOM     41  C   UNL     1      -2.069   3.833   1.029  1.00  0.00     0.029 A 
ATOM     42  N   UNL     1      -1.120   3.650  -0.986  1.00  0.00    -0.354 N 
ATOM     43  C   UNL     1       3.065   2.637  -1.399  1.00  0.00     0.074 A 
ATOM     44  C   UNL     1       3.680   2.392  -0.114  1.00  0.00     0.031 C 
ATOM     45  C   UNL     1      -3.023   4.061   0.116  1.00  0.00     0.029 A 
ATOM     46  C   UNL     1      -2.434   3.986  -1.216  1.00  0.00     0.049 A 
ATOM     47  H   UNL     1      -0.465   3.510  -1.707  1.00  0.00     0.167 HD
ATOM     48  C   UNL     1       3.708   2.534  -2.587  1.00  0.00     0.037 A 
ATOM     49  C   UNL     1      -3.090   4.231  -2.367  1.00  0.00     0.037 A 
ATOM     50  C   UNL     1       3.076   2.730  -3.867  1.00  0.00     0.049 A 
ATOM     51  C   UNL     1      -2.347   4.121  -3.669  1.00  0.00     0.074 A 
ATOM     52  C   UNL     1       3.635   2.593  -5.127  1.00  0.00     0.029 A 
ATOM     53  N   UNL     1       1.753   3.097  -4.054  1.00  0.00    -0.354 N 
ATOM     54  N   UNL     1      -1.097   3.780  -3.875  1.00  0.00    -0.248 NA
ATOM     55  C   UNL     1      -3.096   4.434  -4.894  1.00  0.00     0.031 C 
ATOM     56  C   UNL     1       2.663   2.925  -6.074  1.00  0.00     0.029 A 
ATOM     57  C   UNL     1       1.484   3.219  -5.408  1.00  0.00     0.049 A 
ATOM     58  H   UNL     1       1.101   3.250  -3.333  1.00  0.00     0.167 HD
ATOM     59  C   UNL     1      -0.913   3.830  -5.252  1.00  0.00     0.074 A 
ATOM     60  C   UNL     1      -2.185   4.209  -5.831  1.00  0.00     0.031 C 
ATOM     61  C   UNL     1       0.211   3.592  -5.970  1.00  0.00     0.037 A 
BRANCH  48  62
ATOM     62  C   UNL     1       5.172   2.190  -2.585  1.00  0.00     0.058 A 
ATOM     63  C   UNL     1       5.624   0.887  -2.326  1.00  0.00     0.135 A 
ATOM     64  C   UNL     1       6.124   3.150  -2.966  1.00  0.00     0.135 A 
ATOM     65  F   UNL     1       4.758  -0.065  -1.944  1.00  0.00    -0.206 F 
ATOM     66  C   UNL     1       6.968   0.546  -2.450  1.00  0.00     0.059 A 
ATOM     67  C   UNL     1       7.469   2.826  -3.120  1.00  0.00     0.059 A 
ATOM     68  F   UNL     1       5.745   4.412  -3.223  1.00  0.00    -0.206 F 
ATOM     69  C   UNL     1       7.881   1.520  -2.861  1.00  0.00     0.060 A 
BRANCH  69  70
ATOM     70  S   UNL     1       9.608   1.042  -3.088  1.00  0.00     0.124 S 
ATOM     71  O   UNL     1      10.033   0.811  -1.711  1.00  0.00    -0.237 OA
ATOM     72  O   UNL     1       9.493  -0.148  -3.924  1.00  0.00    -0.237 OA
ATOM     73  O   UNL     1      10.203   2.206  -3.738  1.00  0.00    -0.744 OA
ENDBRANCH  69  70
ENDBRANCH  48  62
BRANCH  49  74
ATOM     74  C   UNL     1      -4.521   4.633  -2.332  1.00  0.00     0.058 A 
ATOM     75  C   UNL     1      -5.528   3.791  -2.825  1.00  0.00     0.135 A 
ATOM     76  C   UNL     1      -4.910   5.870  -1.791  1.00  0.00     0.135 A 
ATOM     77  F   UNL     1      -5.207   2.602  -3.358  1.00  0.00    -0.206 F 
ATOM     78  C   UNL     1      -6.867   4.166  -2.799  1.00  0.00     0.059 A 
ATOM     79  C   UNL     1      -6.245   6.253  -1.725  1.00  0.00     0.059 A 
ATOM     80  F   UNL     1      -3.987   6.706  -1.290  1.00  0.00    -0.206 F 
ATOM     81  C   UNL     1      -7.216   5.399  -2.244  1.00  0.00     0.060 A 
BRANCH  81  82
ATOM     82  S   UNL     1      -8.960   5.859  -2.180  1.00  0.00     0.124 S 
ATOM     83  O   UNL     1      -9.241   6.140  -3.583  1.00  0.00    -0.237 OA
ATOM     84  O   UNL     1      -9.575   4.653  -1.635  1.00  0.00    -0.237 OA
ATOM     85  O   UNL     1      -8.970   7.016  -1.290  1.00  0.00    -0.744 OA
ENDBRANCH  81  82
ENDBRANCH  49  74
BRANCH  61  86
ATOM     86  C   UNL     1       0.123   3.719  -7.464  1.00  0.00     0.058 A 
ATOM     87  C   UNL     1       0.051   4.973  -8.088  1.00  0.00     0.135 A 
ATOM     88  C   UNL     1       0.194   2.580  -8.283  1.00  0.00     0.135 A 
ATOM     89  F   UNL     1      -0.027   6.092  -7.349  1.00  0.00    -0.206 F 
ATOM     90  C   UNL     1       0.041   5.095  -9.473  1.00  0.00     0.059 A 
ATOM     91  C   UNL     1       0.213   2.679  -9.670  1.00  0.00     0.059 A 
ATOM     92  F   UNL     1       0.274   1.357  -7.734  1.00  0.00    -0.206 F 
ATOM     93  C   UNL     1       0.130   3.942 -10.256  1.00  0.00     0.060 A 
BRANCH  93  94
ATOM     94  S   UNL     1       0.168   4.121 -12.052  1.00  0.00     0.124 S 
ATOM     95  O   UNL     1      -1.205   4.524 -12.337  1.00  0.00    -0.237 OA
ATOM     96  O   UNL     1       1.183   5.152 -12.239  1.00  0.00    -0.237 OA
ATOM     97  O   UNL     1       0.541   2.789 -12.519  1.00  0.00    -0.744 OA
ENDBRANCH  93  94
ENDBRANCH  61  86
ENDBRANCH  35  36
ENDBRANCH  27  30
ENDBRANCH  25  26
ENDBRANCH   1  25
TORSDOF 17
