REMARK SMILES Cc1ccc(OCC(=O)NNC(=O)[C@H]2CCCC[C@@H]2C(=O)NCCCNC(=O)c2ccc(-c3c4nc(c(-c5c(F)cc(S(=O)(=O)[O-])cc5F)c5ccc([nH]5)c(-c5c(F)cc(S(=O)(=O)[O-])cc5F)c5nc(c(-c6c(F)cc(S(=O)(=O)[O-])cc6F)c6ccc3[nH]6)C=C5)C=C4)cc2)cc1
REMARK SMILES IDX 23 1 22 2 20 3 21 4 19 6 14 7 15 8 16 9 18 10 17 11 12 12
REMARK SMILES IDX 11 13 13 15 10 16 8 17 9 18 7 20 6 21 5 22 1 23 2 24 3 25
REMARK SMILES IDX 96 26 4 27 95 28 24 29 25 30 26 31 27 32 28 34 29 35 30 36
REMARK SMILES IDX 94 37 31 38 93 39 32 40 33 41 34 42 87 43 35 44 92 45 86 46
REMARK SMILES IDX 88 47 36 48 91 49 85 50 84 51 37 53 71 54 50 55 70 56 51 57
REMARK SMILES IDX 54 58 69 59 89 60 52 61 53 62 68 64 90 65 55 66 38 67 39 68
REMARK SMILES IDX 48 69 40 70 41 71 47 72 49 73 42 74 43 75 44 76 45 77 46 78
REMARK SMILES IDX 72 79 73 80 82 81 74 82 75 83 81 84 83 85 76 86 77 87 78 88
REMARK SMILES IDX 79 89 80 90 56 91 57 92 66 93 58 94 59 95 65 96 67 97 60 98
REMARK SMILES IDX 61 99 62 100 63 101 64 102
REMARK H PARENT 22 5 11 14 10 19 26 33 88 52 54 63
REMARK Flexibility Score: inf
ROOT
ATOM      1  C   UNL     1      -6.812   3.831   5.989  1.00  0.00     0.117 C 
ENDROOT
BRANCH   1   2
ATOM      2  N   UNL     1      -6.402   3.064   4.821  1.00  0.00    -0.356 N 
ATOM      3  C   UNL     1      -5.384   2.228   4.535  1.00  0.00     0.223 C 
ATOM      4  O   UNL     1      -5.354   1.800   3.369  1.00  0.00    -0.275 OA
ATOM      5  H   UNL     1      -7.014   3.184   4.059  1.00  0.00     0.163 HD
BRANCH   3   6
ATOM      6  C   UNL     1      -4.257   1.788   5.479  1.00  0.00     0.091 C 
ATOM      7  C   UNL     1      -4.149   0.241   5.401  1.00  0.00     0.092 C 
ATOM      8  C   UNL     1      -5.154  -0.407   6.367  1.00  0.00     0.014 C 
ATOM      9  C   UNL     1      -4.968   0.035   7.815  1.00  0.00     0.001 C 
ATOM     10  C   UNL     1      -4.132   2.283   6.918  1.00  0.00     0.014 C 
ATOM     11  C   UNL     1      -4.960   1.544   7.968  1.00  0.00     0.001 C 
BRANCH   7  12
ATOM     12  C   UNL     1      -2.724  -0.265   5.636  1.00  0.00     0.242 C 
ATOM     13  N   UNL     1      -1.730   0.038   4.748  1.00  0.00    -0.267 N 
ATOM     14  H   UNL     1      -0.816  -0.231   4.995  1.00  0.00     0.191 HD
ATOM     15  O   UNL     1      -2.415  -0.979   6.593  1.00  0.00    -0.273 OA
BRANCH  13  16
ATOM     16  N   UNL     1      -1.885   0.689   3.532  1.00  0.00    -0.265 N 
ATOM     17  C   UNL     1      -0.827   1.239   2.843  1.00  0.00     0.276 C 
ATOM     18  O   UNL     1      -0.989   1.700   1.712  1.00  0.00    -0.269 OA
ATOM     19  H   UNL     1      -2.788   0.759   3.146  1.00  0.00     0.191 HD
BRANCH  17  20
ATOM     20  C   UNL     1       0.565   1.206   3.491  1.00  0.00     0.331 C 
BRANCH  20  21
ATOM     21  O   UNL     1       0.667   1.802   4.776  1.00  0.00    -0.484 OA
BRANCH  21  22
ATOM     22  C   UNL     1       0.664   3.169   4.844  1.00  0.00     0.120 A 
ATOM     23  C   UNL     1       0.656   7.438   5.495  1.00  0.00     0.044 C 
ATOM     24  C   UNL     1       0.662   5.956   5.267  1.00  0.00    -0.051 A 
ATOM     25  C   UNL     1       0.798   5.076   6.344  1.00  0.00     0.007 A 
ATOM     26  C   UNL     1       0.538   5.430   3.978  1.00  0.00     0.007 A 
ATOM     27  C   UNL     1       0.795   3.693   6.132  1.00  0.00     0.047 A 
ATOM     28  C   UNL     1       0.540   4.046   3.767  1.00  0.00     0.047 A 
ENDBRANCH  21  22
ENDBRANCH  20  21
ENDBRANCH  17  20
ENDBRANCH  13  16
ENDBRANCH   7  12
ENDBRANCH   3   6
ENDBRANCH   1   2
BRANCH   1  29
ATOM     29  C   UNL     1      -6.096   5.174   6.071  1.00  0.00     0.042 C 
BRANCH  29  30
ATOM     30  C   UNL     1      -7.073   6.334   6.017  1.00  0.00     0.118 C 
BRANCH  30  31
ATOM     31  N   UNL     1      -7.488   6.852   7.315  1.00  0.00    -0.352 N 
ATOM     32  C   UNL     1      -8.333   7.930   7.551  1.00  0.00     0.251 C 
ATOM     33  H   UNL     1      -7.131   6.390   8.108  1.00  0.00     0.163 HD
ATOM     34  O   UNL     1      -8.455   8.444   8.647  1.00  0.00    -0.269 OA
BRANCH  32  35
ATOM     35  C   UNL     1      -9.173   8.358   6.410  1.00  0.00     0.039 A 
ATOM     36  C   UNL     1     -10.526   8.001   6.455  1.00  0.00     0.014 A 
ATOM     37  C   UNL     1      -8.554   8.703   5.215  1.00  0.00     0.014 A 
ATOM     38  C   UNL     1     -11.209   7.781   5.263  1.00  0.00     0.010 A 
ATOM     39  C   UNL     1      -9.192   8.356   4.042  1.00  0.00     0.010 A 
ATOM     40  C   UNL     1     -10.505   7.855   4.064  1.00  0.00    -0.014 A 
BRANCH  40  41
ATOM     41  C   UNL     1     -11.018   7.387   2.778  1.00  0.00     0.031 A 
ATOM     42  C   UNL     1     -11.248   8.372   1.695  1.00  0.00     0.074 A 
ATOM     43  C   UNL     1     -11.146   6.065   2.525  1.00  0.00     0.049 A 
ATOM     44  N   UNL     1     -11.878   8.121   0.599  1.00  0.00    -0.248 NA
ATOM     45  C   UNL     1     -10.786   9.756   1.783  1.00  0.00     0.031 C 
ATOM     46  C   UNL     1     -11.286   5.425   1.218  1.00  0.00     0.029 A 
ATOM     47  N   UNL     1     -11.383   5.032   3.438  1.00  0.00    -0.354 N 
ATOM     48  C   UNL     1     -11.697   9.190  -0.244  1.00  0.00     0.074 A 
ATOM     49  C   UNL     1     -11.009  10.187   0.540  1.00  0.00     0.031 C 
ATOM     50  C   UNL     1     -11.836   4.213   1.382  1.00  0.00     0.029 A 
ATOM     51  C   UNL     1     -12.206   4.089   2.779  1.00  0.00     0.049 A 
ATOM     52  H   UNL     1     -11.043   4.973   4.360  1.00  0.00     0.167 HD
ATOM     53  C   UNL     1     -12.069   9.092  -1.549  1.00  0.00     0.037 A 
ATOM     54  C   UNL     1     -13.478   3.864   3.228  1.00  0.00     0.037 A 
ATOM     55  C   UNL     1     -12.777   7.848  -1.821  1.00  0.00     0.049 A 
ATOM     56  C   UNL     1     -14.571   4.344   2.289  1.00  0.00     0.074 A 
ATOM     57  C   UNL     1     -12.425   6.605  -2.319  1.00  0.00     0.029 A 
ATOM     58  N   UNL     1     -14.019   7.681  -1.237  1.00  0.00    -0.354 N 
ATOM     59  N   UNL     1     -14.365   4.866   1.109  1.00  0.00    -0.248 NA
ATOM     60  C   UNL     1     -15.992   4.330   2.644  1.00  0.00     0.031 C 
ATOM     61  C   UNL     1     -13.450   5.676  -1.959  1.00  0.00     0.029 A 
ATOM     62  C   UNL     1     -14.428   6.362  -1.263  1.00  0.00     0.049 A 
ATOM     63  H   UNL     1     -14.549   8.414  -0.849  1.00  0.00     0.167 HD
ATOM     64  C   UNL     1     -15.553   5.314   0.594  1.00  0.00     0.074 A 
ATOM     65  C   UNL     1     -16.549   4.931   1.579  1.00  0.00     0.031 C 
ATOM     66  C   UNL     1     -15.658   6.009  -0.575  1.00  0.00     0.037 A 
BRANCH  53  67
ATOM     67  C   UNL     1     -11.593  10.072  -2.584  1.00  0.00     0.058 A 
ATOM     68  C   UNL     1     -11.160   9.625  -3.846  1.00  0.00     0.135 A 
ATOM     69  C   UNL     1     -11.476  11.458  -2.357  1.00  0.00     0.135 A 
ATOM     70  F   UNL     1     -11.264   8.337  -4.202  1.00  0.00    -0.206 F 
ATOM     71  C   UNL     1     -10.568  10.475  -4.780  1.00  0.00     0.059 A 
ATOM     72  C   UNL     1     -10.829  12.317  -3.248  1.00  0.00     0.059 A 
ATOM     73  F   UNL     1     -11.998  12.023  -1.257  1.00  0.00    -0.206 F 
ATOM     74  C   UNL     1     -10.374  11.814  -4.460  1.00  0.00     0.060 A 
BRANCH  74  75
ATOM     75  S   UNL     1      -9.496  12.870  -5.629  1.00  0.00     0.124 S 
ATOM     76  O   UNL     1      -8.348  12.046  -5.994  1.00  0.00    -0.237 OA
ATOM     77  O   UNL     1     -10.498  13.060  -6.672  1.00  0.00    -0.237 OA
ATOM     78  O   UNL     1      -9.177  14.056  -4.839  1.00  0.00    -0.744 OA
ENDBRANCH  74  75
ENDBRANCH  53  67
BRANCH  54  79
ATOM     79  C   UNL     1     -13.537   3.826   4.717  1.00  0.00     0.058 A 
ATOM     80  C   UNL     1     -12.834   2.783   5.356  1.00  0.00     0.135 A 
ATOM     81  C   UNL     1     -13.805   4.980   5.465  1.00  0.00     0.135 A 
ATOM     82  F   UNL     1     -12.579   1.642   4.694  1.00  0.00    -0.206 F 
ATOM     83  C   UNL     1     -12.236   2.961   6.597  1.00  0.00     0.059 A 
ATOM     84  C   UNL     1     -13.228   5.171   6.722  1.00  0.00     0.059 A 
ATOM     85  F   UNL     1     -14.483   5.998   4.916  1.00  0.00    -0.206 F 
ATOM     86  C   UNL     1     -12.373   4.192   7.231  1.00  0.00     0.060 A 
BRANCH  86  87
ATOM     87  S   UNL     1     -11.252   4.559   8.604  1.00  0.00     0.124 S 
ATOM     88  O   UNL     1     -11.532   3.466   9.528  1.00  0.00    -0.237 OA
ATOM     89  O   UNL     1      -9.949   4.508   7.942  1.00  0.00    -0.237 OA
ATOM     90  O   UNL     1     -11.685   5.881   9.041  1.00  0.00    -0.744 OA
ENDBRANCH  86  87
ENDBRANCH  54  79
BRANCH  66  91
ATOM     91  C   UNL     1     -16.981   6.429  -1.147  1.00  0.00     0.058 A 
ATOM     92  C   UNL     1     -18.023   5.507  -1.335  1.00  0.00     0.135 A 
ATOM     93  C   UNL     1     -17.198   7.732  -1.641  1.00  0.00     0.135 A 
ATOM     94  F   UNL     1     -17.888   4.232  -0.934  1.00  0.00    -0.206 F 
ATOM     95  C   UNL     1     -19.226   5.864  -1.944  1.00  0.00     0.059 A 
ATOM     96  C   UNL     1     -18.371   8.098  -2.294  1.00  0.00     0.059 A 
ATOM     97  F   UNL     1     -16.285   8.700  -1.475  1.00  0.00    -0.206 F 
ATOM     98  C   UNL     1     -19.390   7.162  -2.420  1.00  0.00     0.060 A 
BRANCH  98  99
ATOM     99  S   UNL     1     -20.935   7.628  -3.224  1.00  0.00     0.124 S 
ATOM    100  O   UNL     1     -21.339   6.392  -3.888  1.00  0.00    -0.237 OA
ATOM    101  O   UNL     1     -21.748   8.024  -2.079  1.00  0.00    -0.237 OA
ATOM    102  O   UNL     1     -20.535   8.709  -4.119  1.00  0.00    -0.744 OA
ENDBRANCH  98  99
ENDBRANCH  66  91
ENDBRANCH  40  41
ENDBRANCH  32  35
ENDBRANCH  30  31
ENDBRANCH  29  30
ENDBRANCH   1  29
TORSDOF 18
