REMARK SMILES CC(C)CN(C)c1cc2c(cc1Cl)C=C(C(=O)NCCCNC(=O)c1ccc(-c3c4nc(c(-c5c(F)cc(S(=O)(=O)[O-])cc5F)c5ccc([nH]5)c(-c5c(F)cc(S(=O)(=O)[O-])cc5F)c5nc(c(-c6c(F)cc(S(=O)(=O)[O-])cc6F)c6ccc3[nH]6)C=C5)C=C4)cc1)[C@H](C(F)(F)F)O2
REMARK SMILES IDX 20 1 19 2 18 3 16 4 17 5 15 7 7 8 8 9 12 10 9 11 11 12 13 13
REMARK SMILES IDX 10 14 96 15 14 16 91 17 5 18 6 19 4 20 2 21 1 22 3 23 92 24
REMARK SMILES IDX 93 25 94 26 95 27 21 28 22 29 23 30 24 32 25 33 26 34 90 35
REMARK SMILES IDX 27 36 89 37 28 38 29 39 30 40 83 41 31 42 88 43 82 44 84 45
REMARK SMILES IDX 32 46 87 47 81 48 80 49 33 51 67 52 46 53 66 54 47 55 50 56
REMARK SMILES IDX 65 57 85 58 48 59 49 60 64 62 86 63 51 64 34 65 35 66 44 67
REMARK SMILES IDX 36 68 37 69 43 70 45 71 38 72 39 73 40 74 41 75 42 76 68 77
REMARK SMILES IDX 69 78 78 79 70 80 71 81 77 82 79 83 72 84 73 85 74 86 75 87
REMARK SMILES IDX 76 88 52 89 53 90 62 91 54 92 55 93 61 94 63 95 56 96 57 97
REMARK SMILES IDX 58 98 59 99 60 100
REMARK H PARENT 18 6 22 31 84 50 50 61
REMARK Flexibility Score: inf
ROOT
ATOM      1  C   UNL     1      -3.962   1.745  -8.933  1.00  0.00     0.042 C 
ENDROOT
BRANCH   1   2
ATOM      2  C   UNL     1      -2.927   0.647  -8.733  1.00  0.00     0.118 C 
BRANCH   2   3
ATOM      3  N   UNL     1      -1.634   1.218  -8.400  1.00  0.00    -0.352 N 
ATOM      4  C   UNL     1      -0.888   1.347  -7.281  1.00  0.00     0.251 C 
ATOM      5  O   UNL     1       0.191   1.930  -7.424  1.00  0.00    -0.270 OA
ATOM      6  H   UNL     1      -1.190   1.608  -9.187  1.00  0.00     0.163 HD
BRANCH   4   7
ATOM      7  C   UNL     1      -1.258   0.784  -5.953  1.00  0.00     0.067 C 
ATOM      8  C   UNL     1      -0.832  -1.334  -1.366  1.00  0.00     0.059 A 
ATOM      9  C   UNL     1      -1.896  -0.843  -2.142  1.00  0.00     0.074 A 
ATOM     10  C   UNL     1       0.453  -1.298  -1.953  1.00  0.00     0.065 A 
ATOM     11  C   UNL     1      -1.687  -0.308  -3.415  1.00  0.00     0.130 A 
ATOM     12  C   UNL     1       0.672  -0.667  -3.182  1.00  0.00     0.034 A 
ATOM     13  Cl  UNL     1       1.820  -2.104  -1.260  1.00  0.00    -0.082 Cl
ATOM     14  C   UNL     1      -0.401  -0.170  -3.915  1.00  0.00     0.019 A 
ATOM     15  O   UNL     1      -2.804   0.032  -4.109  1.00  0.00    -0.475 OA
ATOM     16  C   UNL     1      -0.191   0.440  -5.213  1.00  0.00     0.025 C 
ATOM     17  C   UNL     1      -2.665   0.617  -5.435  1.00  0.00     0.314 C 
BRANCH   8  18
ATOM     18  N   UNL     1      -1.066  -1.826  -0.069  1.00  0.00    -0.373 N 
ATOM     19  C   UNL     1      -2.159  -2.795   0.042  1.00  0.00     0.143 C 
BRANCH  18  20
ATOM     20  C   UNL     1      -0.978  -0.837   1.034  1.00  0.00     0.119 C 
BRANCH  20  21
ATOM     21  C   UNL     1       0.473  -0.516   1.445  1.00  0.00     0.002 C 
ATOM     22  C   UNL     1       0.992   0.759   0.774  1.00  0.00     0.009 C 
ATOM     23  C   UNL     1       0.615  -0.367   2.963  1.00  0.00     0.009 C 
ENDBRANCH  20  21
ENDBRANCH  18  20
ENDBRANCH   8  18
BRANCH  17  24
ATOM     24  C   UNL     1      -3.522   1.896  -5.450  1.00  0.00     0.429 C 
ATOM     25  F   UNL     1      -2.933   2.921  -6.102  1.00  0.00    -0.167 F 
ATOM     26  F   UNL     1      -4.704   1.649  -6.071  1.00  0.00    -0.167 F 
ATOM     27  F   UNL     1      -3.816   2.338  -4.206  1.00  0.00    -0.167 F 
ENDBRANCH  17  24
ENDBRANCH   4   7
ENDBRANCH   2   3
ENDBRANCH   1   2
BRANCH   1  28
ATOM     28  C   UNL     1      -3.789   2.484 -10.251  1.00  0.00     0.118 C 
BRANCH  28  29
ATOM     29  N   UNL     1      -4.259   1.696 -11.383  1.00  0.00    -0.352 N 
ATOM     30  C   UNL     1      -5.392   1.848 -12.147  1.00  0.00     0.251 C 
ATOM     31  H   UNL     1      -3.679   0.943 -11.638  1.00  0.00     0.163 HD
ATOM     32  O   UNL     1      -5.745   0.935 -12.893  1.00  0.00    -0.269 OA
BRANCH  30  33
ATOM     33  C   UNL     1      -6.192   3.089 -12.055  1.00  0.00     0.039 A 
ATOM     34  C   UNL     1      -5.561   4.327 -11.943  1.00  0.00     0.014 A 
ATOM     35  C   UNL     1      -7.588   3.021 -12.077  1.00  0.00     0.014 A 
ATOM     36  C   UNL     1      -6.308   5.457 -11.642  1.00  0.00     0.010 A 
ATOM     37  C   UNL     1      -8.344   4.186 -11.904  1.00  0.00     0.010 A 
ATOM     38  C   UNL     1      -7.711   5.409 -11.635  1.00  0.00    -0.014 A 
BRANCH  38  39
ATOM     39  C   UNL     1      -8.476   6.656 -11.363  1.00  0.00     0.031 A 
ATOM     40  C   UNL     1      -9.402   6.753 -10.177  1.00  0.00     0.074 A 
ATOM     41  C   UNL     1      -8.274   7.731 -12.154  1.00  0.00     0.049 A 
ATOM     42  N   UNL     1     -10.139   7.764  -9.791  1.00  0.00    -0.248 NA
ATOM     43  C   UNL     1      -9.520   5.568  -9.311  1.00  0.00     0.031 C 
ATOM     44  C   UNL     1      -7.385   7.763 -13.321  1.00  0.00     0.029 A 
ATOM     45  N   UNL     1      -8.765   9.009 -12.085  1.00  0.00    -0.354 N 
ATOM     46  C   UNL     1     -10.810   7.338  -8.651  1.00  0.00     0.074 A 
ATOM     47  C   UNL     1     -10.427   5.962  -8.426  1.00  0.00     0.031 C 
ATOM     48  C   UNL     1      -7.338   9.011 -13.808  1.00  0.00     0.029 A 
ATOM     49  C   UNL     1      -8.258   9.849 -13.050  1.00  0.00     0.049 A 
ATOM     50  H   UNL     1      -9.419   9.299 -11.408  1.00  0.00     0.167 HD
ATOM     51  C   UNL     1     -11.653   8.038  -7.854  1.00  0.00     0.037 A 
ATOM     52  C   UNL     1      -8.518  11.143 -13.314  1.00  0.00     0.037 A 
ATOM     53  C   UNL     1     -12.010   9.417  -8.073  1.00  0.00     0.049 A 
ATOM     54  C   UNL     1      -9.516  11.870 -12.456  1.00  0.00     0.074 A 
ATOM     55  C   UNL     1     -12.862  10.212  -7.324  1.00  0.00     0.029 A 
ATOM     56  N   UNL     1     -11.527  10.210  -9.103  1.00  0.00    -0.354 N 
ATOM     57  N   UNL     1     -10.154  11.441 -11.393  1.00  0.00    -0.248 NA
ATOM     58  C   UNL     1      -9.841  13.250 -12.839  1.00  0.00     0.031 C 
ATOM     59  C   UNL     1     -12.929  11.470  -7.927  1.00  0.00     0.029 A 
ATOM     60  C   UNL     1     -12.076  11.479  -9.019  1.00  0.00     0.049 A 
ATOM     61  H   UNL     1     -10.889   9.915  -9.792  1.00  0.00     0.167 HD
ATOM     62  C   UNL     1     -10.935  12.507 -10.966  1.00  0.00     0.074 A 
ATOM     63  C   UNL     1     -10.678  13.606 -11.874  1.00  0.00     0.031 C 
ATOM     64  C   UNL     1     -11.793  12.569  -9.918  1.00  0.00     0.037 A 
BRANCH  51  65
ATOM     65  C   UNL     1     -12.250   7.345  -6.659  1.00  0.00     0.058 A 
ATOM     66  C   UNL     1     -11.483   7.061  -5.519  1.00  0.00     0.135 A 
ATOM     67  C   UNL     1     -13.625   7.061  -6.609  1.00  0.00     0.135 A 
ATOM     68  F   UNL     1     -10.161   7.295  -5.517  1.00  0.00    -0.206 F 
ATOM     69  C   UNL     1     -12.056   6.522  -4.371  1.00  0.00     0.059 A 
ATOM     70  C   UNL     1     -14.225   6.545  -5.463  1.00  0.00     0.059 A 
ATOM     71  F   UNL     1     -14.405   7.310  -7.672  1.00  0.00    -0.206 F 
ATOM     72  C   UNL     1     -13.431   6.279  -4.349  1.00  0.00     0.060 A 
BRANCH  72  73
ATOM     73  S   UNL     1     -14.162   5.629  -2.831  1.00  0.00     0.124 S 
ATOM     74  O   UNL     1     -13.580   4.291  -2.774  1.00  0.00    -0.237 OA
ATOM     75  O   UNL     1     -13.681   6.572  -1.827  1.00  0.00    -0.237 OA
ATOM     76  O   UNL     1     -15.597   5.675  -3.095  1.00  0.00    -0.744 OA
ENDBRANCH  72  73
ENDBRANCH  51  65
BRANCH  52  77
ATOM     77  C   UNL     1      -7.839  11.831 -14.445  1.00  0.00     0.058 A 
ATOM     78  C   UNL     1      -6.948  12.890 -14.216  1.00  0.00     0.135 A 
ATOM     79  C   UNL     1      -8.072  11.452 -15.777  1.00  0.00     0.135 A 
ATOM     80  F   UNL     1      -6.694  13.294 -12.962  1.00  0.00    -0.206 F 
ATOM     81  C   UNL     1      -6.333  13.565 -15.265  1.00  0.00     0.059 A 
ATOM     82  C   UNL     1      -7.443  12.089 -16.841  1.00  0.00     0.059 A 
ATOM     83  F   UNL     1      -8.903  10.435 -16.053  1.00  0.00    -0.206 F 
ATOM     84  C   UNL     1      -6.588  13.157 -16.576  1.00  0.00     0.060 A 
BRANCH  84  85
ATOM     85  S   UNL     1      -5.776  14.034 -17.928  1.00  0.00     0.124 S 
ATOM     86  O   UNL     1      -6.459  15.322 -17.893  1.00  0.00    -0.237 OA
ATOM     87  O   UNL     1      -4.382  14.037 -17.496  1.00  0.00    -0.237 OA
ATOM     88  O   UNL     1      -6.063  13.199 -19.091  1.00  0.00    -0.744 OA
ENDBRANCH  84  85
ENDBRANCH  52  77
BRANCH  64  89
ATOM     89  C   UNL     1     -12.491  13.876  -9.666  1.00  0.00     0.058 A 
ATOM     90  C   UNL     1     -13.526  14.329 -10.497  1.00  0.00     0.135 A 
ATOM     91  C   UNL     1     -12.171  14.643  -8.534  1.00  0.00     0.135 A 
ATOM     92  F   UNL     1     -13.864  13.637 -11.596  1.00  0.00    -0.206 F 
ATOM     93  C   UNL     1     -14.213  15.506 -10.221  1.00  0.00     0.059 A 
ATOM     94  C   UNL     1     -12.865  15.807  -8.222  1.00  0.00     0.059 A 
ATOM     95  F   UNL     1     -11.194  14.248  -7.703  1.00  0.00    -0.206 F 
ATOM     96  C   UNL     1     -13.882  16.234  -9.076  1.00  0.00     0.060 A 
BRANCH  96  97
ATOM     97  S   UNL     1     -14.822  17.729  -8.705  1.00  0.00     0.124 S 
ATOM     98  O   UNL     1     -14.377  18.628  -9.764  1.00  0.00    -0.237 OA
ATOM     99  O   UNL     1     -16.201  17.260  -8.809  1.00  0.00    -0.237 OA
ATOM    100  O   UNL     1     -14.386  18.082  -7.357  1.00  0.00    -0.744 OA
ENDBRANCH  96  97
ENDBRANCH  64  89
ENDBRANCH  38  39
ENDBRANCH  30  33
ENDBRANCH  28  29
ENDBRANCH   1  28
TORSDOF 17
