REMARK SMILES O=C(NCCCNC(=O)[C@@H]1CCCCC[C@H]1NC(=O)c1cccc(F)c1)c1ccc(-c2c3nc(c(-c4c(F)cc(S(=O)(=O)[O-])cc4F)c4ccc([nH]4)c(-c4c(F)cc(S(=O)(=O)[O-])cc4F)c4nc(c(-c5c(F)cc(S(=O)(=O)[O-])cc5F)c5ccc2[nH]5)C=C4)C=C3)cc1
REMARK SMILES IDX 5 1 4 2 3 3 1 4 2 5 27 7 28 8 92 9 29 10 91 11 30 12 31 13
REMARK SMILES IDX 32 14 85 15 33 16 90 17 84 18 86 19 34 20 89 21 83 22 82 23
REMARK SMILES IDX 35 25 69 26 48 27 68 28 49 29 52 30 67 31 87 32 50 33 51 34
REMARK SMILES IDX 66 36 88 37 53 38 36 39 37 40 46 41 38 42 39 43 45 44 47 45
REMARK SMILES IDX 40 46 41 47 42 48 43 49 44 50 70 51 71 52 80 53 72 54 73 55
REMARK SMILES IDX 79 56 81 57 74 58 75 59 76 60 77 61 78 62 54 63 55 64 64 65
REMARK SMILES IDX 56 66 57 67 63 68 65 69 58 70 59 71 60 72 61 73 62 74 6 75
REMARK SMILES IDX 7 76 8 77 9 79 10 80 11 81 12 82 13 83 16 85 15 86 14 87
REMARK SMILES IDX 17 89 18 90 19 92 20 93 21 94 26 95 22 96 24 97 23 98 25 99
REMARK H PARENT 3 6 86 24 52 35 7 78 17 91
REMARK Flexibility Score: 100.00
ROOT
ATOM      1  C   UNL     1       4.311   0.378  -2.688  1.00  0.00     0.042 C 
ENDROOT
BRANCH   1   2
ATOM      2  C   UNL     1       4.192   0.835  -1.239  1.00  0.00     0.118 C 
BRANCH   2   3
ATOM      3  N   UNL     1       2.814   0.807  -0.770  1.00  0.00    -0.352 N 
ATOM      4  O   UNL     1       0.990  -0.052   0.224  1.00  0.00    -0.269 OA
ATOM      5  C   UNL     1       2.213  -0.021   0.149  1.00  0.00     0.251 C 
ATOM      6  H   UNL     1       2.223   1.484  -1.172  1.00  0.00     0.163 HD
BRANCH   5   7
ATOM      7  C   UNL     1       3.038  -0.874   1.036  1.00  0.00     0.039 A 
ATOM      8  C   UNL     1       4.221  -0.386   1.587  1.00  0.00     0.014 A 
ATOM      9  C   UNL     1       2.603  -2.165   1.356  1.00  0.00     0.014 A 
ATOM     10  C   UNL     1       5.043  -1.229   2.321  1.00  0.00     0.010 A 
ATOM     11  C   UNL     1       3.378  -2.977   2.194  1.00  0.00     0.010 A 
ATOM     12  C   UNL     1       4.617  -2.523   2.667  1.00  0.00    -0.014 A 
BRANCH  12  13
ATOM     13  C   UNL     1       5.459  -3.312   3.604  1.00  0.00     0.031 A 
ATOM     14  C   UNL     1       6.107  -4.603   3.189  1.00  0.00     0.074 A 
ATOM     15  C   UNL     1       5.698  -2.790   4.826  1.00  0.00     0.049 A 
ATOM     16  N   UNL     1       6.943  -5.351   3.863  1.00  0.00    -0.248 NA
ATOM     17  C   UNL     1       5.779  -5.131   1.855  1.00  0.00     0.031 C 
ATOM     18  C   UNL     1       5.104  -1.550   5.338  1.00  0.00     0.029 A 
ATOM     19  N   UNL     1       6.533  -3.193   5.836  1.00  0.00    -0.354 N 
ATOM     20  C   UNL     1       7.234  -6.437   3.047  1.00  0.00     0.074 A 
ATOM     21  C   UNL     1       6.464  -6.268   1.833  1.00  0.00     0.031 C 
ATOM     22  C   UNL     1       5.662  -1.246   6.518  1.00  0.00     0.029 A 
ATOM     23  C   UNL     1       6.592  -2.306   6.886  1.00  0.00     0.049 A 
ATOM     24  H   UNL     1       7.042  -4.036   5.812  1.00  0.00     0.167 HD
ATOM     25  C   UNL     1       8.075  -7.471   3.288  1.00  0.00     0.037 A 
ATOM     26  C   UNL     1       7.309  -2.340   8.025  1.00  0.00     0.037 A 
ATOM     27  C   UNL     1       8.852  -7.615   4.495  1.00  0.00     0.049 A 
ATOM     28  C   UNL     1       8.219  -3.507   8.268  1.00  0.00     0.074 A 
ATOM     29  C   UNL     1       9.745  -8.621   4.826  1.00  0.00     0.029 A 
ATOM     30  N   UNL     1       8.836  -6.731   5.564  1.00  0.00    -0.354 N 
ATOM     31  N   UNL     1       8.483  -4.521   7.478  1.00  0.00    -0.248 NA
ATOM     32  C   UNL     1       8.916  -3.547   9.559  1.00  0.00     0.031 C 
ATOM     33  C   UNL     1      10.237  -8.367   6.109  1.00  0.00     0.029 A 
ATOM     34  C   UNL     1       9.688  -7.178   6.561  1.00  0.00     0.049 A 
ATOM     35  H   UNL     1       8.298  -5.908   5.608  1.00  0.00     0.167 HD
ATOM     36  C   UNL     1       9.377  -5.320   8.177  1.00  0.00     0.074 A 
ATOM     37  C   UNL     1       9.636  -4.654   9.438  1.00  0.00     0.031 C 
ATOM     38  C   UNL     1       9.925  -6.505   7.814  1.00  0.00     0.037 A 
BRANCH  25  39
ATOM     39  C   UNL     1       8.220  -8.538   2.237  1.00  0.00     0.058 A 
ATOM     40  C   UNL     1       7.718  -9.831   2.459  1.00  0.00     0.135 A 
ATOM     41  C   UNL     1       8.956  -8.315   1.063  1.00  0.00     0.135 A 
ATOM     42  F   UNL     1       7.000 -10.097   3.562  1.00  0.00    -0.206 F 
ATOM     43  C   UNL     1       7.969 -10.872   1.572  1.00  0.00     0.059 A 
ATOM     44  C   UNL     1       9.202  -9.338   0.150  1.00  0.00     0.059 A 
ATOM     45  F   UNL     1       9.440  -7.093   0.791  1.00  0.00    -0.206 F 
ATOM     46  C   UNL     1       8.721 -10.618   0.424  1.00  0.00     0.060 A 
BRANCH  46  47
ATOM     47  S   UNL     1       9.053 -11.986  -0.708  1.00  0.00     0.124 S 
ATOM     48  O   UNL     1       9.952 -12.819   0.081  1.00  0.00    -0.237 OA
ATOM     49  O   UNL     1       7.716 -12.526  -0.934  1.00  0.00    -0.237 OA
ATOM     50  O   UNL     1       9.656 -11.328  -1.864  1.00  0.00    -0.744 OA
ENDBRANCH  46  47
ENDBRANCH  25  39
BRANCH  26  51
ATOM     51  C   UNL     1       7.184  -1.238   9.016  1.00  0.00     0.058 A 
ATOM     52  C   UNL     1       5.984  -1.022   9.713  1.00  0.00     0.135 A 
ATOM     53  C   UNL     1       8.253  -0.367   9.272  1.00  0.00     0.135 A 
ATOM     54  F   UNL     1       4.926  -1.819   9.497  1.00  0.00    -0.206 F 
ATOM     55  C   UNL     1       5.840   0.031  10.607  1.00  0.00     0.059 A 
ATOM     56  C   UNL     1       8.144   0.676  10.187  1.00  0.00     0.059 A 
ATOM     57  F   UNL     1       9.423  -0.539   8.638  1.00  0.00    -0.206 F 
ATOM     58  C   UNL     1       6.926   0.875  10.838  1.00  0.00     0.060 A 
BRANCH  58  59
ATOM     59  S   UNL     1       6.725   2.224  12.021  1.00  0.00     0.124 S 
ATOM     60  O   UNL     1       5.875   3.143  11.271  1.00  0.00    -0.237 OA
ATOM     61  O   UNL     1       6.092   1.550  13.150  1.00  0.00    -0.237 OA
ATOM     62  O   UNL     1       8.093   2.677  12.251  1.00  0.00    -0.744 OA
ENDBRANCH  58  59
ENDBRANCH  26  51
BRANCH  38  63
ATOM     63  C   UNL     1      10.860  -7.154   8.794  1.00  0.00     0.058 A 
ATOM     64  C   UNL     1      12.239  -7.207   8.540  1.00  0.00     0.135 A 
ATOM     65  C   UNL     1      10.383  -7.754   9.970  1.00  0.00     0.135 A 
ATOM     66  F   UNL     1      12.745  -6.652   7.428  1.00  0.00    -0.206 F 
ATOM     67  C   UNL     1      13.114  -7.838   9.416  1.00  0.00     0.059 A 
ATOM     68  C   UNL     1      11.244  -8.367  10.875  1.00  0.00     0.059 A 
ATOM     69  F   UNL     1       9.073  -7.718  10.264  1.00  0.00    -0.206 F 
ATOM     70  C   UNL     1      12.607  -8.414  10.583  1.00  0.00     0.060 A 
BRANCH  70  71
ATOM     71  S   UNL     1      13.762  -9.191  11.732  1.00  0.00     0.124 S 
ATOM     72  O   UNL     1      14.114 -10.414  11.020  1.00  0.00    -0.237 OA
ATOM     73  O   UNL     1      14.818  -8.188  11.834  1.00  0.00    -0.237 OA
ATOM     74  O   UNL     1      12.964  -9.374  12.941  1.00  0.00    -0.744 OA
ENDBRANCH  70  71
ENDBRANCH  38  63
ENDBRANCH  12  13
ENDBRANCH   5   7
ENDBRANCH   2   3
ENDBRANCH   1   2
BRANCH   1  75
ATOM     75  C   UNL     1       3.798   1.418  -3.681  1.00  0.00     0.117 C 
BRANCH  75  76
ATOM     76  N   UNL     1       4.697   2.553  -3.749  1.00  0.00    -0.356 N 
ATOM     77  C   UNL     1       5.790   2.837  -4.498  1.00  0.00     0.225 C 
ATOM     78  H   UNL     1       4.463   3.271  -3.118  1.00  0.00     0.163 HD
ATOM     79  O   UNL     1       6.426   3.821  -4.100  1.00  0.00    -0.275 OA
BRANCH  77  80
ATOM     80  C   UNL     1       6.168   2.103  -5.814  1.00  0.00     0.101 C 
BRANCH  80  81
ATOM     81  C   UNL     1       6.034   0.573  -5.748  1.00  0.00     0.015 C 
BRANCH  81  82
ATOM     82  C   UNL     1       6.817  -0.290  -6.732  1.00  0.00     0.001 C 
BRANCH  82  83
ATOM     83  C   UNL     1       8.238  -0.580  -6.270  1.00  0.00     0.000 CG0
ATOM     84  G   UNL     1       9.198   0.594  -6.367  1.00  0.00     0.000 G0
ENDBRANCH  82  83
ENDBRANCH  81  82
ENDBRANCH  80  81
BRANCH  80  85
ATOM     85  C   UNL     1       7.567   2.625  -6.266  1.00  0.00     0.094 C 
BRANCH  85  86
ATOM     86  C   UNL     1       8.754   1.864  -5.644  1.00  0.00     0.026 C 
BRANCH  86  87
ATOM     87  C   UNL     1       9.198   0.594  -6.367  1.00  0.00     0.002 CG0
ATOM     88  G   UNL     1       8.238  -0.580  -6.270  1.00  0.00     0.000 G0
ENDBRANCH  86  87
ENDBRANCH  85  86
BRANCH  85  89
ATOM     89  N   UNL     1       7.683   2.729  -7.728  1.00  0.00    -0.349 N 
ATOM     90  C   UNL     1       7.846   3.827  -8.534  1.00  0.00     0.251 C 
ATOM     91  H   UNL     1       7.636   1.871  -8.206  1.00  0.00     0.164 HD
ATOM     92  O   UNL     1       7.752   3.698  -9.753  1.00  0.00    -0.269 OA
BRANCH  90  93
ATOM     93  C   UNL     1       8.102   5.173  -7.976  1.00  0.00     0.042 A 
ATOM     94  C   UNL     1       9.104   5.405  -7.024  1.00  0.00     0.014 A 
ATOM     95  C   UNL     1       7.367   6.246  -8.488  1.00  0.00     0.053 A 
ATOM     96  C   UNL     1       9.318   6.695  -6.531  1.00  0.00     0.004 A 
ATOM     97  C   UNL     1       7.603   7.526  -8.001  1.00  0.00     0.124 A 
ATOM     98  C   UNL     1       8.561   7.758  -7.020  1.00  0.00     0.039 A 
ATOM     99  F   UNL     1       6.897   8.556  -8.488  1.00  0.00    -0.207 F 
ENDBRANCH  90  93
ENDBRANCH  85  89
ENDBRANCH  80  85
ENDBRANCH  77  80
ENDBRANCH  75  76
ENDBRANCH   1  75
TORSDOF 15
