REMARK SMILES CC(C)(C(=O)NCCCNC(=O)c1ccc(-c2c3nc(c(-c4c(F)cc(S(=O)(=O)[O-])cc4F)c4ccc([nH]4)c(-c4c(F)cc(S(=O)(=O)[O-])cc4F)c4nc(c(-c5c(F)cc(S(=O)(=O)[O-])cc5F)c5ccc2[nH]5)C=C4)C=C3)cc1)n1cccc1
REMARK SMILES IDX 9 1 8 2 7 3 6 4 4 5 5 6 2 8 1 9 3 10 79 11 80 12 83 13 81 14
REMARK SMILES IDX 82 15 10 16 11 17 12 19 13 20 14 21 78 22 15 23 77 24 16 25
REMARK SMILES IDX 17 26 18 27 71 28 19 29 76 30 70 31 72 32 20 33 75 34 69 35
REMARK SMILES IDX 68 36 21 38 55 39 34 40 54 41 35 42 38 43 53 44 73 45 36 46
REMARK SMILES IDX 37 47 52 49 74 50 39 51 22 52 23 53 32 54 24 55 25 56 31 57
REMARK SMILES IDX 33 58 26 59 27 60 28 61 29 62 30 63 56 64 57 65 66 66 58 67
REMARK SMILES IDX 59 68 65 69 67 70 60 71 61 72 62 73 63 74 64 75 40 76 41 77
REMARK SMILES IDX 50 78 42 79 43 80 49 81 51 82 44 83 45 84 46 85 47 86 48 87
REMARK H PARENT 6 7 10 18 72 37 38 48
REMARK Flexibility Score: inf
ROOT
ATOM      1  C   UNL     1      -2.950   2.658  -0.975  1.00  0.00     0.118 C 
ENDROOT
BRANCH   1   2
ATOM      2  C   UNL     1      -1.447   2.495  -0.788  1.00  0.00     0.042 C 
BRANCH   2   3
ATOM      3  C   UNL     1      -1.032   2.202   0.645  1.00  0.00     0.117 C 
BRANCH   3   4
ATOM      4  N   UNL     1      -1.543   0.927   1.121  1.00  0.00    -0.354 N 
ATOM      5  C   UNL     1      -0.944  -0.224   1.546  1.00  0.00     0.245 C 
ATOM      6  O   UNL     1      -1.731  -1.075   1.975  1.00  0.00    -0.272 OA
ATOM      7  H   UNL     1      -2.527   0.884   1.142  1.00  0.00     0.163 HD
BRANCH   5   8
ATOM      8  C   UNL     1       0.599  -0.427   1.535  1.00  0.00     0.117 C 
ATOM      9  C   UNL     1       1.178  -0.240   0.119  1.00  0.00     0.045 C 
ATOM     10  C   UNL     1       1.212   0.587   2.527  1.00  0.00     0.045 C 
BRANCH   8  11
ATOM     11  N   UNL     1       0.959  -1.823   1.948  1.00  0.00    -0.340 N 
ATOM     12  C   UNL     1       1.947  -2.188   2.837  1.00  0.00     0.086 A 
ATOM     13  C   UNL     1       0.439  -2.977   1.398  1.00  0.00     0.086 A 
ATOM     14  C   UNL     1       2.000  -3.563   2.900  1.00  0.00     0.019 A 
ATOM     15  C   UNL     1       1.045  -4.061   1.991  1.00  0.00     0.019 A 
ENDBRANCH   8  11
ENDBRANCH   5   8
ENDBRANCH   3   4
ENDBRANCH   2   3
ENDBRANCH   1   2
BRANCH   1  16
ATOM     16  N   UNL     1      -3.492   3.779  -0.217  1.00  0.00    -0.352 N 
ATOM     17  C   UNL     1      -4.065   4.949  -0.653  1.00  0.00     0.251 C 
ATOM     18  H   UNL     1      -3.439   3.683   0.761  1.00  0.00     0.163 HD
ATOM     19  O   UNL     1      -4.269   5.857   0.151  1.00  0.00    -0.269 OA
BRANCH  17  20
ATOM     20  C   UNL     1      -4.415   5.125  -2.078  1.00  0.00     0.039 A 
ATOM     21  C   UNL     1      -4.160   6.353  -2.694  1.00  0.00     0.014 A 
ATOM     22  C   UNL     1      -5.000   4.087  -2.806  1.00  0.00     0.014 A 
ATOM     23  C   UNL     1      -4.421   6.510  -4.057  1.00  0.00     0.010 A 
ATOM     24  C   UNL     1      -5.169   4.213  -4.181  1.00  0.00     0.010 A 
ATOM     25  C   UNL     1      -4.886   5.427  -4.822  1.00  0.00    -0.014 A 
BRANCH  25  26
ATOM     26  C   UNL     1      -5.083   5.542  -6.290  1.00  0.00     0.031 A 
ATOM     27  C   UNL     1      -6.450   5.338  -6.888  1.00  0.00     0.074 A 
ATOM     28  C   UNL     1      -4.019   5.756  -7.090  1.00  0.00     0.049 A 
ATOM     29  N   UNL     1      -6.806   5.318  -8.146  1.00  0.00    -0.248 NA
ATOM     30  C   UNL     1      -7.558   5.097  -5.949  1.00  0.00     0.031 C 
ATOM     31  C   UNL     1      -2.636   5.919  -6.633  1.00  0.00     0.029 A 
ATOM     32  N   UNL     1      -3.929   5.863  -8.455  1.00  0.00    -0.354 N 
ATOM     33  C   UNL     1      -8.170   5.049  -8.151  1.00  0.00     0.074 A 
ATOM     34  C   UNL     1      -8.566   4.855  -6.774  1.00  0.00     0.031 C 
ATOM     35  C   UNL     1      -1.843   6.129  -7.696  1.00  0.00     0.029 A 
ATOM     36  C   UNL     1      -2.648   6.070  -8.911  1.00  0.00     0.049 A 
ATOM     37  H   UNL     1      -4.709   5.797  -9.053  1.00  0.00     0.167 HD
ATOM     38  C   UNL     1      -9.019   4.994  -9.205  1.00  0.00     0.037 A 
ATOM     39  C   UNL     1      -2.172   6.187 -10.167  1.00  0.00     0.037 A 
ATOM     40  C   UNL     1      -8.619   5.210 -10.571  1.00  0.00     0.049 A 
ATOM     41  C   UNL     1      -3.134   6.110 -11.322  1.00  0.00     0.074 A 
ATOM     42  C   UNL     1      -9.412   5.234 -11.705  1.00  0.00     0.029 A 
ATOM     43  N   UNL     1      -7.315   5.434 -10.990  1.00  0.00    -0.354 N 
ATOM     44  N   UNL     1      -4.432   5.923 -11.303  1.00  0.00    -0.248 NA
ATOM     45  C   UNL     1      -2.569   6.266 -12.669  1.00  0.00     0.031 C 
ATOM     46  C   UNL     1      -8.581   5.418 -12.815  1.00  0.00     0.029 A 
ATOM     47  C   UNL     1      -7.278   5.571 -12.368  1.00  0.00     0.049 A 
ATOM     48  H   UNL     1      -6.532   5.488 -10.396  1.00  0.00     0.167 HD
ATOM     49  C   UNL     1      -4.843   5.969 -12.631  1.00  0.00     0.074 A 
ATOM     50  C   UNL     1      -3.657   6.214 -13.425  1.00  0.00     0.031 C 
ATOM     51  C   UNL     1      -6.089   5.823 -13.146  1.00  0.00     0.037 A 
BRANCH  38  52
ATOM     52  C   UNL     1     -10.466   4.691  -8.923  1.00  0.00     0.058 A 
ATOM     53  C   UNL     1     -11.297   5.605  -8.253  1.00  0.00     0.135 A 
ATOM     54  C   UNL     1     -11.043   3.487  -9.361  1.00  0.00     0.135 A 
ATOM     55  F   UNL     1     -10.797   6.765  -7.798  1.00  0.00    -0.206 F 
ATOM     56  C   UNL     1     -12.636   5.325  -8.002  1.00  0.00     0.059 A 
ATOM     57  C   UNL     1     -12.388   3.200  -9.150  1.00  0.00     0.059 A 
ATOM     58  F   UNL     1     -10.297   2.576 -10.006  1.00  0.00    -0.206 F 
ATOM     59  C   UNL     1     -13.173   4.119  -8.456  1.00  0.00     0.060 A 
BRANCH  59  60
ATOM     60  S   UNL     1     -14.915   3.777  -8.129  1.00  0.00     0.124 S 
ATOM     61  O   UNL     1     -14.898   3.535  -6.689  1.00  0.00    -0.237 OA
ATOM     62  O   UNL     1     -15.560   5.014  -8.555  1.00  0.00    -0.237 OA
ATOM     63  O   UNL     1     -15.194   2.608  -8.957  1.00  0.00    -0.744 OA
ENDBRANCH  59  60
ENDBRANCH  38  52
BRANCH  39  64
ATOM     64  C   UNL     1      -0.718   6.406 -10.394  1.00  0.00     0.058 A 
ATOM     65  C   UNL     1      -0.239   7.630 -10.884  1.00  0.00     0.135 A 
ATOM     66  C   UNL     1       0.223   5.402 -10.116  1.00  0.00     0.135 A 
ATOM     67  F   UNL     1      -1.099   8.620 -11.172  1.00  0.00    -0.206 F 
ATOM     68  C   UNL     1       1.117   7.847 -11.108  1.00  0.00     0.059 A 
ATOM     69  C   UNL     1       1.587   5.604 -10.303  1.00  0.00     0.059 A 
ATOM     70  F   UNL     1      -0.180   4.218  -9.628  1.00  0.00    -0.206 F 
ATOM     71  C   UNL     1       2.023   6.827 -10.810  1.00  0.00     0.060 A 
BRANCH  71  72
ATOM     72  S   UNL     1       3.785   7.137 -11.059  1.00  0.00     0.124 S 
ATOM     73  O   UNL     1       3.881   7.138 -12.514  1.00  0.00    -0.237 OA
ATOM     74  O   UNL     1       3.963   8.429 -10.404  1.00  0.00    -0.237 OA
ATOM     75  O   UNL     1       4.422   6.009 -10.384  1.00  0.00    -0.744 OA
ENDBRANCH  71  72
ENDBRANCH  39  64
BRANCH  51  76
ATOM     76  C   UNL     1      -6.247   5.962 -14.636  1.00  0.00     0.058 A 
ATOM     77  C   UNL     1      -5.779   4.983 -15.525  1.00  0.00     0.135 A 
ATOM     78  C   UNL     1      -6.929   7.066 -15.175  1.00  0.00     0.135 A 
ATOM     79  F   UNL     1      -5.114   3.912 -15.064  1.00  0.00    -0.206 F 
ATOM     80  C   UNL     1      -5.962   5.104 -16.899  1.00  0.00     0.059 A 
ATOM     81  C   UNL     1      -7.151   7.191 -16.543  1.00  0.00     0.059 A 
ATOM     82  F   UNL     1      -7.407   8.027 -14.368  1.00  0.00    -0.206 F 
ATOM     83  C   UNL     1      -6.653   6.210 -17.398  1.00  0.00     0.060 A 
BRANCH  83  84
ATOM     84  S   UNL     1      -6.917   6.333 -19.180  1.00  0.00     0.124 S 
ATOM     85  O   UNL     1      -5.575   6.655 -19.654  1.00  0.00    -0.237 OA
ATOM     86  O   UNL     1      -7.404   4.998 -19.515  1.00  0.00    -0.237 OA
ATOM     87  O   UNL     1      -7.901   7.404 -19.305  1.00  0.00    -0.744 OA
ENDBRANCH  83  84
ENDBRANCH  51  76
ENDBRANCH  25  26
ENDBRANCH  17  20
ENDBRANCH   1  16
TORSDOF 14
