REMARK SMILES Cc1ccccc1N(CCC(=O)NCCCNC(=O)c1ccc(-c2c3nc(c(-c4c(F)cc(S(=O)(=O)[O-])cc4F)c4ccc([nH]4)c(-c4c(F)cc(S(=O)(=O)[O-])cc4F)c4nc(c(-c5c(F)cc(S(=O)(=O)[O-])cc5F)c5ccc2[nH]5)C=C4)C=C3)cc1)C(=O)[C@@H]1C=C[C@H]([NH3+])C1
REMARK SMILES IDX 14 1 13 2 11 3 12 4 10 6 9 7 8 8 7 9 1 10 2 11 3 12 4 13
REMARK SMILES IDX 6 14 5 15 86 16 87 17 88 18 89 19 93 20 90 21 91 22 92 23
REMARK SMILES IDX 15 27 16 28 17 29 18 30 19 32 20 33 21 34 85 35 22 36 84 37
REMARK SMILES IDX 23 38 24 39 25 40 78 41 26 42 83 43 77 44 79 45 27 46 82 47
REMARK SMILES IDX 76 48 75 49 28 51 62 52 41 53 61 54 42 55 45 56 60 57 80 58
REMARK SMILES IDX 43 59 44 60 59 62 81 63 46 64 29 65 30 66 39 67 31 68 32 69
REMARK SMILES IDX 38 70 40 71 33 72 34 73 35 74 36 75 37 76 63 77 64 78 73 79
REMARK SMILES IDX 65 80 66 81 72 82 74 83 67 84 68 85 69 86 70 87 71 88 47 89
REMARK SMILES IDX 48 90 57 91 49 92 50 93 56 94 58 95 51 96 52 97 53 98 54 99
REMARK SMILES IDX 55 100
REMARK H PARENT 13 5 92 24 92 25 92 26 17 31 79 50 45 61
REMARK Flexibility Score: inf
ROOT
ATOM      1  C   UNL     1       2.050   4.396   2.728  1.00  0.00     0.117 C 
ENDROOT
BRANCH   1   2
ATOM      2  N   UNL     1       1.626   3.781   1.470  1.00  0.00    -0.356 N 
ATOM      3  C   UNL     1       1.479   2.470   1.127  1.00  0.00     0.221 C 
ATOM      4  O   UNL     1       0.786   2.197   0.142  1.00  0.00    -0.275 OA
ATOM      5  H   UNL     1       1.412   4.420   0.752  1.00  0.00     0.163 HD
BRANCH   3   6
ATOM      6  C   UNL     1       2.216   1.365   1.847  1.00  0.00     0.122 C 
BRANCH   6   7
ATOM      7  C   UNL     1       3.458   0.911   1.073  1.00  0.00     0.135 C 
BRANCH   7   8
ATOM      8  N   UNL     1       4.642   1.781   1.284  1.00  0.00    -0.311 N 
BRANCH   8   9
ATOM      9  C   UNL     1       5.384   1.590   2.573  1.00  0.00     0.047 A 
ATOM     10  C   UNL     1       6.664   3.903   2.947  1.00  0.00     0.046 C 
ATOM     11  C   UNL     1       6.207   2.506   3.289  1.00  0.00    -0.027 A 
ATOM     12  C   UNL     1       6.634   2.175   4.622  1.00  0.00     0.005 A 
ATOM     13  C   UNL     1       6.369   0.961   5.234  1.00  0.00     0.000 A 
ATOM     14  C   UNL     1       5.192   0.340   3.240  1.00  0.00     0.026 A 
ATOM     15  C   UNL     1       5.666   0.024   4.522  1.00  0.00     0.002 A 
ENDBRANCH   8   9
BRANCH   8  16
ATOM     16  C   UNL     1       4.979   2.698   0.253  1.00  0.00     0.234 C 
ATOM     17  O   UNL     1       6.069   3.267   0.178  1.00  0.00    -0.274 OA
BRANCH  16  18
ATOM     18  C   UNL     1       3.931   2.963  -0.902  1.00  0.00     0.108 C 
ATOM     19  C   UNL     1       4.488   2.758  -2.286  1.00  0.00    -0.012 C 
ATOM     20  C   UNL     1       3.445   4.418  -0.990  1.00  0.00     0.087 C 
ATOM     21  C   UNL     1       4.642   3.920  -2.935  1.00  0.00     0.033 C 
ATOM     22  C   UNL     1       4.305   5.078  -2.063  1.00  0.00     0.205 C 
BRANCH  22  23
ATOM     23  N   UNL     1       5.535   5.590  -1.486  1.00  0.00    -0.352 N 
ATOM     24  H   UNL     1       6.027   4.835  -1.008  1.00  0.00     0.345 HD
ATOM     25  H   UNL     1       5.315   6.329  -0.818  1.00  0.00     0.345 HD
ATOM     26  H   UNL     1       6.127   5.966  -2.227  1.00  0.00     0.345 HD
ENDBRANCH  22  23
ENDBRANCH  16  18
ENDBRANCH   8  16
ENDBRANCH   7   8
ENDBRANCH   6   7
ENDBRANCH   3   6
ENDBRANCH   1   2
BRANCH   1  27
ATOM     27  C   UNL     1       3.499   4.882   2.819  1.00  0.00     0.042 C 
BRANCH  27  28
ATOM     28  C   UNL     1       3.874   6.302   2.334  1.00  0.00     0.118 C 
BRANCH  28  29
ATOM     29  N   UNL     1       4.497   7.139   3.383  1.00  0.00    -0.352 N 
ATOM     30  C   UNL     1       5.235   8.310   3.309  1.00  0.00     0.251 C 
ATOM     31  H   UNL     1       4.363   6.803   4.299  1.00  0.00     0.163 HD
ATOM     32  O   UNL     1       5.723   8.873   4.283  1.00  0.00    -0.269 OA
BRANCH  30  33
ATOM     33  C   UNL     1       5.368   8.959   2.008  1.00  0.00     0.039 A 
ATOM     34  C   UNL     1       4.699  10.175   1.798  1.00  0.00     0.014 A 
ATOM     35  C   UNL     1       5.933   8.237   0.971  1.00  0.00     0.014 A 
ATOM     36  C   UNL     1       4.314  10.501   0.510  1.00  0.00     0.010 A 
ATOM     37  C   UNL     1       5.537   8.560  -0.297  1.00  0.00     0.010 A 
ATOM     38  C   UNL     1       4.625   9.593  -0.493  1.00  0.00    -0.014 A 
BRANCH  38  39
ATOM     39  C   UNL     1       3.955   9.559  -1.773  1.00  0.00     0.031 A 
ATOM     40  C   UNL     1       4.627  10.240  -2.870  1.00  0.00     0.074 A 
ATOM     41  C   UNL     1       2.806   8.859  -1.875  1.00  0.00     0.049 A 
ATOM     42  N   UNL     1       4.055  11.032  -3.700  1.00  0.00    -0.248 NA
ATOM     43  C   UNL     1       6.075  10.174  -3.026  1.00  0.00     0.031 C 
ATOM     44  C   UNL     1       2.000   8.588  -3.056  1.00  0.00     0.029 A 
ATOM     45  N   UNL     1       2.030   8.386  -0.805  1.00  0.00    -0.354 N 
ATOM     46  C   UNL     1       4.980  11.265  -4.697  1.00  0.00     0.074 A 
ATOM     47  C   UNL     1       6.250  10.921  -4.115  1.00  0.00     0.031 C 
ATOM     48  C   UNL     1       0.747   8.302  -2.653  1.00  0.00     0.029 A 
ATOM     49  C   UNL     1       0.688   8.473  -1.205  1.00  0.00     0.049 A 
ATOM     50  H   UNL     1       2.363   8.055   0.060  1.00  0.00     0.167 HD
ATOM     51  C   UNL     1       4.536  11.465  -5.970  1.00  0.00     0.037 A 
ATOM     52  C   UNL     1      -0.124   9.360  -0.559  1.00  0.00     0.037 A 
ATOM     53  C   UNL     1       3.069  11.367  -5.986  1.00  0.00     0.049 A 
ATOM     54  C   UNL     1      -0.483  10.547  -1.435  1.00  0.00     0.074 A 
ATOM     55  C   UNL     1       2.214  10.329  -6.324  1.00  0.00     0.029 A 
ATOM     56  N   UNL     1       2.313  12.259  -5.230  1.00  0.00    -0.354 N 
ATOM     57  N   UNL     1       0.205  10.919  -2.486  1.00  0.00    -0.248 NA
ATOM     58  C   UNL     1      -1.690  11.348  -1.259  1.00  0.00     0.031 C 
ATOM     59  C   UNL     1       0.956  10.575  -5.708  1.00  0.00     0.029 A 
ATOM     60  C   UNL     1       1.039  11.766  -5.006  1.00  0.00     0.049 A 
ATOM     61  H   UNL     1       2.641  13.127  -4.899  1.00  0.00     0.167 HD
ATOM     62  C   UNL     1      -0.429  11.962  -3.122  1.00  0.00     0.074 A 
ATOM     63  C   UNL     1      -1.621  12.174  -2.319  1.00  0.00     0.031 C 
ATOM     64  C   UNL     1       0.062  12.555  -4.258  1.00  0.00     0.037 A 
BRANCH  51  65
ATOM     65  C   UNL     1       5.409  11.383  -7.214  1.00  0.00     0.058 A 
ATOM     66  C   UNL     1       4.833  11.136  -8.479  1.00  0.00     0.135 A 
ATOM     67  C   UNL     1       6.814  11.530  -7.243  1.00  0.00     0.135 A 
ATOM     68  F   UNL     1       3.505  11.054  -8.638  1.00  0.00    -0.206 F 
ATOM     69  C   UNL     1       5.585  10.978  -9.648  1.00  0.00     0.059 A 
ATOM     70  C   UNL     1       7.593  11.319  -8.384  1.00  0.00     0.059 A 
ATOM     71  F   UNL     1       7.505  11.965  -6.185  1.00  0.00    -0.206 F 
ATOM     72  C   UNL     1       6.969  11.054  -9.589  1.00  0.00     0.060 A 
BRANCH  72  73
ATOM     73  S   UNL     1       7.928  10.888 -11.105  1.00  0.00     0.124 S 
ATOM     74  O   UNL     1       7.536   9.562 -11.573  1.00  0.00    -0.237 OA
ATOM     75  O   UNL     1       7.440  12.013 -11.896  1.00  0.00    -0.237 OA
ATOM     76  O   UNL     1       9.311  11.001 -10.649  1.00  0.00    -0.744 OA
ENDBRANCH  72  73
ENDBRANCH  51  65
BRANCH  52  77
ATOM     77  C   UNL     1      -0.020   9.274   0.935  1.00  0.00     0.058 A 
ATOM     78  C   UNL     1      -0.582   8.139   1.555  1.00  0.00     0.135 A 
ATOM     79  C   UNL     1       0.898  10.004   1.707  1.00  0.00     0.135 A 
ATOM     80  F   UNL     1      -1.458   7.377   0.879  1.00  0.00    -0.206 F 
ATOM     81  C   UNL     1      -0.206   7.705   2.830  1.00  0.00     0.059 A 
ATOM     82  C   UNL     1       1.315   9.570   2.984  1.00  0.00     0.059 A 
ATOM     83  F   UNL     1       1.459  11.112   1.204  1.00  0.00    -0.206 F 
ATOM     84  C   UNL     1       0.765   8.410   3.534  1.00  0.00     0.060 A 
BRANCH  84  85
ATOM     85  S   UNL     1       1.345   7.732   5.120  1.00  0.00     0.124 S 
ATOM     86  O   UNL     1       0.421   8.331   6.065  1.00  0.00    -0.237 OA
ATOM     87  O   UNL     1       1.214   6.291   4.931  1.00  0.00    -0.237 OA
ATOM     88  O   UNL     1       2.732   8.182   5.199  1.00  0.00    -0.744 OA
ENDBRANCH  84  85
ENDBRANCH  52  77
BRANCH  64  89
ATOM     89  C   UNL     1      -0.360  13.898  -4.847  1.00  0.00     0.058 A 
ATOM     90  C   UNL     1      -1.062  14.893  -4.147  1.00  0.00     0.135 A 
ATOM     91  C   UNL     1       0.089  14.293  -6.140  1.00  0.00     0.135 A 
ATOM     92  F   UNL     1      -1.451  14.725  -2.878  1.00  0.00    -0.206 F 
ATOM     93  C   UNL     1      -1.358  16.142  -4.703  1.00  0.00     0.059 A 
ATOM     94  C   UNL     1      -0.118  15.561  -6.676  1.00  0.00     0.059 A 
ATOM     95  F   UNL     1       0.768  13.463  -6.944  1.00  0.00    -0.206 F 
ATOM     96  C   UNL     1      -0.876  16.470  -5.965  1.00  0.00     0.060 A 
BRANCH  96  97
ATOM     97  S   UNL     1      -1.216  18.098  -6.650  1.00  0.00     0.124 S 
ATOM     98  O   UNL     1      -2.570  17.916  -7.164  1.00  0.00    -0.237 OA
ATOM     99  O   UNL     1      -1.095  18.965  -5.482  1.00  0.00    -0.237 OA
ATOM    100  O   UNL     1      -0.175  18.268  -7.658  1.00  0.00    -0.744 OA
ENDBRANCH  96  97
ENDBRANCH  64  89
ENDBRANCH  38  39
ENDBRANCH  30  33
ENDBRANCH  28  29
ENDBRANCH  27  28
ENDBRANCH   1  27
TORSDOF 19
