REMARK SMILES Cc1cc(C(=O)N2C[C@@H](C(=O)NCCCNC(=O)c3ccc(-c4c5nc(c(-c6c(F)cc(S(=O)(=O)[O-])cc6F)c6ccc([nH]6)c(-c6c(F)cc(S(=O)(=O)[O-])cc6F)c6nc(c(-c7c(F)cc(S(=O)(=O)[O-])cc7F)c7ccc4[nH]7)C=C6)C=C5)cc3)[C@H](C3CC3)C2)sc1C
REMARK SMILES IDX 14 1 13 2 12 3 10 4 11 5 9 7 7 8 8 9 89 10 85 11 5 12 6 13
REMARK SMILES IDX 4 14 1 15 2 16 3 17 91 18 90 19 92 20 86 21 87 22 88 23
REMARK SMILES IDX 15 24 16 25 17 26 18 28 19 29 20 30 84 31 21 32 83 33 22 34
REMARK SMILES IDX 23 35 24 36 77 37 25 38 82 39 76 40 78 41 26 42 81 43 75 44
REMARK SMILES IDX 74 45 27 47 61 48 40 49 60 50 41 51 44 52 59 53 79 54 42 55
REMARK SMILES IDX 43 56 58 58 80 59 45 60 28 61 29 62 38 63 30 64 31 65 37 66
REMARK SMILES IDX 39 67 32 68 33 69 34 70 35 71 36 72 62 73 63 74 72 75 64 76
REMARK SMILES IDX 65 77 71 78 73 79 66 80 67 81 68 82 69 83 70 84 46 85 47 86
REMARK SMILES IDX 56 87 48 88 49 89 55 90 57 91 50 92 51 93 52 94 53 95 54 96
REMARK H PARENT 12 6 16 27 78 46 44 57
REMARK Flexibility Score: inf
ROOT
ATOM      1  C   UNL     1       6.407   3.530  -0.150  1.00  0.00     0.042 C 
ENDROOT
BRANCH   1   2
ATOM      2  C   UNL     1       6.680   2.090  -0.534  1.00  0.00     0.117 C 
BRANCH   2   3
ATOM      3  N   UNL     1       6.861   1.203   0.601  1.00  0.00    -0.356 N 
ATOM      4  C   UNL     1       6.328  -0.031   0.832  1.00  0.00     0.225 C 
ATOM      5  O   UNL     1       6.749  -0.666   1.800  1.00  0.00    -0.275 OA
ATOM      6  H   UNL     1       7.457   1.542   1.307  1.00  0.00     0.163 HD
BRANCH   4   7
ATOM      7  C   UNL     1       5.246  -0.584  -0.076  1.00  0.00     0.103 C 
ATOM      8  N   UNL     1       3.475  -2.081  -0.139  1.00  0.00    -0.337 N 
ATOM      9  C   UNL     1       4.136  -1.187   0.786  1.00  0.00     0.133 C 
ATOM     10  C   UNL     1       4.463  -2.713  -0.983  1.00  0.00     0.124 C 
ATOM     11  C   UNL     1       5.709  -1.795  -0.929  1.00  0.00     0.026 C 
BRANCH   8  12
ATOM     12  C   UNL     1       2.133  -2.369  -0.318  1.00  0.00     0.263 C 
ATOM     13  O   UNL     1       1.821  -3.474  -0.774  1.00  0.00    -0.268 OA
BRANCH  12  14
ATOM     14  C   UNL     1       1.111  -1.357  -0.066  1.00  0.00     0.093 A 
ATOM     15  C   UNL     1      -2.539  -0.435   0.153  1.00  0.00     0.045 C 
ATOM     16  C   UNL     1      -1.047  -0.413   0.094  1.00  0.00    -0.037 A 
ATOM     17  C   UNL     1      -0.242  -1.601   0.089  1.00  0.00     0.029 A 
ATOM     18  C   UNL     1      -0.254   0.717  -0.004  1.00  0.00     0.005 A 
ATOM     19  S   UNL     1       1.395   0.323  -0.205  1.00  0.00    -0.135 S 
ATOM     20  C   UNL     1      -0.670   2.152  -0.016  1.00  0.00     0.056 C 
ENDBRANCH  12  14
ENDBRANCH   8  12
BRANCH  11  21
ATOM     21  C   UNL     1       6.207  -1.549  -2.339  1.00  0.00    -0.005 C 
ATOM     22  C   UNL     1       5.931  -0.306  -3.147  1.00  0.00     0.004 C 
ATOM     23  C   UNL     1       7.321  -0.583  -2.635  1.00  0.00     0.004 C 
ENDBRANCH  11  21
ENDBRANCH   4   7
ENDBRANCH   2   3
ENDBRANCH   1   2
BRANCH   1  24
ATOM     24  C   UNL     1       7.590   4.226   0.506  1.00  0.00     0.118 C 
BRANCH  24  25
ATOM     25  N   UNL     1       8.771   4.290  -0.349  1.00  0.00    -0.352 N 
ATOM     26  C   UNL     1       9.387   5.358  -0.962  1.00  0.00     0.251 C 
ATOM     27  H   UNL     1       9.201   3.420  -0.516  1.00  0.00     0.163 HD
ATOM     28  O   UNL     1      10.280   5.153  -1.774  1.00  0.00    -0.269 OA
BRANCH  26  29
ATOM     29  C   UNL     1       8.954   6.742  -0.666  1.00  0.00     0.039 A 
ATOM     30  C   UNL     1       8.872   7.670  -1.708  1.00  0.00     0.014 A 
ATOM     31  C   UNL     1       8.622   7.126   0.633  1.00  0.00     0.014 A 
ATOM     32  C   UNL     1       8.363   8.947  -1.458  1.00  0.00     0.010 A 
ATOM     33  C   UNL     1       8.007   8.350   0.857  1.00  0.00     0.010 A 
ATOM     34  C   UNL     1       7.875   9.279  -0.184  1.00  0.00    -0.014 A 
BRANCH  34  35
ATOM     35  C   UNL     1       7.238  10.592   0.099  1.00  0.00     0.031 A 
ATOM     36  C   UNL     1       7.821  11.490   1.159  1.00  0.00     0.074 A 
ATOM     37  C   UNL     1       6.095  10.934  -0.528  1.00  0.00     0.049 A 
ATOM     38  N   UNL     1       7.342  12.600   1.658  1.00  0.00    -0.248 NA
ATOM     39  C   UNL     1       9.093  11.062   1.767  1.00  0.00     0.031 C 
ATOM     40  C   UNL     1       5.400  10.124  -1.533  1.00  0.00     0.029 A 
ATOM     41  N   UNL     1       5.304  12.049  -0.403  1.00  0.00    -0.354 N 
ATOM     42  C   UNL     1       8.241  12.990   2.644  1.00  0.00     0.074 A 
ATOM     43  C   UNL     1       9.256  11.964   2.723  1.00  0.00     0.031 C 
ATOM     44  C   UNL     1       4.304  10.779  -1.949  1.00  0.00     0.029 A 
ATOM     45  C   UNL     1       4.192  12.033  -1.212  1.00  0.00     0.049 A 
ATOM     46  H   UNL     1       5.514  12.790   0.209  1.00  0.00     0.167 HD
ATOM     47  C   UNL     1       8.243  14.119   3.391  1.00  0.00     0.037 A 
ATOM     48  C   UNL     1       3.190  12.925  -1.337  1.00  0.00     0.037 A 
ATOM     49  C   UNL     1       7.252  15.156   3.281  1.00  0.00     0.049 A 
ATOM     50  C   UNL     1       3.219  14.176  -0.501  1.00  0.00     0.074 A 
ATOM     51  C   UNL     1       7.179  16.356   3.967  1.00  0.00     0.029 A 
ATOM     52  N   UNL     1       6.168  15.123   2.416  1.00  0.00    -0.354 N 
ATOM     53  N   UNL     1       4.098  14.545   0.400  1.00  0.00    -0.248 NA
ATOM     54  C   UNL     1       2.124  15.135  -0.701  1.00  0.00     0.031 C 
ATOM     55  C   UNL     1       6.038  17.038   3.533  1.00  0.00     0.029 A 
ATOM     56  C   UNL     1       5.421  16.280   2.550  1.00  0.00     0.049 A 
ATOM     57  H   UNL     1       5.961  14.386   1.797  1.00  0.00     0.167 HD
ATOM     58  C   UNL     1       3.679  15.792   0.851  1.00  0.00     0.074 A 
ATOM     59  C   UNL     1       2.475  16.119   0.116  1.00  0.00     0.031 C 
ATOM     60  C   UNL     1       4.238  16.594   1.791  1.00  0.00     0.037 A 
BRANCH  47  61
ATOM     61  C   UNL     1       9.370  14.303   4.369  1.00  0.00     0.058 A 
ATOM     62  C   UNL     1      10.680  14.558   3.932  1.00  0.00     0.135 A 
ATOM     63  C   UNL     1       9.139  14.257   5.753  1.00  0.00     0.135 A 
ATOM     64  F   UNL     1      10.960  14.594   2.620  1.00  0.00    -0.206 F 
ATOM     65  C   UNL     1      11.727  14.731   4.831  1.00  0.00     0.059 A 
ATOM     66  C   UNL     1      10.167  14.456   6.672  1.00  0.00     0.059 A 
ATOM     67  F   UNL     1       7.907  14.014   6.226  1.00  0.00    -0.206 F 
ATOM     68  C   UNL     1      11.460  14.679   6.199  1.00  0.00     0.060 A 
BRANCH  68  69
ATOM     69  S   UNL     1      12.829  14.918   7.351  1.00  0.00     0.124 S 
ATOM     70  O   UNL     1      13.544  13.652   7.219  1.00  0.00    -0.237 OA
ATOM     71  O   UNL     1      13.504  16.087   6.795  1.00  0.00    -0.237 OA
ATOM     72  O   UNL     1      12.163  15.133   8.632  1.00  0.00    -0.744 OA
ENDBRANCH  68  69
ENDBRANCH  47  61
BRANCH  48  73
ATOM     73  C   UNL     1       2.082  12.683  -2.301  1.00  0.00     0.058 A 
ATOM     74  C   UNL     1       1.948  13.468  -3.456  1.00  0.00     0.135 A 
ATOM     75  C   UNL     1       1.127  11.679  -2.080  1.00  0.00     0.135 A 
ATOM     76  F   UNL     1       2.836  14.442  -3.710  1.00  0.00    -0.206 F 
ATOM     77  C   UNL     1       0.889  13.291  -4.341  1.00  0.00     0.059 A 
ATOM     78  C   UNL     1       0.074  11.465  -2.964  1.00  0.00     0.059 A 
ATOM     79  F   UNL     1       1.222  10.885  -1.003  1.00  0.00    -0.206 F 
ATOM     80  C   UNL     1      -0.047  12.289  -4.083  1.00  0.00     0.060 A 
BRANCH  80  81
ATOM     81  S   UNL     1      -1.412  12.056  -5.242  1.00  0.00     0.124 S 
ATOM     82  O   UNL     1      -2.274  13.184  -4.908  1.00  0.00    -0.237 OA
ATOM     83  O   UNL     1      -0.736  12.128  -6.533  1.00  0.00    -0.237 OA
ATOM     84  O   UNL     1      -1.929  10.738  -4.887  1.00  0.00    -0.744 OA
ENDBRANCH  80  81
ENDBRANCH  48  73
BRANCH  60  85
ATOM     85  C   UNL     1       3.581  17.921   2.043  1.00  0.00     0.058 A 
ATOM     86  C   UNL     1       2.371  18.023   2.746  1.00  0.00     0.135 A 
ATOM     87  C   UNL     1       4.200  19.109   1.620  1.00  0.00     0.135 A 
ATOM     88  F   UNL     1       1.738  16.916   3.165  1.00  0.00    -0.206 F 
ATOM     89  C   UNL     1       1.784  19.257   3.002  1.00  0.00     0.059 A 
ATOM     90  C   UNL     1       3.644  20.355   1.889  1.00  0.00     0.059 A 
ATOM     91  F   UNL     1       5.364  19.065   0.953  1.00  0.00    -0.206 F 
ATOM     92  C   UNL     1       2.430  20.418   2.571  1.00  0.00     0.060 A 
BRANCH  92  93
ATOM     93  S   UNL     1       1.677  22.016   2.943  1.00  0.00     0.124 S 
ATOM     94  O   UNL     1       0.581  22.055   1.980  1.00  0.00    -0.237 OA
ATOM     95  O   UNL     1       1.287  21.861   4.341  1.00  0.00    -0.237 OA
ATOM     96  O   UNL     1       2.759  22.965   2.702  1.00  0.00    -0.744 OA
ENDBRANCH  92  93
ENDBRANCH  60  85
ENDBRANCH  34  35
ENDBRANCH  26  29
ENDBRANCH  24  25
ENDBRANCH   1  24
TORSDOF 16
