REMARK SMILES C[N@@H+]1CCC[C@@H](NC(=O)N(CC(=O)NCCCNC(=O)c2ccc(-c3c4nc(c(-c5c(F)cc(S(=O)(=O)[O-])cc5F)c5ccc([nH]5)c(-c5c(F)cc(S(=O)(=O)[O-])cc5F)c5nc(c(-c6c(F)cc(S(=O)(=O)[O-])cc6F)c6ccc3[nH]6)C=C5)C=C4)cc2)C(C)(C)C)C1
REMARK SMILES IDX 16 1 15 2 14 3 12 4 13 5 11 7 10 8 8 9 7 10 9 12 6 13 1 14
REMARK SMILES IDX 2 15 3 16 91 17 4 19 5 20 87 21 88 22 89 23 90 24 17 25
REMARK SMILES IDX 18 26 19 27 20 29 21 30 22 31 86 32 23 33 85 34 24 35 25 36
REMARK SMILES IDX 26 37 79 38 27 39 84 40 78 41 80 42 28 43 83 44 77 45 76 46
REMARK SMILES IDX 29 48 63 49 42 50 62 51 43 52 46 53 61 54 81 55 44 56 45 57
REMARK SMILES IDX 60 59 82 60 47 61 30 62 31 63 40 64 32 65 33 66 39 67 41 68
REMARK SMILES IDX 34 69 35 70 36 71 37 72 38 73 64 74 65 75 74 76 66 77 67 78
REMARK SMILES IDX 73 79 75 80 68 81 69 82 70 83 71 84 72 85 48 86 49 87 58 88
REMARK SMILES IDX 50 89 51 90 57 91 59 92 52 93 53 94 54 95 55 96 56 97
REMARK H PARENT 14 6 7 11 2 18 18 28 80 47 46 58
REMARK Flexibility Score: inf
ROOT
ATOM      1  C   UNL     1       5.294  -1.152   1.625  1.00  0.00     0.042 C 
ENDROOT
BRANCH   1   2
ATOM      2  C   UNL     1       4.520  -1.410   0.348  1.00  0.00     0.117 C 
BRANCH   2   3
ATOM      3  N   UNL     1       4.809  -2.645  -0.340  1.00  0.00    -0.354 N 
ATOM      4  C   UNL     1       3.955  -3.649  -0.688  1.00  0.00     0.239 C 
ATOM      5  O   UNL     1       4.284  -4.338  -1.662  1.00  0.00    -0.273 OA
ATOM      6  H   UNL     1       5.751  -2.781  -0.593  1.00  0.00     0.163 HD
BRANCH   4   7
ATOM      7  C   UNL     1       2.574  -3.872  -0.032  1.00  0.00     0.221 C 
BRANCH   7   8
ATOM      8  N   UNL     1       2.439  -3.676   1.413  1.00  0.00    -0.311 N 
BRANCH   8   9
ATOM      9  C   UNL     1       1.805  -2.608   2.019  1.00  0.00     0.318 C 
ATOM     10  N   UNL     1       1.236  -1.562   1.381  1.00  0.00    -0.330 N 
ATOM     11  H   UNL     1       0.832  -0.960   2.047  1.00  0.00     0.165 HD
ATOM     12  O   UNL     1       1.721  -2.518   3.248  1.00  0.00    -0.249 OA
BRANCH  10  13
ATOM     13  C   UNL     1       1.008  -1.009   0.030  1.00  0.00     0.139 C 
ATOM     14  C   UNL     1      -2.659   0.046  -0.055  1.00  0.00     0.332 C 
ATOM     15  N   UNL     1      -1.243   0.106   0.308  1.00  0.00    -0.336 N 
ATOM     16  C   UNL     1      -0.679   1.401  -0.091  1.00  0.00     0.262 C 
ATOM     17  C   UNL     1      -0.501  -1.008  -0.314  1.00  0.00     0.287 C 
ATOM     18  H   UNL     1      -1.155   0.014   1.320  1.00  0.00     0.347 HD
ATOM     19  C   UNL     1       0.751   1.519   0.412  1.00  0.00     0.064 C 
ATOM     20  C   UNL     1       1.619   0.399  -0.136  1.00  0.00     0.037 C 
ENDBRANCH  10  13
ENDBRANCH   8   9
BRANCH   8  21
ATOM     21  C   UNL     1       3.009  -4.794   2.300  1.00  0.00     0.037 C 
ATOM     22  C   UNL     1       4.170  -4.291   3.182  1.00  0.00     0.034 C 
ATOM     23  C   UNL     1       1.907  -5.406   3.198  1.00  0.00     0.034 C 
ATOM     24  C   UNL     1       3.603  -6.003   1.514  1.00  0.00     0.034 C 
ENDBRANCH   8  21
ENDBRANCH   7   8
ENDBRANCH   4   7
ENDBRANCH   2   3
ENDBRANCH   1   2
BRANCH   1  25
ATOM     25  C   UNL     1       6.787  -0.998   1.414  1.00  0.00     0.118 C 
BRANCH  25  26
ATOM     26  N   UNL     1       7.115   0.244   0.730  1.00  0.00    -0.352 N 
ATOM     27  C   UNL     1       7.914   1.282   1.146  1.00  0.00     0.251 C 
ATOM     28  H   UNL     1       6.706   0.357  -0.159  1.00  0.00     0.163 HD
ATOM     29  O   UNL     1       7.892   2.345   0.534  1.00  0.00    -0.269 OA
BRANCH  27  30
ATOM     30  C   UNL     1       8.781   1.120   2.335  1.00  0.00     0.039 A 
ATOM     31  C   UNL     1       8.911   2.183   3.231  1.00  0.00     0.014 A 
ATOM     32  C   UNL     1       9.471  -0.074   2.564  1.00  0.00     0.014 A 
ATOM     33  C   UNL     1       9.686   2.027   4.383  1.00  0.00     0.010 A 
ATOM     34  C   UNL     1      10.161  -0.261   3.757  1.00  0.00     0.010 A 
ATOM     35  C   UNL     1      10.290   0.792   4.674  1.00  0.00    -0.014 A 
BRANCH  35  36
ATOM     36  C   UNL     1      11.073   0.587   5.920  1.00  0.00     0.031 A 
ATOM     37  C   UNL     1      12.536   0.237   5.842  1.00  0.00     0.074 A 
ATOM     38  C   UNL     1      10.456   0.658   7.116  1.00  0.00     0.049 A 
ATOM     39  N   UNL     1      13.373  -0.037   6.810  1.00  0.00    -0.248 NA
ATOM     40  C   UNL     1      13.131   0.153   4.497  1.00  0.00     0.031 C 
ATOM     41  C   UNL     1       9.031   0.936   7.318  1.00  0.00     0.029 A 
ATOM     42  N   UNL     1      10.943   0.496   8.388  1.00  0.00    -0.354 N 
ATOM     43  C   UNL     1      14.582  -0.335   6.193  1.00  0.00     0.074 A 
ATOM     44  C   UNL     1      14.357  -0.271   4.767  1.00  0.00     0.031 C 
ATOM     45  C   UNL     1       8.768   0.953   8.634  1.00  0.00     0.029 A 
ATOM     46  C   UNL     1       9.991   0.646   9.369  1.00  0.00     0.049 A 
ATOM     47  H   UNL     1      11.887   0.290   8.581  1.00  0.00     0.167 HD
ATOM     48  C   UNL     1      15.779  -0.611   6.764  1.00  0.00     0.037 A 
ATOM     49  C   UNL     1      10.090   0.542  10.709  1.00  0.00     0.037 A 
ATOM     50  C   UNL     1      16.001  -0.648   8.186  1.00  0.00     0.049 A 
ATOM     51  C   UNL     1      11.431   0.231  11.319  1.00  0.00     0.074 A 
ATOM     52  C   UNL     1      17.187  -0.860   8.866  1.00  0.00     0.029 A 
ATOM     53  N   UNL     1      15.016  -0.471   9.147  1.00  0.00    -0.354 N 
ATOM     54  N   UNL     1      12.580   0.019  10.723  1.00  0.00    -0.248 NA
ATOM     55  C   UNL     1      11.491   0.153  12.785  1.00  0.00     0.031 C 
ATOM     56  C   UNL     1      16.911  -0.863  10.237  1.00  0.00     0.029 A 
ATOM     57  C   UNL     1      15.563  -0.593  10.414  1.00  0.00     0.049 A 
ATOM     58  H   UNL     1      14.067  -0.287   8.957  1.00  0.00     0.167 HD
ATOM     59  C   UNL     1      13.505  -0.187  11.741  1.00  0.00     0.074 A 
ATOM     60  C   UNL     1      12.784  -0.061  12.990  1.00  0.00     0.031 C 
ATOM     61  C   UNL     1      14.831  -0.456  11.649  1.00  0.00     0.037 A 
BRANCH  48  62
ATOM     62  C   UNL     1      16.944  -0.887   5.851  1.00  0.00     0.058 A 
ATOM     63  C   UNL     1      17.515   0.122   5.057  1.00  0.00     0.135 A 
ATOM     64  C   UNL     1      17.522  -2.166   5.796  1.00  0.00     0.135 A 
ATOM     65  F   UNL     1      16.994   1.359   5.056  1.00  0.00    -0.206 F 
ATOM     66  C   UNL     1      18.598  -0.134   4.221  1.00  0.00     0.059 A 
ATOM     67  C   UNL     1      18.625  -2.436   4.991  1.00  0.00     0.059 A 
ATOM     68  F   UNL     1      17.017  -3.168   6.532  1.00  0.00    -0.206 F 
ATOM     69  C   UNL     1      19.147  -1.417   4.196  1.00  0.00     0.060 A 
BRANCH  69  70
ATOM     70  S   UNL     1      20.558  -1.727   3.114  1.00  0.00     0.124 S 
ATOM     71  O   UNL     1      19.929  -1.690   1.798  1.00  0.00    -0.237 OA
ATOM     72  O   UNL     1      21.442  -0.608   3.426  1.00  0.00    -0.237 OA
ATOM     73  O   UNL     1      21.036  -3.037   3.544  1.00  0.00    -0.744 OA
ENDBRANCH  69  70
ENDBRANCH  48  62
BRANCH  49  74
ATOM     74  C   UNL     1       8.891   0.754  11.564  1.00  0.00     0.058 A 
ATOM     75  C   UNL     1       8.787   1.880  12.395  1.00  0.00     0.135 A 
ATOM     76  C   UNL     1       7.824  -0.157  11.565  1.00  0.00     0.135 A 
ATOM     77  F   UNL     1       9.783   2.779  12.435  1.00  0.00    -0.206 F 
ATOM     78  C   UNL     1       7.679   2.085  13.211  1.00  0.00     0.059 A 
ATOM     79  C   UNL     1       6.692   0.041  12.350  1.00  0.00     0.059 A 
ATOM     80  F   UNL     1       7.865  -1.242  10.776  1.00  0.00    -0.206 F 
ATOM     81  C   UNL     1       6.635   1.159  13.180  1.00  0.00     0.060 A 
BRANCH  81  82
ATOM     82  S   UNL     1       5.186   1.456  14.217  1.00  0.00     0.124 S 
ATOM     83  O   UNL     1       5.716   1.181  15.548  1.00  0.00    -0.237 OA
ATOM     84  O   UNL     1       4.883   2.853  13.926  1.00  0.00    -0.237 OA
ATOM     85  O   UNL     1       4.211   0.492  13.715  1.00  0.00    -0.744 OA
ENDBRANCH  81  82
ENDBRANCH  49  74
BRANCH  61  86
ATOM     86  C   UNL     1      15.601  -0.594  12.935  1.00  0.00     0.058 A 
ATOM     87  C   UNL     1      15.443  -1.705  13.778  1.00  0.00     0.135 A 
ATOM     88  C   UNL     1      16.546   0.379  13.302  1.00  0.00     0.135 A 
ATOM     89  F   UNL     1      14.550  -2.660  13.477  1.00  0.00    -0.206 F 
ATOM     90  C   UNL     1      16.176  -1.834  14.953  1.00  0.00     0.059 A 
ATOM     91  C   UNL     1      17.312   0.254  14.457  1.00  0.00     0.059 A 
ATOM     92  F   UNL     1      16.745   1.456  12.526  1.00  0.00    -0.206 F 
ATOM     93  C   UNL     1      17.110  -0.850  15.283  1.00  0.00     0.060 A 
BRANCH  93  94
ATOM     94  S   UNL     1      18.076  -1.046  16.795  1.00  0.00     0.124 S 
ATOM     95  O   UNL     1      17.077  -0.762  17.821  1.00  0.00    -0.237 OA
ATOM     96  O   UNL     1      18.516  -2.435  16.706  1.00  0.00    -0.237 OA
ATOM     97  O   UNL     1      19.133  -0.049  16.656  1.00  0.00    -0.744 OA
ENDBRANCH  93  94
ENDBRANCH  61  86
ENDBRANCH  35  36
ENDBRANCH  27  30
ENDBRANCH  25  26
ENDBRANCH   1  25
TORSDOF 17
