REMARK SMILES C[C@H](C(=O)NCCCNC(=O)c1ccc(-c2c3nc(c(-c4c(F)cc(S(=O)(=O)[O-])cc4F)c4ccc([nH]4)c(-c4c(F)cc(S(=O)(=O)[O-])cc4F)c4nc(c(-c5c(F)cc(S(=O)(=O)[O-])cc5F)c5ccc2[nH]5)C=C4)C=C3)cc1)n1ccc2c(cnc3nc(C4CCCCC4)nn32)c1=O
REMARK SMILES IDX 7 1 6 2 5 3 3 4 4 5 2 7 1 8 78 9 79 10 96 11 80 12 82 13
REMARK SMILES IDX 97 14 81 15 83 16 95 17 84 18 85 19 94 20 86 21 87 22 88 23
REMARK SMILES IDX 89 24 93 25 90 26 92 27 91 28 8 29 9 30 10 31 11 33 12 34
REMARK SMILES IDX 13 35 77 36 14 37 76 38 15 39 16 40 17 41 70 42 18 43 75 44
REMARK SMILES IDX 69 45 71 46 19 47 74 48 68 49 67 50 20 52 54 53 33 54 53 55
REMARK SMILES IDX 34 56 37 57 52 58 72 59 35 60 36 61 51 63 73 64 38 65 21 66
REMARK SMILES IDX 22 67 31 68 23 69 24 70 30 71 32 72 25 73 26 74 27 75 28 76
REMARK SMILES IDX 29 77 55 78 56 79 65 80 57 81 58 82 64 83 66 84 59 85 60 86
REMARK SMILES IDX 61 87 62 88 63 89 39 90 40 91 49 92 41 93 42 94 48 95 50 96
REMARK SMILES IDX 43 97 44 98 45 99 46 100 47 101
REMARK H PARENT 5 6 9 32 71 51 37 62
REMARK Flexibility Score: inf
ROOT
ATOM      1  C   UNL     1      -1.544   1.961   1.958  1.00  0.00     0.042 C 
ENDROOT
BRANCH   1   2
ATOM      2  C   UNL     1      -1.127   1.231   0.705  1.00  0.00     0.117 C 
BRANCH   2   3
ATOM      3  N   UNL     1       0.283   0.944   0.583  1.00  0.00    -0.354 N 
ATOM      4  C   UNL     1       0.920  -0.029  -0.127  1.00  0.00     0.242 C 
ATOM      5  O   UNL     1       2.131   0.169  -0.316  1.00  0.00    -0.273 OA
ATOM      6  H   UNL     1       0.876   1.544   1.093  1.00  0.00     0.163 HD
BRANCH   4   7
ATOM      7  C   UNL     1       0.308  -1.413  -0.529  1.00  0.00     0.176 C 
ATOM      8  C   UNL     1       1.038  -2.424   0.383  1.00  0.00     0.042 C 
BRANCH   7   9
ATOM      9  N   UNL     1      -1.164  -1.588  -0.572  1.00  0.00    -0.303 N 
ATOM     10  C   UNL     1      -1.798  -2.685   0.006  1.00  0.00     0.092 A 
ATOM     11  C   UNL     1      -1.897  -0.708  -1.389  1.00  0.00     0.262 A 
ATOM     12  C   UNL     1      -3.130  -2.817  -0.012  1.00  0.00     0.047 A 
ATOM     13  C   UNL     1      -3.366  -0.708  -1.148  1.00  0.00     0.084 A 
ATOM     14  O   UNL     1      -1.396   0.107  -2.154  1.00  0.00    -0.269 OA
ATOM     15  C   UNL     1      -3.949  -1.738  -0.514  1.00  0.00     0.084 A 
ATOM     16  C   UNL     1      -4.259   0.439  -1.468  1.00  0.00     0.131 A 
ATOM     17  N   UNL     1      -5.338  -1.742  -0.383  1.00  0.00    -0.196 N 
ATOM     18  N   UNL     1      -5.550   0.473  -1.315  1.00  0.00    -0.219 NA
ATOM     19  C   UNL     1      -6.120  -0.679  -0.849  1.00  0.00     0.252 A 
ATOM     20  N   UNL     1      -6.139  -2.742   0.047  1.00  0.00    -0.149 NA
ATOM     21  N   UNL     1      -7.380  -1.056  -0.860  1.00  0.00    -0.194 NA
ATOM     22  C   UNL     1      -7.339  -2.335  -0.380  1.00  0.00     0.156 A 
BRANCH  22  23
ATOM     23  C   UNL     1      -8.482  -3.287  -0.560  1.00  0.00     0.060 C 
ATOM     24  C   UNL     1      -7.975  -4.647  -1.087  1.00  0.00     0.012 C 
ATOM     25  C   UNL     1      -9.324  -3.456   0.709  1.00  0.00     0.012 C 
ATOM     26  C   UNL     1      -9.095  -5.661  -1.264  1.00  0.00     0.001 C 
ATOM     27  C   UNL     1     -10.440  -4.483   0.507  1.00  0.00     0.001 C 
ATOM     28  C   UNL     1      -9.894  -5.823   0.023  1.00  0.00     0.000 C 
ENDBRANCH  22  23
ENDBRANCH   7   9
ENDBRANCH   4   7
ENDBRANCH   2   3
ENDBRANCH   1   2
BRANCH   1  29
ATOM     29  C   UNL     1      -0.954   3.344   2.118  1.00  0.00     0.118 C 
BRANCH  29  30
ATOM     30  N   UNL     1      -1.448   4.311   1.146  1.00  0.00    -0.352 N 
ATOM     31  C   UNL     1      -2.268   5.409   1.300  1.00  0.00     0.251 C 
ATOM     32  H   UNL     1      -1.144   4.153   0.223  1.00  0.00     0.163 HD
ATOM     33  O   UNL     1      -2.654   6.010   0.305  1.00  0.00    -0.269 OA
BRANCH  31  34
ATOM     34  C   UNL     1      -2.710   5.843   2.647  1.00  0.00     0.039 A 
ATOM     35  C   UNL     1      -3.998   6.360   2.815  1.00  0.00     0.014 A 
ATOM     36  C   UNL     1      -1.862   5.755   3.749  1.00  0.00     0.014 A 
ATOM     37  C   UNL     1      -4.443   6.717   4.092  1.00  0.00     0.010 A 
ATOM     38  C   UNL     1      -2.357   5.952   5.030  1.00  0.00     0.010 A 
ATOM     39  C   UNL     1      -3.638   6.481   5.218  1.00  0.00    -0.014 A 
BRANCH  39  40
ATOM     40  C   UNL     1      -4.072   6.851   6.591  1.00  0.00     0.031 A 
ATOM     41  C   UNL     1      -3.235   7.810   7.405  1.00  0.00     0.074 A 
ATOM     42  C   UNL     1      -5.172   6.288   7.128  1.00  0.00     0.049 A 
ATOM     43  N   UNL     1      -3.395   8.204   8.643  1.00  0.00    -0.248 NA
ATOM     44  C   UNL     1      -2.032   8.363   6.759  1.00  0.00     0.031 C 
ATOM     45  C   UNL     1      -6.023   5.292   6.472  1.00  0.00     0.029 A 
ATOM     46  N   UNL     1      -5.762   6.469   8.354  1.00  0.00    -0.354 N 
ATOM     47  C   UNL     1      -2.309   9.029   8.919  1.00  0.00     0.074 A 
ATOM     48  C   UNL     1      -1.450   9.004   7.759  1.00  0.00     0.031 C 
ATOM     49  C   UNL     1      -7.042   4.978   7.287  1.00  0.00     0.029 A 
ATOM     50  C   UNL     1      -6.899   5.718   8.536  1.00  0.00     0.049 A 
ATOM     51  H   UNL     1      -5.404   7.079   9.038  1.00  0.00     0.167 HD
ATOM     52  C   UNL     1      -2.069   9.780  10.021  1.00  0.00     0.037 A 
ATOM     53  C   UNL     1      -7.733   5.638   9.591  1.00  0.00     0.037 A 
ATOM     54  C   UNL     1      -2.949   9.831  11.156  1.00  0.00     0.049 A 
ATOM     55  C   UNL     1      -7.466   6.501  10.795  1.00  0.00     0.074 A 
ATOM     56  C   UNL     1      -2.832  10.592  12.305  1.00  0.00     0.029 A 
ATOM     57  N   UNL     1      -4.118   9.093  11.281  1.00  0.00    -0.354 N 
ATOM     58  N   UNL     1      -6.466   7.322  11.016  1.00  0.00    -0.248 NA
ATOM     59  C   UNL     1      -8.449   6.444  11.884  1.00  0.00     0.031 C 
ATOM     60  C   UNL     1      -3.908  10.282  13.144  1.00  0.00     0.029 A 
ATOM     61  C   UNL     1      -4.727   9.373  12.492  1.00  0.00     0.049 A 
ATOM     62  H   UNL     1      -4.464   8.463  10.608  1.00  0.00     0.167 HD
ATOM     63  C   UNL     1      -6.715   7.902  12.255  1.00  0.00     0.074 A 
ATOM     64  C   UNL     1      -7.968   7.347  12.727  1.00  0.00     0.031 C 
ATOM     65  C   UNL     1      -5.979   8.813  12.940  1.00  0.00     0.037 A 
BRANCH  52  66
ATOM     66  C   UNL     1      -0.815  10.616  10.031  1.00  0.00     0.058 A 
ATOM     67  C   UNL     1      -0.645  11.704   9.157  1.00  0.00     0.135 A 
ATOM     68  C   UNL     1       0.229  10.333  10.927  1.00  0.00     0.135 A 
ATOM     69  F   UNL     1      -1.601  12.011   8.265  1.00  0.00    -0.206 F 
ATOM     70  C   UNL     1       0.529  12.450   9.139  1.00  0.00     0.059 A 
ATOM     71  C   UNL     1       1.398  11.089  10.951  1.00  0.00     0.059 A 
ATOM     72  F   UNL     1       0.124   9.306  11.785  1.00  0.00    -0.206 F 
ATOM     73  C   UNL     1       1.546  12.134  10.040  1.00  0.00     0.060 A 
BRANCH  73  74
ATOM     74  S   UNL     1       3.064  13.109   9.999  1.00  0.00     0.124 S 
ATOM     75  O   UNL     1       3.677  12.640   8.760  1.00  0.00    -0.237 OA
ATOM     76  O   UNL     1       2.556  14.476   9.977  1.00  0.00    -0.237 OA
ATOM     77  O   UNL     1       3.753  12.718  11.225  1.00  0.00    -0.744 OA
ENDBRANCH  73  74
ENDBRANCH  52  66
BRANCH  53  78
ATOM     78  C   UNL     1      -8.915   4.734   9.535  1.00  0.00     0.058 A 
ATOM     79  C   UNL     1     -10.218   5.246   9.444  1.00  0.00     0.135 A 
ATOM     80  C   UNL     1      -8.762   3.339   9.543  1.00  0.00     0.135 A 
ATOM     81  F   UNL     1     -10.418   6.573   9.436  1.00  0.00    -0.206 F 
ATOM     82  C   UNL     1     -11.328   4.410   9.379  1.00  0.00     0.059 A 
ATOM     83  C   UNL     1      -9.855   2.482   9.450  1.00  0.00     0.059 A 
ATOM     84  F   UNL     1      -7.536   2.797   9.608  1.00  0.00    -0.206 F 
ATOM     85  C   UNL     1     -11.136   3.027   9.379  1.00  0.00     0.060 A 
BRANCH  85  86
ATOM     86  S   UNL     1     -12.580   1.951   9.241  1.00  0.00     0.124 S 
ATOM     87  O   UNL     1     -13.192   2.112  10.555  1.00  0.00    -0.237 OA
ATOM     88  O   UNL     1     -13.301   2.549   8.122  1.00  0.00    -0.237 OA
ATOM     89  O   UNL     1     -11.997   0.640   8.973  1.00  0.00    -0.744 OA
ENDBRANCH  85  86
ENDBRANCH  53  78
BRANCH  65  90
ATOM     90  C   UNL     1      -6.530   9.303  14.251  1.00  0.00     0.058 A 
ATOM     91  C   UNL     1      -6.580   8.483  15.389  1.00  0.00     0.135 A 
ATOM     92  C   UNL     1      -6.981  10.627  14.377  1.00  0.00     0.135 A 
ATOM     93  F   UNL     1      -6.162   7.209  15.324  1.00  0.00    -0.206 F 
ATOM     94  C   UNL     1      -7.092   8.948  16.596  1.00  0.00     0.059 A 
ATOM     95  C   UNL     1      -7.466  11.123  15.582  1.00  0.00     0.059 A 
ATOM     96  F   UNL     1      -6.941  11.459  13.323  1.00  0.00    -0.206 F 
ATOM     97  C   UNL     1      -7.535  10.269  16.681  1.00  0.00     0.060 A 
BRANCH  97  98
ATOM     98  S   UNL     1      -8.188  10.863  18.256  1.00  0.00     0.124 S 
ATOM     99  O   UNL     1      -9.484  10.194  18.306  1.00  0.00    -0.237 OA
ATOM    100  O   UNL     1      -7.190  10.385  19.208  1.00  0.00    -0.237 OA
ATOM    101  O   UNL     1      -8.235  12.311  18.080  1.00  0.00    -0.744 OA
ENDBRANCH  97  98
ENDBRANCH  65  90
ENDBRANCH  39  40
ENDBRANCH  31  34
ENDBRANCH  29  30
ENDBRANCH   1  29
TORSDOF 15
