REMARK SMILES CCc1cc(OCC(=O)NCCCNC(=O)c2ccc(-c3c4nc(c(-c5c(F)cc(S(=O)(=O)[O-])cc5F)c5ccc([nH]5)c(-c5c(F)cc(S(=O)(=O)[O-])cc5F)c5nc(c(-c6c(F)cc(S(=O)(=O)[O-])cc6F)c6ccc3[nH]6)C=C5)C=C4)cc2)nc(Nc2ccc(C)c(F)c2)n1
REMARK SMILES IDX 11 1 10 2 8 3 9 4 7 6 6 7 5 8 3 9 4 10 94 11 84 12 83 13
REMARK SMILES IDX 2 14 1 15 85 16 86 18 87 19 93 20 88 21 91 22 89 23 92 24
REMARK SMILES IDX 90 25 12 26 13 27 14 28 15 29 16 31 17 32 18 33 82 34 19 35
REMARK SMILES IDX 81 36 20 37 21 38 22 39 75 40 23 41 80 42 74 43 76 44 24 45
REMARK SMILES IDX 79 46 73 47 72 48 25 50 59 51 38 52 58 53 39 54 42 55 57 56
REMARK SMILES IDX 77 57 40 58 41 59 56 61 78 62 43 63 26 64 27 65 36 66 28 67
REMARK SMILES IDX 29 68 35 69 37 70 30 71 31 72 32 73 33 74 34 75 60 76 61 77
REMARK SMILES IDX 70 78 62 79 63 80 69 81 71 82 64 83 65 84 66 85 67 86 68 87
REMARK SMILES IDX 44 88 45 89 54 90 46 91 47 92 53 93 55 94 48 95 49 96 50 97
REMARK SMILES IDX 51 98 52 99
REMARK H PARENT 10 5 85 17 14 30 76 49 42 60
REMARK Flexibility Score: inf
ROOT
ATOM      1  C   UNL     1       5.461  -1.439   4.673  1.00  0.00     0.117 C 
ENDROOT
BRANCH   1   2
ATOM      2  N   UNL     1       4.981  -0.427   3.749  1.00  0.00    -0.353 N 
ATOM      3  C   UNL     1       3.730   0.105   3.655  1.00  0.00     0.258 C 
ATOM      4  O   UNL     1       3.523   0.998   2.830  1.00  0.00    -0.271 OA
ATOM      5  H   UNL     1       5.644  -0.082   3.109  1.00  0.00     0.163 HD
BRANCH   3   6
ATOM      6  C   UNL     1       2.614  -0.394   4.583  1.00  0.00     0.331 C 
BRANCH   6   7
ATOM      7  O   UNL     1       2.264  -1.763   4.485  1.00  0.00    -0.467 OA
BRANCH   7   8
ATOM      8  C   UNL     1       1.726  -2.209   3.309  1.00  0.00     0.218 A 
ATOM      9  C   UNL     1       0.947  -2.035   1.106  1.00  0.00     0.050 A 
ATOM     10  C   UNL     1       1.376  -1.402   2.248  1.00  0.00     0.092 A 
ATOM     11  N   UNL     1       0.825  -3.370   1.063  1.00  0.00    -0.218 NA
ATOM     12  C   UNL     1       1.119  -4.090   2.157  1.00  0.00     0.230 A 
ATOM     13  N   UNL     1       1.572  -3.545   3.290  1.00  0.00    -0.177 NA
BRANCH   9  14
ATOM     14  C   UNL     1       0.534  -1.315  -0.150  1.00  0.00     0.053 C 
ATOM     15  C   UNL     1       1.017   0.121  -0.298  1.00  0.00     0.011 C 
ENDBRANCH   9  14
BRANCH  12  16
ATOM     16  N   UNL     1       0.861  -5.460   2.146  1.00  0.00    -0.324 N 
ATOM     17  H   UNL     1       0.973  -5.937   3.000  1.00  0.00     0.170 HD
BRANCH  16  18
ATOM     18  C   UNL     1       0.459  -6.227   1.046  1.00  0.00     0.044 A 
ATOM     19  C   UNL     1      -0.711  -6.993   1.108  1.00  0.00     0.026 A 
ATOM     20  C   UNL     1       1.129  -6.132  -0.179  1.00  0.00     0.065 A 
ATOM     21  C   UNL     1      -1.218  -7.618  -0.040  1.00  0.00     0.008 A 
ATOM     22  C   UNL     1       0.633  -6.769  -1.310  1.00  0.00     0.128 A 
ATOM     23  C   UNL     1      -0.550  -7.504  -1.265  1.00  0.00    -0.015 A 
ATOM     24  F   UNL     1       1.301  -6.638  -2.466  1.00  0.00    -0.207 F 
ATOM     25  C   UNL     1      -1.120  -8.121  -2.505  1.00  0.00     0.047 C 
ENDBRANCH  16  18
ENDBRANCH  12  16
ENDBRANCH   7   8
ENDBRANCH   6   7
ENDBRANCH   3   6
ENDBRANCH   1   2
BRANCH   1  26
ATOM     26  C   UNL     1       5.727  -2.779   3.997  1.00  0.00     0.042 C 
BRANCH  26  27
ATOM     27  C   UNL     1       6.799  -2.744   2.909  1.00  0.00     0.118 C 
BRANCH  27  28
ATOM     28  N   UNL     1       8.097  -2.296   3.400  1.00  0.00    -0.352 N 
ATOM     29  C   UNL     1       9.308  -2.940   3.441  1.00  0.00     0.251 C 
ATOM     30  H   UNL     1       8.107  -1.380   3.761  1.00  0.00     0.163 HD
ATOM     31  O   UNL     1      10.238  -2.423   4.063  1.00  0.00    -0.269 OA
BRANCH  29  32
ATOM     32  C   UNL     1       9.507  -4.245   2.774  1.00  0.00     0.039 A 
ATOM     33  C   UNL     1      10.246  -5.233   3.433  1.00  0.00     0.014 A 
ATOM     34  C   UNL     1       9.000  -4.496   1.496  1.00  0.00     0.014 A 
ATOM     35  C   UNL     1      10.408  -6.491   2.846  1.00  0.00     0.010 A 
ATOM     36  C   UNL     1       9.099  -5.773   0.945  1.00  0.00     0.010 A 
ATOM     37  C   UNL     1       9.799  -6.787   1.616  1.00  0.00    -0.014 A 
BRANCH  37  38
ATOM     38  C   UNL     1       9.856  -8.155   1.034  1.00  0.00     0.031 A 
ATOM     39  C   UNL     1      10.530  -8.393  -0.291  1.00  0.00     0.074 A 
ATOM     40  C   UNL     1       9.234  -9.171   1.666  1.00  0.00     0.049 A 
ATOM     41  N   UNL     1      10.599  -9.493  -0.996  1.00  0.00    -0.248 NA
ATOM     42  C   UNL     1      11.196  -7.239  -0.917  1.00  0.00     0.031 C 
ATOM     43  C   UNL     1       8.506  -9.059   2.933  1.00  0.00     0.029 A 
ATOM     44  N   UNL     1       9.094 -10.493   1.323  1.00  0.00    -0.354 N 
ATOM     45  C   UNL     1      11.297  -9.163  -2.152  1.00  0.00     0.074 A 
ATOM     46  C   UNL     1      11.597  -7.749  -2.074  1.00  0.00     0.031 C 
ATOM     47  C   UNL     1       8.008 -10.261   3.264  1.00  0.00     0.029 A 
ATOM     48  C   UNL     1       8.339 -11.220   2.215  1.00  0.00     0.049 A 
ATOM     49  H   UNL     1       9.498 -10.885   0.515  1.00  0.00     0.167 HD
ATOM     50  C   UNL     1      11.668  -9.968  -3.176  1.00  0.00     0.037 A 
ATOM     51  C   UNL     1       7.937 -12.506   2.182  1.00  0.00     0.037 A 
ATOM     52  C   UNL     1      11.388 -11.380  -3.236  1.00  0.00     0.049 A 
ATOM     53  C   UNL     1       8.356 -13.376   1.027  1.00  0.00     0.074 A 
ATOM     54  C   UNL     1      11.781 -12.293  -4.199  1.00  0.00     0.029 A 
ATOM     55  N   UNL     1      10.641 -12.084  -2.302  1.00  0.00    -0.354 N 
ATOM     56  N   UNL     1       9.080 -13.062  -0.021  1.00  0.00    -0.248 NA
ATOM     57  C   UNL     1       7.910 -14.776   1.052  1.00  0.00     0.031 C 
ATOM     58  C   UNL     1      11.228 -13.536  -3.877  1.00  0.00     0.029 A 
ATOM     59  C   UNL     1      10.540 -13.413  -2.682  1.00  0.00     0.049 A 
ATOM     60  H   UNL     1      10.242 -11.696  -1.490  1.00  0.00     0.167 HD
ATOM     61  C   UNL     1       9.198 -14.232  -0.765  1.00  0.00     0.074 A 
ATOM     62  C   UNL     1       8.487 -15.262  -0.038  1.00  0.00     0.031 C 
ATOM     63  C   UNL     1       9.838 -14.433  -1.944  1.00  0.00     0.037 A 
BRANCH  50  64
ATOM     64  C   UNL     1      12.424  -9.353  -4.323  1.00  0.00     0.058 A 
ATOM     65  C   UNL     1      13.755  -8.928  -4.187  1.00  0.00     0.135 A 
ATOM     66  C   UNL     1      11.835  -9.259  -5.595  1.00  0.00     0.135 A 
ATOM     67  F   UNL     1      14.364  -8.981  -2.991  1.00  0.00    -0.206 F 
ATOM     68  C   UNL     1      14.471  -8.419  -5.266  1.00  0.00     0.059 A 
ATOM     69  C   UNL     1      12.541  -8.779  -6.695  1.00  0.00     0.059 A 
ATOM     70  F   UNL     1      10.565  -9.649  -5.782  1.00  0.00    -0.206 F 
ATOM     71  C   UNL     1      13.857  -8.355  -6.518  1.00  0.00     0.060 A 
BRANCH  71  72
ATOM     72  S   UNL     1      14.813  -7.727  -7.915  1.00  0.00     0.124 S 
ATOM     73  O   UNL     1      14.905  -6.306  -7.590  1.00  0.00    -0.237 OA
ATOM     74  O   UNL     1      16.057  -8.483  -7.805  1.00  0.00    -0.237 OA
ATOM     75  O   UNL     1      13.985  -8.053  -9.071  1.00  0.00    -0.744 OA
ENDBRANCH  71  72
ENDBRANCH  50  64
BRANCH  51  76
ATOM     76  C   UNL     1       7.085 -13.053   3.274  1.00  0.00     0.058 A 
ATOM     77  C   UNL     1       7.575 -14.023   4.160  1.00  0.00     0.135 A 
ATOM     78  C   UNL     1       5.758 -12.626   3.443  1.00  0.00     0.135 A 
ATOM     79  F   UNL     1       8.835 -14.468   4.037  1.00  0.00    -0.206 F 
ATOM     80  C   UNL     1       6.774 -14.573   5.156  1.00  0.00     0.059 A 
ATOM     81  C   UNL     1       4.947 -13.139   4.451  1.00  0.00     0.059 A 
ATOM     82  F   UNL     1       5.243 -11.687   2.634  1.00  0.00    -0.206 F 
ATOM     83  C   UNL     1       5.459 -14.125   5.293  1.00  0.00     0.060 A 
BRANCH  83  84
ATOM     84  S   UNL     1       4.434 -14.828   6.603  1.00  0.00     0.124 S 
ATOM     85  O   UNL     1       4.163 -16.162   6.079  1.00  0.00    -0.237 OA
ATOM     86  O   UNL     1       5.326 -14.764   7.757  1.00  0.00    -0.237 OA
ATOM     87  O   UNL     1       3.289 -13.924   6.655  1.00  0.00    -0.744 OA
ENDBRANCH  83  84
ENDBRANCH  51  76
BRANCH  63  88
ATOM     88  C   UNL     1       9.835 -15.829  -2.507  1.00  0.00     0.058 A 
ATOM     89  C   UNL     1       8.676 -16.406  -3.050  1.00  0.00     0.135 A 
ATOM     90  C   UNL     1      11.021 -16.580  -2.547  1.00  0.00     0.135 A 
ATOM     91  F   UNL     1       7.514 -15.735  -3.031  1.00  0.00    -0.206 F 
ATOM     92  C   UNL     1       8.688 -17.688  -3.590  1.00  0.00     0.059 A 
ATOM     93  C   UNL     1      11.063 -17.852  -3.110  1.00  0.00     0.059 A 
ATOM     94  F   UNL     1      12.160 -16.073  -2.050  1.00  0.00    -0.206 F 
ATOM     95  C   UNL     1       9.887 -18.402  -3.618  1.00  0.00     0.060 A 
BRANCH  95  96
ATOM     96  S   UNL     1       9.895 -20.052  -4.351  1.00  0.00     0.124 S 
ATOM     97  O   UNL     1       9.194 -20.829  -3.334  1.00  0.00    -0.237 OA
ATOM     98  O   UNL     1       9.171 -19.843  -5.600  1.00  0.00    -0.237 OA
ATOM     99  O   UNL     1      11.316 -20.352  -4.500  1.00  0.00    -0.744 OA
ENDBRANCH  95  96
ENDBRANCH  63  88
ENDBRANCH  37  38
ENDBRANCH  29  32
ENDBRANCH  27  28
ENDBRANCH  26  27
ENDBRANCH   1  26
TORSDOF 18
