REMARK SMILES C[C@H]1Oc2ccccc2C=C1/C=C/C(=O)N[C@H](C(=O)NCCCNC(=O)c1ccc(-c2c3nc(c(-c4c(F)cc(S(=O)(=O)[O-])cc4F)c4ccc([nH]4)c(-c4c(F)cc(S(=O)(=O)[O-])cc4F)c4nc(c(-c5c(F)cc(S(=O)(=O)[O-])cc5F)c5ccc2[nH]5)C=C4)C=C3)cc1)c1ccccc1
REMARK SMILES IDX 22 1 21 2 20 3 18 4 19 5 17 7 16 8 14 9 15 10 13 12 12 13
REMARK SMILES IDX 11 14 1 15 2 16 3 17 4 18 10 19 5 20 9 21 6 22 8 23 7 24
REMARK SMILES IDX 93 25 94 26 98 27 95 28 97 29 96 30 23 31 24 32 25 33 26 35
REMARK SMILES IDX 27 36 28 37 92 38 29 39 91 40 30 41 31 42 32 43 85 44 33 45
REMARK SMILES IDX 90 46 84 47 86 48 34 49 89 50 83 51 82 52 35 54 69 55 48 56
REMARK SMILES IDX 68 57 49 58 52 59 67 60 87 61 50 62 51 63 66 65 88 66 53 67
REMARK SMILES IDX 36 68 37 69 46 70 38 71 39 72 45 73 47 74 40 75 41 76 42 77
REMARK SMILES IDX 43 78 44 79 70 80 71 81 80 82 72 83 73 84 79 85 81 86 74 87
REMARK SMILES IDX 75 88 76 89 77 90 78 91 54 92 55 93 64 94 56 95 57 96 63 97
REMARK SMILES IDX 65 98 58 99 59 100 60 101 61 102 62 103
REMARK H PARENT 20 6 16 11 24 34 86 53 52 64
REMARK Flexibility Score: inf
ROOT
ATOM      1  C   UNL     1      -2.630  -3.593   1.675  1.00  0.00     0.042 C 
ENDROOT
BRANCH   1   2
ATOM      2  C   UNL     1      -1.811  -4.395   0.667  1.00  0.00     0.117 C 
BRANCH   2   3
ATOM      3  N   UNL     1      -2.425  -4.632  -0.629  1.00  0.00    -0.354 N 
ATOM      4  C   UNL     1      -2.565  -3.785  -1.700  1.00  0.00     0.247 C 
ATOM      5  O   UNL     1      -2.839  -4.288  -2.795  1.00  0.00    -0.272 OA
ATOM      6  H   UNL     1      -2.797  -5.535  -0.757  1.00  0.00     0.163 HD
BRANCH   4   7
ATOM      7  C   UNL     1      -2.471  -2.249  -1.501  1.00  0.00     0.202 C 
BRANCH   7   8
ATOM      8  N   UNL     1      -1.726  -1.706  -2.635  1.00  0.00    -0.337 N 
ATOM      9  C   UNL     1      -0.639  -0.902  -2.720  1.00  0.00     0.244 C 
ATOM     10  O   UNL     1      -0.150  -0.674  -3.827  1.00  0.00    -0.270 OA
ATOM     11  H   UNL     1      -2.085  -1.977  -3.511  1.00  0.00     0.164 HD
BRANCH   9  12
ATOM     12  C   UNL     1       0.039  -0.324  -1.528  1.00  0.00     0.071 C 
ATOM     13  C   UNL     1      -0.525   0.079  -0.381  1.00  0.00     0.013 C 
BRANCH  13  14
ATOM     14  C   UNL     1       0.170   0.665   0.753  1.00  0.00    -0.007 C 
ATOM     15  C   UNL     1       0.462  -1.309   2.291  1.00  0.00     0.058 C 
ATOM     16  C   UNL     1      -0.169   0.073   2.115  1.00  0.00     0.200 C 
ATOM     17  O   UNL     1       0.189   0.852   3.264  1.00  0.00    -0.485 OA
ATOM     18  C   UNL     1       1.078   1.874   3.096  1.00  0.00     0.127 A 
ATOM     19  C   UNL     1       0.967   1.735   0.631  1.00  0.00     0.019 C 
ATOM     20  C   UNL     1       1.531   2.485   4.266  1.00  0.00     0.047 A 
ATOM     21  C   UNL     1       1.501   2.337   1.847  1.00  0.00     0.017 A 
ATOM     22  C   UNL     1       2.415   3.560   4.196  1.00  0.00     0.004 A 
ATOM     23  C   UNL     1       2.388   3.418   1.782  1.00  0.00     0.012 A 
ATOM     24  C   UNL     1       2.844   4.026   2.954  1.00  0.00     0.001 A 
ENDBRANCH  13  14
ENDBRANCH   9  12
ENDBRANCH   7   8
BRANCH   7  25
ATOM     25  C   UNL     1      -3.848  -1.582  -1.392  1.00  0.00    -0.016 A 
ATOM     26  C   UNL     1      -5.024  -2.316  -1.162  1.00  0.00     0.006 A 
ATOM     27  C   UNL     1      -3.969  -0.181  -1.468  1.00  0.00     0.006 A 
ATOM     28  C   UNL     1      -6.256  -1.677  -0.983  1.00  0.00     0.000 A 
ATOM     29  C   UNL     1      -5.194   0.459  -1.271  1.00  0.00     0.000 A 
ATOM     30  C   UNL     1      -6.338  -0.289  -1.023  1.00  0.00     0.000 A 
ENDBRANCH   7  25
ENDBRANCH   4   7
ENDBRANCH   2   3
ENDBRANCH   1   2
BRANCH   1  31
ATOM     31  C   UNL     1      -4.004  -4.158   2.017  1.00  0.00     0.118 C 
BRANCH  31  32
ATOM     32  N   UNL     1      -3.958  -5.426   2.726  1.00  0.00    -0.352 N 
ATOM     33  C   UNL     1      -4.437  -5.790   3.966  1.00  0.00     0.251 C 
ATOM     34  H   UNL     1      -3.507  -6.150   2.236  1.00  0.00     0.163 HD
ATOM     35  O   UNL     1      -4.194  -6.915   4.384  1.00  0.00    -0.269 OA
BRANCH  33  36
ATOM     36  C   UNL     1      -5.195  -4.836   4.817  1.00  0.00     0.039 A 
ATOM     37  C   UNL     1      -6.168  -3.982   4.296  1.00  0.00     0.014 A 
ATOM     38  C   UNL     1      -4.930  -4.816   6.192  1.00  0.00     0.014 A 
ATOM     39  C   UNL     1      -6.734  -2.993   5.104  1.00  0.00     0.010 A 
ATOM     40  C   UNL     1      -5.556  -3.875   7.017  1.00  0.00     0.010 A 
ATOM     41  C   UNL     1      -6.420  -2.915   6.469  1.00  0.00    -0.014 A 
BRANCH  41  42
ATOM     42  C   UNL     1      -6.950  -1.798   7.301  1.00  0.00     0.031 A 
ATOM     43  C   UNL     1      -6.005  -0.775   7.882  1.00  0.00     0.074 A 
ATOM     44  C   UNL     1      -8.277  -1.667   7.499  1.00  0.00     0.049 A 
ATOM     45  N   UNL     1      -6.264   0.240   8.668  1.00  0.00    -0.248 NA
ATOM     46  C   UNL     1      -4.580  -0.909   7.535  1.00  0.00     0.031 C 
ATOM     47  C   UNL     1      -9.304  -2.568   6.972  1.00  0.00     0.029 A 
ATOM     48  N   UNL     1      -8.992  -0.718   8.187  1.00  0.00    -0.354 N 
ATOM     49  C   UNL     1      -5.042   0.854   8.918  1.00  0.00     0.074 A 
ATOM     50  C   UNL     1      -4.033   0.081   8.227  1.00  0.00     0.031 C 
ATOM     51  C   UNL     1     -10.515  -2.108   7.325  1.00  0.00     0.029 A 
ATOM     52  C   UNL     1     -10.352  -0.915   8.149  1.00  0.00     0.049 A 
ATOM     53  H   UNL     1      -8.569   0.034   8.662  1.00  0.00     0.167 HD
ATOM     54  C   UNL     1      -4.782   1.970   9.642  1.00  0.00     0.037 A 
ATOM     55  C   UNL     1     -11.355  -0.225   8.727  1.00  0.00     0.037 A 
ATOM     56  C   UNL     1      -5.786   2.757  10.310  1.00  0.00     0.049 A 
ATOM     57  C   UNL     1     -11.033   0.977   9.575  1.00  0.00     0.074 A 
ATOM     58  C   UNL     1      -5.616   3.903  11.069  1.00  0.00     0.029 A 
ATOM     59  N   UNL     1      -7.146   2.493  10.288  1.00  0.00    -0.354 N 
ATOM     60  N   UNL     1      -9.867   1.522   9.824  1.00  0.00    -0.248 NA
ATOM     61  C   UNL     1     -12.165   1.649  10.229  1.00  0.00     0.031 C 
ATOM     62  C   UNL     1      -6.871   4.314  11.531  1.00  0.00     0.029 A 
ATOM     63  C   UNL     1      -7.826   3.447  11.027  1.00  0.00     0.049 A 
ATOM     64  H   UNL     1      -7.567   1.738   9.816  1.00  0.00     0.167 HD
ATOM     65  C   UNL     1     -10.126   2.607  10.653  1.00  0.00     0.074 A 
ATOM     66  C   UNL     1     -11.561   2.655  10.846  1.00  0.00     0.031 C 
ATOM     67  C   UNL     1      -9.254   3.483  11.210  1.00  0.00     0.037 A 
BRANCH  54  68
ATOM     68  C   UNL     1      -3.352   2.421   9.750  1.00  0.00     0.058 A 
ATOM     69  C   UNL     1      -2.701   3.049   8.677  1.00  0.00     0.135 A 
ATOM     70  C   UNL     1      -2.650   2.294  10.959  1.00  0.00     0.135 A 
ATOM     71  F   UNL     1      -3.320   3.179   7.493  1.00  0.00    -0.206 F 
ATOM     72  C   UNL     1      -1.401   3.529   8.796  1.00  0.00     0.059 A 
ATOM     73  C   UNL     1      -1.356   2.787  11.108  1.00  0.00     0.059 A 
ATOM     74  F   UNL     1      -3.226   1.698  12.015  1.00  0.00    -0.206 F 
ATOM     75  C   UNL     1      -0.738   3.399  10.018  1.00  0.00     0.060 A 
BRANCH  75  76
ATOM     76  S   UNL     1       0.937   4.057  10.160  1.00  0.00     0.124 S 
ATOM     77  O   UNL     1       1.686   3.137   9.308  1.00  0.00    -0.237 OA
ATOM     78  O   UNL     1       0.783   5.413   9.643  1.00  0.00    -0.237 OA
ATOM     79  O   UNL     1       1.222   3.961  11.588  1.00  0.00    -0.744 OA
ENDBRANCH  75  76
ENDBRANCH  54  68
BRANCH  55  80
ATOM     80  C   UNL     1     -12.765  -0.658   8.541  1.00  0.00     0.058 A 
ATOM     81  C   UNL     1     -13.661   0.109   7.783  1.00  0.00     0.135 A 
ATOM     82  C   UNL     1     -13.246  -1.840   9.125  1.00  0.00     0.135 A 
ATOM     83  F   UNL     1     -13.250   1.253   7.215  1.00  0.00    -0.206 F 
ATOM     84  C   UNL     1     -14.990  -0.269   7.625  1.00  0.00     0.059 A 
ATOM     85  C   UNL     1     -14.563  -2.253   8.960  1.00  0.00     0.059 A 
ATOM     86  F   UNL     1     -12.425  -2.615   9.851  1.00  0.00    -0.206 F 
ATOM     87  C   UNL     1     -15.432  -1.454   8.217  1.00  0.00     0.060 A 
BRANCH  87  88
ATOM     88  S   UNL     1     -17.149  -1.956   7.975  1.00  0.00     0.124 S 
ATOM     89  O   UNL     1     -17.853  -1.026   8.850  1.00  0.00    -0.237 OA
ATOM     90  O   UNL     1     -17.331  -1.748   6.542  1.00  0.00    -0.237 OA
ATOM     91  O   UNL     1     -17.152  -3.352   8.402  1.00  0.00    -0.744 OA
ENDBRANCH  87  88
ENDBRANCH  55  80
BRANCH  67  92
ATOM     92  C   UNL     1      -9.826   4.577  12.067  1.00  0.00     0.058 A 
ATOM     93  C   UNL     1     -10.312   4.318  13.357  1.00  0.00     0.135 A 
ATOM     94  C   UNL     1      -9.853   5.904  11.608  1.00  0.00     0.135 A 
ATOM     95  F   UNL     1     -10.314   3.065  13.840  1.00  0.00    -0.206 F 
ATOM     96  C   UNL     1     -10.829   5.333  14.156  1.00  0.00     0.059 A 
ATOM     97  C   UNL     1     -10.343   6.939  12.398  1.00  0.00     0.059 A 
ATOM     98  F   UNL     1      -9.391   6.205  10.384  1.00  0.00    -0.206 F 
ATOM     99  C   UNL     1     -10.841   6.641  13.667  1.00  0.00     0.060 A 
BRANCH  99 100
ATOM    100  S   UNL     1     -11.493   7.952  14.722  1.00  0.00     0.124 S 
ATOM    101  O   UNL     1     -12.929   7.702  14.647  1.00  0.00    -0.237 OA
ATOM    102  O   UNL     1     -10.865   7.663  16.007  1.00  0.00    -0.237 OA
ATOM    103  O   UNL     1     -11.034   9.175  14.068  1.00  0.00    -0.744 OA
ENDBRANCH  99 100
ENDBRANCH  67  92
ENDBRANCH  41  42
ENDBRANCH  33  36
ENDBRANCH  31  32
ENDBRANCH   1  31
TORSDOF 17
