REMARK SMILES CC(=O)NCCNC(=O)C[N@H+]1CC[C@@H](C(=O)NCCCNC(=O)c2ccc(-c3c4nc(c(-c5c(F)cc(S(=O)(=O)[O-])cc5F)c5ccc([nH]5)c(-c5c(F)cc(S(=O)(=O)[O-])cc5F)c5nc(c(-c6c(F)cc(S(=O)(=O)[O-])cc6F)c6ccc3[nH]6)C=C5)C=C4)cc2)[C@H]1C
REMARK SMILES IDX 18 1 17 2 15 3 16 4 14 6 11 7 12 8 90 9 13 11 91 12 10 13
REMARK SMILES IDX 8 14 7 15 9 17 6 18 5 19 4 20 1 21 2 22 3 23 19 25 20 26
REMARK SMILES IDX 21 27 22 28 23 30 24 31 25 32 89 33 26 34 88 35 27 36 28 37
REMARK SMILES IDX 29 38 82 39 30 40 87 41 81 42 83 43 31 44 86 45 80 46 79 47
REMARK SMILES IDX 32 49 66 50 45 51 65 52 46 53 49 54 64 55 84 56 47 57 48 58
REMARK SMILES IDX 63 60 85 61 50 62 33 63 34 64 43 65 35 66 36 67 42 68 44 69
REMARK SMILES IDX 37 70 38 71 39 72 40 73 41 74 67 75 68 76 77 77 69 78 70 79
REMARK SMILES IDX 76 80 78 81 71 82 72 83 73 84 74 85 75 86 51 87 52 88 61 89
REMARK SMILES IDX 53 90 54 91 60 92 62 93 55 94 56 95 57 96 58 97 59 98
REMARK H PARENT 17 5 11 10 7 16 4 24 21 29 83 48 49 59
REMARK Flexibility Score: inf
ROOT
ATOM      1  C   UNL     1       6.335   7.763   2.974  1.00  0.00     0.117 C 
ENDROOT
BRANCH   1   2
ATOM      2  N   UNL     1       5.344   7.974   4.018  1.00  0.00    -0.356 N 
ATOM      3  C   UNL     1       4.106   7.460   4.224  1.00  0.00     0.229 C 
ATOM      4  O   UNL     1       3.481   7.899   5.195  1.00  0.00    -0.275 OA
ATOM      5  H   UNL     1       5.627   8.616   4.709  1.00  0.00     0.163 HD
BRANCH   3   6
ATOM      6  C   UNL     1       3.495   6.363   3.369  1.00  0.00     0.142 C 
ATOM      7  N   UNL     1       3.441   5.535   1.122  1.00  0.00    -0.324 N 
ATOM      8  C   UNL     1       4.020   4.492   1.950  1.00  0.00     0.263 C 
ATOM      9  C   UNL     1       3.004   6.675   1.944  1.00  0.00     0.194 C 
ATOM     10  H   UNL     1       2.566   5.188   0.731  1.00  0.00     0.348 HD
ATOM     11  C   UNL     1       4.355   5.112   3.287  1.00  0.00     0.081 C 
ATOM     12  C   UNL     1       3.247   8.087   1.421  1.00  0.00     0.076 C 
BRANCH   7  13
ATOM     13  C   UNL     1       4.051   5.752  -0.188  1.00  0.00     0.363 C 
BRANCH  13  14
ATOM     14  C   UNL     1       3.001   5.623  -1.300  1.00  0.00     0.275 C 
ATOM     15  N   UNL     1       2.616   4.375  -1.717  1.00  0.00    -0.349 N 
ATOM     16  H   UNL     1       2.102   4.338  -2.556  1.00  0.00     0.163 HD
ATOM     17  O   UNL     1       2.509   6.608  -1.851  1.00  0.00    -0.269 OA
BRANCH  15  18
ATOM     18  C   UNL     1       2.877   3.102  -1.070  1.00  0.00     0.137 C 
BRANCH  18  19
ATOM     19  C   UNL     1       1.703   2.685  -0.174  1.00  0.00     0.137 C 
BRANCH  19  20
ATOM     20  N   UNL     1       0.638   2.073  -0.955  1.00  0.00    -0.355 N 
ATOM     21  C   UNL     1       0.968  -0.198  -0.064  1.00  0.00     0.114 C 
ATOM     22  C   UNL     1       0.281   0.757  -1.001  1.00  0.00     0.216 C 
ATOM     23  O   UNL     1      -0.591   0.383  -1.783  1.00  0.00    -0.275 OA
ATOM     24  H   UNL     1       0.110   2.683  -1.518  1.00  0.00     0.163 HD
ENDBRANCH  19  20
ENDBRANCH  18  19
ENDBRANCH  15  18
ENDBRANCH  13  14
ENDBRANCH   7  13
ENDBRANCH   3   6
ENDBRANCH   1   2
BRANCH   1  25
ATOM     25  C   UNL     1       6.683   9.058   2.248  1.00  0.00     0.042 C 
BRANCH  25  26
ATOM     26  C   UNL     1       7.334  10.117   3.126  1.00  0.00     0.118 C 
BRANCH  26  27
ATOM     27  N   UNL     1       8.743   9.857   3.367  1.00  0.00    -0.352 N 
ATOM     28  C   UNL     1       9.857  10.453   2.822  1.00  0.00     0.251 C 
ATOM     29  H   UNL     1       8.929   9.146   4.021  1.00  0.00     0.163 HD
ATOM     30  O   UNL     1      10.958   9.944   3.009  1.00  0.00    -0.269 OA
BRANCH  28  31
ATOM     31  C   UNL     1       9.738  11.676   1.992  1.00  0.00     0.039 A 
ATOM     32  C   UNL     1      10.524  11.790   0.841  1.00  0.00     0.014 A 
ATOM     33  C   UNL     1       8.884  12.723   2.350  1.00  0.00     0.014 A 
ATOM     34  C   UNL     1      10.400  12.916   0.019  1.00  0.00     0.010 A 
ATOM     35  C   UNL     1       8.691  13.795   1.483  1.00  0.00     0.010 A 
ATOM     36  C   UNL     1       9.455  13.911   0.312  1.00  0.00    -0.014 A 
BRANCH  36  37
ATOM     37  C   UNL     1       9.253  15.083  -0.581  1.00  0.00     0.031 A 
ATOM     38  C   UNL     1       9.495  16.478  -0.067  1.00  0.00     0.074 A 
ATOM     39  C   UNL     1       8.768  14.902  -1.825  1.00  0.00     0.049 A 
ATOM     40  N   UNL     1       9.283  17.626  -0.658  1.00  0.00    -0.248 NA
ATOM     41  C   UNL     1      10.012  16.596   1.305  1.00  0.00     0.031 C 
ATOM     42  C   UNL     1       8.433  13.608  -2.421  1.00  0.00     0.029 A 
ATOM     43  N   UNL     1       8.449  15.810  -2.804  1.00  0.00    -0.354 N 
ATOM     44  C   UNL     1       9.613  18.600   0.277  1.00  0.00     0.074 A 
ATOM     45  C   UNL     1       9.991  17.908   1.490  1.00  0.00     0.031 C 
ATOM     46  C   UNL     1       7.965  13.803  -3.663  1.00  0.00     0.029 A 
ATOM     47  C   UNL     1       7.927  15.237  -3.939  1.00  0.00     0.049 A 
ATOM     48  H   UNL     1       8.581  16.781  -2.702  1.00  0.00     0.167 HD
ATOM     49  C   UNL     1       9.621  19.948   0.133  1.00  0.00     0.037 A 
ATOM     50  C   UNL     1       7.453  15.798  -5.069  1.00  0.00     0.037 A 
ATOM     51  C   UNL     1       9.273  20.629  -1.086  1.00  0.00     0.049 A 
ATOM     52  C   UNL     1       7.478  17.293  -5.216  1.00  0.00     0.074 A 
ATOM     53  C   UNL     1       9.346  21.982  -1.367  1.00  0.00     0.029 A 
ATOM     54  N   UNL     1       8.772  20.011  -2.223  1.00  0.00    -0.354 N 
ATOM     55  N   UNL     1       7.885  18.197  -4.357  1.00  0.00    -0.248 NA
ATOM     56  C   UNL     1       6.984  17.846  -6.484  1.00  0.00     0.031 C 
ATOM     57  C   UNL     1       8.842  22.187  -2.657  1.00  0.00     0.029 A 
ATOM     58  C   UNL     1       8.496  20.958  -3.196  1.00  0.00     0.049 A 
ATOM     59  H   UNL     1       8.634  19.041  -2.324  1.00  0.00     0.167 HD
ATOM     60  C   UNL     1       7.697  19.426  -4.978  1.00  0.00     0.074 A 
ATOM     61  C   UNL     1       7.161  19.148  -6.296  1.00  0.00     0.031 C 
ATOM     62  C   UNL     1       7.943  20.670  -4.498  1.00  0.00     0.037 A 
BRANCH  49  63
ATOM     63  C   UNL     1      10.009  20.767   1.335  1.00  0.00     0.058 A 
ATOM     64  C   UNL     1      11.321  20.770   1.837  1.00  0.00     0.135 A 
ATOM     65  C   UNL     1       9.053  21.548   2.004  1.00  0.00     0.135 A 
ATOM     66  F   UNL     1      12.274  20.033   1.244  1.00  0.00    -0.206 F 
ATOM     67  C   UNL     1      11.658  21.470   2.991  1.00  0.00     0.059 A 
ATOM     68  C   UNL     1       9.374  22.281   3.143  1.00  0.00     0.059 A 
ATOM     69  F   UNL     1       7.785  21.588   1.565  1.00  0.00    -0.206 F 
ATOM     70  C   UNL     1      10.674  22.214   3.644  1.00  0.00     0.060 A 
BRANCH  70  71
ATOM     71  S   UNL     1      11.112  23.078   5.167  1.00  0.00     0.124 S 
ATOM     72  O   UNL     1      11.169  21.973   6.120  1.00  0.00    -0.237 OA
ATOM     73  O   UNL     1      12.394  23.686   4.826  1.00  0.00    -0.237 OA
ATOM     74  O   UNL     1      10.008  24.014   5.357  1.00  0.00    -0.744 OA
ENDBRANCH  70  71
ENDBRANCH  49  63
BRANCH  50  75
ATOM     75  C   UNL     1       6.924  14.921  -6.146  1.00  0.00     0.058 A 
ATOM     76  C   UNL     1       7.663  14.688  -7.314  1.00  0.00     0.135 A 
ATOM     77  C   UNL     1       5.709  14.235  -5.990  1.00  0.00     0.135 A 
ATOM     78  F   UNL     1       8.825  15.328  -7.511  1.00  0.00    -0.206 F 
ATOM     79  C   UNL     1       7.224  13.794  -8.285  1.00  0.00     0.059 A 
ATOM     80  C   UNL     1       5.260  13.320  -6.938  1.00  0.00     0.059 A 
ATOM     81  F   UNL     1       4.973  14.415  -4.883  1.00  0.00    -0.206 F 
ATOM     82  C   UNL     1       6.027  13.104  -8.081  1.00  0.00     0.060 A 
BRANCH  82  83
ATOM     83  S   UNL     1       5.528  11.863  -9.296  1.00  0.00     0.124 S 
ATOM     84  O   UNL     1       5.103  12.698 -10.413  1.00  0.00    -0.237 OA
ATOM     85  O   UNL     1       6.766  11.114  -9.493  1.00  0.00    -0.237 OA
ATOM     86  O   UNL     1       4.466  11.132  -8.612  1.00  0.00    -0.744 OA
ENDBRANCH  82  83
ENDBRANCH  50  75
BRANCH  62  87
ATOM     87  C   UNL     1       7.623  21.834  -5.394  1.00  0.00     0.058 A 
ATOM     88  C   UNL     1       6.299  22.238  -5.621  1.00  0.00     0.135 A 
ATOM     89  C   UNL     1       8.650  22.596  -5.974  1.00  0.00     0.135 A 
ATOM     90  F   UNL     1       5.280  21.538  -5.097  1.00  0.00    -0.206 F 
ATOM     91  C   UNL     1       6.002  23.350  -6.402  1.00  0.00     0.059 A 
ATOM     92  C   UNL     1       8.378  23.726  -6.738  1.00  0.00     0.059 A 
ATOM     93  F   UNL     1       9.935  22.257  -5.781  1.00  0.00    -0.206 F 
ATOM     94  C   UNL     1       7.049  24.092  -6.952  1.00  0.00     0.060 A 
BRANCH  94  95
ATOM     95  S   UNL     1       6.652  25.564  -7.919  1.00  0.00     0.124 S 
ATOM     96  O   UNL     1       6.147  24.976  -9.156  1.00  0.00    -0.237 OA
ATOM     97  O   UNL     1       5.659  26.230  -7.082  1.00  0.00    -0.237 OA
ATOM     98  O   UNL     1       7.934  26.254  -8.030  1.00  0.00    -0.744 OA
ENDBRANCH  94  95
ENDBRANCH  62  87
ENDBRANCH  36  37
ENDBRANCH  28  31
ENDBRANCH  26  27
ENDBRANCH  25  26
ENDBRANCH   1  25
TORSDOF 18
