REMARK SMILES O=C(NCCCNC(=O)c1cccn2c(=O)c3ccc(Cl)cc3nc12)c1ccc(-c2c3nc(c(-c4c(F)cc(S(=O)(=O)[O-])cc4F)c4ccc([nH]4)c(-c4c(F)cc(S(=O)(=O)[O-])cc4F)c4nc(c(-c5c(F)cc(S(=O)(=O)[O-])cc5F)c5ccc2[nH]5)C=C4)C=C3)cc1
REMARK SMILES IDX 1 1 2 2 3 3 26 5 27 6 91 7 28 8 90 9 29 10 30 11 31 12 84 13
REMARK SMILES IDX 32 14 89 15 83 16 85 17 33 18 88 19 82 20 81 21 34 23 68 24
REMARK SMILES IDX 47 25 67 26 48 27 51 28 66 29 86 30 49 31 50 32 65 34 87 35
REMARK SMILES IDX 52 36 35 37 36 38 45 39 37 40 38 41 44 42 46 43 39 44 40 45
REMARK SMILES IDX 41 46 42 47 43 48 69 49 70 50 79 51 71 52 72 53 78 54 80 55
REMARK SMILES IDX 73 56 74 57 75 58 76 59 77 60 53 61 54 62 63 63 55 64 56 65
REMARK SMILES IDX 62 66 64 67 57 68 58 69 59 70 60 71 61 72 4 73 5 74 6 75
REMARK SMILES IDX 7 76 8 77 9 79 10 80 11 81 25 82 12 83 14 84 24 85 13 86
REMARK SMILES IDX 15 87 23 88 16 89 17 90 22 91 18 92 20 93 19 94 21 95
REMARK H PARENT 3 4 85 22 51 33 7 78
REMARK Flexibility Score: inf
ROOT
ATOM      1  O   UNL     1       1.163   0.078  -0.049  1.00  0.00    -0.269 OA
ATOM      2  C   UNL     1       2.385  -0.043   0.020  1.00  0.00     0.251 C 
ATOM      3  N   UNL     1       3.149   1.092   0.114  1.00  0.00    -0.352 N 
ATOM      4  H   UNL     1       2.635   1.913   0.292  1.00  0.00     0.163 HD
ENDROOT
BRANCH   2   5
ATOM      5  C   UNL     1       2.991  -1.396  -0.003  1.00  0.00     0.039 A 
ATOM      6  C   UNL     1       2.365  -2.396  -0.758  1.00  0.00     0.014 A 
ATOM      7  C   UNL     1       4.106  -1.720   0.773  1.00  0.00     0.014 A 
ATOM      8  C   UNL     1       2.873  -3.699  -0.758  1.00  0.00     0.010 A 
ATOM      9  C   UNL     1       4.661  -2.998   0.708  1.00  0.00     0.010 A 
ATOM     10  C   UNL     1       4.035  -4.008  -0.035  1.00  0.00    -0.014 A 
BRANCH  10  11
ATOM     11  C   UNL     1       4.563  -5.396   0.024  1.00  0.00     0.031 A 
ATOM     12  C   UNL     1       4.577  -6.132   1.339  1.00  0.00     0.074 A 
ATOM     13  C   UNL     1       5.058  -5.984  -1.082  1.00  0.00     0.049 A 
ATOM     14  N   UNL     1       5.079  -7.306   1.625  1.00  0.00    -0.248 NA
ATOM     15  C   UNL     1       3.969  -5.445   2.491  1.00  0.00     0.031 C 
ATOM     16  C   UNL     1       5.118  -5.374  -2.412  1.00  0.00     0.029 A 
ATOM     17  N   UNL     1       5.606  -7.229  -1.264  1.00  0.00    -0.354 N 
ATOM     18  C   UNL     1       4.867  -7.487   2.987  1.00  0.00     0.074 A 
ATOM     19  C   UNL     1       4.235  -6.283   3.481  1.00  0.00     0.031 C 
ATOM     20  C   UNL     1       5.643  -6.257  -3.277  1.00  0.00     0.029 A 
ATOM     21  C   UNL     1       5.991  -7.480  -2.559  1.00  0.00     0.049 A 
ATOM     22  H   UNL     1       5.713  -7.882  -0.534  1.00  0.00     0.167 HD
ATOM     23  C   UNL     1       5.146  -8.567   3.754  1.00  0.00     0.037 A 
ATOM     24  C   UNL     1       6.562  -8.572  -3.106  1.00  0.00     0.037 A 
ATOM     25  C   UNL     1       5.730  -9.782   3.253  1.00  0.00     0.049 A 
ATOM     26  C   UNL     1       6.864  -9.761  -2.236  1.00  0.00     0.074 A 
ATOM     27  C   UNL     1       6.016 -10.948   3.943  1.00  0.00     0.029 A 
ATOM     28  N   UNL     1       6.102  -9.995   1.935  1.00  0.00    -0.354 N 
ATOM     29  N   UNL     1       6.647  -9.917  -0.952  1.00  0.00    -0.248 NA
ATOM     30  C   UNL     1       7.489 -10.921  -2.886  1.00  0.00     0.031 C 
ATOM     31  C   UNL     1       6.583 -11.858   3.045  1.00  0.00     0.029 A 
ATOM     32  C   UNL     1       6.621 -11.271   1.791  1.00  0.00     0.049 A 
ATOM     33  H   UNL     1       6.011  -9.337   1.209  1.00  0.00     0.167 HD
ATOM     34  C   UNL     1       7.093 -11.197  -0.644  1.00  0.00     0.074 A 
ATOM     35  C   UNL     1       7.582 -11.778  -1.878  1.00  0.00     0.031 C 
ATOM     36  C   UNL     1       7.098 -11.833   0.553  1.00  0.00     0.037 A 
BRANCH  23  37
ATOM     37  C   UNL     1       4.806  -8.488   5.216  1.00  0.00     0.058 A 
ATOM     38  C   UNL     1       3.475  -8.540   5.661  1.00  0.00     0.135 A 
ATOM     39  C   UNL     1       5.818  -8.389   6.184  1.00  0.00     0.135 A 
ATOM     40  F   UNL     1       2.469  -8.615   4.775  1.00  0.00    -0.206 F 
ATOM     41  C   UNL     1       3.158  -8.471   7.013  1.00  0.00     0.059 A 
ATOM     42  C   UNL     1       5.525  -8.343   7.544  1.00  0.00     0.059 A 
ATOM     43  F   UNL     1       7.107  -8.334   5.811  1.00  0.00    -0.206 F 
ATOM     44  C   UNL     1       4.190  -8.371   7.947  1.00  0.00     0.060 A 
BRANCH  44  45
ATOM     45  S   UNL     1       3.762  -8.287   9.699  1.00  0.00     0.124 S 
ATOM     46  O   UNL     1       3.244  -6.925   9.805  1.00  0.00    -0.237 OA
ATOM     47  O   UNL     1       2.771  -9.351   9.830  1.00  0.00    -0.237 OA
ATOM     48  O   UNL     1       5.032  -8.530  10.372  1.00  0.00    -0.744 OA
ENDBRANCH  44  45
ENDBRANCH  23  37
BRANCH  24  49
ATOM     49  C   UNL     1       6.853  -8.601  -4.563  1.00  0.00     0.058 A 
ATOM     50  C   UNL     1       6.069  -9.371  -5.433  1.00  0.00     0.135 A 
ATOM     51  C   UNL     1       7.894  -7.840  -5.117  1.00  0.00     0.135 A 
ATOM     52  F   UNL     1       5.067 -10.121  -4.947  1.00  0.00    -0.206 F 
ATOM     53  C   UNL     1       6.306  -9.390  -6.803  1.00  0.00     0.059 A 
ATOM     54  C   UNL     1       8.139  -7.828  -6.487  1.00  0.00     0.059 A 
ATOM     55  F   UNL     1       8.664  -7.077  -4.327  1.00  0.00    -0.206 F 
ATOM     56  C   UNL     1       7.341  -8.611  -7.322  1.00  0.00     0.060 A 
BRANCH  56  57
ATOM     57  S   UNL     1       7.595  -8.589  -9.110  1.00  0.00     0.124 S 
ATOM     58  O   UNL     1       8.190  -9.901  -9.338  1.00  0.00    -0.237 OA
ATOM     59  O   UNL     1       6.235  -8.409  -9.610  1.00  0.00    -0.237 OA
ATOM     60  O   UNL     1       8.483  -7.448  -9.309  1.00  0.00    -0.744 OA
ENDBRANCH  56  57
ENDBRANCH  24  49
BRANCH  36  61
ATOM     61  C   UNL     1       7.632 -13.236   0.592  1.00  0.00     0.058 A 
ATOM     62  C   UNL     1       9.010 -13.494   0.560  1.00  0.00     0.135 A 
ATOM     63  C   UNL     1       6.760 -14.326   0.745  1.00  0.00     0.135 A 
ATOM     64  F   UNL     1       9.883 -12.485   0.409  1.00  0.00    -0.206 F 
ATOM     65  C   UNL     1       9.508 -14.787   0.671  1.00  0.00     0.059 A 
ATOM     66  C   UNL     1       7.237 -15.626   0.878  1.00  0.00     0.059 A 
ATOM     67  F   UNL     1       5.433 -14.129   0.790  1.00  0.00    -0.206 F 
ATOM     68  C   UNL     1       8.613 -15.847   0.834  1.00  0.00     0.060 A 
BRANCH  68  69
ATOM     69  S   UNL     1       9.275 -17.515   1.032  1.00  0.00     0.124 S 
ATOM     70  O   UNL     1       9.697 -17.827  -0.330  1.00  0.00    -0.237 OA
ATOM     71  O   UNL     1      10.351 -17.312   1.998  1.00  0.00    -0.237 OA
ATOM     72  O   UNL     1       8.133 -18.278   1.526  1.00  0.00    -0.744 OA
ENDBRANCH  68  69
ENDBRANCH  36  61
ENDBRANCH  10  11
ENDBRANCH   2   5
BRANCH   3  73
ATOM     73  C   UNL     1       4.585   1.297  -0.005  1.00  0.00     0.118 C 
BRANCH  73  74
ATOM     74  C   UNL     1       4.962   2.127  -1.227  1.00  0.00     0.042 C 
BRANCH  74  75
ATOM     75  C   UNL     1       4.362   3.527  -1.252  1.00  0.00     0.118 C 
BRANCH  75  76
ATOM     76  N   UNL     1       4.833   4.372  -0.164  1.00  0.00    -0.352 N 
ATOM     77  C   UNL     1       5.609   5.499  -0.192  1.00  0.00     0.255 C 
ATOM     78  H   UNL     1       4.548   4.087   0.735  1.00  0.00     0.163 HD
ATOM     79  O   UNL     1       5.892   6.065   0.861  1.00  0.00    -0.269 OA
BRANCH  77  80
ATOM     80  C   UNL     1       6.046   6.038  -1.501  1.00  0.00     0.083 A 
ATOM     81  C   UNL     1       5.099   6.439  -2.366  1.00  0.00     0.019 A 
ATOM     82  C   UNL     1       7.491   6.256  -1.837  1.00  0.00     0.153 A 
ATOM     83  C   UNL     1       5.450   6.924  -3.671  1.00  0.00     0.019 A 
ATOM     84  N   UNL     1       7.766   6.743  -3.123  1.00  0.00    -0.267 N 
ATOM     85  N   UNL     1       8.419   5.994  -0.969  1.00  0.00    -0.229 NA
ATOM     86  C   UNL     1       6.737   7.045  -4.009  1.00  0.00     0.096 A 
ATOM     87  C   UNL     1       9.081   6.943  -3.551  1.00  0.00     0.265 A 
ATOM     88  C   UNL     1       9.753   6.254  -1.294  1.00  0.00     0.080 A 
ATOM     89  O   UNL     1       9.403   7.319  -4.678  1.00  0.00    -0.268 OA
ATOM     90  C   UNL     1      10.137   6.705  -2.554  1.00  0.00     0.066 A 
ATOM     91  C   UNL     1      10.733   6.079  -0.312  1.00  0.00     0.049 A 
ATOM     92  C   UNL     1      11.481   6.963  -2.853  1.00  0.00     0.017 A 
ATOM     93  C   UNL     1      12.072   6.350  -0.598  1.00  0.00     0.043 A 
ATOM     94  C   UNL     1      12.452   6.786  -1.867  1.00  0.00     0.021 A 
ATOM     95  Cl  UNL     1      13.266   6.161   0.626  1.00  0.00    -0.084 Cl
ENDBRANCH  77  80
ENDBRANCH  75  76
ENDBRANCH  74  75
ENDBRANCH  73  74
ENDBRANCH   3  73
TORSDOF 13
