REMARK SMILES Cc1ccc(C(N)=O)c(NCc2ccc(C(=O)NCCCNC(=O)c3ccc(-c4c5nc(c(-c6c(F)cc(S(=O)(=O)[O-])cc6F)c6ccc([nH]6)c(-c6c(F)cc(S(=O)(=O)[O-])cc6F)c6nc(c(-c7c(F)cc(S(=O)(=O)[O-])cc7F)c7ccc4[nH]7)C=C6)C=C5)cc3)o2)n1
REMARK SMILES IDX 19 1 18 2 16 3 17 4 15 6 12 7 13 8 91 9 14 10 11 11 10 12
REMARK SMILES IDX 9 14 1 15 2 16 3 17 92 18 4 19 5 20 6 21 7 22 8 23 20 26
REMARK SMILES IDX 21 27 22 28 23 29 24 31 25 32 26 33 90 34 27 35 89 36 28 37
REMARK SMILES IDX 29 38 30 39 83 40 31 41 88 42 82 43 84 44 32 45 87 46 81 47
REMARK SMILES IDX 80 48 33 50 67 51 46 52 66 53 47 54 50 55 65 56 85 57 48 58
REMARK SMILES IDX 49 59 64 61 86 62 51 63 34 64 35 65 44 66 36 67 37 68 43 69
REMARK SMILES IDX 45 70 38 71 39 72 40 73 41 74 42 75 68 76 69 77 78 78 70 79
REMARK SMILES IDX 71 80 77 81 79 82 72 83 73 84 74 85 75 86 76 87 52 88 53 89
REMARK SMILES IDX 62 90 54 91 55 92 61 93 63 94 56 95 57 96 58 97 59 98 60 99
REMARK H PARENT 18 5 10 13 7 24 7 25 22 30 84 49 50 60
REMARK Flexibility Score: inf
ROOT
ATOM      1  C   UNL     1      -1.032   7.034  -5.478  1.00  0.00     0.118 C 
ENDROOT
BRANCH   1   2
ATOM      2  N   UNL     1      -1.007   7.799  -4.248  1.00  0.00    -0.349 N 
ATOM      3  C   UNL     1      -1.022   7.394  -2.933  1.00  0.00     0.286 C 
ATOM      4  O   UNL     1      -0.852   8.284  -2.097  1.00  0.00    -0.266 OA
ATOM      5  H   UNL     1      -0.974   8.775  -4.374  1.00  0.00     0.163 HD
BRANCH   3   6
ATOM      6  C   UNL     1      -1.206   5.999  -2.572  1.00  0.00     0.191 A 
ATOM      7  C   UNL     1      -1.065   4.307  -1.147  1.00  0.00     0.124 A 
ATOM      8  C   UNL     1      -1.590   3.791  -2.310  1.00  0.00     0.048 A 
ATOM      9  O   UNL     1      -0.825   5.638  -1.301  1.00  0.00    -0.454 OA
ATOM     10  C   UNL     1      -1.723   4.880  -3.203  1.00  0.00     0.056 A 
BRANCH   7  11
ATOM     11  C   UNL     1      -0.755   3.723   0.190  1.00  0.00     0.190 C 
BRANCH  11  12
ATOM     12  N   UNL     1      -1.534   2.532   0.492  1.00  0.00    -0.362 N 
ATOM     13  H   UNL     1      -2.448   2.628   0.846  1.00  0.00     0.162 HD
BRANCH  12  14
ATOM     14  C   UNL     1      -1.011   1.266   0.290  1.00  0.00     0.139 A 
ATOM     15  C   UNL     1       2.395  -0.102  -0.051  1.00  0.00     0.067 C 
ATOM     16  C   UNL     1       0.899  -0.063   0.026  1.00  0.00     0.040 A 
ATOM     17  C   UNL     1       0.148  -1.224  -0.063  1.00  0.00     0.024 A 
ATOM     18  N   UNL     1       0.335   1.159   0.181  1.00  0.00    -0.236 NA
ATOM     19  C   UNL     1      -1.235  -1.119   0.019  1.00  0.00     0.019 A 
ATOM     20  C   UNL     1      -1.833   0.136   0.188  1.00  0.00     0.081 A 
BRANCH  20  21
ATOM     21  C   UNL     1      -3.318   0.170   0.226  1.00  0.00     0.252 C 
ATOM     22  N   UNL     1      -3.944   1.315  -0.180  1.00  0.00    -0.365 N 
ATOM     23  O   UNL     1      -3.967  -0.809   0.572  1.00  0.00    -0.269 OA
ATOM     24  H   UNL     1      -3.412   2.096  -0.456  1.00  0.00     0.159 HD
ATOM     25  H   UNL     1      -4.927   1.359  -0.196  1.00  0.00     0.159 HD
ENDBRANCH  20  21
ENDBRANCH  12  14
ENDBRANCH  11  12
ENDBRANCH   7  11
ENDBRANCH   3   6
ENDBRANCH   1   2
BRANCH   1  26
ATOM     26  C   UNL     1      -2.412   7.049  -6.130  1.00  0.00     0.042 C 
BRANCH  26  27
ATOM     27  C   UNL     1      -2.730   8.365  -6.841  1.00  0.00     0.118 C 
BRANCH  27  28
ATOM     28  N   UNL     1      -1.866   8.584  -7.994  1.00  0.00    -0.352 N 
ATOM     29  C   UNL     1      -2.176   8.741  -9.322  1.00  0.00     0.251 C 
ATOM     30  H   UNL     1      -0.904   8.625  -7.788  1.00  0.00     0.163 HD
ATOM     31  O   UNL     1      -1.276   8.674 -10.156  1.00  0.00    -0.269 OA
BRANCH  29  32
ATOM     32  C   UNL     1      -3.569   8.982  -9.755  1.00  0.00     0.039 A 
ATOM     33  C   UNL     1      -4.025   8.374 -10.929  1.00  0.00     0.014 A 
ATOM     34  C   UNL     1      -4.409   9.846  -9.047  1.00  0.00     0.014 A 
ATOM     35  C   UNL     1      -5.336   8.587 -11.361  1.00  0.00     0.010 A 
ATOM     36  C   UNL     1      -5.737  10.004  -9.441  1.00  0.00     0.010 A 
ATOM     37  C   UNL     1      -6.213   9.380 -10.604  1.00  0.00    -0.014 A 
BRANCH  37  38
ATOM     38  C   UNL     1      -7.630   9.565 -11.008  1.00  0.00     0.031 A 
ATOM     39  C   UNL     1      -8.143  10.931 -11.379  1.00  0.00     0.074 A 
ATOM     40  C   UNL     1      -8.472   8.513 -10.971  1.00  0.00     0.049 A 
ATOM     41  N   UNL     1      -9.361  11.303 -11.676  1.00  0.00    -0.248 NA
ATOM     42  C   UNL     1      -7.161  12.027 -11.392  1.00  0.00     0.031 C 
ATOM     43  C   UNL     1      -8.104   7.149 -10.582  1.00  0.00     0.029 A 
ATOM     44  N   UNL     1      -9.813   8.426 -11.249  1.00  0.00    -0.354 N 
ATOM     45  C   UNL     1      -9.298  12.675 -11.890  1.00  0.00     0.074 A 
ATOM     46  C   UNL     1      -7.930  13.077 -11.646  1.00  0.00     0.031 C 
ATOM     47  C   UNL     1      -9.188   6.361 -10.660  1.00  0.00     0.029 A 
ATOM     48  C   UNL     1     -10.335   7.167 -11.068  1.00  0.00     0.049 A 
ATOM     49  H   UNL     1     -10.351   9.194 -11.551  1.00  0.00     0.167 HD
ATOM     50  C   UNL     1     -10.287  13.519 -12.273  1.00  0.00     0.037 A 
ATOM     51  C   UNL     1     -11.596   6.714 -11.202  1.00  0.00     0.037 A 
ATOM     52  C   UNL     1     -11.639  13.104 -12.544  1.00  0.00     0.049 A 
ATOM     53  C   UNL     1     -12.674   7.668 -11.639  1.00  0.00     0.074 A 
ATOM     54  C   UNL     1     -12.697  13.869 -13.005  1.00  0.00     0.029 A 
ATOM     55  N   UNL     1     -12.122  11.814 -12.377  1.00  0.00    -0.354 N 
ATOM     56  N   UNL     1     -12.582   8.950 -11.902  1.00  0.00    -0.248 NA
ATOM     57  C   UNL     1     -14.026   7.115 -11.802  1.00  0.00     0.031 C 
ATOM     58  C   UNL     1     -13.830  13.051 -13.076  1.00  0.00     0.029 A 
ATOM     59  C   UNL     1     -13.467  11.765 -12.706  1.00  0.00     0.049 A 
ATOM     60  H   UNL     1     -11.587  11.046 -12.071  1.00  0.00     0.167 HD
ATOM     61  C   UNL     1     -13.856   9.351 -12.289  1.00  0.00     0.074 A 
ATOM     62  C   UNL     1     -14.698   8.173 -12.235  1.00  0.00     0.031 C 
ATOM     63  C   UNL     1     -14.289  10.582 -12.655  1.00  0.00     0.037 A 
BRANCH  50  64
ATOM     64  C   UNL     1      -9.945  14.976 -12.425  1.00  0.00     0.058 A 
ATOM     65  C   UNL     1      -9.135  15.439 -13.474  1.00  0.00     0.135 A 
ATOM     66  C   UNL     1     -10.468  15.929 -11.535  1.00  0.00     0.135 A 
ATOM     67  F   UNL     1      -8.597  14.571 -14.346  1.00  0.00    -0.206 F 
ATOM     68  C   UNL     1      -8.831  16.789 -13.619  1.00  0.00     0.059 A 
ATOM     69  C   UNL     1     -10.200  17.287 -11.677  1.00  0.00     0.059 A 
ATOM     70  F   UNL     1     -11.249  15.543 -10.514  1.00  0.00    -0.206 F 
ATOM     71  C   UNL     1      -9.369  17.706 -12.714  1.00  0.00     0.060 A 
BRANCH  71  72
ATOM     72  S   UNL     1      -8.971  19.455 -12.921  1.00  0.00     0.124 S 
ATOM     73  O   UNL     1      -7.582  19.491 -12.473  1.00  0.00    -0.237 OA
ATOM     74  O   UNL     1      -9.180  19.657 -14.351  1.00  0.00    -0.237 OA
ATOM     75  O   UNL     1      -9.928  20.127 -12.048  1.00  0.00    -0.744 OA
ENDBRANCH  71  72
ENDBRANCH  50  64
BRANCH  51  76
ATOM     76  C   UNL     1     -11.904   5.283 -10.937  1.00  0.00     0.058 A 
ATOM     77  C   UNL     1     -12.230   4.410 -11.986  1.00  0.00     0.135 A 
ATOM     78  C   UNL     1     -11.866   4.758  -9.636  1.00  0.00     0.135 A 
ATOM     79  F   UNL     1     -12.284   4.867 -13.246  1.00  0.00    -0.206 F 
ATOM     80  C   UNL     1     -12.524   3.071 -11.754  1.00  0.00     0.059 A 
ATOM     81  C   UNL     1     -12.132   3.416  -9.382  1.00  0.00     0.059 A 
ATOM     82  F   UNL     1     -11.541   5.547  -8.601  1.00  0.00    -0.206 F 
ATOM     83  C   UNL     1     -12.471   2.582 -10.447  1.00  0.00     0.060 A 
BRANCH  83  84
ATOM     84  S   UNL     1     -12.810   0.832 -10.162  1.00  0.00     0.124 S 
ATOM     85  O   UNL     1     -14.257   0.781 -10.332  1.00  0.00    -0.237 OA
ATOM     86  O   UNL     1     -12.020   0.192 -11.209  1.00  0.00    -0.237 OA
ATOM     87  O   UNL     1     -12.325   0.615  -8.802  1.00  0.00    -0.744 OA
ENDBRANCH  83  84
ENDBRANCH  51  76
BRANCH  63  88
ATOM     88  C   UNL     1     -15.730  10.716 -13.061  1.00  0.00     0.058 A 
ATOM     89  C   UNL     1     -16.770  10.671 -12.120  1.00  0.00     0.135 A 
ATOM     90  C   UNL     1     -16.071  10.943 -14.405  1.00  0.00     0.135 A 
ATOM     91  F   UNL     1     -16.498  10.449 -10.824  1.00  0.00    -0.206 F 
ATOM     92  C   UNL     1     -18.099  10.826 -12.498  1.00  0.00     0.059 A 
ATOM     93  C   UNL     1     -17.391  11.128 -14.802  1.00  0.00     0.059 A 
ATOM     94  F   UNL     1     -15.113  11.005 -15.344  1.00  0.00    -0.206 F 
ATOM     95  C   UNL     1     -18.400  11.056 -13.842  1.00  0.00     0.060 A 
BRANCH  95  96
ATOM     96  S   UNL     1     -20.126  11.291 -14.316  1.00  0.00     0.124 S 
ATOM     97  O   UNL     1     -20.640   9.927 -14.239  1.00  0.00    -0.237 OA
ATOM     98  O   UNL     1     -20.610  12.210 -13.291  1.00  0.00    -0.237 OA
ATOM     99  O   UNL     1     -20.036  11.853 -15.661  1.00  0.00    -0.744 OA
ENDBRANCH  95  96
ENDBRANCH  63  88
ENDBRANCH  37  38
ENDBRANCH  29  32
ENDBRANCH  27  28
ENDBRANCH  26  27
ENDBRANCH   1  26
TORSDOF 17
