REMARK SMILES C[C@H]1C[NH+](CC[C@@H]2CCC[C@]2([NH3+])C(=O)NCCCNC(=O)c2ccc(-c3c4nc(c(-c5c(F)cc(S(=O)(=O)[O-])cc5F)c5ccc([nH]5)c(-c5c(F)cc(S(=O)(=O)[O-])cc5F)c5nc(c(-c6c(F)cc(S(=O)(=O)[O-])cc6F)c6ccc3[nH]6)C=C5)C=C4)cc2)C[C@H](C)O1
REMARK SMILES IDX 17 1 16 2 15 3 13 4 14 5 11 7 7 8 8 9 9 10 10 11 6 12 5 13
REMARK SMILES IDX 4 14 1 15 2 16 3 17 91 18 89 19 88 20 90 22 12 23 18 27
REMARK SMILES IDX 19 28 20 29 21 31 22 32 23 33 87 34 24 35 86 36 25 37 26 38
REMARK SMILES IDX 27 39 80 40 28 41 85 42 79 43 81 44 29 45 84 46 78 47 77 48
REMARK SMILES IDX 30 50 64 51 43 52 63 53 44 54 47 55 62 56 82 57 45 58 46 59
REMARK SMILES IDX 61 61 83 62 48 63 31 64 32 65 41 66 33 67 34 68 40 69 42 70
REMARK SMILES IDX 35 71 36 72 37 73 38 74 39 75 65 76 66 77 75 78 67 79 68 80
REMARK SMILES IDX 74 81 76 82 69 83 70 84 71 85 72 86 73 87 49 88 50 89 59 90
REMARK SMILES IDX 51 91 52 92 58 93 60 94 53 95 54 96 55 97 56 98 57 99
REMARK H PARENT 15 6 4 21 12 24 12 25 12 26 19 30 81 49 47 60
REMARK Flexibility Score: inf
ROOT
ATOM      1  C   UNL     1      -5.698   1.569  -0.530  1.00  0.00     0.042 C 
ENDROOT
BRANCH   1   2
ATOM      2  C   UNL     1      -5.482   3.047  -0.833  1.00  0.00     0.118 C 
BRANCH   2   3
ATOM      3  N   UNL     1      -5.849   3.898   0.286  1.00  0.00    -0.351 N 
ATOM      4  C   UNL     1      -5.141   4.735   1.090  1.00  0.00     0.281 C 
ATOM      5  O   UNL     1      -5.825   5.378   1.898  1.00  0.00    -0.268 OA
ATOM      6  H   UNL     1      -6.808   3.861   0.508  1.00  0.00     0.163 HD
BRANCH   4   7
ATOM      7  C   UNL     1      -3.576   4.897   1.047  1.00  0.00     0.177 C 
ATOM      8  C   UNL     1      -2.778   3.910   1.934  1.00  0.00     0.066 C 
ATOM      9  C   UNL     1      -3.131   4.375   3.354  1.00  0.00     0.011 C 
ATOM     10  C   UNL     1      -3.164   5.899   3.259  1.00  0.00     0.008 C 
ATOM     11  C   UNL     1      -3.208   6.228   1.760  1.00  0.00     0.079 C 
BRANCH   8  12
ATOM     12  C   UNL     1      -2.958   2.400   1.786  1.00  0.00     0.072 C 
BRANCH  12  13
ATOM     13  C   UNL     1      -2.368   1.745   0.523  1.00  0.00     0.262 C 
BRANCH  13  14
ATOM     14  N   UNL     1      -0.934   1.449   0.449  1.00  0.00    -0.331 N 
ATOM     15  C   UNL     1       1.539  -0.718   2.396  1.00  0.00     0.045 C 
ATOM     16  C   UNL     1       1.015   0.112   1.228  1.00  0.00     0.170 C 
ATOM     17  C   UNL     1      -0.462   0.504   1.471  1.00  0.00     0.294 C 
ATOM     18  O   UNL     1       1.876   1.262   1.111  1.00  0.00    -0.364 OA
ATOM     19  C   UNL     1       1.408   2.221   0.149  1.00  0.00     0.170 C 
ATOM     20  C   UNL     1      -0.054   2.618   0.434  1.00  0.00     0.294 C 
ATOM     21  H   UNL     1      -0.866   1.005  -0.467  1.00  0.00     0.348 HD
ATOM     22  C   UNL     1       1.635   1.745  -1.283  1.00  0.00     0.045 C 
ENDBRANCH  13  14
ENDBRANCH  12  13
ENDBRANCH   8  12
BRANCH   7  23
ATOM     23  N   UNL     1      -3.102   4.975  -0.345  1.00  0.00    -0.345 N 
ATOM     24  H   UNL     1      -2.087   5.079  -0.353  1.00  0.00     0.345 HD
ATOM     25  H   UNL     1      -3.530   5.777  -0.806  1.00  0.00     0.345 HD
ATOM     26  H   UNL     1      -3.360   4.121  -0.840  1.00  0.00     0.345 HD
ENDBRANCH   7  23
ENDBRANCH   4   7
ENDBRANCH   2   3
ENDBRANCH   1   2
BRANCH   1  27
ATOM     27  C   UNL     1      -7.155   1.170  -0.361  1.00  0.00     0.118 C 
BRANCH  27  28
ATOM     28  N   UNL     1      -7.822   1.003  -1.639  1.00  0.00    -0.352 N 
ATOM     29  C   UNL     1      -8.370  -0.124  -2.201  1.00  0.00     0.251 C 
ATOM     30  H   UNL     1      -7.891   1.820  -2.185  1.00  0.00     0.163 HD
ATOM     31  O   UNL     1      -8.658  -0.107  -3.396  1.00  0.00    -0.269 OA
BRANCH  29  32
ATOM     32  C   UNL     1      -8.615  -1.349  -1.398  1.00  0.00     0.039 A 
ATOM     33  C   UNL     1      -8.498  -2.594  -2.027  1.00  0.00     0.014 A 
ATOM     34  C   UNL     1      -9.041  -1.292  -0.068  1.00  0.00     0.014 A 
ATOM     35  C   UNL     1      -8.804  -3.765  -1.328  1.00  0.00     0.010 A 
ATOM     36  C   UNL     1      -9.255  -2.464   0.657  1.00  0.00     0.010 A 
ATOM     37  C   UNL     1      -9.186  -3.712   0.022  1.00  0.00    -0.014 A 
BRANCH  37  38
ATOM     38  C   UNL     1      -9.614  -4.939   0.745  1.00  0.00     0.031 A 
ATOM     39  C   UNL     1     -11.039  -5.065   1.227  1.00  0.00     0.074 A 
ATOM     40  C   UNL     1      -8.733  -5.930   0.983  1.00  0.00     0.049 A 
ATOM     41  N   UNL     1     -11.608  -6.043   1.885  1.00  0.00    -0.248 NA
ATOM     42  C   UNL     1     -11.936  -3.928   0.961  1.00  0.00     0.031 C 
ATOM     43  C   UNL     1      -7.315  -5.909   0.616  1.00  0.00     0.029 A 
ATOM     44  N   UNL     1      -8.901  -7.150   1.588  1.00  0.00    -0.354 N 
ATOM     45  C   UNL     1     -12.914  -5.629   2.128  1.00  0.00     0.074 A 
ATOM     46  C   UNL     1     -13.037  -4.289   1.601  1.00  0.00     0.031 C 
ATOM     47  C   UNL     1      -6.752  -7.074   0.975  1.00  0.00     0.029 A 
ATOM     48  C   UNL     1      -7.759  -7.915   1.616  1.00  0.00     0.049 A 
ATOM     49  H   UNL     1      -9.759  -7.449   1.967  1.00  0.00     0.167 HD
ATOM     50  C   UNL     1     -13.930  -6.312   2.708  1.00  0.00     0.037 A 
ATOM     51  C   UNL     1      -7.552  -9.158   2.093  1.00  0.00     0.037 A 
ATOM     52  C   UNL     1     -13.820  -7.665   3.186  1.00  0.00     0.049 A 
ATOM     53  C   UNL     1      -8.709  -9.920   2.682  1.00  0.00     0.074 A 
ATOM     54  C   UNL     1     -14.800  -8.466   3.743  1.00  0.00     0.029 A 
ATOM     55  N   UNL     1     -12.658  -8.422   3.148  1.00  0.00    -0.354 N 
ATOM     56  N   UNL     1      -9.949  -9.531   2.857  1.00  0.00    -0.248 NA
ATOM     57  C   UNL     1      -8.443 -11.298   3.119  1.00  0.00     0.031 C 
ATOM     58  C   UNL     1     -14.226  -9.702   4.063  1.00  0.00     0.029 A 
ATOM     59  C   UNL     1     -12.897  -9.681   3.671  1.00  0.00     0.049 A 
ATOM     60  H   UNL     1     -11.791  -8.110   2.800  1.00  0.00     0.167 HD
ATOM     61  C   UNL     1     -10.619 -10.625   3.394  1.00  0.00     0.074 A 
ATOM     62  C   UNL     1      -9.647 -11.694   3.507  1.00  0.00     0.031 C 
ATOM     63  C   UNL     1     -11.921 -10.737   3.757  1.00  0.00     0.037 A 
BRANCH  50  64
ATOM     64  C   UNL     1     -15.253  -5.608   2.842  1.00  0.00     0.058 A 
ATOM     65  C   UNL     1     -16.056  -5.331   1.724  1.00  0.00     0.135 A 
ATOM     66  C   UNL     1     -15.731  -5.216   4.103  1.00  0.00     0.135 A 
ATOM     67  F   UNL     1     -15.640  -5.668   0.493  1.00  0.00    -0.206 F 
ATOM     68  C   UNL     1     -17.268  -4.659   1.846  1.00  0.00     0.059 A 
ATOM     69  C   UNL     1     -16.954  -4.567   4.252  1.00  0.00     0.059 A 
ATOM     70  F   UNL     1     -15.005  -5.455   5.206  1.00  0.00    -0.206 F 
ATOM     71  C   UNL     1     -17.707  -4.276   3.114  1.00  0.00     0.060 A 
BRANCH  71  72
ATOM     72  S   UNL     1     -19.278  -3.399   3.257  1.00  0.00     0.124 S 
ATOM     73  O   UNL     1     -18.908  -2.064   2.796  1.00  0.00    -0.237 OA
ATOM     74  O   UNL     1     -20.146  -4.159   2.364  1.00  0.00    -0.237 OA
ATOM     75  O   UNL     1     -19.598  -3.506   4.678  1.00  0.00    -0.744 OA
ENDBRANCH  71  72
ENDBRANCH  50  64
BRANCH  51  76
ATOM     76  C   UNL     1      -6.206  -9.780   1.983  1.00  0.00     0.058 A 
ATOM     77  C   UNL     1      -5.962 -10.813   1.066  1.00  0.00     0.135 A 
ATOM     78  C   UNL     1      -5.135  -9.346   2.779  1.00  0.00     0.135 A 
ATOM     79  F   UNL     1      -6.956 -11.265   0.286  1.00  0.00    -0.206 F 
ATOM     80  C   UNL     1      -4.710 -11.409   0.954  1.00  0.00     0.059 A 
ATOM     81  C   UNL     1      -3.868  -9.910   2.669  1.00  0.00     0.059 A 
ATOM     82  F   UNL     1      -5.312  -8.347   3.658  1.00  0.00    -0.206 F 
ATOM     83  C   UNL     1      -3.668 -10.948   1.760  1.00  0.00     0.060 A 
BRANCH  83  84
ATOM     84  S   UNL     1      -2.032 -11.692   1.573  1.00  0.00     0.124 S 
ATOM     85  O   UNL     1      -2.211 -12.969   2.253  1.00  0.00    -0.237 OA
ATOM     86  O   UNL     1      -1.887 -11.756   0.121  1.00  0.00    -0.237 OA
ATOM     87  O   UNL     1      -1.153 -10.736   2.240  1.00  0.00    -0.744 OA
ENDBRANCH  83  84
ENDBRANCH  51  76
BRANCH  63  88
ATOM     88  C   UNL     1     -12.382 -12.074   4.264  1.00  0.00     0.058 A 
ATOM     89  C   UNL     1     -12.034 -12.541   5.541  1.00  0.00     0.135 A 
ATOM     90  C   UNL     1     -13.213 -12.882   3.472  1.00  0.00     0.135 A 
ATOM     91  F   UNL     1     -11.239 -11.806   6.336  1.00  0.00    -0.206 F 
ATOM     92  C   UNL     1     -12.470 -13.778   6.004  1.00  0.00     0.059 A 
ATOM     93  C   UNL     1     -13.680 -14.111   3.925  1.00  0.00     0.059 A 
ATOM     94  F   UNL     1     -13.585 -12.475   2.248  1.00  0.00    -0.206 F 
ATOM     95  C   UNL     1     -13.290 -14.558   5.186  1.00  0.00     0.060 A 
BRANCH  95  96
ATOM     96  S   UNL     1     -13.863 -16.156   5.801  1.00  0.00     0.124 S 
ATOM     97  O   UNL     1     -12.675 -16.982   5.620  1.00  0.00    -0.237 OA
ATOM     98  O   UNL     1     -14.220 -15.852   7.184  1.00  0.00    -0.237 OA
ATOM     99  O   UNL     1     -14.988 -16.471   4.926  1.00  0.00    -0.744 OA
ENDBRANCH  95  96
ENDBRANCH  63  88
ENDBRANCH  37  38
ENDBRANCH  29  32
ENDBRANCH  27  28
ENDBRANCH   1  27
TORSDOF 17
