REMARK SMILES NS(=O)(=O)c1ccc(-c2cc(Cl)cc3c2O[C@H](C(F)(F)F)C(C(=O)NCCCNC(=O)c2ccc(-c4c5nc(c(-c6c(F)cc(S(=O)(=O)[O-])cc6F)c6ccc([nH]6)c(-c6c(F)cc(S(=O)(=O)[O-])cc6F)c6nc(c(-c7c(F)cc(S(=O)(=O)[O-])cc7F)c7ccc4[nH]7)C=C6)C=C5)cc2)=C3)cc1
REMARK SMILES IDX 27 1 26 2 25 3 23 4 24 5 22 7 9 8 10 9 15 10 11 11 14 12
REMARK SMILES IDX 16 13 12 14 13 15 98 16 17 17 8 18 5 19 6 20 100 21 7 22
REMARK SMILES IDX 99 23 2 24 3 25 4 26 1 27 18 30 19 31 20 32 21 33 28 34
REMARK SMILES IDX 29 35 30 36 31 38 32 39 33 40 97 41 34 42 96 43 35 44 36 45
REMARK SMILES IDX 37 46 90 47 38 48 95 49 89 50 91 51 39 52 94 53 88 54 87 55
REMARK SMILES IDX 40 57 74 58 53 59 73 60 54 61 57 62 72 63 92 64 55 65 56 66
REMARK SMILES IDX 71 68 93 69 58 70 41 71 42 72 51 73 43 74 44 75 50 76 52 77
REMARK SMILES IDX 45 78 46 79 47 80 48 81 49 82 75 83 76 84 85 85 77 86 78 87
REMARK SMILES IDX 84 88 86 89 79 90 80 91 81 92 82 93 83 94 59 95 60 96 69 97
REMARK SMILES IDX 61 98 62 99 68 100 70 101 63 102 64 103 65 104 66 105 67 106
REMARK H PARENT 25 6 1 28 1 29 29 37 91 56 57 67
REMARK Flexibility Score: inf
ROOT
ATOM      1  C   UNL     1      -0.111 -12.276   9.046  1.00  0.00     0.042 C 
ENDROOT
BRANCH   1   2
ATOM      2  C   UNL     1       0.971 -11.194   9.048  1.00  0.00     0.118 C 
BRANCH   2   3
ATOM      3  N   UNL     1       1.376 -10.897   7.688  1.00  0.00    -0.352 N 
ATOM      4  C   UNL     1       1.285  -9.712   7.037  1.00  0.00     0.251 C 
ATOM      5  O   UNL     1       1.048  -9.692   5.834  1.00  0.00    -0.270 OA
ATOM      6  H   UNL     1       1.764 -11.644   7.177  1.00  0.00     0.163 HD
BRANCH   4   7
ATOM      7  C   UNL     1       1.606  -8.475   7.810  1.00  0.00     0.067 C 
ATOM      8  C   UNL     1       1.693  -5.832   4.716  1.00  0.00     0.026 A 
ATOM      9  C   UNL     1       2.522  -6.347   3.688  1.00  0.00     0.033 A 
ATOM     10  C   UNL     1       1.778  -6.460   5.968  1.00  0.00     0.135 A 
ATOM     11  C   UNL     1       3.465  -7.347   3.920  1.00  0.00     0.042 A 
ATOM     12  C   UNL     1       2.807  -7.404   6.210  1.00  0.00     0.019 A 
ATOM     13  O   UNL     1       0.868  -6.210   6.981  1.00  0.00    -0.475 OA
ATOM     14  Cl  UNL     1       4.420  -7.936   2.616  1.00  0.00    -0.084 Cl
ATOM     15  C   UNL     1       3.651  -7.847   5.196  1.00  0.00     0.032 A 
ATOM     16  C   UNL     1       2.856  -8.042   7.545  1.00  0.00     0.025 C 
ATOM     17  C   UNL     1       0.507  -7.418   7.768  1.00  0.00     0.314 C 
BRANCH   8  18
ATOM     18  C   UNL     1       0.966  -4.583   4.389  1.00  0.00    -0.015 A 
ATOM     19  C   UNL     1       0.460  -2.080   3.202  1.00  0.00     0.082 A 
ATOM     20  C   UNL     1      -0.035  -3.239   2.603  1.00  0.00     0.022 A 
ATOM     21  C   UNL     1       1.090  -2.143   4.446  1.00  0.00     0.022 A 
ATOM     22  C   UNL     1       0.206  -4.481   3.205  1.00  0.00     0.010 A 
ATOM     23  C   UNL     1       1.328  -3.390   5.040  1.00  0.00     0.010 A 
BRANCH  19  24
ATOM     24  S   UNL     1       0.390  -0.546   2.320  1.00  0.00     0.238 S 
ATOM     25  O   UNL     1       1.236   0.426   2.978  1.00  0.00    -0.207 OA
ATOM     26  O   UNL     1      -0.978  -0.269   1.959  1.00  0.00    -0.207 OA
BRANCH  24  27
ATOM     27  N   UNL     1       1.192  -0.904   0.883  1.00  0.00    -0.225 NA
ATOM     28  H   UNL     1       1.211  -0.076   0.288  1.00  0.00     0.137 HD
ATOM     29  H   UNL     1       0.704  -1.659   0.400  1.00  0.00     0.137 HD
ENDBRANCH  24  27
ENDBRANCH  19  24
ENDBRANCH   8  18
BRANCH  17  30
ATOM     30  C   UNL     1       0.113  -7.043   9.212  1.00  0.00     0.429 C 
ATOM     31  F   UNL     1       0.501  -5.791   9.547  1.00  0.00    -0.167 F 
ATOM     32  F   UNL     1      -1.226  -7.118   9.392  1.00  0.00    -0.167 F 
ATOM     33  F   UNL     1       0.669  -7.874  10.134  1.00  0.00    -0.167 F 
ENDBRANCH  17  30
ENDBRANCH   4   7
ENDBRANCH   2   3
ENDBRANCH   1   2
BRANCH   1  34
ATOM     34  C   UNL     1       0.338 -13.625   8.485  1.00  0.00     0.118 C 
BRANCH  34  35
ATOM     35  N   UNL     1       1.391 -14.251   9.270  1.00  0.00    -0.352 N 
ATOM     36  C   UNL     1       1.476 -15.549   9.714  1.00  0.00     0.251 C 
ATOM     37  H   UNL     1       2.143 -13.665   9.517  1.00  0.00     0.163 HD
ATOM     38  O   UNL     1       2.374 -15.875  10.485  1.00  0.00    -0.269 OA
BRANCH  36  39
ATOM     39  C   UNL     1       0.464 -16.537   9.283  1.00  0.00     0.039 A 
ATOM     40  C   UNL     1      -0.152 -17.338  10.247  1.00  0.00     0.014 A 
ATOM     41  C   UNL     1       0.108 -16.654   7.937  1.00  0.00     0.014 A 
ATOM     42  C   UNL     1      -1.177 -18.209   9.869  1.00  0.00     0.010 A 
ATOM     43  C   UNL     1      -0.961 -17.469   7.574  1.00  0.00     0.010 A 
ATOM     44  C   UNL     1      -1.617 -18.254   8.536  1.00  0.00    -0.014 A 
BRANCH  44  45
ATOM     45  C   UNL     1      -2.754 -19.117   8.120  1.00  0.00     0.031 A 
ATOM     46  C   UNL     1      -2.529 -20.229   7.130  1.00  0.00     0.074 A 
ATOM     47  C   UNL     1      -3.996 -18.860   8.577  1.00  0.00     0.049 A 
ATOM     48  N   UNL     1      -3.403 -21.012   6.553  1.00  0.00    -0.248 NA
ATOM     49  C   UNL     1      -1.138 -20.473   6.713  1.00  0.00     0.031 C 
ATOM     50  C   UNL     1      -4.353 -17.789   9.512  1.00  0.00     0.029 A 
ATOM     51  N   UNL     1      -5.195 -19.472   8.307  1.00  0.00    -0.354 N 
ATOM     52  C   UNL     1      -2.673 -21.828   5.697  1.00  0.00     0.074 A 
ATOM     53  C   UNL     1      -1.291 -21.409   5.788  1.00  0.00     0.031 C 
ATOM     54  C   UNL     1      -5.673 -17.834   9.752  1.00  0.00     0.029 A 
ATOM     55  C   UNL     1      -6.266 -18.906   8.959  1.00  0.00     0.049 A 
ATOM     56  H   UNL     1      -5.281 -20.244   7.703  1.00  0.00     0.167 HD
ATOM     57  C   UNL     1      -3.109 -22.852   4.924  1.00  0.00     0.037 A 
ATOM     58  C   UNL     1      -7.579 -19.211   8.915  1.00  0.00     0.037 A 
ATOM     59  C   UNL     1      -4.479 -23.287   4.860  1.00  0.00     0.049 A 
ATOM     60  C   UNL     1      -8.039 -20.348   8.042  1.00  0.00     0.074 A 
ATOM     61  C   UNL     1      -5.017 -24.334   4.132  1.00  0.00     0.029 A 
ATOM     62  N   UNL     1      -5.527 -22.707   5.560  1.00  0.00    -0.354 N 
ATOM     63  N   UNL     1      -7.328 -21.130   7.264  1.00  0.00    -0.248 NA
ATOM     64  C   UNL     1      -9.477 -20.649   8.043  1.00  0.00     0.031 C 
ATOM     65  C   UNL     1      -6.395 -24.369   4.370  1.00  0.00     0.029 A 
ATOM     66  C   UNL     1      -6.708 -23.371   5.278  1.00  0.00     0.049 A 
ATOM     67  H   UNL     1      -5.443 -21.936   6.167  1.00  0.00     0.167 HD
ATOM     68  C   UNL     1      -8.227 -22.037   6.714  1.00  0.00     0.074 A 
ATOM     69  C   UNL     1      -9.532 -21.711   7.251  1.00  0.00     0.031 C 
ATOM     70  C   UNL     1      -7.994 -23.050   5.844  1.00  0.00     0.037 A 
BRANCH  57  71
ATOM     71  C   UNL     1      -2.089 -23.587   4.099  1.00  0.00     0.058 A 
ATOM     72  C   UNL     1      -1.138 -24.432   4.695  1.00  0.00     0.135 A 
ATOM     73  C   UNL     1      -2.085 -23.482   2.699  1.00  0.00     0.135 A 
ATOM     74  F   UNL     1      -1.086 -24.555   6.031  1.00  0.00    -0.206 F 
ATOM     75  C   UNL     1      -0.204 -25.127   3.935  1.00  0.00     0.059 A 
ATOM     76  C   UNL     1      -1.177 -24.190   1.916  1.00  0.00     0.059 A 
ATOM     77  F   UNL     1      -2.971 -22.688   2.078  1.00  0.00    -0.206 F 
ATOM     78  C   UNL     1      -0.232 -25.000   2.545  1.00  0.00     0.060 A 
BRANCH  78  79
ATOM     79  S   UNL     1       0.979 -25.921   1.573  1.00  0.00     0.124 S 
ATOM     80  O   UNL     1       2.199 -25.164   1.837  1.00  0.00    -0.237 OA
ATOM     81  O   UNL     1       0.915 -27.250   2.172  1.00  0.00    -0.237 OA
ATOM     82  O   UNL     1       0.465 -25.825   0.210  1.00  0.00    -0.744 OA
ENDBRANCH  78  79
ENDBRANCH  57  71
BRANCH  58  83
ATOM     83  C   UNL     1      -8.557 -18.445   9.734  1.00  0.00     0.058 A 
ATOM     84  C   UNL     1      -9.202 -19.043  10.827  1.00  0.00     0.135 A 
ATOM     85  C   UNL     1      -8.883 -17.114   9.432  1.00  0.00     0.135 A 
ATOM     86  F   UNL     1      -8.928 -20.315  11.153  1.00  0.00    -0.206 F 
ATOM     87  C   UNL     1     -10.158 -18.361  11.573  1.00  0.00     0.059 A 
ATOM     88  C   UNL     1      -9.817 -16.402  10.179  1.00  0.00     0.059 A 
ATOM     89  F   UNL     1      -8.281 -16.489   8.408  1.00  0.00    -0.206 F 
ATOM     90  C   UNL     1     -10.461 -17.040  11.238  1.00  0.00     0.060 A 
BRANCH  90  91
ATOM     91  S   UNL     1     -11.691 -16.156  12.222  1.00  0.00     0.124 S 
ATOM     92  O   UNL     1     -12.932 -16.754  11.745  1.00  0.00    -0.237 OA
ATOM     93  O   UNL     1     -11.299 -16.499  13.586  1.00  0.00    -0.237 OA
ATOM     94  O   UNL     1     -11.476 -14.761  11.849  1.00  0.00    -0.744 OA
ENDBRANCH  90  91
ENDBRANCH  58  83
BRANCH  70  95
ATOM     95  C   UNL     1      -9.158 -23.919   5.460  1.00  0.00     0.058 A 
ATOM     96  C   UNL     1     -10.154 -23.474   4.578  1.00  0.00     0.135 A 
ATOM     97  C   UNL     1      -9.241 -25.239   5.934  1.00  0.00     0.135 A 
ATOM     98  F   UNL     1     -10.124 -22.218   4.103  1.00  0.00    -0.206 F 
ATOM     99  C   UNL     1     -11.202 -24.302   4.190  1.00  0.00     0.059 A 
ATOM    100  C   UNL     1     -10.265 -26.093   5.539  1.00  0.00     0.059 A 
ATOM    101  F   UNL     1      -8.307 -25.716   6.773  1.00  0.00    -0.206 F 
ATOM    102  C   UNL     1     -11.247 -25.612   4.674  1.00  0.00     0.060 A 
BRANCH 102 103
ATOM    103  S   UNL     1     -12.585 -26.692   4.125  1.00  0.00     0.124 S 
ATOM    104  O   UNL     1     -13.713 -26.177   4.895  1.00  0.00    -0.237 OA
ATOM    105  O   UNL     1     -12.627 -26.434   2.689  1.00  0.00    -0.237 OA
ATOM    106  O   UNL     1     -12.123 -28.024   4.503  1.00  0.00    -0.744 OA
ENDBRANCH 102 103
ENDBRANCH  70  95
ENDBRANCH  44  45
ENDBRANCH  36  39
ENDBRANCH  34  35
ENDBRANCH   1  34
TORSDOF 17
