REMARK SMILES O=C(CCCN1C(=O)C(=O)/C(=C(/[O-])c2ccccc2)[C@@H]1/C=C/c1ccccc1)NCCCNC(=O)c1ccc(-c2c3nc(c(-c4c(F)cc(S(=O)(=O)[O-])cc4F)c4ccc([nH]4)c(-c4c(F)cc(S(=O)(=O)[O-])cc4F)c4nc(c(-c5c(F)cc(S(=O)(=O)[O-])cc5F)c5ccc2[nH]5)C=C4)C=C3)cc1
REMARK SMILES IDX 30 1 29 2 1 3 2 4 3 6 4 7 5 8 6 9 7 10 20 11 8 12 9 13 11 14
REMARK SMILES IDX 10 15 12 16 13 17 21 18 22 19 23 20 24 21 28 22 25 23 27 24
REMARK SMILES IDX 26 25 14 26 15 27 19 28 16 29 18 30 17 31 31 32 32 33 33 34
REMARK SMILES IDX 34 35 35 37 36 38 37 39 101 40 38 41 100 42 39 43 40 44
REMARK SMILES IDX 41 45 94 46 42 47 99 48 93 49 95 50 43 51 98 52 92 53 91 54
REMARK SMILES IDX 44 56 78 57 57 58 77 59 58 60 61 61 76 62 96 63 59 64 60 65
REMARK SMILES IDX 75 67 97 68 62 69 45 70 46 71 55 72 47 73 48 74 54 75 56 76
REMARK SMILES IDX 49 77 50 78 51 79 52 80 53 81 79 82 80 83 89 84 81 85 82 86
REMARK SMILES IDX 88 87 90 88 83 89 84 90 85 91 86 92 87 93 63 94 64 95 73 96
REMARK SMILES IDX 65 97 66 98 72 99 74 100 67 101 68 102 69 103 70 104 71 105
REMARK H PARENT 29 5 33 36 95 55 61 66
REMARK Flexibility Score: inf
ROOT
ATOM      1  C   UNL     1       1.788   1.289   2.516  1.00  0.00     0.117 C 
ENDROOT
BRANCH   1   2
ATOM      2  N   UNL     1       2.257   0.609   1.328  1.00  0.00    -0.356 N 
ATOM      3  O   UNL     1       0.843   1.669  -0.142  1.00  0.00    -0.275 OA
ATOM      4  C   UNL     1       1.736   0.862   0.081  1.00  0.00     0.220 C 
ATOM      5  H   UNL     1       2.976  -0.059   1.416  1.00  0.00     0.163 HD
BRANCH   4   6
ATOM      6  C   UNL     1       2.370   0.023  -1.006  1.00  0.00     0.102 C 
BRANCH   6   7
ATOM      7  C   UNL     1       3.637   0.643  -1.593  1.00  0.00     0.031 C 
BRANCH   7   8
ATOM      8  C   UNL     1       4.879   0.661  -0.693  1.00  0.00     0.121 C 
BRANCH   8   9
ATOM      9  N   UNL     1       5.771  -0.501  -0.744  1.00  0.00    -0.325 N 
ATOM     10  C   UNL     1       7.137  -0.309  -0.871  1.00  0.00     0.295 C 
ATOM     11  C   UNL     1       5.446  -1.850  -0.298  1.00  0.00     0.143 C 
ATOM     12  O   UNL     1       7.733   0.726  -1.097  1.00  0.00    -0.265 OA
ATOM     13  C   UNL     1       7.817  -1.644  -0.601  1.00  0.00     0.248 C 
ATOM     14  C   UNL     1       6.754  -2.599  -0.187  1.00  0.00     0.024 C 
ATOM     15  O   UNL     1       9.008  -1.828  -0.721  1.00  0.00    -0.283 OA
ATOM     16  C   UNL     1       6.941  -3.895   0.134  1.00  0.00    -0.092 C 
ATOM     17  O   UNL     1       5.916  -4.758   0.478  1.00  0.00    -0.872 OA
BRANCH  11  18
ATOM     18  C   UNL     1       4.498  -2.512  -1.259  1.00  0.00     0.003 C 
ATOM     19  C   UNL     1       4.744  -2.828  -2.541  1.00  0.00     0.006 C 
BRANCH  19  20
ATOM     20  C   UNL     1       3.691  -3.414  -3.369  1.00  0.00    -0.026 A 
ATOM     21  C   UNL     1       3.579  -4.798  -3.519  1.00  0.00     0.008 A 
ATOM     22  C   UNL     1       2.756  -2.574  -3.986  1.00  0.00     0.008 A 
ATOM     23  C   UNL     1       2.541  -5.335  -4.287  1.00  0.00     0.001 A 
ATOM     24  C   UNL     1       1.719  -3.111  -4.748  1.00  0.00     0.001 A 
ATOM     25  C   UNL     1       1.613  -4.492  -4.899  1.00  0.00     0.000 A 
ENDBRANCH  19  20
ENDBRANCH  11  18
BRANCH  16  26
ATOM     26  C   UNL     1       8.231  -4.599   0.060  1.00  0.00    -0.033 A 
ATOM     27  C   UNL     1       8.392  -5.611  -0.899  1.00  0.00     0.007 A 
ATOM     28  C   UNL     1       9.292  -4.309   0.925  1.00  0.00     0.007 A 
ATOM     29  C   UNL     1       9.601  -6.298  -1.014  1.00  0.00     0.001 A 
ATOM     30  C   UNL     1      10.505  -4.993   0.805  1.00  0.00     0.001 A 
ATOM     31  C   UNL     1      10.660  -5.983  -0.165  1.00  0.00     0.000 A 
ENDBRANCH  16  26
ENDBRANCH   8   9
ENDBRANCH   7   8
ENDBRANCH   6   7
ENDBRANCH   4   6
ENDBRANCH   1   2
BRANCH   1  32
ATOM     32  C   UNL     1       2.195   0.559   3.791  1.00  0.00     0.042 C 
BRANCH  32  33
ATOM     33  C   UNL     1       3.702   0.458   4.026  1.00  0.00     0.118 C 
BRANCH  33  34
ATOM     34  N   UNL     1       4.351   1.749   4.156  1.00  0.00    -0.352 N 
ATOM     35  C   UNL     1       5.149   2.241   5.160  1.00  0.00     0.251 C 
ATOM     36  H   UNL     1       4.195   2.369   3.407  1.00  0.00     0.163 HD
ATOM     37  O   UNL     1       5.463   3.429   5.141  1.00  0.00    -0.269 OA
BRANCH  35  38
ATOM     38  C   UNL     1       5.609   1.373   6.269  1.00  0.00     0.039 A 
ATOM     39  C   UNL     1       5.608   1.897   7.564  1.00  0.00     0.014 A 
ATOM     40  C   UNL     1       6.071   0.072   6.048  1.00  0.00     0.014 A 
ATOM     41  C   UNL     1       6.015   1.102   8.639  1.00  0.00     0.010 A 
ATOM     42  C   UNL     1       6.410  -0.744   7.129  1.00  0.00     0.010 A 
ATOM     43  C   UNL     1       6.389  -0.238   8.437  1.00  0.00    -0.014 A 
BRANCH  43  44
ATOM     44  C   UNL     1       6.738  -1.104   9.595  1.00  0.00     0.031 A 
ATOM     45  C   UNL     1       8.128  -1.659   9.756  1.00  0.00     0.074 A 
ATOM     46  C   UNL     1       5.784  -1.414  10.497  1.00  0.00     0.049 A 
ATOM     47  N   UNL     1       8.611  -2.405  10.718  1.00  0.00    -0.248 NA
ATOM     48  C   UNL     1       9.095  -1.361   8.688  1.00  0.00     0.031 C 
ATOM     49  C   UNL     1       4.381  -0.998  10.420  1.00  0.00     0.029 A 
ATOM     50  N   UNL     1       5.848  -2.146  11.656  1.00  0.00    -0.354 N 
ATOM     51  C   UNL     1       9.931  -2.669  10.371  1.00  0.00     0.074 A 
ATOM     52  C   UNL     1      10.156  -2.050   9.082  1.00  0.00     0.031 C 
ATOM     53  C   UNL     1       3.729  -1.449  11.503  1.00  0.00     0.029 A 
ATOM     54  C   UNL     1       4.656  -2.205  12.339  1.00  0.00     0.049 A 
ATOM     55  H   UNL     1       6.671  -2.587  11.970  1.00  0.00     0.167 HD
ATOM     56  C   UNL     1      10.877  -3.342  11.071  1.00  0.00     0.037 A 
ATOM     57  C   UNL     1       4.345  -2.791  13.511  1.00  0.00     0.037 A 
ATOM     58  C   UNL     1      10.658  -3.937  12.366  1.00  0.00     0.049 A 
ATOM     59  C   UNL     1       5.421  -3.496  14.289  1.00  0.00     0.074 A 
ATOM     60  C   UNL     1      11.568  -4.590  13.180  1.00  0.00     0.029 A 
ATOM     61  N   UNL     1       9.445  -3.949  13.038  1.00  0.00    -0.354 N 
ATOM     62  N   UNL     1       6.682  -3.675  13.976  1.00  0.00    -0.248 NA
ATOM     63  C   UNL     1       5.035  -4.064  15.588  1.00  0.00     0.031 C 
ATOM     64  C   UNL     1      10.897  -5.027  14.328  1.00  0.00     0.029 A 
ATOM     65  C   UNL     1       9.579  -4.608  14.250  1.00  0.00     0.049 A 
ATOM     66  H   UNL     1       8.610  -3.548  12.703  1.00  0.00     0.167 HD
ATOM     67  C   UNL     1       7.247  -4.354  15.050  1.00  0.00     0.074 A 
ATOM     68  C   UNL     1       6.193  -4.537  16.028  1.00  0.00     0.031 C 
ATOM     69  C   UNL     1       8.522  -4.787  15.213  1.00  0.00     0.037 A 
BRANCH  56  70
ATOM     70  C   UNL     1      12.245  -3.463  10.454  1.00  0.00     0.058 A 
ATOM     71  C   UNL     1      13.101  -2.356  10.341  1.00  0.00     0.135 A 
ATOM     72  C   UNL     1      12.720  -4.706  10.004  1.00  0.00     0.135 A 
ATOM     73  F   UNL     1      12.692  -1.142  10.742  1.00  0.00    -0.206 F 
ATOM     74  C   UNL     1      14.367  -2.469   9.775  1.00  0.00     0.059 A 
ATOM     75  C   UNL     1      13.994  -4.847   9.459  1.00  0.00     0.059 A 
ATOM     76  F   UNL     1      11.945  -5.798  10.089  1.00  0.00    -0.206 F 
ATOM     77  C   UNL     1      14.804  -3.719   9.335  1.00  0.00     0.060 A 
BRANCH  77  78
ATOM     78  S   UNL     1      16.451  -3.851   8.608  1.00  0.00     0.124 S 
ATOM     79  O   UNL     1      16.238  -3.246   7.297  1.00  0.00    -0.237 OA
ATOM     80  O   UNL     1      17.267  -3.077   9.538  1.00  0.00    -0.237 OA
ATOM     81  O   UNL     1      16.706  -5.288   8.602  1.00  0.00    -0.744 OA
ENDBRANCH  77  78
ENDBRANCH  56  70
BRANCH  57  82
ATOM     82  C   UNL     1       2.960  -2.694  14.042  1.00  0.00     0.058 A 
ATOM     83  C   UNL     1       2.667  -1.884  15.149  1.00  0.00     0.135 A 
ATOM     84  C   UNL     1       1.901  -3.396  13.446  1.00  0.00     0.135 A 
ATOM     85  F   UNL     1       3.647  -1.197  15.755  1.00  0.00    -0.206 F 
ATOM     86  C   UNL     1       1.377  -1.786  15.659  1.00  0.00     0.059 A 
ATOM     87  C   UNL     1       0.598  -3.295  13.923  1.00  0.00     0.059 A 
ATOM     88  F   UNL     1       2.127  -4.169  12.372  1.00  0.00    -0.206 F 
ATOM     89  C   UNL     1       0.348  -2.495  15.037  1.00  0.00     0.060 A 
BRANCH  89  90
ATOM     90  S   UNL     1      -1.334  -2.320  15.671  1.00  0.00     0.124 S 
ATOM     91  O   UNL     1      -1.278  -3.136  16.879  1.00  0.00    -0.237 OA
ATOM     92  O   UNL     1      -1.437  -0.878  15.877  1.00  0.00    -0.237 OA
ATOM     93  O   UNL     1      -2.156  -2.849  14.587  1.00  0.00    -0.744 OA
ENDBRANCH  89  90
ENDBRANCH  57  82
BRANCH  69  94
ATOM     94  C   UNL     1       8.849  -5.476  16.509  1.00  0.00     0.058 A 
ATOM     95  C   UNL     1       8.376  -6.765  16.801  1.00  0.00     0.135 A 
ATOM     96  C   UNL     1       9.646  -4.837  17.472  1.00  0.00     0.135 A 
ATOM     97  F   UNL     1       7.606  -7.418  15.917  1.00  0.00    -0.206 F 
ATOM     98  C   UNL     1       8.643  -7.378  18.021  1.00  0.00     0.059 A 
ATOM     99  C   UNL     1       9.950  -5.442  18.688  1.00  0.00     0.059 A 
ATOM    100  F   UNL     1      10.136  -3.609  17.238  1.00  0.00    -0.206 F 
ATOM    101  C   UNL     1       9.425  -6.704  18.962  1.00  0.00     0.060 A 
BRANCH 101 102
ATOM    102  S   UNL     1       9.755  -7.501  20.548  1.00  0.00     0.124 S 
ATOM    103  O   UNL     1       8.492  -7.294  21.248  1.00  0.00    -0.237 OA
ATOM    104  O   UNL     1      10.045  -8.877  20.156  1.00  0.00    -0.237 OA
ATOM    105  O   UNL     1      10.894  -6.753  21.071  1.00  0.00    -0.744 OA
ENDBRANCH 101 102
ENDBRANCH  69  94
ENDBRANCH  43  44
ENDBRANCH  35  38
ENDBRANCH  33  34
ENDBRANCH  32  33
ENDBRANCH   1  32
TORSDOF 19
