REMARK SMILES Cc1c(Cl)ccc2c(OCC(=O)NCCCNC(=O)c3ccc(-c4c5nc(c(-c6c(F)cc(S(=O)(=O)[O-])cc6F)c6ccc([nH]6)c(-c6c(F)cc(S(=O)(=O)[O-])cc6F)c6nc(c(-c7c(F)cc(S(=O)(=O)[O-])cc7F)c7ccc4[nH]7)C=C6)C=C5)cc3)ccnc12
REMARK SMILES IDX 15 1 14 2 13 3 11 4 12 5 10 7 9 8 8 9 1 10 2 11 3 12 89 13
REMARK SMILES IDX 4 14 5 15 7 16 88 17 6 18 87 19 86 20 16 21 17 22 18 23
REMARK SMILES IDX 19 25 20 26 21 27 85 28 22 29 84 30 23 31 24 32 25 33 78 34
REMARK SMILES IDX 26 35 83 36 77 37 79 38 27 39 82 40 76 41 75 42 28 44 62 45
REMARK SMILES IDX 41 46 61 47 42 48 45 49 60 50 80 51 43 52 44 53 59 55 81 56
REMARK SMILES IDX 46 57 29 58 30 59 39 60 31 61 32 62 38 63 40 64 33 65 34 66
REMARK SMILES IDX 35 67 36 68 37 69 63 70 64 71 73 72 65 73 66 74 72 75 74 76
REMARK SMILES IDX 67 77 68 78 69 79 70 80 71 81 47 82 48 83 57 84 49 85 50 86
REMARK SMILES IDX 56 87 58 88 51 89 52 90 53 91 54 92 55 93
REMARK H PARENT 13 6 17 24 79 43 45 54
REMARK Flexibility Score: inf
ROOT
ATOM      1  C   UNL     1      -0.829   6.518   1.881  1.00  0.00     0.042 C 
ENDROOT
BRANCH   1   2
ATOM      2  C   UNL     1      -0.175   7.735   1.235  1.00  0.00     0.117 C 
BRANCH   2   3
ATOM      3  N   UNL     1       1.251   7.810   1.498  1.00  0.00    -0.353 N 
ATOM      4  C   UNL     1       2.291   7.519   0.665  1.00  0.00     0.257 C 
ATOM      5  O   UNL     1       3.442   7.659   1.085  1.00  0.00    -0.271 OA
ATOM      6  H   UNL     1       1.502   8.111   2.401  1.00  0.00     0.163 HD
BRANCH   4   7
ATOM      7  C   UNL     1       2.019   7.073  -0.776  1.00  0.00     0.329 C 
BRANCH   7   8
ATOM      8  O   UNL     1       1.213   5.921  -0.952  1.00  0.00    -0.483 OA
BRANCH   8   9
ATOM      9  C   UNL     1       1.722   4.691  -0.612  1.00  0.00     0.131 A 
ATOM     10  C   UNL     1       0.917  -0.169  -0.109  1.00  0.00     0.048 C 
ATOM     11  C   UNL     1       0.470   1.189  -0.596  1.00  0.00    -0.006 A 
ATOM     12  C   UNL     1      -0.808   1.360  -1.157  1.00  0.00     0.046 A 
ATOM     13  C   UNL     1       1.312   2.300  -0.421  1.00  0.00     0.078 A 
ATOM     14  Cl  UNL     1      -1.903   0.040  -1.366  1.00  0.00    -0.084 Cl
ATOM     15  C   UNL     1      -1.245   2.616  -1.563  1.00  0.00     0.022 A 
ATOM     16  C   UNL     1       0.862   3.583  -0.816  1.00  0.00     0.043 A 
ATOM     17  N   UNL     1       2.534   2.134   0.122  1.00  0.00    -0.256 NA
ATOM     18  C   UNL     1      -0.417   3.720  -1.392  1.00  0.00     0.016 A 
ATOM     19  C   UNL     1       3.337   3.203   0.279  1.00  0.00     0.115 A 
ATOM     20  C   UNL     1       2.986   4.487  -0.073  1.00  0.00     0.067 A 
ENDBRANCH   8   9
ENDBRANCH   7   8
ENDBRANCH   4   7
ENDBRANCH   2   3
ENDBRANCH   1   2
BRANCH   1  21
ATOM     21  C   UNL     1      -0.666   6.447   3.398  1.00  0.00     0.118 C 
BRANCH  21  22
ATOM     22  N   UNL     1      -1.294   7.568   4.084  1.00  0.00    -0.352 N 
ATOM     23  C   UNL     1      -2.411   7.597   4.882  1.00  0.00     0.251 C 
ATOM     24  H   UNL     1      -0.850   8.437   3.955  1.00  0.00     0.163 HD
ATOM     25  O   UNL     1      -2.893   8.678   5.212  1.00  0.00    -0.269 OA
BRANCH  23  26
ATOM     26  C   UNL     1      -3.043   6.338   5.327  1.00  0.00     0.039 A 
ATOM     27  C   UNL     1      -4.428   6.197   5.205  1.00  0.00     0.014 A 
ATOM     28  C   UNL     1      -2.278   5.314   5.893  1.00  0.00     0.014 A 
ATOM     29  C   UNL     1      -5.039   5.004   5.595  1.00  0.00     0.010 A 
ATOM     30  C   UNL     1      -2.881   4.105   6.233  1.00  0.00     0.010 A 
ATOM     31  C   UNL     1      -4.267   3.941   6.092  1.00  0.00    -0.014 A 
BRANCH  31  32
ATOM     32  C   UNL     1      -4.903   2.666   6.505  1.00  0.00     0.031 A 
ATOM     33  C   UNL     1      -4.966   2.303   7.962  1.00  0.00     0.074 A 
ATOM     34  C   UNL     1      -5.396   1.829   5.572  1.00  0.00     0.049 A 
ATOM     35  N   UNL     1      -5.451   1.226   8.523  1.00  0.00    -0.248 NA
ATOM     36  C   UNL     1      -4.398   3.272   8.914  1.00  0.00     0.031 C 
ATOM     37  C   UNL     1      -5.371   2.063   4.126  1.00  0.00     0.029 A 
ATOM     38  N   UNL     1      -6.011   0.609   5.699  1.00  0.00    -0.354 N 
ATOM     39  C   UNL     1      -5.256   1.391   9.889  1.00  0.00     0.074 A 
ATOM     40  C   UNL     1      -4.557   2.644  10.070  1.00  0.00     0.031 C 
ATOM     41  C   UNL     1      -5.963   1.029   3.503  1.00  0.00     0.029 A 
ATOM     42  C   UNL     1      -6.384   0.048   4.500  1.00  0.00     0.049 A 
ATOM     43  H   UNL     1      -6.171   0.175   6.569  1.00  0.00     0.167 HD
ATOM     44  C   UNL     1      -5.653   0.586  10.902  1.00  0.00     0.037 A 
ATOM     45  C   UNL     1      -6.995  -1.124   4.237  1.00  0.00     0.037 A 
ATOM     46  C   UNL     1      -6.363  -0.651  10.719  1.00  0.00     0.049 A 
ATOM     47  C   UNL     1      -7.375  -2.027   5.380  1.00  0.00     0.074 A 
ATOM     48  C   UNL     1      -6.844  -1.517  11.685  1.00  0.00     0.029 A 
ATOM     49  N   UNL     1      -6.696  -1.198   9.489  1.00  0.00    -0.354 N 
ATOM     50  N   UNL     1      -7.229  -1.831   6.669  1.00  0.00    -0.248 NA
ATOM     51  C   UNL     1      -7.998  -3.314   5.035  1.00  0.00     0.031 C 
ATOM     52  C   UNL     1      -7.436  -2.606  11.039  1.00  0.00     0.029 A 
ATOM     53  C   UNL     1      -7.355  -2.402   9.671  1.00  0.00     0.049 A 
ATOM     54  H   UNL     1      -6.492  -0.792   8.616  1.00  0.00     0.167 HD
ATOM     55  C   UNL     1      -7.757  -2.959   7.288  1.00  0.00     0.074 A 
ATOM     56  C   UNL     1      -8.241  -3.827   6.234  1.00  0.00     0.031 C 
ATOM     57  C   UNL     1      -7.832  -3.251   8.609  1.00  0.00     0.037 A 
BRANCH  44  58
ATOM     58  C   UNL     1      -5.355   1.031  12.304  1.00  0.00     0.058 A 
ATOM     59  C   UNL     1      -6.075   2.078  12.901  1.00  0.00     0.135 A 
ATOM     60  C   UNL     1      -4.391   0.370  13.081  1.00  0.00     0.135 A 
ATOM     61  F   UNL     1      -6.994   2.755  12.194  1.00  0.00    -0.206 F 
ATOM     62  C   UNL     1      -5.842   2.462  14.216  1.00  0.00     0.059 A 
ATOM     63  C   UNL     1      -4.157   0.723  14.407  1.00  0.00     0.059 A 
ATOM     64  F   UNL     1      -3.672  -0.635  12.556  1.00  0.00    -0.206 F 
ATOM     65  C   UNL     1      -4.884   1.775  14.963  1.00  0.00     0.060 A 
BRANCH  65  66
ATOM     66  S   UNL     1      -4.620   2.270  16.679  1.00  0.00     0.124 S 
ATOM     67  O   UNL     1      -3.958   3.561  16.512  1.00  0.00    -0.237 OA
ATOM     68  O   UNL     1      -5.981   2.319  17.202  1.00  0.00    -0.237 OA
ATOM     69  O   UNL     1      -3.782   1.202  17.217  1.00  0.00    -0.744 OA
ENDBRANCH  65  66
ENDBRANCH  44  58
BRANCH  45  70
ATOM     70  C   UNL     1      -7.307  -1.510   2.835  1.00  0.00     0.058 A 
ATOM     71  C   UNL     1      -8.632  -1.532   2.377  1.00  0.00     0.135 A 
ATOM     72  C   UNL     1      -6.296  -1.876   1.932  1.00  0.00     0.135 A 
ATOM     73  F   UNL     1      -9.633  -1.198   3.206  1.00  0.00    -0.206 F 
ATOM     74  C   UNL     1      -8.949  -1.923   1.081  1.00  0.00     0.059 A 
ATOM     75  C   UNL     1      -6.586  -2.249   0.623  1.00  0.00     0.059 A 
ATOM     76  F   UNL     1      -5.011  -1.861   2.319  1.00  0.00    -0.206 F 
ATOM     77  C   UNL     1      -7.918  -2.281   0.210  1.00  0.00     0.060 A 
BRANCH  77  78
ATOM     78  S   UNL     1      -8.344  -2.762  -1.478  1.00  0.00     0.124 S 
ATOM     79  O   UNL     1      -8.955  -4.069  -1.265  1.00  0.00    -0.237 OA
ATOM     80  O   UNL     1      -9.251  -1.691  -1.881  1.00  0.00    -0.237 OA
ATOM     81  O   UNL     1      -7.055  -2.771  -2.161  1.00  0.00    -0.744 OA
ENDBRANCH  77  78
ENDBRANCH  45  70
BRANCH  57  82
ATOM     82  C   UNL     1      -8.460  -4.558   9.000  1.00  0.00     0.058 A 
ATOM     83  C   UNL     1      -7.769  -5.770   8.851  1.00  0.00     0.135 A 
ATOM     84  C   UNL     1      -9.724  -4.591   9.611  1.00  0.00     0.135 A 
ATOM     85  F   UNL     1      -6.562  -5.792   8.265  1.00  0.00    -0.206 F 
ATOM     86  C   UNL     1      -8.311  -6.972   9.293  1.00  0.00     0.059 A 
ATOM     87  C   UNL     1     -10.275  -5.779  10.081  1.00  0.00     0.059 A 
ATOM     88  F   UNL     1     -10.421  -3.457   9.784  1.00  0.00    -0.206 F 
ATOM     89  C   UNL     1      -9.562  -6.965   9.915  1.00  0.00     0.060 A 
BRANCH  89  90
ATOM     90  S   UNL     1     -10.220  -8.524  10.543  1.00  0.00     0.124 S 
ATOM     91  O   UNL     1     -10.584  -9.210   9.308  1.00  0.00    -0.237 OA
ATOM     92  O   UNL     1      -9.077  -9.078  11.262  1.00  0.00    -0.237 OA
ATOM     93  O   UNL     1     -11.339  -8.108  11.383  1.00  0.00    -0.744 OA
ENDBRANCH  89  90
ENDBRANCH  57  82
ENDBRANCH  31  32
ENDBRANCH  23  26
ENDBRANCH  21  22
ENDBRANCH   1  21
TORSDOF 15
