REMARK SMILES Cc1ccccc1[C@@H](Cc1c(Cl)cccc1Cl)C(=O)NCCCNC(=O)c1ccc(-c2c3nc(c(-c4c(F)cc(S(=O)(=O)[O-])cc4F)c4ccc([nH]4)c(-c4c(F)cc(S(=O)(=O)[O-])cc4F)c4nc(c(-c5c(F)cc(S(=O)(=O)[O-])cc5F)c5ccc2[nH]5)C=C4)C=C3)cc1
REMARK SMILES IDX 22 1 21 2 20 3 18 4 19 5 8 7 7 8 1 9 2 10 3 11 4 12 6 13
REMARK SMILES IDX 5 14 9 15 10 16 11 17 16 18 12 19 13 20 15 21 17 22 14 23
REMARK SMILES IDX 23 24 24 25 25 26 26 28 27 29 28 30 92 31 29 32 91 33 30 34
REMARK SMILES IDX 31 35 32 36 85 37 33 38 90 39 84 40 86 41 34 42 89 43 83 44
REMARK SMILES IDX 82 45 35 47 69 48 48 49 68 50 49 51 52 52 67 53 87 54 50 55
REMARK SMILES IDX 51 56 66 58 88 59 53 60 36 61 37 62 46 63 38 64 39 65 45 66
REMARK SMILES IDX 47 67 40 68 41 69 42 70 43 71 44 72 70 73 71 74 80 75 72 76
REMARK SMILES IDX 73 77 79 78 81 79 74 80 75 81 76 82 77 83 78 84 54 85 55 86
REMARK SMILES IDX 64 87 56 88 57 89 63 90 65 91 58 92 59 93 60 94 61 95 62 96
REMARK H PARENT 20 6 24 27 86 46 52 57
REMARK Flexibility Score: inf
ROOT
ATOM      1  C   UNL     1      -3.013   3.140   0.263  1.00  0.00     0.042 C 
ENDROOT
BRANCH   1   2
ATOM      2  C   UNL     1      -1.755   4.004   0.284  1.00  0.00     0.117 C 
BRANCH   2   3
ATOM      3  N   UNL     1      -0.808   3.607   1.308  1.00  0.00    -0.355 N 
ATOM      4  C   UNL     1       0.345   2.891   1.273  1.00  0.00     0.227 C 
ATOM      5  O   UNL     1       0.857   2.646   2.375  1.00  0.00    -0.274 OA
ATOM      6  H   UNL     1      -1.050   3.919   2.210  1.00  0.00     0.163 HD
BRANCH   4   7
ATOM      7  C   UNL     1       1.025   2.349  -0.004  1.00  0.00     0.113 C 
BRANCH   7   8
ATOM      8  C   UNL     1       0.529   0.931  -0.342  1.00  0.00    -0.032 A 
ATOM      9  C   UNL     1       2.722  -0.243   0.353  1.00  0.00     0.044 C 
ATOM     10  C   UNL     1       1.276  -0.238  -0.068  1.00  0.00    -0.047 A 
ATOM     11  C   UNL     1       0.645  -1.497  -0.154  1.00  0.00     0.004 A 
ATOM     12  C   UNL     1      -0.678  -1.619  -0.566  1.00  0.00     0.000 A 
ATOM     13  C   UNL     1      -0.768   0.767  -0.861  1.00  0.00     0.005 A 
ATOM     14  C   UNL     1      -1.376  -0.486  -0.951  1.00  0.00     0.000 A 
ENDBRANCH   7   8
BRANCH   7  15
ATOM     15  C   UNL     1       1.186   3.275  -1.236  1.00  0.00     0.057 C 
BRANCH  15  16
ATOM     16  C   UNL     1       1.367   4.781  -1.060  1.00  0.00    -0.010 A 
ATOM     17  C   UNL     1       0.699   5.680  -1.928  1.00  0.00     0.045 A 
ATOM     18  C   UNL     1       2.209   5.363  -0.090  1.00  0.00     0.045 A 
ATOM     19  Cl  UNL     1      -0.206   5.147  -3.309  1.00  0.00    -0.084 Cl
ATOM     20  C   UNL     1       0.761   7.068  -1.744  1.00  0.00     0.021 A 
ATOM     21  C   UNL     1       2.247   6.753   0.105  1.00  0.00     0.021 A 
ATOM     22  Cl  UNL     1       3.337   4.456   0.854  1.00  0.00    -0.084 Cl
ATOM     23  C   UNL     1       1.510   7.605  -0.707  1.00  0.00     0.003 A 
ENDBRANCH  15  16
ENDBRANCH   7  15
ENDBRANCH   4   7
ENDBRANCH   2   3
ENDBRANCH   1   2
BRANCH   1  24
ATOM     24  C   UNL     1      -4.053   3.539   1.298  1.00  0.00     0.118 C 
BRANCH  24  25
ATOM     25  N   UNL     1      -5.401   3.294   0.801  1.00  0.00    -0.352 N 
ATOM     26  C   UNL     1      -6.592   3.258   1.522  1.00  0.00     0.251 C 
ATOM     27  H   UNL     1      -5.480   3.133  -0.167  1.00  0.00     0.163 HD
ATOM     28  O   UNL     1      -7.662   3.062   1.012  1.00  0.00    -0.269 OA
BRANCH  26  29
ATOM     29  C   UNL     1      -6.457   3.515   2.974  1.00  0.00     0.039 A 
ATOM     30  C   UNL     1      -6.781   4.791   3.435  1.00  0.00     0.014 A 
ATOM     31  C   UNL     1      -5.730   2.612   3.734  1.00  0.00     0.014 A 
ATOM     32  C   UNL     1      -6.219   5.231   4.633  1.00  0.00     0.010 A 
ATOM     33  C   UNL     1      -5.114   3.079   4.881  1.00  0.00     0.010 A 
ATOM     34  C   UNL     1      -5.317   4.404   5.304  1.00  0.00    -0.014 A 
BRANCH  34  35
ATOM     35  C   UNL     1      -4.466   4.870   6.395  1.00  0.00     0.031 A 
ATOM     36  C   UNL     1      -4.699   4.395   7.780  1.00  0.00     0.074 A 
ATOM     37  C   UNL     1      -3.440   5.718   6.160  1.00  0.00     0.049 A 
ATOM     38  N   UNL     1      -4.279   4.993   8.846  1.00  0.00    -0.248 NA
ATOM     39  C   UNL     1      -5.513   3.223   8.072  1.00  0.00     0.031 C 
ATOM     40  C   UNL     1      -2.324   6.005   7.056  1.00  0.00     0.029 A 
ATOM     41  N   UNL     1      -3.301   6.649   5.138  1.00  0.00    -0.354 N 
ATOM     42  C   UNL     1      -4.505   4.161   9.922  1.00  0.00     0.074 A 
ATOM     43  C   UNL     1      -5.357   3.122   9.395  1.00  0.00     0.031 C 
ATOM     44  C   UNL     1      -1.752   7.160   6.687  1.00  0.00     0.029 A 
ATOM     45  C   UNL     1      -2.563   7.735   5.629  1.00  0.00     0.049 A 
ATOM     46  H   UNL     1      -3.660   6.561   4.226  1.00  0.00     0.167 HD
ATOM     47  C   UNL     1      -3.831   4.383  11.091  1.00  0.00     0.037 A 
ATOM     48  C   UNL     1      -3.067   9.004   5.647  1.00  0.00     0.037 A 
ATOM     49  C   UNL     1      -3.091   5.648  11.038  1.00  0.00     0.049 A 
ATOM     50  C   UNL     1      -3.196   9.605   7.027  1.00  0.00     0.074 A 
ATOM     51  C   UNL     1      -1.758   5.952  10.810  1.00  0.00     0.029 A 
ATOM     52  N   UNL     1      -3.783   6.854  10.970  1.00  0.00    -0.354 N 
ATOM     53  N   UNL     1      -3.107   8.920   8.133  1.00  0.00    -0.248 NA
ATOM     54  C   UNL     1      -3.468  11.020   7.274  1.00  0.00     0.031 C 
ATOM     55  C   UNL     1      -1.657   7.342  10.556  1.00  0.00     0.029 A 
ATOM     56  C   UNL     1      -2.926   7.889  10.641  1.00  0.00     0.049 A 
ATOM     57  H   UNL     1      -4.748   6.956  11.133  1.00  0.00     0.167 HD
ATOM     58  C   UNL     1      -3.359   9.737   9.205  1.00  0.00     0.074 A 
ATOM     59  C   UNL     1      -3.537  11.051   8.617  1.00  0.00     0.031 C 
ATOM     60  C   UNL     1      -3.420   9.251  10.481  1.00  0.00     0.037 A 
BRANCH  47  61
ATOM     61  C   UNL     1      -3.584   3.322  12.162  1.00  0.00     0.058 A 
ATOM     62  C   UNL     1      -2.469   3.419  13.030  1.00  0.00     0.135 A 
ATOM     63  C   UNL     1      -4.335   2.143  12.338  1.00  0.00     0.135 A 
ATOM     64  F   UNL     1      -1.720   4.528  13.090  1.00  0.00    -0.206 F 
ATOM     65  C   UNL     1      -2.062   2.384  13.880  1.00  0.00     0.059 A 
ATOM     66  C   UNL     1      -3.925   1.074  13.142  1.00  0.00     0.059 A 
ATOM     67  F   UNL     1      -5.544   1.988  11.791  1.00  0.00    -0.206 F 
ATOM     68  C   UNL     1      -2.772   1.194  13.897  1.00  0.00     0.060 A 
BRANCH  68  69
ATOM     69  S   UNL     1      -2.194  -0.169  14.924  1.00  0.00     0.124 S 
ATOM     70  O   UNL     1      -0.846  -0.391  14.408  1.00  0.00    -0.237 OA
ATOM     71  O   UNL     1      -2.276   0.401  16.264  1.00  0.00    -0.237 OA
ATOM     72  O   UNL     1      -3.148  -1.238  14.641  1.00  0.00    -0.744 OA
ENDBRANCH  68  69
ENDBRANCH  47  61
BRANCH  48  73
ATOM     73  C   UNL     1      -3.952   9.306   4.493  1.00  0.00     0.058 A 
ATOM     74  C   UNL     1      -3.349   9.408   3.226  1.00  0.00     0.135 A 
ATOM     75  C   UNL     1      -5.329   9.046   4.542  1.00  0.00     0.135 A 
ATOM     76  F   UNL     1      -2.036   9.675   3.127  1.00  0.00    -0.206 F 
ATOM     77  C   UNL     1      -4.039   9.089   2.065  1.00  0.00     0.059 A 
ATOM     78  C   UNL     1      -6.044   8.727   3.386  1.00  0.00     0.059 A 
ATOM     79  F   UNL     1      -5.956   8.945   5.723  1.00  0.00    -0.206 F 
ATOM     80  C   UNL     1      -5.367   8.680   2.166  1.00  0.00     0.060 A 
BRANCH  80  81
ATOM     81  S   UNL     1      -6.106   7.887   0.719  1.00  0.00     0.124 S 
ATOM     82  O   UNL     1      -6.062   8.958  -0.270  1.00  0.00    -0.237 OA
ATOM     83  O   UNL     1      -5.179   6.779   0.491  1.00  0.00    -0.237 OA
ATOM     84  O   UNL     1      -7.434   7.507   1.185  1.00  0.00    -0.744 OA
ENDBRANCH  80  81
ENDBRANCH  48  73
BRANCH  60  85
ATOM     85  C   UNL     1      -3.863  10.021  11.705  1.00  0.00     0.058 A 
ATOM     86  C   UNL     1      -4.804  11.066  11.685  1.00  0.00     0.135 A 
ATOM     87  C   UNL     1      -3.426   9.624  12.993  1.00  0.00     0.135 A 
ATOM     88  F   UNL     1      -5.382  11.460  10.542  1.00  0.00    -0.206 F 
ATOM     89  C   UNL     1      -5.228  11.717  12.846  1.00  0.00     0.059 A 
ATOM     90  C   UNL     1      -3.877  10.224  14.167  1.00  0.00     0.059 A 
ATOM     91  F   UNL     1      -2.547   8.624  13.154  1.00  0.00    -0.206 F 
ATOM     92  C   UNL     1      -4.759  11.291  14.084  1.00  0.00     0.060 A 
BRANCH  92  93
ATOM     93  S   UNL     1      -5.345  12.078  15.597  1.00  0.00     0.124 S 
ATOM     94  O   UNL     1      -4.296  13.064  15.839  1.00  0.00    -0.237 OA
ATOM     95  O   UNL     1      -6.641  12.624  15.203  1.00  0.00    -0.237 OA
ATOM     96  O   UNL     1      -5.404  10.969  16.544  1.00  0.00    -0.744 OA
ENDBRANCH  92  93
ENDBRANCH  60  85
ENDBRANCH  34  35
ENDBRANCH  26  29
ENDBRANCH  24  25
ENDBRANCH   1  24
TORSDOF 16
