REMARK SMILES C[C@H](C(=O)NCCCNC(=O)c1ccc(-c2c3nc(c(-c4c(F)cc(S(=O)(=O)[O-])cc4F)c4ccc([nH]4)c(-c4c(F)cc(S(=O)(=O)[O-])cc4F)c4nc(c(-c5c(F)cc(S(=O)(=O)[O-])cc5F)c5ccc2[nH]5)C=C4)C=C3)cc1)[C@@H](C)[NH2+]Cc1cccc2ccccc12
REMARK SMILES IDX 6 1 5 2 3 3 4 4 2 6 1 7 78 8 79 9 80 10 81 13 82 14 83 15
REMARK SMILES IDX 91 16 84 17 86 18 90 19 85 20 87 21 89 22 88 23 7 24 8 25
REMARK SMILES IDX 9 26 10 27 11 29 12 30 13 31 77 32 14 33 76 34 15 35 16 36
REMARK SMILES IDX 17 37 70 38 18 39 75 40 69 41 71 42 19 43 74 44 68 45 67 46
REMARK SMILES IDX 20 48 54 49 33 50 53 51 34 52 37 53 52 54 72 55 35 56 36 57
REMARK SMILES IDX 51 59 73 60 38 61 21 62 22 63 31 64 23 65 24 66 30 67 32 68
REMARK SMILES IDX 25 69 26 70 27 71 28 72 29 73 55 74 56 75 65 76 57 77 58 78
REMARK SMILES IDX 64 79 66 80 59 81 60 82 61 83 62 84 63 85 39 86 40 87 49 88
REMARK SMILES IDX 41 89 42 90 48 91 50 92 43 93 44 94 45 95 46 96 47 97
REMARK H PARENT 5 5 80 11 80 12 9 28 71 47 37 58
REMARK Flexibility Score: inf
ROOT
ATOM      1  C   UNL     1      -1.160   1.062  -0.849  1.00  0.00     0.117 C 
ENDROOT
BRANCH   1   2
ATOM      2  N   UNL     1       0.264   0.887  -0.592  1.00  0.00    -0.356 N 
ATOM      3  C   UNL     1       1.021  -0.025   0.070  1.00  0.00     0.228 C 
ATOM      4  O   UNL     1       2.243   0.075  -0.106  1.00  0.00    -0.275 OA
ATOM      5  H   UNL     1       0.807   1.601  -0.996  1.00  0.00     0.163 HD
BRANCH   3   6
ATOM      6  C   UNL     1       0.498  -1.091   1.047  1.00  0.00     0.133 C 
ATOM      7  C   UNL     1       0.735  -0.556   2.462  1.00  0.00     0.024 C 
BRANCH   6   8
ATOM      8  C   UNL     1      -0.938  -1.582   0.799  1.00  0.00     0.191 C 
ATOM      9  C   UNL     1      -1.031  -2.130  -0.643  1.00  0.00     0.076 C 
BRANCH   8  10
ATOM     10  N   UNL     1      -1.403  -2.598   1.757  1.00  0.00    -0.340 N 
ATOM     11  H   UNL     1      -0.963  -2.416   2.659  1.00  0.00     0.346 HD
ATOM     12  H   UNL     1      -1.144  -3.508   1.375  1.00  0.00     0.346 HD
BRANCH  10  13
ATOM     13  C   UNL     1      -2.866  -2.609   1.946  1.00  0.00     0.298 C 
BRANCH  13  14
ATOM     14  C   UNL     1      -3.733  -2.795   0.708  1.00  0.00     0.014 A 
ATOM     15  C   UNL     1      -4.507  -1.695   0.277  1.00  0.00     0.010 A 
ATOM     16  C   UNL     1      -3.780  -4.010  -0.038  1.00  0.00    -0.010 A 
ATOM     17  C   UNL     1      -5.337  -1.789  -0.837  1.00  0.00     0.001 A 
ATOM     18  C   UNL     1      -4.661  -4.099  -1.149  1.00  0.00    -0.018 A 
ATOM     19  C   UNL     1      -2.965  -5.133   0.230  1.00  0.00     0.009 A 
ATOM     20  C   UNL     1      -5.434  -2.993  -1.526  1.00  0.00     0.009 A 
ATOM     21  C   UNL     1      -4.738  -5.286  -1.895  1.00  0.00     0.009 A 
ATOM     22  C   UNL     1      -2.991  -6.273  -0.575  1.00  0.00     0.001 A 
ATOM     23  C   UNL     1      -3.895  -6.360  -1.623  1.00  0.00     0.001 A 
ENDBRANCH  13  14
ENDBRANCH  10  13
ENDBRANCH   8  10
ENDBRANCH   6   8
ENDBRANCH   3   6
ENDBRANCH   1   2
BRANCH   1  24
ATOM     24  C   UNL     1      -1.687   2.385  -0.332  1.00  0.00     0.042 C 
BRANCH  24  25
ATOM     25  C   UNL     1      -1.374   3.516  -1.291  1.00  0.00     0.118 C 
BRANCH  25  26
ATOM     26  N   UNL     1      -2.063   3.350  -2.571  1.00  0.00    -0.352 N 
ATOM     27  C   UNL     1      -3.037   4.123  -3.155  1.00  0.00     0.251 C 
ATOM     28  H   UNL     1      -1.786   2.563  -3.094  1.00  0.00     0.163 HD
ATOM     29  O   UNL     1      -3.668   3.695  -4.112  1.00  0.00    -0.269 OA
BRANCH  27  30
ATOM     30  C   UNL     1      -3.316   5.463  -2.605  1.00  0.00     0.039 A 
ATOM     31  C   UNL     1      -4.636   5.906  -2.505  1.00  0.00     0.014 A 
ATOM     32  C   UNL     1      -2.263   6.269  -2.170  1.00  0.00     0.014 A 
ATOM     33  C   UNL     1      -4.899   7.135  -1.898  1.00  0.00     0.010 A 
ATOM     34  C   UNL     1      -2.534   7.423  -1.456  1.00  0.00     0.010 A 
ATOM     35  C   UNL     1      -3.852   7.882  -1.334  1.00  0.00    -0.014 A 
BRANCH  35  36
ATOM     36  C   UNL     1      -4.087   9.173  -0.644  1.00  0.00     0.031 A 
ATOM     37  C   UNL     1      -3.420  10.418  -1.163  1.00  0.00     0.074 A 
ATOM     38  C   UNL     1      -4.814   9.205   0.489  1.00  0.00     0.049 A 
ATOM     39  N   UNL     1      -3.382  11.615  -0.641  1.00  0.00    -0.248 NA
ATOM     40  C   UNL     1      -2.654  10.287  -2.416  1.00  0.00     0.031 C 
ATOM     41  C   UNL     1      -5.462   8.051   1.116  1.00  0.00     0.029 A 
ATOM     42  N   UNL     1      -5.114  10.248   1.327  1.00  0.00    -0.354 N 
ATOM     43  C   UNL     1      -2.572  12.367  -1.484  1.00  0.00     0.074 A 
ATOM     44  C   UNL     1      -2.081  11.476  -2.509  1.00  0.00     0.031 C 
ATOM     45  C   UNL     1      -6.103   8.454   2.224  1.00  0.00     0.029 A 
ATOM     46  C   UNL     1      -5.872   9.882   2.414  1.00  0.00     0.049 A 
ATOM     47  H   UNL     1      -4.815  11.172   1.166  1.00  0.00     0.167 HD
ATOM     48  C   UNL     1      -2.288  13.689  -1.426  1.00  0.00     0.037 A 
ATOM     49  C   UNL     1      -6.317  10.614   3.453  1.00  0.00     0.037 A 
ATOM     50  C   UNL     1      -2.810  14.570  -0.415  1.00  0.00     0.049 A 
ATOM     51  C   UNL     1      -5.993  12.083   3.499  1.00  0.00     0.074 A 
ATOM     52  C   UNL     1      -2.639  15.937  -0.294  1.00  0.00     0.029 A 
ATOM     53  N   UNL     1      -3.604  14.169   0.650  1.00  0.00    -0.354 N 
ATOM     54  N   UNL     1      -5.278  12.796   2.660  1.00  0.00    -0.248 NA
ATOM     55  C   UNL     1      -6.542  12.850   4.625  1.00  0.00     0.031 C 
ATOM     56  C   UNL     1      -3.284  16.354   0.874  1.00  0.00     0.029 A 
ATOM     57  C   UNL     1      -3.912  15.258   1.447  1.00  0.00     0.049 A 
ATOM     58  H   UNL     1      -3.904  13.246   0.815  1.00  0.00     0.167 HD
ATOM     59  C   UNL     1      -5.317  14.100   3.139  1.00  0.00     0.074 A 
ATOM     60  C   UNL     1      -6.132  14.078   4.337  1.00  0.00     0.031 C 
ATOM     61  C   UNL     1      -4.735  15.216   2.632  1.00  0.00     0.037 A 
BRANCH  48  62
ATOM     62  C   UNL     1      -1.376  14.252  -2.483  1.00  0.00     0.058 A 
ATOM     63  C   UNL     1      -1.758  14.319  -3.834  1.00  0.00     0.135 A 
ATOM     64  C   UNL     1      -0.102  14.733  -2.142  1.00  0.00     0.135 A 
ATOM     65  F   UNL     1      -2.958  13.858  -4.222  1.00  0.00    -0.206 F 
ATOM     66  C   UNL     1      -0.895  14.801  -4.812  1.00  0.00     0.059 A 
ATOM     67  C   UNL     1       0.765  15.253  -3.100  1.00  0.00     0.059 A 
ATOM     68  F   UNL     1       0.319  14.694  -0.868  1.00  0.00    -0.206 F 
ATOM     69  C   UNL     1       0.366  15.264  -4.435  1.00  0.00     0.060 A 
BRANCH  69  70
ATOM     70  S   UNL     1       1.477  15.874  -5.720  1.00  0.00     0.124 S 
ATOM     71  O   UNL     1       1.852  14.634  -6.392  1.00  0.00    -0.237 OA
ATOM     72  O   UNL     1       0.612  16.770  -6.481  1.00  0.00    -0.237 OA
ATOM     73  O   UNL     1       2.543  16.526  -4.966  1.00  0.00    -0.744 OA
ENDBRANCH  69  70
ENDBRANCH  48  62
BRANCH  49  74
ATOM     74  C   UNL     1      -7.140   9.970   4.512  1.00  0.00     0.058 A 
ATOM     75  C   UNL     1      -8.509  10.249   4.631  1.00  0.00     0.135 A 
ATOM     76  C   UNL     1      -6.585   9.034   5.399  1.00  0.00     0.135 A 
ATOM     77  F   UNL     1      -9.085  11.140   3.809  1.00  0.00    -0.206 F 
ATOM     78  C   UNL     1      -9.298   9.633   5.596  1.00  0.00     0.059 A 
ATOM     79  C   UNL     1      -7.359   8.384   6.356  1.00  0.00     0.059 A 
ATOM     80  F   UNL     1      -5.284   8.717   5.315  1.00  0.00    -0.206 F 
ATOM     81  C   UNL     1      -8.715   8.695   6.450  1.00  0.00     0.060 A 
BRANCH  81  82
ATOM     82  S   UNL     1      -9.764   7.853   7.654  1.00  0.00     0.124 S 
ATOM     83  O   UNL     1     -10.050   8.926   8.599  1.00  0.00    -0.237 OA
ATOM     84  O   UNL     1     -10.884   7.414   6.827  1.00  0.00    -0.237 OA
ATOM     85  O   UNL     1      -8.908   6.781   8.155  1.00  0.00    -0.744 OA
ENDBRANCH  81  82
ENDBRANCH  49  74
BRANCH  61  86
ATOM     86  C   UNL     1      -4.993  16.518   3.340  1.00  0.00     0.058 A 
ATOM     87  C   UNL     1      -4.420  16.812   4.586  1.00  0.00     0.135 A 
ATOM     88  C   UNL     1      -5.772  17.512   2.724  1.00  0.00     0.135 A 
ATOM     89  F   UNL     1      -3.673  15.895   5.220  1.00  0.00    -0.206 F 
ATOM     90  C   UNL     1      -4.628  18.039   5.208  1.00  0.00     0.059 A 
ATOM     91  C   UNL     1      -5.967  18.757   3.312  1.00  0.00     0.059 A 
ATOM     92  F   UNL     1      -6.334  17.286   1.526  1.00  0.00    -0.206 F 
ATOM     93  C   UNL     1      -5.399  19.007   4.560  1.00  0.00     0.060 A 
BRANCH  93  94
ATOM     94  S   UNL     1      -5.624  20.610   5.359  1.00  0.00     0.124 S 
ATOM     95  O   UNL     1      -6.530  20.269   6.451  1.00  0.00    -0.237 OA
ATOM     96  O   UNL     1      -4.261  20.956   5.751  1.00  0.00    -0.237 OA
ATOM     97  O   UNL     1      -6.196  21.439   4.303  1.00  0.00    -0.744 OA
ENDBRANCH  93  94
ENDBRANCH  61  86
ENDBRANCH  35  36
ENDBRANCH  27  30
ENDBRANCH  25  26
ENDBRANCH  24  25
ENDBRANCH   1  24
TORSDOF 17
