REMARK SMILES C[C@@H]1CN(C(=O)N2CCC(CC(=O)NCCCNC(=O)c3ccc(-c4c5nc(c(-c6c(F)cc(S(=O)(=O)[O-])cc6F)c6ccc([nH]6)c(-c6c(F)cc(S(=O)(=O)[O-])cc6F)c6nc(c(-c7c(F)cc(S(=O)(=O)[O-])cc7F)c7ccc4[nH]7)C=C6)C=C5)cc3)CC2)C[C@@H](C)S1
REMARK SMILES IDX 17 1 16 2 15 3 14 4 12 5 13 6 11 8 10 9 1 10 2 11 3 12 92 13
REMARK SMILES IDX 4 14 90 15 5 16 89 17 91 18 6 19 7 20 8 21 88 22 9 23 87 24
REMARK SMILES IDX 18 25 19 26 20 28 21 29 22 30 86 31 23 32 85 33 24 34 25 35
REMARK SMILES IDX 26 36 79 37 27 38 84 39 78 40 80 41 28 42 83 43 77 44 76 45
REMARK SMILES IDX 29 47 63 48 42 49 62 50 43 51 46 52 61 53 81 54 44 55 45 56
REMARK SMILES IDX 60 58 82 59 47 60 30 61 31 62 40 63 32 64 33 65 39 66 41 67
REMARK SMILES IDX 34 68 35 69 36 70 37 71 38 72 64 73 65 74 74 75 66 76 67 77
REMARK SMILES IDX 73 78 75 79 68 80 69 81 70 82 71 83 72 84 48 85 49 86 58 87
REMARK SMILES IDX 50 88 51 89 57 90 59 91 52 92 53 93 54 94 55 95 56 96
REMARK H PARENT 14 7 18 27 80 46 46 57
REMARK Flexibility Score: inf
ROOT
ATOM      1  C   UNL     1      -0.266  -6.520   3.734  1.00  0.00     0.118 C 
ENDROOT
BRANCH   1   2
ATOM      2  C   UNL     1       0.045  -5.446   2.699  1.00  0.00     0.042 C 
BRANCH   2   3
ATOM      3  C   UNL     1       1.124  -5.838   1.687  1.00  0.00     0.117 C 
BRANCH   3   4
ATOM      4  N   UNL     1       0.683  -6.887   0.775  1.00  0.00    -0.356 N 
ATOM      5  C   UNL     1       0.385  -6.865  -0.556  1.00  0.00     0.220 C 
ATOM      6  O   UNL     1       0.027  -7.917  -1.088  1.00  0.00    -0.275 OA
ATOM      7  H   UNL     1       0.584  -7.772   1.195  1.00  0.00     0.163 HD
BRANCH   5   8
ATOM      8  C   UNL     1       0.487  -5.586  -1.366  1.00  0.00     0.103 C 
BRANCH   8   9
ATOM      9  C   UNL     1      -0.860  -4.853  -1.557  1.00  0.00     0.002 C 
ATOM     10  C   UNL     1       1.060  -0.213  -0.124  1.00  0.00     0.021 C 
ATOM     11  C   UNL     1       0.381  -0.184   1.246  1.00  0.00     0.063 C 
ATOM     12  C   UNL     1      -0.902  -1.037   1.295  1.00  0.00     0.135 C 
ATOM     13  S   UNL     1       0.079   1.546   1.767  1.00  0.00    -0.152 SA
ATOM     14  N   UNL     1      -1.987  -0.503   0.469  1.00  0.00    -0.322 N 
ATOM     15  C   UNL     1      -1.408   1.911   0.738  1.00  0.00     0.063 C 
ATOM     16  C   UNL     1      -2.228  -0.909  -0.834  1.00  0.00     0.320 C 
ATOM     17  C   UNL     1      -2.475   0.814   0.886  1.00  0.00     0.135 C 
ATOM     18  C   UNL     1      -1.959   3.269   1.160  1.00  0.00     0.021 C 
ATOM     19  O   UNL     1      -2.527  -0.096  -1.709  1.00  0.00    -0.248 OA
ATOM     20  N   UNL     1      -2.066  -2.249  -1.123  1.00  0.00    -0.325 N 
ATOM     21  C   UNL     1      -1.821  -2.668  -2.493  1.00  0.00     0.121 C 
ATOM     22  C   UNL     1      -2.493  -3.330  -0.250  1.00  0.00     0.121 C 
ATOM     23  C   UNL     1      -0.658  -3.658  -2.514  1.00  0.00     0.026 C 
ATOM     24  C   UNL     1      -1.427  -4.414  -0.200  1.00  0.00     0.026 C 
ENDBRANCH   8   9
ENDBRANCH   5   8
ENDBRANCH   3   4
ENDBRANCH   2   3
ENDBRANCH   1   2
BRANCH   1  25
ATOM     25  N   UNL     1       0.576  -6.389   4.909  1.00  0.00    -0.352 N 
ATOM     26  C   UNL     1       0.259  -5.961   6.176  1.00  0.00     0.251 C 
ATOM     27  H   UNL     1       1.518  -6.646   4.778  1.00  0.00     0.163 HD
ATOM     28  O   UNL     1       1.173  -5.664   6.943  1.00  0.00    -0.269 OA
BRANCH  26  29
ATOM     29  C   UNL     1      -1.151  -5.840   6.628  1.00  0.00     0.039 A 
ATOM     30  C   UNL     1      -1.491  -4.798   7.499  1.00  0.00     0.014 A 
ATOM     31  C   UNL     1      -2.125  -6.779   6.274  1.00  0.00     0.014 A 
ATOM     32  C   UNL     1      -2.800  -4.681   7.982  1.00  0.00     0.010 A 
ATOM     33  C   UNL     1      -3.447  -6.615   6.691  1.00  0.00     0.010 A 
ATOM     34  C   UNL     1      -3.797  -5.578   7.568  1.00  0.00    -0.014 A 
BRANCH  34  35
ATOM     35  C   UNL     1      -5.194  -5.471   8.074  1.00  0.00     0.031 A 
ATOM     36  C   UNL     1      -5.784  -6.579   8.910  1.00  0.00     0.074 A 
ATOM     37  C   UNL     1      -5.952  -4.406   7.747  1.00  0.00     0.049 A 
ATOM     38  N   UNL     1      -6.994  -6.695   9.398  1.00  0.00    -0.248 NA
ATOM     39  C   UNL     1      -4.906  -7.720   9.217  1.00  0.00     0.031 C 
ATOM     40  C   UNL     1      -5.517  -3.281   6.916  1.00  0.00     0.029 A 
ATOM     41  N   UNL     1      -7.250  -4.096   8.070  1.00  0.00    -0.354 N 
ATOM     42  C   UNL     1      -7.030  -7.928  10.040  1.00  0.00     0.074 A 
ATOM     43  C   UNL     1      -5.735  -8.542   9.844  1.00  0.00     0.031 C 
ATOM     44  C   UNL     1      -6.518  -2.391   6.822  1.00  0.00     0.029 A 
ATOM     45  C   UNL     1      -7.677  -2.895   7.553  1.00  0.00     0.049 A 
ATOM     46  H   UNL     1      -7.821  -4.678   8.622  1.00  0.00     0.167 HD
ATOM     47  C   UNL     1      -8.041  -8.491  10.746  1.00  0.00     0.037 A 
ATOM     48  C   UNL     1      -8.867  -2.271   7.656  1.00  0.00     0.037 A 
ATOM     49  C   UNL     1      -9.313  -7.859  10.980  1.00  0.00     0.049 A 
ATOM     50  C   UNL     1      -9.972  -2.909   8.453  1.00  0.00     0.074 A 
ATOM     51  C   UNL     1     -10.369  -8.311  11.753  1.00  0.00     0.029 A 
ATOM     52  N   UNL     1      -9.703  -6.641  10.444  1.00  0.00    -0.354 N 
ATOM     53  N   UNL     1      -9.965  -4.046   9.108  1.00  0.00    -0.248 NA
ATOM     54  C   UNL     1     -11.245  -2.180   8.526  1.00  0.00     0.031 C 
ATOM     55  C   UNL     1     -11.414  -7.384  11.652  1.00  0.00     0.029 A 
ATOM     56  C   UNL     1     -10.993  -6.336  10.849  1.00  0.00     0.049 A 
ATOM     57  H   UNL     1      -9.146  -6.076   9.862  1.00  0.00     0.167 HD
ATOM     58  C   UNL     1     -11.221  -4.153   9.695  1.00  0.00     0.074 A 
ATOM     59  C   UNL     1     -11.960  -2.965   9.321  1.00  0.00     0.031 C 
ATOM     60  C   UNL     1     -11.715  -5.146  10.476  1.00  0.00     0.037 A 
BRANCH  47  61
ATOM     61  C   UNL     1      -7.811  -9.865  11.314  1.00  0.00     0.058 A 
ATOM     62  C   UNL     1      -6.930 -10.086  12.385  1.00  0.00     0.135 A 
ATOM     63  C   UNL     1      -8.491 -10.976  10.788  1.00  0.00     0.135 A 
ATOM     64  F   UNL     1      -6.244  -9.062  12.919  1.00  0.00    -0.206 F 
ATOM     65  C   UNL     1      -6.699 -11.363  12.886  1.00  0.00     0.059 A 
ATOM     66  C   UNL     1      -8.296 -12.259  11.292  1.00  0.00     0.059 A 
ATOM     67  F   UNL     1      -9.348 -10.822   9.767  1.00  0.00    -0.206 F 
ATOM     68  C   UNL     1      -7.381 -12.445  12.327  1.00  0.00     0.060 A 
BRANCH  68  69
ATOM     69  S   UNL     1      -7.056 -14.101  12.969  1.00  0.00     0.124 S 
ATOM     70  O   UNL     1      -5.753 -14.390  12.374  1.00  0.00    -0.237 OA
ATOM     71  O   UNL     1      -7.055 -13.883  14.414  1.00  0.00    -0.237 OA
ATOM     72  O   UNL     1      -8.169 -14.889  12.458  1.00  0.00    -0.744 OA
ENDBRANCH  68  69
ENDBRANCH  47  61
BRANCH  48  73
ATOM     73  C   UNL     1      -9.062  -0.941   7.019  1.00  0.00     0.058 A 
ATOM     74  C   UNL     1      -9.138   0.221   7.801  1.00  0.00     0.135 A 
ATOM     75  C   UNL     1      -9.152  -0.801   5.626  1.00  0.00     0.135 A 
ATOM     76  F   UNL     1      -9.065   0.135   9.138  1.00  0.00    -0.206 F 
ATOM     77  C   UNL     1      -9.306   1.476   7.227  1.00  0.00     0.059 A 
ATOM     78  C   UNL     1      -9.298   0.447   5.027  1.00  0.00     0.059 A 
ATOM     79  F   UNL     1      -9.069  -1.881   4.834  1.00  0.00    -0.206 F 
ATOM     80  C   UNL     1      -9.380   1.579   5.837  1.00  0.00     0.060 A 
BRANCH  80  81
ATOM     81  S   UNL     1      -9.531   3.220   5.098  1.00  0.00     0.124 S 
ATOM     82  O   UNL     1     -10.924   3.543   5.383  1.00  0.00    -0.237 OA
ATOM     83  O   UNL     1      -8.533   3.984   5.840  1.00  0.00    -0.237 OA
ATOM     84  O   UNL     1      -9.211   2.985   3.693  1.00  0.00    -0.744 OA
ENDBRANCH  80  81
ENDBRANCH  48  73
BRANCH  60  85
ATOM     85  C   UNL     1     -13.110  -4.977  11.008  1.00  0.00     0.058 A 
ATOM     86  C   UNL     1     -14.237  -5.138  10.188  1.00  0.00     0.135 A 
ATOM     87  C   UNL     1     -13.323  -4.700  12.369  1.00  0.00     0.135 A 
ATOM     88  F   UNL     1     -14.088  -5.396   8.879  1.00  0.00    -0.206 F 
ATOM     89  C   UNL     1     -15.527  -5.011  10.693  1.00  0.00     0.059 A 
ATOM     90  C   UNL     1     -14.604  -4.593  12.900  1.00  0.00     0.059 A 
ATOM     91  F   UNL     1     -12.279  -4.547  13.198  1.00  0.00    -0.206 F 
ATOM     92  C   UNL     1     -15.700  -4.739  12.051  1.00  0.00     0.060 A 
BRANCH  92  93
ATOM     93  S   UNL     1     -17.379  -4.612  12.704  1.00  0.00     0.124 S 
ATOM     94  O   UNL     1     -17.780  -3.292  12.228  1.00  0.00    -0.237 OA
ATOM     95  O   UNL     1     -18.049  -5.744  12.071  1.00  0.00    -0.237 OA
ATOM     96  O   UNL     1     -17.192  -4.729  14.147  1.00  0.00    -0.744 OA
ENDBRANCH  92  93
ENDBRANCH  60  85
ENDBRANCH  34  35
ENDBRANCH  26  29
ENDBRANCH   1  25
TORSDOF 14
