REMARK SMILES CC(C)[NH2+][C@@H](C(=O)NCCCNC(=O)c1ccc(-c2c3nc(c(-c4c(F)cc(S(=O)(=O)[O-])cc4F)c4ccc([nH]4)c(-c4c(F)cc(S(=O)(=O)[O-])cc4F)c4nc(c(-c5c(F)cc(S(=O)(=O)[O-])cc5F)c5ccc2[nH]5)C=C4)C=C3)cc1)c1c[nH]c2ccc(Br)cc12
REMARK SMILES IDX 10 1 9 2 8 3 6 4 7 5 5 7 4 8 2 11 1 12 3 13 81 14 82 15
REMARK SMILES IDX 90 16 83 17 84 18 89 19 85 21 87 22 86 23 88 24 11 25 12 26
REMARK SMILES IDX 13 27 14 29 15 30 16 31 80 32 17 33 79 34 18 35 19 36 20 37
REMARK SMILES IDX 73 38 21 39 78 40 72 41 74 42 22 43 77 44 71 45 70 46 23 48
REMARK SMILES IDX 57 49 36 50 56 51 37 52 40 53 55 54 75 55 38 56 39 57 54 59
REMARK SMILES IDX 76 60 41 61 24 62 25 63 34 64 26 65 27 66 33 67 35 68 28 69
REMARK SMILES IDX 29 70 30 71 31 72 32 73 58 74 59 75 68 76 60 77 61 78 67 79
REMARK SMILES IDX 69 80 62 81 63 82 64 83 65 84 66 85 42 86 43 87 52 88 44 89
REMARK SMILES IDX 45 90 51 91 53 92 46 93 47 94 48 95 49 96 50 97
REMARK H PARENT 8 6 4 9 4 10 83 20 12 28 74 47 40 58
REMARK Flexibility Score: inf
ROOT
ATOM      1  C   UNL     1       2.655   3.070   1.212  1.00  0.00     0.042 C 
ENDROOT
BRANCH   1   2
ATOM      2  C   UNL     1       1.288   3.518   1.778  1.00  0.00     0.118 C 
BRANCH   2   3
ATOM      3  N   UNL     1       0.380   4.150   0.829  1.00  0.00    -0.351 N 
ATOM      4  C   UNL     1      -0.901   3.898   0.406  1.00  0.00     0.283 C 
ATOM      5  O   UNL     1      -1.412   4.834  -0.223  1.00  0.00    -0.268 OA
ATOM      6  H   UNL     1       0.776   4.937   0.390  1.00  0.00     0.163 HD
BRANCH   4   7
ATOM      7  C   UNL     1      -1.699   2.628   0.779  1.00  0.00     0.306 C 
BRANCH   7   8
ATOM      8  N   UNL     1      -0.989   1.336   0.757  1.00  0.00    -0.330 N 
ATOM      9  H   UNL     1      -0.625   1.213   1.702  1.00  0.00     0.347 HD
ATOM     10  H   UNL     1      -1.719   0.739   0.371  1.00  0.00     0.347 HD
BRANCH   8  11
ATOM     11  C   UNL     1       0.106   0.991  -0.120  1.00  0.00     0.176 C 
ATOM     12  C   UNL     1       0.207  -0.533  -0.243  1.00  0.00     0.075 C 
ATOM     13  C   UNL     1       0.202   1.619  -1.508  1.00  0.00     0.075 C 
ENDBRANCH   8  11
ENDBRANCH   7   8
BRANCH   7  14
ATOM     14  C   UNL     1      -3.021   2.356   0.040  1.00  0.00     0.044 A 
ATOM     15  C   UNL     1      -3.784   1.200   0.288  1.00  0.00     0.094 A 
ATOM     16  C   UNL     1      -3.429   2.661  -1.307  1.00  0.00     0.010 A 
ATOM     17  N   UNL     1      -3.439   0.500  -0.875  1.00  0.00    -0.361 N 
ATOM     18  C   UNL     1      -3.529   1.400  -1.914  1.00  0.00     0.046 A 
ATOM     19  C   UNL     1      -3.607   3.797  -2.120  1.00  0.00     0.026 A 
ATOM     20  H   UNL     1      -3.183  -0.448  -0.938  1.00  0.00     0.166 HD
ATOM     21  C   UNL     1      -3.612   1.204  -3.292  1.00  0.00     0.028 A 
ATOM     22  C   UNL     1      -3.892   3.605  -3.480  1.00  0.00     0.018 A 
ATOM     23  C   UNL     1      -3.837   2.340  -4.069  1.00  0.00     0.018 A 
ATOM     24  Br  UNL     1      -4.404   5.085  -4.546  1.00  0.00    -0.051 Br
ENDBRANCH   7  14
ENDBRANCH   4   7
ENDBRANCH   2   3
ENDBRANCH   1   2
BRANCH   1  25
ATOM     25  C   UNL     1       3.289   3.937   0.123  1.00  0.00     0.118 C 
BRANCH  25  26
ATOM     26  N   UNL     1       4.398   4.714   0.648  1.00  0.00    -0.352 N 
ATOM     27  C   UNL     1       5.740   4.635   0.363  1.00  0.00     0.251 C 
ATOM     28  H   UNL     1       4.151   5.402   1.307  1.00  0.00     0.163 HD
ATOM     29  O   UNL     1       6.538   5.185   1.119  1.00  0.00    -0.269 OA
BRANCH  27  30
ATOM     30  C   UNL     1       6.246   3.899  -0.826  1.00  0.00     0.039 A 
ATOM     31  C   UNL     1       7.420   3.146  -0.698  1.00  0.00     0.014 A 
ATOM     32  C   UNL     1       5.638   4.012  -2.080  1.00  0.00     0.014 A 
ATOM     33  C   UNL     1       7.957   2.478  -1.806  1.00  0.00     0.010 A 
ATOM     34  C   UNL     1       6.153   3.310  -3.178  1.00  0.00     0.010 A 
ATOM     35  C   UNL     1       7.318   2.536  -3.054  1.00  0.00    -0.014 A 
BRANCH  35  36
ATOM     36  C   UNL     1       7.842   1.781  -4.228  1.00  0.00     0.031 A 
ATOM     37  C   UNL     1       8.392   2.508  -5.428  1.00  0.00     0.074 A 
ATOM     38  C   UNL     1       7.760   0.435  -4.245  1.00  0.00     0.049 A 
ATOM     39  N   UNL     1       8.800   2.021  -6.572  1.00  0.00    -0.248 NA
ATOM     40  C   UNL     1       8.482   3.974  -5.337  1.00  0.00     0.031 C 
ATOM     41  C   UNL     1       7.224  -0.392  -3.161  1.00  0.00     0.029 A 
ATOM     42  N   UNL     1       8.102  -0.476  -5.216  1.00  0.00    -0.354 N 
ATOM     43  C   UNL     1       9.171   3.115  -7.346  1.00  0.00     0.074 A 
ATOM     44  C   UNL     1       8.923   4.296  -6.546  1.00  0.00     0.031 C 
ATOM     45  C   UNL     1       7.265  -1.683  -3.530  1.00  0.00     0.029 A 
ATOM     46  C   UNL     1       7.793  -1.777  -4.888  1.00  0.00     0.049 A 
ATOM     47  H   UNL     1       8.529  -0.222  -6.066  1.00  0.00     0.167 HD
ATOM     48  C   UNL     1       9.680   3.132  -8.602  1.00  0.00     0.037 A 
ATOM     49  C   UNL     1       7.893  -2.914  -5.606  1.00  0.00     0.037 A 
ATOM     50  C   UNL     1       9.966   1.954  -9.380  1.00  0.00     0.049 A 
ATOM     51  C   UNL     1       8.441  -2.862  -7.008  1.00  0.00     0.074 A 
ATOM     52  C   UNL     1      10.583   1.873 -10.618  1.00  0.00     0.029 A 
ATOM     53  N   UNL     1       9.644   0.658  -9.010  1.00  0.00    -0.354 N 
ATOM     54  N   UNL     1       8.874  -1.825  -7.684  1.00  0.00    -0.248 NA
ATOM     55  C   UNL     1       8.511  -4.132  -7.747  1.00  0.00     0.031 C 
ATOM     56  C   UNL     1      10.585   0.534 -11.020  1.00  0.00     0.029 A 
ATOM     57  C   UNL     1      10.011  -0.225 -10.014  1.00  0.00     0.049 A 
ATOM     58  H   UNL     1       9.219   0.402  -8.160  1.00  0.00     0.167 HD
ATOM     59  C   UNL     1       9.283  -2.321  -8.918  1.00  0.00     0.074 A 
ATOM     60  C   UNL     1       9.061  -3.751  -8.891  1.00  0.00     0.031 C 
ATOM     61  C   UNL     1       9.792  -1.648  -9.978  1.00  0.00     0.037 A 
BRANCH  48  62
ATOM     62  C   UNL     1       9.968   4.465  -9.237  1.00  0.00     0.058 A 
ATOM     63  C   UNL     1      11.075   5.238  -8.860  1.00  0.00     0.135 A 
ATOM     64  C   UNL     1       9.182   4.922 -10.308  1.00  0.00     0.135 A 
ATOM     65  F   UNL     1      11.854   4.851  -7.838  1.00  0.00    -0.206 F 
ATOM     66  C   UNL     1      11.390   6.424  -9.517  1.00  0.00     0.059 A 
ATOM     67  C   UNL     1       9.490   6.094 -10.993  1.00  0.00     0.059 A 
ATOM     68  F   UNL     1       8.112   4.218 -10.710  1.00  0.00    -0.206 F 
ATOM     69  C   UNL     1      10.594   6.841 -10.586  1.00  0.00     0.060 A 
BRANCH  69  70
ATOM     70  S   UNL     1      11.042   8.361 -11.453  1.00  0.00     0.124 S 
ATOM     71  O   UNL     1      10.660   9.376 -10.477  1.00  0.00    -0.237 OA
ATOM     72  O   UNL     1      12.476   8.190 -11.663  1.00  0.00    -0.237 OA
ATOM     73  O   UNL     1      10.225   8.316 -12.664  1.00  0.00    -0.744 OA
ENDBRANCH  69  70
ENDBRANCH  48  62
BRANCH  49  74
ATOM     74  C   UNL     1       7.434  -4.205  -5.028  1.00  0.00     0.058 A 
ATOM     75  C   UNL     1       8.347  -5.218  -4.699  1.00  0.00     0.135 A 
ATOM     76  C   UNL     1       6.070  -4.461  -4.815  1.00  0.00     0.135 A 
ATOM     77  F   UNL     1       9.661  -5.025  -4.894  1.00  0.00    -0.206 F 
ATOM     78  C   UNL     1       7.925  -6.447  -4.203  1.00  0.00     0.059 A 
ATOM     79  C   UNL     1       5.625  -5.672  -4.296  1.00  0.00     0.059 A 
ATOM     80  F   UNL     1       5.156  -3.520  -5.100  1.00  0.00    -0.206 F 
ATOM     81  C   UNL     1       6.560  -6.665  -4.008  1.00  0.00     0.060 A 
BRANCH  81  82
ATOM     82  S   UNL     1       6.018  -8.254  -3.340  1.00  0.00     0.124 S 
ATOM     83  O   UNL     1       6.149  -9.120  -4.505  1.00  0.00    -0.237 OA
ATOM     84  O   UNL     1       6.978  -8.480  -2.264  1.00  0.00    -0.237 OA
ATOM     85  O   UNL     1       4.652  -7.983  -2.903  1.00  0.00    -0.744 OA
ENDBRANCH  81  82
ENDBRANCH  49  74
BRANCH  61  86
ATOM     86  C   UNL     1      10.163  -2.443 -11.199  1.00  0.00     0.058 A 
ATOM     87  C   UNL     1       9.184  -2.942 -12.072  1.00  0.00     0.135 A 
ATOM     88  C   UNL     1      11.510  -2.642 -11.541  1.00  0.00     0.135 A 
ATOM     89  F   UNL     1       7.881  -2.789 -11.784  1.00  0.00    -0.206 F 
ATOM     90  C   UNL     1       9.527  -3.617 -13.239  1.00  0.00     0.059 A 
ATOM     91  C   UNL     1      11.877  -3.292 -12.716  1.00  0.00     0.059 A 
ATOM     92  F   UNL     1      12.485  -2.179 -10.744  1.00  0.00    -0.206 F 
ATOM     93  C   UNL     1      10.877  -3.780 -13.556  1.00  0.00     0.060 A 
BRANCH  93  94
ATOM     94  S   UNL     1      11.309  -4.602 -15.105  1.00  0.00     0.124 S 
ATOM     95  O   UNL     1      11.010  -5.996 -14.793  1.00  0.00    -0.237 OA
ATOM     96  O   UNL     1      10.411  -3.961 -16.061  1.00  0.00    -0.237 OA
ATOM     97  O   UNL     1      12.724  -4.287 -15.275  1.00  0.00    -0.744 OA
ENDBRANCH  93  94
ENDBRANCH  61  86
ENDBRANCH  35  36
ENDBRANCH  27  30
ENDBRANCH  25  26
ENDBRANCH   1  25
TORSDOF 16
