REMARK SMILES O=C(NCCCNC(=O)[C@H]1C[C@@H](O)CN1C(=O)c1cc(F)c(F)cc1Cl)c1ccc(-c2c3nc(c(-c4c(F)cc(S(=O)(=O)[O-])cc4F)c4ccc([nH]4)c(-c4c(F)cc(S(=O)(=O)[O-])cc4F)c4nc(c(-c5c(F)cc(S(=O)(=O)[O-])cc5F)c5ccc2[nH]5)C=C4)C=C3)cc1
REMARK SMILES IDX 4 1 3 2 1 3 2 4 27 6 28 7 92 8 29 9 91 10 30 11 31 12 32 13
REMARK SMILES IDX 85 14 33 15 90 16 84 17 86 18 34 19 89 20 83 21 82 22 35 24
REMARK SMILES IDX 69 25 48 26 68 27 49 28 52 29 67 30 87 31 50 32 51 33 66 35
REMARK SMILES IDX 88 36 53 37 36 38 37 39 46 40 38 41 39 42 45 43 47 44 40 45
REMARK SMILES IDX 41 46 42 47 43 48 44 49 70 50 71 51 80 52 72 53 73 54 79 55
REMARK SMILES IDX 81 56 74 57 75 58 76 59 77 60 78 61 54 62 55 63 64 64 56 65
REMARK SMILES IDX 57 66 63 67 65 68 58 69 59 70 60 71 61 72 62 73 5 74 6 75
REMARK SMILES IDX 7 76 8 77 9 79 10 80 11 81 15 82 12 83 14 84 16 85 17 86
REMARK SMILES IDX 18 87 19 88 25 89 20 90 24 91 26 92 21 93 22 94 23 95 13 96
REMARK H PARENT 3 5 86 23 52 34 7 78 13 97
REMARK Flexibility Score: inf
ROOT
ATOM      1  C   UNL     1       4.189   0.753  -1.203  1.00  0.00     0.118 C 
ENDROOT
BRANCH   1   2
ATOM      2  N   UNL     1       2.793   0.784  -0.805  1.00  0.00    -0.352 N 
ATOM      3  O   UNL     1       0.925   0.149   0.249  1.00  0.00    -0.269 OA
ATOM      4  C   UNL     1       2.153   0.148   0.227  1.00  0.00     0.251 C 
ATOM      5  H   UNL     1       2.215   1.350  -1.365  1.00  0.00     0.163 HD
BRANCH   4   6
ATOM      6  C   UNL     1       2.911  -0.536   1.302  1.00  0.00     0.039 A 
ATOM      7  C   UNL     1       2.354  -1.681   1.879  1.00  0.00     0.014 A 
ATOM      8  C   UNL     1       4.112  -0.024   1.804  1.00  0.00     0.014 A 
ATOM      9  C   UNL     1       2.997  -2.310   2.948  1.00  0.00     0.010 A 
ATOM     10  C   UNL     1       4.797  -0.702   2.812  1.00  0.00     0.010 A 
ATOM     11  C   UNL     1       4.227  -1.829   3.421  1.00  0.00    -0.014 A 
BRANCH  11  12
ATOM     12  C   UNL     1       4.878  -2.438   4.611  1.00  0.00     0.031 A 
ATOM     13  C   UNL     1       5.045  -1.621   5.869  1.00  0.00     0.074 A 
ATOM     14  C   UNL     1       5.319  -3.711   4.563  1.00  0.00     0.049 A 
ATOM     15  N   UNL     1       5.614  -1.953   6.998  1.00  0.00    -0.248 NA
ATOM     16  C   UNL     1       4.528  -0.241   5.847  1.00  0.00     0.031 C 
ATOM     17  C   UNL     1       5.243  -4.589   3.393  1.00  0.00     0.029 A 
ATOM     18  N   UNL     1       5.913  -4.491   5.524  1.00  0.00    -0.354 N 
ATOM     19  C   UNL     1       5.536  -0.826   7.809  1.00  0.00     0.074 A 
ATOM     20  C   UNL     1       4.921   0.220   7.025  1.00  0.00     0.031 C 
ATOM     21  C   UNL     1       5.736  -5.796   3.716  1.00  0.00     0.029 A 
ATOM     22  C   UNL     1       6.195  -5.770   5.102  1.00  0.00     0.049 A 
ATOM     23  H   UNL     1       6.119  -4.166   6.430  1.00  0.00     0.167 HD
ATOM     24  C   UNL     1       5.909  -0.685   9.101  1.00  0.00     0.037 A 
ATOM     25  C   UNL     1       6.757  -6.804   5.759  1.00  0.00     0.037 A 
ATOM     26  C   UNL     1       6.463  -1.748   9.895  1.00  0.00     0.049 A 
ATOM     27  C   UNL     1       7.160  -6.622   7.199  1.00  0.00     0.074 A 
ATOM     28  C   UNL     1       6.819  -1.724  11.232  1.00  0.00     0.029 A 
ATOM     29  N   UNL     1       6.726  -3.028   9.431  1.00  0.00    -0.354 N 
ATOM     30  N   UNL     1       7.036  -5.561   7.960  1.00  0.00    -0.248 NA
ATOM     31  C   UNL     1       7.779  -7.774   7.872  1.00  0.00     0.031 C 
ATOM     32  C   UNL     1       7.330  -2.979  11.568  1.00  0.00     0.029 A 
ATOM     33  C   UNL     1       7.253  -3.798  10.452  1.00  0.00     0.049 A 
ATOM     34  H   UNL     1       6.561  -3.341   8.512  1.00  0.00     0.167 HD
ATOM     35  C   UNL     1       7.537  -5.925   9.205  1.00  0.00     0.074 A 
ATOM     36  C   UNL     1       7.958  -7.306   9.101  1.00  0.00     0.031 C 
ATOM     37  C   UNL     1       7.643  -5.180  10.332  1.00  0.00     0.037 A 
BRANCH  24  38
ATOM     38  C   UNL     1       5.700   0.649   9.761  1.00  0.00     0.058 A 
ATOM     39  C   UNL     1       4.417   1.098  10.110  1.00  0.00     0.135 A 
ATOM     40  C   UNL     1       6.796   1.447  10.128  1.00  0.00     0.135 A 
ATOM     41  F   UNL     1       3.333   0.384   9.767  1.00  0.00    -0.206 F 
ATOM     42  C   UNL     1       4.226   2.294  10.794  1.00  0.00     0.059 A 
ATOM     43  C   UNL     1       6.631   2.634  10.835  1.00  0.00     0.059 A 
ATOM     44  F   UNL     1       8.044   1.066   9.814  1.00  0.00    -0.206 F 
ATOM     45  C   UNL     1       5.340   3.050  11.161  1.00  0.00     0.060 A 
BRANCH  45  46
ATOM     46  S   UNL     1       5.072   4.573  12.094  1.00  0.00     0.124 S 
ATOM     47  O   UNL     1       4.461   5.431  11.083  1.00  0.00    -0.237 OA
ATOM     48  O   UNL     1       4.188   4.128  13.166  1.00  0.00    -0.237 OA
ATOM     49  O   UNL     1       6.417   4.958  12.512  1.00  0.00    -0.744 OA
ENDBRANCH  45  46
ENDBRANCH  24  38
BRANCH  25  50
ATOM     50  C   UNL     1       6.947  -8.111   5.073  1.00  0.00     0.058 A 
ATOM     51  C   UNL     1       6.186  -9.232   5.435  1.00  0.00     0.135 A 
ATOM     52  C   UNL     1       7.885  -8.265   4.040  1.00  0.00     0.135 A 
ATOM     53  F   UNL     1       5.280  -9.138   6.420  1.00  0.00    -0.206 F 
ATOM     54  C   UNL     1       6.360 -10.464   4.812  1.00  0.00     0.059 A 
ATOM     55  C   UNL     1       8.060  -9.480   3.385  1.00  0.00     0.059 A 
ATOM     56  F   UNL     1       8.628  -7.219   3.645  1.00  0.00    -0.206 F 
ATOM     57  C   UNL     1       7.300 -10.578   3.787  1.00  0.00     0.060 A 
BRANCH  57  58
ATOM     58  S   UNL     1       7.493 -12.175   2.965  1.00  0.00     0.124 S 
ATOM     59  O   UNL     1       8.151 -12.961   4.001  1.00  0.00    -0.237 OA
ATOM     60  O   UNL     1       6.110 -12.536   2.670  1.00  0.00    -0.237 OA
ATOM     61  O   UNL     1       8.312 -11.856   1.799  1.00  0.00    -0.744 OA
ENDBRANCH  57  58
ENDBRANCH  25  50
BRANCH  37  62
ATOM     62  C   UNL     1       8.211  -5.832  11.559  1.00  0.00     0.058 A 
ATOM     63  C   UNL     1       9.589  -6.048  11.697  1.00  0.00     0.135 A 
ATOM     64  C   UNL     1       7.384  -6.117  12.658  1.00  0.00     0.135 A 
ATOM     65  F   UNL     1      10.419  -5.796  10.671  1.00  0.00    -0.206 F 
ATOM     66  C   UNL     1      10.132  -6.518  12.887  1.00  0.00     0.059 A 
ATOM     67  C   UNL     1       7.908  -6.566  13.866  1.00  0.00     0.059 A 
ATOM     68  F   UNL     1       6.059  -5.917  12.578  1.00  0.00    -0.206 F 
ATOM     69  C   UNL     1       9.285  -6.760  13.971  1.00  0.00     0.060 A 
BRANCH  69  70
ATOM     70  S   UNL     1      10.018  -7.280  15.536  1.00  0.00     0.124 S 
ATOM     71  O   UNL     1      10.441  -8.642  15.227  1.00  0.00    -0.237 OA
ATOM     72  O   UNL     1      11.093  -6.308  15.713  1.00  0.00    -0.237 OA
ATOM     73  O   UNL     1       8.915  -7.166  16.485  1.00  0.00    -0.744 OA
ENDBRANCH  69  70
ENDBRANCH  37  62
ENDBRANCH  11  12
ENDBRANCH   4   6
ENDBRANCH   1   2
BRANCH   1  74
ATOM     74  C   UNL     1       4.356   0.354  -2.663  1.00  0.00     0.042 C 
BRANCH  74  75
ATOM     75  C   UNL     1       3.886   1.421  -3.649  1.00  0.00     0.117 C 
BRANCH  75  76
ATOM     76  N   UNL     1       4.848   2.498  -3.733  1.00  0.00    -0.354 N 
ATOM     77  C   UNL     1       5.947   2.611  -4.525  1.00  0.00     0.242 C 
ATOM     78  H   UNL     1       4.682   3.259  -3.131  1.00  0.00     0.163 HD
ATOM     79  O   UNL     1       6.714   3.546  -4.265  1.00  0.00    -0.273 OA
BRANCH  77  80
ATOM     80  C   UNL     1       6.241   1.627  -5.696  1.00  0.00     0.177 C 
ATOM     81  C   UNL     1       7.385   2.189  -6.561  1.00  0.00     0.069 C 
ATOM     82  N   UNL     1       6.758   0.308  -5.290  1.00  0.00    -0.324 N 
ATOM     83  C   UNL     1       8.646   1.646  -5.889  1.00  0.00     0.136 C 
ATOM     84  C   UNL     1       8.219   0.260  -5.404  1.00  0.00     0.152 C 
BRANCH  82  85
ATOM     85  C   UNL     1       5.928  -0.809  -5.261  1.00  0.00     0.256 C 
ATOM     86  O   UNL     1       4.761  -0.748  -5.637  1.00  0.00    -0.269 OA
BRANCH  85  87
ATOM     87  C   UNL     1       6.420  -2.099  -4.695  1.00  0.00     0.061 A 
ATOM     88  C   UNL     1       7.224  -2.077  -3.543  1.00  0.00     0.057 A 
ATOM     89  C   UNL     1       5.991  -3.343  -5.199  1.00  0.00     0.056 A 
ATOM     90  C   UNL     1       7.641  -3.268  -2.957  1.00  0.00     0.159 A 
ATOM     91  C   UNL     1       6.391  -4.534  -4.577  1.00  0.00     0.063 A 
ATOM     92  Cl  UNL     1       5.000  -3.515  -6.606  1.00  0.00    -0.083 Cl
ATOM     93  F   UNL     1       8.443  -3.219  -1.886  1.00  0.00    -0.204 F 
ATOM     94  C   UNL     1       7.226  -4.487  -3.469  1.00  0.00     0.160 A 
ATOM     95  F   UNL     1       7.624  -5.630  -2.898  1.00  0.00    -0.204 F 
ENDBRANCH  85  87
ENDBRANCH  82  85
BRANCH  83  96
ATOM     96  O   UNL     1       9.091   2.446  -4.798  1.00  0.00    -0.391 OA
ATOM     97  H   UNL     1       8.387   2.507  -4.134  1.00  0.00     0.211 HD
ENDBRANCH  83  96
ENDBRANCH  77  80
ENDBRANCH  75  76
ENDBRANCH  74  75
ENDBRANCH   1  74
TORSDOF 16
