REMARK SMILES CC(=O)[C@]1(C)CC[C@@H](C(=O)NCCCNC(=O)c2ccc(-c3c4nc(c(-c5c(F)cc(S(=O)(=O)[O-])cc5F)c5ccc([nH]5)c(-c5c(F)cc(S(=O)(=O)[O-])cc5F)c5nc(c(-c6c(F)cc(S(=O)(=O)[O-])cc6F)c6ccc3[nH]6)C=C5)C=C4)cc2)C1(C)C
REMARK SMILES IDX 14 1 13 2 12 3 11 4 9 5 10 6 8 8 4 9 6 10 84 11 5 12 7 13
REMARK SMILES IDX 85 14 86 15 2 16 1 17 3 18 15 19 16 20 17 22 18 23 19 24
REMARK SMILES IDX 83 25 20 26 82 27 21 28 22 29 23 30 76 31 24 32 81 33 75 34
REMARK SMILES IDX 77 35 25 36 80 37 74 38 73 39 26 41 60 42 39 43 59 44 40 45
REMARK SMILES IDX 43 46 58 47 78 48 41 49 42 50 57 52 79 53 44 54 27 55 28 56
REMARK SMILES IDX 37 57 29 58 30 59 36 60 38 61 31 62 32 63 33 64 34 65 35 66
REMARK SMILES IDX 61 67 62 68 71 69 63 70 64 71 70 72 72 73 65 74 66 75 67 76
REMARK SMILES IDX 68 77 69 78 45 79 46 80 55 81 47 82 48 83 54 84 56 85 49 86
REMARK SMILES IDX 50 87 51 88 52 89 53 90
REMARK H PARENT 11 7 15 21 77 40 43 51
REMARK Flexibility Score: inf
ROOT
ATOM      1  C   UNL     1      -4.020  -2.596  -0.977  1.00  0.00     0.118 C 
ENDROOT
BRANCH   1   2
ATOM      2  C   UNL     1      -2.897  -2.132  -0.061  1.00  0.00     0.042 C 
BRANCH   2   3
ATOM      3  C   UNL     1      -2.290  -3.243   0.792  1.00  0.00     0.117 C 
BRANCH   3   4
ATOM      4  N   UNL     1      -1.650  -4.281   0.007  1.00  0.00    -0.356 N 
ATOM      5  C   UNL     1      -0.386  -4.759  -0.048  1.00  0.00     0.223 C 
ATOM      6  O   UNL     1      -0.197  -5.682  -0.851  1.00  0.00    -0.275 OA
ATOM      7  H   UNL     1      -2.264  -4.733  -0.615  1.00  0.00     0.163 HD
BRANCH   5   8
ATOM      8  C   UNL     1       0.796  -4.251   0.788  1.00  0.00     0.085 C 
ATOM      9  C   UNL     1       1.409  -1.987   1.710  1.00  0.00     0.032 C 
ATOM     10  C   UNL     1       0.673  -2.831   2.784  1.00  0.00     0.016 C 
ATOM     11  C   UNL     1       1.505  -2.910   0.406  1.00  0.00    -0.012 C 
ATOM     12  C   UNL     1       0.560  -0.708   1.457  1.00  0.00     0.020 C 
ATOM     13  C   UNL     1       0.600  -4.265   2.296  1.00  0.00     0.015 C 
ATOM     14  C   UNL     1       0.906  -2.278  -0.872  1.00  0.00     0.013 C 
ATOM     15  C   UNL     1       2.945  -3.259  -0.045  1.00  0.00     0.013 C 
BRANCH   9  16
ATOM     16  C   UNL     1       2.705  -1.459   2.409  1.00  0.00     0.136 C 
ATOM     17  C   UNL     1       3.911  -2.336   2.600  1.00  0.00     0.088 C 
ATOM     18  O   UNL     1       2.739  -0.334   2.922  1.00  0.00    -0.299 OA
ENDBRANCH   9  16
ENDBRANCH   5   8
ENDBRANCH   3   4
ENDBRANCH   2   3
ENDBRANCH   1   2
BRANCH   1  19
ATOM     19  N   UNL     1      -5.284  -2.723  -0.270  1.00  0.00    -0.352 N 
ATOM     20  C   UNL     1      -6.343  -1.852  -0.207  1.00  0.00     0.251 C 
ATOM     21  H   UNL     1      -5.397  -3.558   0.239  1.00  0.00     0.163 HD
ATOM     22  O   UNL     1      -7.216  -2.031   0.649  1.00  0.00    -0.269 OA
BRANCH  20  23
ATOM     23  C   UNL     1      -6.441  -0.696  -1.127  1.00  0.00     0.039 A 
ATOM     24  C   UNL     1      -6.890   0.533  -0.634  1.00  0.00     0.014 A 
ATOM     25  C   UNL     1      -6.132  -0.821  -2.484  1.00  0.00     0.014 A 
ATOM     26  C   UNL     1      -6.968   1.642  -1.483  1.00  0.00     0.010 A 
ATOM     27  C   UNL     1      -6.120   0.303  -3.306  1.00  0.00     0.010 A 
ATOM     28  C   UNL     1      -6.550   1.547  -2.821  1.00  0.00    -0.014 A 
BRANCH  28  29
ATOM     29  C   UNL     1      -6.576   2.720  -3.736  1.00  0.00     0.031 A 
ATOM     30  C   UNL     1      -7.425   2.685  -4.981  1.00  0.00     0.074 A 
ATOM     31  C   UNL     1      -5.778   3.780  -3.496  1.00  0.00     0.049 A 
ATOM     32  N   UNL     1      -7.490   3.548  -5.963  1.00  0.00    -0.248 NA
ATOM     33  C   UNL     1      -8.292   1.508  -5.164  1.00  0.00     0.031 C 
ATOM     34  C   UNL     1      -4.866   3.915  -2.357  1.00  0.00     0.029 A 
ATOM     35  N   UNL     1      -5.588   4.939  -4.208  1.00  0.00    -0.354 N 
ATOM     36  C   UNL     1      -8.373   3.005  -6.890  1.00  0.00     0.074 A 
ATOM     37  C   UNL     1      -8.789   1.720  -6.374  1.00  0.00     0.031 C 
ATOM     38  C   UNL     1      -4.224   5.092  -2.443  1.00  0.00     0.029 A 
ATOM     39  C   UNL     1      -4.647   5.779  -3.659  1.00  0.00     0.049 A 
ATOM     40  H   UNL     1      -6.080   5.149  -5.035  1.00  0.00     0.167 HD
ATOM     41  C   UNL     1      -8.813   3.537  -8.055  1.00  0.00     0.037 A 
ATOM     42  C   UNL     1      -4.167   6.961  -4.093  1.00  0.00     0.037 A 
ATOM     43  C   UNL     1      -8.443   4.841  -8.538  1.00  0.00     0.049 A 
ATOM     44  C   UNL     1      -4.702   7.549  -5.371  1.00  0.00     0.074 A 
ATOM     45  C   UNL     1      -8.906   5.506  -9.660  1.00  0.00     0.029 A 
ATOM     46  N   UNL     1      -7.527   5.682  -7.925  1.00  0.00    -0.354 N 
ATOM     47  N   UNL     1      -5.588   7.049  -6.199  1.00  0.00    -0.248 NA
ATOM     48  C   UNL     1      -4.178   8.862  -5.771  1.00  0.00     0.031 C 
ATOM     49  C   UNL     1      -8.243   6.734  -9.746  1.00  0.00     0.029 A 
ATOM     50  C   UNL     1      -7.397   6.852  -8.655  1.00  0.00     0.049 A 
ATOM     51  H   UNL     1      -7.040   5.478  -7.093  1.00  0.00     0.167 HD
ATOM     52  C   UNL     1      -5.741   7.995  -7.207  1.00  0.00     0.074 A 
ATOM     53  C   UNL     1      -4.869   9.103  -6.876  1.00  0.00     0.031 C 
ATOM     54  C   UNL     1      -6.531   7.949  -8.307  1.00  0.00     0.037 A 
BRANCH  41  55
ATOM     55  C   UNL     1      -9.760   2.719  -8.889  1.00  0.00     0.058 A 
ATOM     56  C   UNL     1     -11.094   2.514  -8.503  1.00  0.00     0.135 A 
ATOM     57  C   UNL     1      -9.343   2.179 -10.117  1.00  0.00     0.135 A 
ATOM     58  F   UNL     1     -11.540   2.994  -7.331  1.00  0.00    -0.206 F 
ATOM     59  C   UNL     1     -11.976   1.787  -9.294  1.00  0.00     0.059 A 
ATOM     60  C   UNL     1     -10.216   1.469 -10.937  1.00  0.00     0.059 A 
ATOM     61  F   UNL     1      -8.078   2.344 -10.533  1.00  0.00    -0.206 F 
ATOM     62  C   UNL     1     -11.529   1.269 -10.511  1.00  0.00     0.060 A 
BRANCH  62  63
ATOM     63  S   UNL     1     -12.693   0.348 -11.538  1.00  0.00     0.124 S 
ATOM     64  O   UNL     1     -12.789  -0.913 -10.809  1.00  0.00    -0.237 OA
ATOM     65  O   UNL     1     -13.883   1.194 -11.498  1.00  0.00    -0.237 OA
ATOM     66  O   UNL     1     -12.023   0.277 -12.832  1.00  0.00    -0.744 OA
ENDBRANCH  62  63
ENDBRANCH  41  55
BRANCH  42  67
ATOM     67  C   UNL     1      -3.125   7.675  -3.308  1.00  0.00     0.058 A 
ATOM     68  C   UNL     1      -3.427   8.852  -2.608  1.00  0.00     0.135 A 
ATOM     69  C   UNL     1      -1.807   7.197  -3.246  1.00  0.00     0.135 A 
ATOM     70  F   UNL     1      -4.672   9.351  -2.643  1.00  0.00    -0.206 F 
ATOM     71  C   UNL     1      -2.456   9.543  -1.891  1.00  0.00     0.059 A 
ATOM     72  C   UNL     1      -0.824   7.857  -2.515  1.00  0.00     0.059 A 
ATOM     73  F   UNL     1      -1.471   6.065  -3.884  1.00  0.00    -0.206 F 
ATOM     74  C   UNL     1      -1.155   9.038  -1.852  1.00  0.00     0.060 A 
BRANCH  74  75
ATOM     75  S   UNL     1       0.092   9.922  -0.891  1.00  0.00     0.124 S 
ATOM     76  O   UNL     1       0.388  11.052  -1.765  1.00  0.00    -0.237 OA
ATOM     77  O   UNL     1      -0.631  10.238   0.337  1.00  0.00    -0.237 OA
ATOM     78  O   UNL     1       1.160   8.938  -0.745  1.00  0.00    -0.744 OA
ENDBRANCH  74  75
ENDBRANCH  42  67
BRANCH  54  79
ATOM     79  C   UNL     1      -6.512   9.141  -9.222  1.00  0.00     0.058 A 
ATOM     80  C   UNL     1      -5.429   9.393 -10.078  1.00  0.00     0.135 A 
ATOM     81  C   UNL     1      -7.613  10.011  -9.280  1.00  0.00     0.135 A 
ATOM     82  F   UNL     1      -4.351   8.594 -10.056  1.00  0.00    -0.206 F 
ATOM     83  C   UNL     1      -5.429  10.478 -10.947  1.00  0.00     0.059 A 
ATOM     84  C   UNL     1      -7.645  11.088 -10.159  1.00  0.00     0.059 A 
ATOM     85  F   UNL     1      -8.678   9.807  -8.489  1.00  0.00    -0.206 F 
ATOM     86  C   UNL     1      -6.543  11.321 -10.981  1.00  0.00     0.060 A 
BRANCH  86  87
ATOM     87  S   UNL     1      -6.547  12.706 -12.138  1.00  0.00     0.124 S 
ATOM     88  O   UNL     1      -5.657  13.650 -11.470  1.00  0.00    -0.237 OA
ATOM     89  O   UNL     1      -6.025  12.099 -13.359  1.00  0.00    -0.237 OA
ATOM     90  O   UNL     1      -7.952  13.098 -12.192  1.00  0.00    -0.744 OA
ENDBRANCH  86  87
ENDBRANCH  54  79
ENDBRANCH  28  29
ENDBRANCH  20  23
ENDBRANCH   1  19
TORSDOF 14
