REMARK SMILES Cc1ccnc(C(=O)c2[nH]c3cc(Cl)c(F)cc3c2CC(=O)NCCCNC(=O)c2ccc(-c3c4nc(c(-c5c(F)cc(S(=O)(=O)[O-])cc5F)c5ccc([nH]5)c(-c5c(F)cc(S(=O)(=O)[O-])cc5F)c5nc(c(-c6c(F)cc(S(=O)(=O)[O-])cc6F)c6ccc3[nH]6)C=C5)C=C4)cc2)c1
REMARK SMILES IDX 25 1 24 2 23 3 21 4 22 5 20 7 19 8 9 9 10 10 11 11 18 13
REMARK SMILES IDX 12 14 17 15 13 16 15 17 14 18 16 19 7 20 8 21 6 22 1 23 2 24
REMARK SMILES IDX 3 25 96 26 4 27 5 28 26 29 27 30 28 31 29 33 30 34 31 35
REMARK SMILES IDX 95 36 32 37 94 38 33 39 34 40 35 41 88 42 36 43 93 44 87 45
REMARK SMILES IDX 89 46 37 47 92 48 86 49 85 50 38 52 72 53 51 54 71 55 52 56
REMARK SMILES IDX 55 57 70 58 90 59 53 60 54 61 69 63 91 64 56 65 39 66 40 67
REMARK SMILES IDX 49 68 41 69 42 70 48 71 50 72 43 73 44 74 45 75 46 76 47 77
REMARK SMILES IDX 73 78 74 79 83 80 75 81 76 82 82 83 84 84 77 85 78 86 79 87
REMARK SMILES IDX 80 88 81 89 57 90 58 91 67 92 59 93 60 94 66 95 68 96 61 97
REMARK SMILES IDX 62 98 63 99 64 100 65 101
REMARK H PARENT 23 6 10 12 27 32 89 51 55 62
REMARK Flexibility Score: inf
ROOT
ATOM      1  C   UNL     1      -2.957  -3.704   0.617  1.00  0.00     0.042 C 
ENDROOT
BRANCH   1   2
ATOM      2  C   UNL     1      -3.118  -3.567  -0.896  1.00  0.00     0.117 C 
BRANCH   2   3
ATOM      3  N   UNL     1      -2.422  -2.448  -1.506  1.00  0.00    -0.356 N 
ATOM      4  C   UNL     1      -1.228  -2.359  -2.155  1.00  0.00     0.224 C 
ATOM      5  O   UNL     1      -0.994  -1.295  -2.739  1.00  0.00    -0.275 OA
ATOM      6  H   UNL     1      -2.904  -1.592  -1.437  1.00  0.00     0.163 HD
BRANCH   4   7
ATOM      7  C   UNL     1      -0.233  -3.498  -2.231  1.00  0.00     0.138 C 
BRANCH   7   8
ATOM      8  C   UNL     1       0.202  -4.108  -0.930  1.00  0.00    -0.002 A 
ATOM      9  C   UNL     1       1.063  -3.610   0.054  1.00  0.00     0.093 A 
ATOM     10  N   UNL     1       1.236  -4.628   0.975  1.00  0.00    -0.351 N 
ATOM     11  C   UNL     1       0.448  -5.710   0.688  1.00  0.00     0.048 A 
ATOM     12  H   UNL     1       1.850  -4.579   1.743  1.00  0.00     0.167 HD
ATOM     13  C   UNL     1      -0.154  -5.453  -0.537  1.00  0.00     0.007 A 
ATOM     14  C   UNL     1       0.243  -6.897   1.406  1.00  0.00     0.050 A 
ATOM     15  C   UNL     1      -0.959  -6.463  -1.108  1.00  0.00     0.051 A 
ATOM     16  C   UNL     1      -0.615  -7.851   0.850  1.00  0.00     0.078 A 
ATOM     17  C   UNL     1      -1.194  -7.640  -0.395  1.00  0.00     0.142 A 
ATOM     18  Cl  UNL     1      -0.938  -9.283   1.742  1.00  0.00    -0.081 Cl
ATOM     19  F   UNL     1      -2.014  -8.550  -0.942  1.00  0.00    -0.205 F 
BRANCH   9  20
ATOM     20  C   UNL     1       1.840  -2.381   0.223  1.00  0.00     0.227 C 
ATOM     21  O   UNL     1       3.015  -2.456   0.585  1.00  0.00    -0.285 OA
BRANCH  20  22
ATOM     22  C   UNL     1       1.219  -1.012   0.113  1.00  0.00     0.113 A 
ATOM     23  C   UNL     1      -2.146   0.762   0.227  1.00  0.00     0.044 C 
ATOM     24  C   UNL     1      -0.675   0.484   0.166  1.00  0.00    -0.047 A 
ATOM     25  C   UNL     1       0.208   1.542  -0.022  1.00  0.00     0.023 A 
ATOM     26  C   UNL     1      -0.143  -0.807   0.290  1.00  0.00     0.036 A 
ATOM     27  C   UNL     1       1.559   1.264  -0.125  1.00  0.00     0.112 A 
ATOM     28  N   UNL     1       2.083   0.020  -0.071  1.00  0.00    -0.253 NA
ENDBRANCH  20  22
ENDBRANCH   9  20
ENDBRANCH   7   8
ENDBRANCH   4   7
ENDBRANCH   2   3
ENDBRANCH   1   2
BRANCH   1  29
ATOM     29  C   UNL     1      -3.329  -2.507   1.480  1.00  0.00     0.118 C 
BRANCH  29  30
ATOM     30  N   UNL     1      -4.565  -1.827   1.159  1.00  0.00    -0.352 N 
ATOM     31  C   UNL     1      -5.791  -1.736   1.758  1.00  0.00     0.251 C 
ATOM     32  H   UNL     1      -4.512  -1.314   0.320  1.00  0.00     0.163 HD
ATOM     33  O   UNL     1      -6.578  -0.904   1.304  1.00  0.00    -0.269 OA
BRANCH  31  34
ATOM     34  C   UNL     1      -6.245  -2.676   2.802  1.00  0.00     0.039 A 
ATOM     35  C   UNL     1      -5.404  -3.308   3.714  1.00  0.00     0.014 A 
ATOM     36  C   UNL     1      -7.608  -2.997   2.785  1.00  0.00     0.014 A 
ATOM     37  C   UNL     1      -5.840  -4.441   4.377  1.00  0.00     0.010 A 
ATOM     38  C   UNL     1      -8.076  -4.062   3.535  1.00  0.00     0.010 A 
ATOM     39  C   UNL     1      -7.163  -4.856   4.228  1.00  0.00    -0.014 A 
BRANCH  39  40
ATOM     40  C   UNL     1      -7.554  -6.119   4.849  1.00  0.00     0.031 A 
ATOM     41  C   UNL     1      -7.310  -6.216   6.323  1.00  0.00     0.074 A 
ATOM     42  C   UNL     1      -8.203  -7.070   4.145  1.00  0.00     0.049 A 
ATOM     43  N   UNL     1      -6.654  -7.113   6.989  1.00  0.00    -0.248 NA
ATOM     44  C   UNL     1      -7.772  -5.085   7.149  1.00  0.00     0.031 C 
ATOM     45  C   UNL     1      -8.737  -6.987   2.779  1.00  0.00     0.029 A 
ATOM     46  N   UNL     1      -8.650  -8.283   4.559  1.00  0.00    -0.354 N 
ATOM     47  C   UNL     1      -6.777  -6.761   8.335  1.00  0.00     0.074 A 
ATOM     48  C   UNL     1      -7.357  -5.444   8.363  1.00  0.00     0.031 C 
ATOM     49  C   UNL     1      -9.664  -7.953   2.605  1.00  0.00     0.029 A 
ATOM     50  C   UNL     1      -9.676  -8.802   3.782  1.00  0.00     0.049 A 
ATOM     51  H   UNL     1      -8.280  -8.753   5.342  1.00  0.00     0.167 HD
ATOM     52  C   UNL     1      -6.562  -7.635   9.358  1.00  0.00     0.037 A 
ATOM     53  C   UNL     1     -10.545  -9.776   4.149  1.00  0.00     0.037 A 
ATOM     54  C   UNL     1      -5.810  -8.784   8.946  1.00  0.00     0.049 A 
ATOM     55  C   UNL     1      -9.933 -10.498   5.297  1.00  0.00     0.074 A 
ATOM     56  C   UNL     1      -4.529  -8.983   8.467  1.00  0.00     0.029 A 
ATOM     57  N   UNL     1      -6.489  -9.946   8.673  1.00  0.00    -0.354 N 
ATOM     58  N   UNL     1      -8.841 -11.210   5.214  1.00  0.00    -0.248 NA
ATOM     59  C   UNL     1     -10.279 -10.046   6.637  1.00  0.00     0.031 C 
ATOM     60  C   UNL     1      -4.655 -10.021   7.499  1.00  0.00     0.029 A 
ATOM     61  C   UNL     1      -5.992 -10.419   7.483  1.00  0.00     0.049 A 
ATOM     62  H   UNL     1      -7.194 -10.359   9.222  1.00  0.00     0.167 HD
ATOM     63  C   UNL     1      -8.157 -10.962   6.396  1.00  0.00     0.074 A 
ATOM     64  C   UNL     1      -9.125 -10.292   7.262  1.00  0.00     0.031 C 
ATOM     65  C   UNL     1      -6.797 -11.071   6.476  1.00  0.00     0.037 A 
BRANCH  52  66
ATOM     66  C   UNL     1      -7.294  -7.572  10.673  1.00  0.00     0.058 A 
ATOM     67  C   UNL     1      -6.814  -8.273  11.796  1.00  0.00     0.135 A 
ATOM     68  C   UNL     1      -8.602  -7.051  10.787  1.00  0.00     0.135 A 
ATOM     69  F   UNL     1      -5.591  -8.826  11.784  1.00  0.00    -0.206 F 
ATOM     70  C   UNL     1      -7.597  -8.479  12.934  1.00  0.00     0.059 A 
ATOM     71  C   UNL     1      -9.380  -7.199  11.929  1.00  0.00     0.059 A 
ATOM     72  F   UNL     1      -9.216  -6.457   9.754  1.00  0.00    -0.206 F 
ATOM     73  C   UNL     1      -8.885  -7.949  12.983  1.00  0.00     0.060 A 
BRANCH  73  74
ATOM     74  S   UNL     1      -9.940  -8.313  14.399  1.00  0.00     0.124 S 
ATOM     75  O   UNL     1     -10.159  -9.745  14.239  1.00  0.00    -0.237 OA
ATOM     76  O   UNL     1      -9.092  -7.917  15.519  1.00  0.00    -0.237 OA
ATOM     77  O   UNL     1     -11.108  -7.466  14.175  1.00  0.00    -0.744 OA
ENDBRANCH  73  74
ENDBRANCH  52  66
BRANCH  53  78
ATOM     78  C   UNL     1     -12.008  -9.793   3.872  1.00  0.00     0.058 A 
ATOM     79  C   UNL     1     -12.770 -10.960   4.052  1.00  0.00     0.135 A 
ATOM     80  C   UNL     1     -12.738  -8.599   3.683  1.00  0.00     0.135 A 
ATOM     81  F   UNL     1     -12.159 -12.134   4.269  1.00  0.00    -0.206 F 
ATOM     82  C   UNL     1     -14.170 -10.939   4.079  1.00  0.00     0.059 A 
ATOM     83  C   UNL     1     -14.130  -8.556   3.692  1.00  0.00     0.059 A 
ATOM     84  F   UNL     1     -12.117  -7.415   3.575  1.00  0.00    -0.206 F 
ATOM     85  C   UNL     1     -14.841  -9.727   3.916  1.00  0.00     0.060 A 
BRANCH  85  86
ATOM     86  S   UNL     1     -16.637  -9.668   4.113  1.00  0.00     0.124 S 
ATOM     87  O   UNL     1     -17.092 -10.448   2.968  1.00  0.00    -0.237 OA
ATOM     88  O   UNL     1     -16.821 -10.286   5.421  1.00  0.00    -0.237 OA
ATOM     89  O   UNL     1     -16.939  -8.239   4.053  1.00  0.00    -0.744 OA
ENDBRANCH  85  86
ENDBRANCH  53  78
BRANCH  65  90
ATOM     90  C   UNL     1      -6.060 -11.695   5.318  1.00  0.00     0.058 A 
ATOM     91  C   UNL     1      -5.999 -11.137   4.028  1.00  0.00     0.135 A 
ATOM     92  C   UNL     1      -5.255 -12.816   5.566  1.00  0.00     0.135 A 
ATOM     93  F   UNL     1      -6.645  -9.998   3.742  1.00  0.00    -0.206 F 
ATOM     94  C   UNL     1      -5.217 -11.699   3.017  1.00  0.00     0.059 A 
ATOM     95  C   UNL     1      -4.445 -13.377   4.581  1.00  0.00     0.059 A 
ATOM     96  F   UNL     1      -5.211 -13.354   6.796  1.00  0.00    -0.206 F 
ATOM     97  C   UNL     1      -4.446 -12.824   3.302  1.00  0.00     0.060 A 
BRANCH  97  98
ATOM     98  S   UNL     1      -3.408 -13.540   2.008  1.00  0.00     0.124 S 
ATOM     99  O   UNL     1      -4.403 -14.102   1.096  1.00  0.00    -0.237 OA
ATOM    100  O   UNL     1      -2.682 -12.374   1.504  1.00  0.00    -0.237 OA
ATOM    101  O   UNL     1      -2.593 -14.512   2.718  1.00  0.00    -0.744 OA
ENDBRANCH  97  98
ENDBRANCH  65  90
ENDBRANCH  39  40
ENDBRANCH  31  34
ENDBRANCH  29  30
ENDBRANCH   1  29
TORSDOF 16
