REMARK SMILES Cc1cccc(C[N@@H+](C)C[C@]2(C(=O)NCCCNC(=O)c3ccc(-c4c5nc(c(-c6c(F)cc(S(=O)(=O)[O-])cc6F)c6ccc([nH]6)c(-c6c(F)cc(S(=O)(=O)[O-])cc6F)c6nc(c(-c7c(F)cc(S(=O)(=O)[O-])cc7F)c7ccc4[nH]7)C=C6)C=C5)cc3)CCC[C@H](C)C2)n1
REMARK SMILES IDX 15 1 14 2 12 3 13 4 11 6 87 7 92 8 88 9 90 10 89 11 91 12
REMARK SMILES IDX 10 13 8 14 9 15 7 17 6 18 1 19 2 20 3 21 93 22 4 23 5 24
REMARK SMILES IDX 16 25 17 26 18 27 19 28 20 30 21 31 22 32 86 33 23 34 85 35
REMARK SMILES IDX 24 36 25 37 26 38 79 39 27 40 84 41 78 42 80 43 28 44 83 45
REMARK SMILES IDX 77 46 76 47 29 49 63 50 42 51 62 52 43 53 46 54 61 55 81 56
REMARK SMILES IDX 44 57 45 58 60 60 82 61 47 62 30 63 31 64 40 65 32 66 33 67
REMARK SMILES IDX 39 68 41 69 34 70 35 71 36 72 37 73 38 74 64 75 65 76 74 77
REMARK SMILES IDX 66 78 67 79 73 80 75 81 68 82 69 83 70 84 71 85 72 86 48 87
REMARK SMILES IDX 49 88 58 89 50 90 51 91 57 92 59 93 52 94 53 95 54 96 55 97
REMARK SMILES IDX 56 98
REMARK H PARENT 14 5 8 16 18 29 80 48 46 59
REMARK Flexibility Score: inf
ROOT
ATOM      1  C   UNL     1       0.631   4.442   1.124  1.00  0.00     0.117 C 
ENDROOT
BRANCH   1   2
ATOM      2  N   UNL     1       1.195   3.530   2.096  1.00  0.00    -0.355 N 
ATOM      3  C   UNL     1       0.584   2.785   3.058  1.00  0.00     0.231 C 
ATOM      4  O   UNL     1       1.268   1.867   3.529  1.00  0.00    -0.274 OA
ATOM      5  H   UNL     1       2.174   3.432   2.055  1.00  0.00     0.163 HD
BRANCH   3   6
ATOM      6  C   UNL     1      -0.859   3.064   3.568  1.00  0.00     0.098 C 
ATOM      7  C   UNL     1      -1.073   2.221   4.877  1.00  0.00     0.023 C 
ATOM      8  C   UNL     1      -1.086   4.545   3.966  1.00  0.00     0.026 C 
ATOM      9  C   UNL     1      -0.242   2.686   6.079  1.00  0.00     0.002 C 
ATOM     10  C   UNL     1      -0.186   5.016   5.125  1.00  0.00    -0.013 C 
ATOM     11  C   UNL     1      -0.434   4.167   6.372  1.00  0.00     0.003 C 
ATOM     12  C   UNL     1      -0.428   6.495   5.429  1.00  0.00     0.007 C 
BRANCH   6  13
ATOM     13  C   UNL     1      -1.913   2.498   2.535  1.00  0.00     0.279 C 
BRANCH  13  14
ATOM     14  N   UNL     1      -1.982   3.138   1.217  1.00  0.00    -0.331 N 
ATOM     15  C   UNL     1      -2.955   4.228   1.140  1.00  0.00     0.333 C 
ATOM     16  H   UNL     1      -1.038   3.518   1.151  1.00  0.00     0.348 HD
BRANCH  14  17
ATOM     17  C   UNL     1      -2.127   2.255   0.042  1.00  0.00     0.319 C 
BRANCH  17  18
ATOM     18  C   UNL     1      -1.287   0.985   0.006  1.00  0.00     0.095 A 
ATOM     19  C   UNL     1       2.289   0.088  -0.005  1.00  0.00     0.067 C 
ATOM     20  C   UNL     1       0.796  -0.054  -0.016  1.00  0.00     0.038 A 
ATOM     21  C   UNL     1       0.210  -1.316   0.003  1.00  0.00     0.023 A 
ATOM     22  N   UNL     1       0.067   1.090  -0.030  1.00  0.00    -0.252 NA
ATOM     23  C   UNL     1      -1.175  -1.412   0.011  1.00  0.00     0.004 A 
ATOM     24  C   UNL     1      -1.935  -0.250   0.015  1.00  0.00     0.030 A 
ENDBRANCH  17  18
ENDBRANCH  14  17
ENDBRANCH  13  14
ENDBRANCH   6  13
ENDBRANCH   3   6
ENDBRANCH   1   2
BRANCH   1  25
ATOM     25  C   UNL     1       1.358   5.764   1.035  1.00  0.00     0.042 C 
BRANCH  25  26
ATOM     26  C   UNL     1       2.711   5.646   0.367  1.00  0.00     0.118 C 
BRANCH  26  27
ATOM     27  N   UNL     1       2.615   5.239  -1.033  1.00  0.00    -0.352 N 
ATOM     28  C   UNL     1       2.833   5.948  -2.190  1.00  0.00     0.251 C 
ATOM     29  H   UNL     1       2.351   4.300  -1.171  1.00  0.00     0.163 HD
ATOM     30  O   UNL     1       2.506   5.468  -3.273  1.00  0.00    -0.269 OA
BRANCH  28  31
ATOM     31  C   UNL     1       3.433   7.298  -2.130  1.00  0.00     0.039 A 
ATOM     32  C   UNL     1       2.964   8.299  -2.986  1.00  0.00     0.014 A 
ATOM     33  C   UNL     1       4.451   7.582  -1.222  1.00  0.00     0.014 A 
ATOM     34  C   UNL     1       3.463   9.598  -2.867  1.00  0.00     0.010 A 
ATOM     35  C   UNL     1       4.841   8.896  -1.009  1.00  0.00     0.010 A 
ATOM     36  C   UNL     1       4.372   9.917  -1.845  1.00  0.00    -0.014 A 
BRANCH  36  37
ATOM     37  C   UNL     1       4.886  11.296  -1.647  1.00  0.00     0.031 A 
ATOM     38  C   UNL     1       6.370  11.552  -1.713  1.00  0.00     0.074 A 
ATOM     39  C   UNL     1       4.036  12.292  -1.328  1.00  0.00     0.049 A 
ATOM     40  N   UNL     1       7.032  12.650  -1.459  1.00  0.00    -0.248 NA
ATOM     41  C   UNL     1       7.228  10.408  -2.070  1.00  0.00     0.031 C 
ATOM     42  C   UNL     1       2.585  12.155  -1.173  1.00  0.00     0.029 A 
ATOM     43  N   UNL     1       4.271  13.618  -1.064  1.00  0.00    -0.354 N 
ATOM     44  C   UNL     1       8.376  12.321  -1.597  1.00  0.00     0.074 A 
ATOM     45  C   UNL     1       8.440  10.908  -1.888  1.00  0.00     0.031 C 
ATOM     46  C   UNL     1       2.058  13.354  -0.874  1.00  0.00     0.029 A 
ATOM     47  C   UNL     1       3.134  14.334  -0.771  1.00  0.00     0.049 A 
ATOM     48  H   UNL     1       5.170  14.020  -1.083  1.00  0.00     0.167 HD
ATOM     49  C   UNL     1       9.459  13.130  -1.525  1.00  0.00     0.037 A 
ATOM     50  C   UNL     1       2.978  15.633  -0.449  1.00  0.00     0.037 A 
ATOM     51  C   UNL     1       9.381  14.546  -1.282  1.00  0.00     0.049 A 
ATOM     52  C   UNL     1       4.194  16.519  -0.393  1.00  0.00     0.074 A 
ATOM     53  C   UNL     1      10.408  15.472  -1.257  1.00  0.00     0.029 A 
ATOM     54  N   UNL     1       8.207  15.241  -1.029  1.00  0.00    -0.354 N 
ATOM     55  N   UNL     1       5.453  16.205  -0.592  1.00  0.00    -0.248 NA
ATOM     56  C   UNL     1       3.971  17.936  -0.076  1.00  0.00     0.031 C 
ATOM     57  C   UNL     1       9.860  16.720  -0.945  1.00  0.00     0.029 A 
ATOM     58  C   UNL     1       8.486  16.581  -0.829  1.00  0.00     0.049 A 
ATOM     59  H   UNL     1       7.309  14.839  -0.997  1.00  0.00     0.167 HD
ATOM     60  C   UNL     1       6.167  17.390  -0.454  1.00  0.00     0.074 A 
ATOM     61  C   UNL     1       5.199  18.428  -0.166  1.00  0.00     0.031 C 
ATOM     62  C   UNL     1       7.503  17.601  -0.556  1.00  0.00     0.037 A 
BRANCH  49  63
ATOM     63  C   UNL     1      10.813  12.505  -1.726  1.00  0.00     0.058 A 
ATOM     64  C   UNL     1      11.217  12.003  -2.974  1.00  0.00     0.135 A 
ATOM     65  C   UNL     1      11.729  12.428  -0.664  1.00  0.00     0.135 A 
ATOM     66  F   UNL     1      10.375  12.034  -4.020  1.00  0.00    -0.206 F 
ATOM     67  C   UNL     1      12.464  11.416  -3.155  1.00  0.00     0.059 A 
ATOM     68  C   UNL     1      12.995  11.874  -0.830  1.00  0.00     0.059 A 
ATOM     69  F   UNL     1      11.396  12.890   0.551  1.00  0.00    -0.206 F 
ATOM     70  C   UNL     1      13.348  11.357  -2.076  1.00  0.00     0.060 A 
BRANCH  70  71
ATOM     71  S   UNL     1      14.967  10.601  -2.331  1.00  0.00     0.124 S 
ATOM     72  O   UNL     1      14.616   9.187  -2.427  1.00  0.00    -0.237 OA
ATOM     73  O   UNL     1      15.412  11.228  -3.571  1.00  0.00    -0.237 OA
ATOM     74  O   UNL     1      15.712  10.982  -1.135  1.00  0.00    -0.744 OA
ENDBRANCH  70  71
ENDBRANCH  49  63
BRANCH  50  75
ATOM     75  C   UNL     1       1.619  16.179  -0.187  1.00  0.00     0.058 A 
ATOM     76  C   UNL     1       1.014  17.067  -1.089  1.00  0.00     0.135 A 
ATOM     77  C   UNL     1       0.893  15.817   0.958  1.00  0.00     0.135 A 
ATOM     78  F   UNL     1       1.668  17.448  -2.197  1.00  0.00    -0.206 F 
ATOM     79  C   UNL     1      -0.254  17.592  -0.857  1.00  0.00     0.059 A 
ATOM     80  C   UNL     1      -0.387  16.308   1.199  1.00  0.00     0.059 A 
ATOM     81  F   UNL     1       1.419  14.956   1.843  1.00  0.00    -0.206 F 
ATOM     82  C   UNL     1      -0.948  17.204   0.290  1.00  0.00     0.060 A 
BRANCH  82  83
ATOM     83  S   UNL     1      -2.610  17.857   0.559  1.00  0.00     0.124 S 
ATOM     84  O   UNL     1      -2.327  19.242   0.919  1.00  0.00    -0.237 OA
ATOM     85  O   UNL     1      -3.235  17.651  -0.744  1.00  0.00    -0.237 OA
ATOM     86  O   UNL     1      -3.130  17.018   1.634  1.00  0.00    -0.744 OA
ENDBRANCH  82  83
ENDBRANCH  50  75
BRANCH  62  87
ATOM     87  C   UNL     1       7.995  19.012  -0.397  1.00  0.00     0.058 A 
ATOM     88  C   UNL     1       8.018  19.651   0.852  1.00  0.00     0.135 A 
ATOM     89  C   UNL     1       8.507  19.712  -1.503  1.00  0.00     0.135 A 
ATOM     90  F   UNL     1       7.537  19.028   1.939  1.00  0.00    -0.206 F 
ATOM     91  C   UNL     1       8.511  20.944   0.996  1.00  0.00     0.059 A 
ATOM     92  C   UNL     1       9.031  20.993  -1.377  1.00  0.00     0.059 A 
ATOM     93  F   UNL     1       8.518  19.141  -2.718  1.00  0.00    -0.206 F 
ATOM     94  C   UNL     1       9.018  21.606  -0.124  1.00  0.00     0.060 A 
BRANCH  94  95
ATOM     95  S   UNL     1       9.687  23.269   0.084  1.00  0.00     0.124 S 
ATOM     96  O   UNL     1       8.471  24.055   0.263  1.00  0.00    -0.237 OA
ATOM     97  O   UNL     1      10.527  23.121   1.268  1.00  0.00    -0.237 OA
ATOM     98  O   UNL     1      10.408  23.504  -1.164  1.00  0.00    -0.744 OA
ENDBRANCH  94  95
ENDBRANCH  62  87
ENDBRANCH  36  37
ENDBRANCH  28  31
ENDBRANCH  26  27
ENDBRANCH  25  26
ENDBRANCH   1  25
TORSDOF 17
