REMARK SMILES CC1(C)CCCN(c2cncc(C(=O)NCCCNC(=O)c3ccc(-c4c5nc(c(-c6c(F)cc(S(=O)(=O)[O-])cc6F)c6ccc([nH]6)c(-c6c(F)cc(S(=O)(=O)[O-])cc6F)c6nc(c(-c7c(F)cc(S(=O)(=O)[O-])cc7F)c7ccc4[nH]7)C=C6)C=C5)cc3)n2)CC1
REMARK SMILES IDX 16 1 15 2 13 3 14 4 12 6 8 7 9 8 88 9 10 10 11 11 7 12 89 13
REMARK SMILES IDX 90 14 2 15 1 16 3 17 4 18 6 20 5 21 17 23 18 24 19 25 20 26
REMARK SMILES IDX 21 28 22 29 23 30 87 31 24 32 86 33 25 34 26 35 27 36 80 37
REMARK SMILES IDX 28 38 85 39 79 40 81 41 29 42 84 43 78 44 77 45 30 47 64 48
REMARK SMILES IDX 43 49 63 50 44 51 47 52 62 53 82 54 45 55 46 56 61 58 83 59
REMARK SMILES IDX 48 60 31 61 32 62 41 63 33 64 34 65 40 66 42 67 35 68 36 69
REMARK SMILES IDX 37 70 38 71 39 72 65 73 66 74 75 75 67 76 68 77 74 78 76 79
REMARK SMILES IDX 69 80 70 81 71 82 72 83 73 84 49 85 50 86 59 87 51 88 52 89
REMARK SMILES IDX 58 90 60 91 53 92 54 93 55 94 56 95 57 96
REMARK H PARENT 15 5 19 27 81 46 47 57
REMARK Flexibility Score: 80.00
ROOT
ATOM      1  C   UNL     1      -4.137  -5.221   1.766  1.00  0.00     0.118 C 
ENDROOT
BRANCH   1   2
ATOM      2  N   UNL     1      -4.108  -6.402   2.613  1.00  0.00    -0.351 N 
ATOM      3  C   UNL     1      -3.311  -6.740   3.684  1.00  0.00     0.271 C 
ATOM      4  O   UNL     1      -3.527  -7.824   4.232  1.00  0.00    -0.267 OA
ATOM      5  H   UNL     1      -4.778  -7.084   2.379  1.00  0.00     0.163 HD
BRANCH   3   6
ATOM      6  C   UNL     1      -2.219  -5.870   4.208  1.00  0.00     0.148 A 
ATOM      7  C   UNL     1      -0.933  -3.955   4.099  1.00  0.00     0.148 A 
ATOM      8  C   UNL     1      -0.204  -4.421   5.198  1.00  0.00     0.157 A 
ATOM      9  N   UNL     1      -1.956  -4.685   3.606  1.00  0.00    -0.222 NA
ATOM     10  N   UNL     1      -0.461  -5.593   5.833  1.00  0.00    -0.258 NA
ATOM     11  C   UNL     1      -1.484  -6.308   5.303  1.00  0.00     0.145 A 
BRANCH   7  12
ATOM     12  N   UNL     1      -0.593  -2.756   3.465  1.00  0.00    -0.355 N 
BRANCH  12  13
ATOM     13  C   UNL     1       0.624  -2.871   2.659  1.00  0.00     0.118 C 
BRANCH  13  14
ATOM     14  C   UNL     1       0.614  -2.120   1.326  1.00  0.00     0.028 C 
BRANCH  14  15
ATOM     15  C   UNL     1       0.638  -0.574   1.376  1.00  0.00    -0.034 C 
ATOM     16  C   UNL     1       0.982  -0.068  -0.046  1.00  0.00     0.011 C 
ATOM     17  C   UNL     1       1.728  -0.053   2.330  1.00  0.00     0.011 C 
BRANCH  15  18
ATOM     18  C   UNL     1      -0.741   0.018   1.746  1.00  0.00     0.008 CG0
ATOM     19  G   UNL     1      -1.362  -0.459   3.055  1.00  0.00     0.000 G0
ENDBRANCH  15  18
ENDBRANCH  14  15
ENDBRANCH  13  14
ENDBRANCH  12  13
BRANCH  12  20
ATOM     20  C   UNL     1      -1.727  -1.942   3.050  1.00  0.00     0.118 C 
BRANCH  20  21
ATOM     21  C   UNL     1      -1.362  -0.459   3.055  1.00  0.00     0.022 CG0
ATOM     22  G   UNL     1      -0.741   0.018   1.746  1.00  0.00     0.000 G0
ENDBRANCH  20  21
ENDBRANCH  12  20
ENDBRANCH   7  12
ENDBRANCH   3   6
ENDBRANCH   1   2
BRANCH   1  23
ATOM     23  C   UNL     1      -3.529  -5.482   0.391  1.00  0.00     0.042 C 
BRANCH  23  24
ATOM     24  C   UNL     1      -4.392  -6.382  -0.494  1.00  0.00     0.118 C 
BRANCH  24  25
ATOM     25  N   UNL     1      -5.699  -5.796  -0.778  1.00  0.00    -0.352 N 
ATOM     26  C   UNL     1      -6.252  -5.382  -1.962  1.00  0.00     0.251 C 
ATOM     27  H   UNL     1      -6.277  -5.678   0.010  1.00  0.00     0.163 HD
ATOM     28  O   UNL     1      -7.278  -4.699  -1.942  1.00  0.00    -0.269 OA
BRANCH  26  29
ATOM     29  C   UNL     1      -5.629  -5.738  -3.252  1.00  0.00     0.039 A 
ATOM     30  C   UNL     1      -5.569  -4.777  -4.266  1.00  0.00     0.014 A 
ATOM     31  C   UNL     1      -5.131  -7.023  -3.478  1.00  0.00     0.014 A 
ATOM     32  C   UNL     1      -4.942  -5.083  -5.476  1.00  0.00     0.010 A 
ATOM     33  C   UNL     1      -4.439  -7.303  -4.653  1.00  0.00     0.010 A 
ATOM     34  C   UNL     1      -4.333  -6.335  -5.663  1.00  0.00    -0.014 A 
BRANCH  34  35
ATOM     35  C   UNL     1      -3.560  -6.644  -6.893  1.00  0.00     0.031 A 
ATOM     36  C   UNL     1      -3.997  -7.757  -7.806  1.00  0.00     0.074 A 
ATOM     37  C   UNL     1      -2.415  -5.976  -7.139  1.00  0.00     0.049 A 
ATOM     38  N   UNL     1      -3.400  -8.237  -8.866  1.00  0.00    -0.248 NA
ATOM     39  C   UNL     1      -5.258  -8.438  -7.469  1.00  0.00     0.031 C 
ATOM     40  C   UNL     1      -1.861  -4.910  -6.300  1.00  0.00     0.029 A 
ATOM     41  N   UNL     1      -1.500  -6.104  -8.154  1.00  0.00    -0.354 N 
ATOM     42  C   UNL     1      -4.199  -9.284  -9.312  1.00  0.00     0.074 A 
ATOM     43  C   UNL     1      -5.300  -9.399  -8.380  1.00  0.00     0.031 C 
ATOM     44  C   UNL     1      -0.713  -4.474  -6.841  1.00  0.00     0.029 A 
ATOM     45  C   UNL     1      -0.422  -5.257  -8.037  1.00  0.00     0.049 A 
ATOM     46  H   UNL     1      -1.604  -6.743  -8.896  1.00  0.00     0.167 HD
ATOM     47  C   UNL     1      -4.038 -10.063 -10.407  1.00  0.00     0.037 A 
ATOM     48  C   UNL     1       0.684  -5.136  -8.796  1.00  0.00     0.037 A 
ATOM     49  C   UNL     1      -2.951  -9.924 -11.341  1.00  0.00     0.049 A 
ATOM     50  C   UNL     1       0.844  -6.019 -10.004  1.00  0.00     0.074 A 
ATOM     51  C   UNL     1      -2.737 -10.618 -12.520  1.00  0.00     0.029 A 
ATOM     52  N   UNL     1      -1.892  -9.039 -11.202  1.00  0.00    -0.354 N 
ATOM     53  N   UNL     1       0.039  -6.954 -10.452  1.00  0.00    -0.248 NA
ATOM     54  C   UNL     1       2.057  -5.832 -10.811  1.00  0.00     0.031 C 
ATOM     55  C   UNL     1      -1.522 -10.191 -13.063  1.00  0.00     0.029 A 
ATOM     56  C   UNL     1      -1.006  -9.190 -12.256  1.00  0.00     0.049 A 
ATOM     57  H   UNL     1      -1.786  -8.398 -10.462  1.00  0.00     0.167 HD
ATOM     58  C   UNL     1       0.637  -7.448 -11.606  1.00  0.00     0.074 A 
ATOM     59  C   UNL     1       1.862  -6.699 -11.795  1.00  0.00     0.031 C 
ATOM     60  C   UNL     1       0.208  -8.432 -12.434  1.00  0.00     0.037 A 
BRANCH  47  61
ATOM     61  C   UNL     1      -5.059 -11.140 -10.660  1.00  0.00     0.058 A 
ATOM     62  C   UNL     1      -6.374 -10.836 -11.048  1.00  0.00     0.135 A 
ATOM     63  C   UNL     1      -4.705 -12.496 -10.562  1.00  0.00     0.135 A 
ATOM     64  F   UNL     1      -6.773  -9.558 -11.145  1.00  0.00    -0.206 F 
ATOM     65  C   UNL     1      -7.308 -11.835 -11.304  1.00  0.00     0.059 A 
ATOM     66  C   UNL     1      -5.614 -13.512 -10.843  1.00  0.00     0.059 A 
ATOM     67  F   UNL     1      -3.462 -12.845 -10.196  1.00  0.00    -0.206 F 
ATOM     68  C   UNL     1      -6.917 -13.172 -11.200  1.00  0.00     0.060 A 
BRANCH  68  69
ATOM     69  S   UNL     1      -8.138 -14.455 -11.549  1.00  0.00     0.124 S 
ATOM     70  O   UNL     1      -9.011 -14.350 -10.383  1.00  0.00    -0.237 OA
ATOM     71  O   UNL     1      -8.712 -14.003 -12.812  1.00  0.00    -0.237 OA
ATOM     72  O   UNL     1      -7.339 -15.674 -11.627  1.00  0.00    -0.744 OA
ENDBRANCH  68  69
ENDBRANCH  47  61
BRANCH  48  73
ATOM     73  C   UNL     1       1.725  -4.135  -8.437  1.00  0.00     0.058 A 
ATOM     74  C   UNL     1       1.942  -2.999  -9.231  1.00  0.00     0.135 A 
ATOM     75  C   UNL     1       2.514  -4.286  -7.285  1.00  0.00     0.135 A 
ATOM     76  F   UNL     1       1.218  -2.812 -10.345  1.00  0.00    -0.206 F 
ATOM     77  C   UNL     1       2.913  -2.057  -8.908  1.00  0.00     0.059 A 
ATOM     78  C   UNL     1       3.473  -3.344  -6.926  1.00  0.00     0.059 A 
ATOM     79  F   UNL     1       2.336  -5.345  -6.481  1.00  0.00    -0.206 F 
ATOM     80  C   UNL     1       3.672  -2.237  -7.750  1.00  0.00     0.060 A 
BRANCH  80  81
ATOM     81  S   UNL     1       4.897  -0.984  -7.313  1.00  0.00     0.124 S 
ATOM     82  O   UNL     1       5.933  -1.226  -8.309  1.00  0.00    -0.237 OA
ATOM     83  O   UNL     1       4.137   0.253  -7.467  1.00  0.00    -0.237 OA
ATOM     84  O   UNL     1       5.249  -1.325  -5.938  1.00  0.00    -0.744 OA
ENDBRANCH  80  81
ENDBRANCH  48  73
BRANCH  60  85
ATOM     85  C   UNL     1       1.051  -8.742 -13.641  1.00  0.00     0.058 A 
ATOM     86  C   UNL     1       2.282  -9.407 -13.531  1.00  0.00     0.135 A 
ATOM     87  C   UNL     1       0.588  -8.428 -14.930  1.00  0.00     0.135 A 
ATOM     88  F   UNL     1       2.775  -9.723 -12.323  1.00  0.00    -0.206 F 
ATOM     89  C   UNL     1       3.033  -9.736 -14.656  1.00  0.00     0.059 A 
ATOM     90  C   UNL     1       1.308  -8.773 -16.069  1.00  0.00     0.059 A 
ATOM     91  F   UNL     1      -0.587  -7.799 -15.092  1.00  0.00    -0.206 F 
ATOM     92  C   UNL     1       2.534  -9.420 -15.921  1.00  0.00     0.060 A 
BRANCH  92  93
ATOM     93  S   UNL     1       3.496  -9.896 -17.372  1.00  0.00     0.124 S 
ATOM     94  O   UNL     1       4.604  -8.949 -17.315  1.00  0.00    -0.237 OA
ATOM     95  O   UNL     1       3.833 -11.286 -17.080  1.00  0.00    -0.237 OA
ATOM     96  O   UNL     1       2.562  -9.703 -18.478  1.00  0.00    -0.744 OA
ENDBRANCH  92  93
ENDBRANCH  60  85
ENDBRANCH  34  35
ENDBRANCH  26  29
ENDBRANCH  24  25
ENDBRANCH  23  24
ENDBRANCH   1  23
TORSDOF 14
