REMARK SMILES Cn1cc(-c2ccn(Cc3ccc(C(=O)NCCCNC(=O)c4ccc(-c5c6nc(c(-c7c(F)cc(S(=O)(=O)[O-])cc7F)c7ccc([nH]7)c(-c7c(F)cc(S(=O)(=O)[O-])cc7F)c7nc(c(-c8c(F)cc(S(=O)(=O)[O-])cc8F)c8ccc5[nH]8)C=C7)C=C6)cc4)cc3)n2)cn1
REMARK SMILES IDX 18 1 17 2 16 3 14 4 15 5 13 7 10 8 11 9 90 10 12 11 89 12
REMARK SMILES IDX 9 13 8 14 5 15 6 16 91 17 7 18 4 19 1 20 2 21 3 22 93 23
REMARK SMILES IDX 92 24 19 25 20 26 21 27 22 29 23 30 24 31 88 32 25 33 87 34
REMARK SMILES IDX 26 35 27 36 28 37 81 38 29 39 86 40 80 41 82 42 30 43 85 44
REMARK SMILES IDX 79 45 78 46 31 48 65 49 44 50 64 51 45 52 48 53 63 54 83 55
REMARK SMILES IDX 46 56 47 57 62 59 84 60 49 61 32 62 33 63 42 64 34 65 35 66
REMARK SMILES IDX 41 67 43 68 36 69 37 70 38 71 39 72 40 73 66 74 67 75 76 76
REMARK SMILES IDX 68 77 69 78 75 79 77 80 70 81 71 82 72 83 73 84 74 85 50 86
REMARK SMILES IDX 51 87 60 88 52 89 53 90 59 91 61 92 54 93 55 94 56 95 57 96
REMARK SMILES IDX 58 97
REMARK H PARENT 16 6 20 28 82 47 48 58
REMARK Flexibility Score: inf
ROOT
ATOM      1  C   UNL     1       6.055   3.134   4.495  1.00  0.00     0.042 C 
ENDROOT
BRANCH   1   2
ATOM      2  C   UNL     1       6.652   3.261   3.085  1.00  0.00     0.118 C 
BRANCH   2   3
ATOM      3  N   UNL     1       8.069   2.919   3.048  1.00  0.00    -0.352 N 
ATOM      4  C   UNL     1       8.707   1.753   2.691  1.00  0.00     0.251 C 
ATOM      5  O   UNL     1       9.932   1.758   2.593  1.00  0.00    -0.269 OA
ATOM      6  H   UNL     1       8.671   3.646   3.326  1.00  0.00     0.163 HD
BRANCH   4   7
ATOM      7  C   UNL     1       7.962   0.510   2.358  1.00  0.00     0.039 A 
ATOM      8  C   UNL     1       6.532  -1.769   1.512  1.00  0.00    -0.026 A 
ATOM      9  C   UNL     1       7.807  -1.500   0.996  1.00  0.00     0.006 A 
ATOM     10  C   UNL     1       6.029  -0.940   2.518  1.00  0.00     0.006 A 
ATOM     11  C   UNL     1       8.516  -0.368   1.417  1.00  0.00     0.014 A 
ATOM     12  C   UNL     1       6.748   0.168   2.949  1.00  0.00     0.014 A 
BRANCH   8  13
ATOM     13  C   UNL     1       5.702  -2.931   1.031  1.00  0.00     0.179 C 
BRANCH  13  14
ATOM     14  N   UNL     1       4.539  -2.526   0.239  1.00  0.00    -0.268 N 
ATOM     15  C   UNL     1       2.652  -1.659  -0.195  1.00  0.00     0.095 A 
ATOM     16  C   UNL     1       2.954  -2.502  -1.283  1.00  0.00     0.050 A 
ATOM     17  N   UNL     1       3.600  -1.690   0.745  1.00  0.00    -0.172 NA
ATOM     18  C   UNL     1       4.183  -3.042  -0.980  1.00  0.00     0.110 A 
BRANCH  15  19
ATOM     19  C   UNL     1       1.444  -0.862  -0.095  1.00  0.00     0.040 A 
ATOM     20  C   UNL     1      -2.052  -0.033  -0.030  1.00  0.00     0.173 C 
ATOM     21  N   UNL     1      -0.612  -0.132  -0.029  1.00  0.00    -0.275 N 
ATOM     22  C   UNL     1       0.131  -1.270  -0.142  1.00  0.00     0.118 A 
ATOM     23  N   UNL     1       0.128   0.990   0.065  1.00  0.00    -0.181 NA
ATOM     24  C   UNL     1       1.388   0.535   0.050  1.00  0.00     0.145 A 
ENDBRANCH  15  19
ENDBRANCH  13  14
ENDBRANCH   8  13
ENDBRANCH   4   7
ENDBRANCH   2   3
ENDBRANCH   1   2
BRANCH   1  25
ATOM     25  C   UNL     1       6.273   4.382   5.321  1.00  0.00     0.118 C 
BRANCH  25  26
ATOM     26  N   UNL     1       5.445   5.514   4.880  1.00  0.00    -0.352 N 
ATOM     27  C   UNL     1       5.375   6.796   5.416  1.00  0.00     0.251 C 
ATOM     28  H   UNL     1       4.864   5.343   4.103  1.00  0.00     0.163 HD
ATOM     29  O   UNL     1       4.424   7.523   5.187  1.00  0.00    -0.269 OA
BRANCH  27  30
ATOM     30  C   UNL     1       6.495   7.247   6.262  1.00  0.00     0.039 A 
ATOM     31  C   UNL     1       6.350   8.058   7.391  1.00  0.00     0.014 A 
ATOM     32  C   UNL     1       7.739   6.755   5.910  1.00  0.00     0.014 A 
ATOM     33  C   UNL     1       7.485   8.322   8.159  1.00  0.00     0.010 A 
ATOM     34  C   UNL     1       8.706   6.685   6.855  1.00  0.00     0.010 A 
ATOM     35  C   UNL     1       8.663   7.625   7.864  1.00  0.00    -0.014 A 
BRANCH  35  36
ATOM     36  C   UNL     1       9.926   7.800   8.556  1.00  0.00     0.031 A 
ATOM     37  C   UNL     1       9.912   7.344   9.964  1.00  0.00     0.074 A 
ATOM     38  C   UNL     1      11.064   8.028   7.856  1.00  0.00     0.049 A 
ATOM     39  N   UNL     1       9.973   8.068  11.030  1.00  0.00    -0.248 NA
ATOM     40  C   UNL     1       9.598   5.928  10.226  1.00  0.00     0.031 C 
ATOM     41  C   UNL     1      11.259   8.117   6.398  1.00  0.00     0.029 A 
ATOM     42  N   UNL     1      12.337   8.101   8.320  1.00  0.00    -0.354 N 
ATOM     43  C   UNL     1       9.957   7.173  12.096  1.00  0.00     0.074 A 
ATOM     44  C   UNL     1       9.478   5.929  11.555  1.00  0.00     0.031 C 
ATOM     45  C   UNL     1      12.572   7.995   6.101  1.00  0.00     0.029 A 
ATOM     46  C   UNL     1      13.324   7.992   7.339  1.00  0.00     0.049 A 
ATOM     47  H   UNL     1      12.549   8.223   9.274  1.00  0.00     0.167 HD
ATOM     48  C   UNL     1      10.579   7.464  13.274  1.00  0.00     0.037 A 
ATOM     49  C   UNL     1      14.655   7.854   7.574  1.00  0.00     0.037 A 
ATOM     50  C   UNL     1      10.949   8.861  13.316  1.00  0.00     0.049 A 
ATOM     51  C   UNL     1      14.877   8.327   8.975  1.00  0.00     0.074 A 
ATOM     52  C   UNL     1      10.243  10.048  13.257  1.00  0.00     0.029 A 
ATOM     53  N   UNL     1      12.250   9.185  13.001  1.00  0.00    -0.354 N 
ATOM     54  N   UNL     1      14.668   9.562   9.358  1.00  0.00    -0.248 NA
ATOM     55  C   UNL     1      14.800   7.329  10.032  1.00  0.00     0.031 C 
ATOM     56  C   UNL     1      11.031  10.900  12.427  1.00  0.00     0.029 A 
ATOM     57  C   UNL     1      12.209  10.225  12.104  1.00  0.00     0.049 A 
ATOM     58  H   UNL     1      13.060   8.752  13.355  1.00  0.00     0.167 HD
ATOM     59  C   UNL     1      14.039   9.459  10.595  1.00  0.00     0.074 A 
ATOM     60  C   UNL     1      14.189   8.053  10.976  1.00  0.00     0.031 C 
ATOM     61  C   UNL     1      13.192  10.430  11.057  1.00  0.00     0.037 A 
BRANCH  48  62
ATOM     62  C   UNL     1      11.180   6.452  14.226  1.00  0.00     0.058 A 
ATOM     63  C   UNL     1      11.709   6.909  15.452  1.00  0.00     0.135 A 
ATOM     64  C   UNL     1      11.501   5.117  13.893  1.00  0.00     0.135 A 
ATOM     65  F   UNL     1      11.452   8.152  15.890  1.00  0.00    -0.206 F 
ATOM     66  C   UNL     1      12.575   6.140  16.230  1.00  0.00     0.059 A 
ATOM     67  C   UNL     1      12.319   4.315  14.682  1.00  0.00     0.059 A 
ATOM     68  F   UNL     1      11.120   4.544  12.748  1.00  0.00    -0.206 F 
ATOM     69  C   UNL     1      12.893   4.850  15.821  1.00  0.00     0.060 A 
BRANCH  69  70
ATOM     70  S   UNL     1      14.107   3.903  16.752  1.00  0.00     0.124 S 
ATOM     71  O   UNL     1      15.328   4.654  16.482  1.00  0.00    -0.237 OA
ATOM     72  O   UNL     1      13.585   3.996  18.111  1.00  0.00    -0.237 OA
ATOM     73  O   UNL     1      14.035   2.577  16.147  1.00  0.00    -0.744 OA
ENDBRANCH  69  70
ENDBRANCH  48  62
BRANCH  49  74
ATOM     74  C   UNL     1      15.612   6.974   6.842  1.00  0.00     0.058 A 
ATOM     75  C   UNL     1      17.004   7.086   7.011  1.00  0.00     0.135 A 
ATOM     76  C   UNL     1      15.168   5.820   6.161  1.00  0.00     0.135 A 
ATOM     77  F   UNL     1      17.519   8.137   7.667  1.00  0.00    -0.206 F 
ATOM     78  C   UNL     1      17.896   6.097   6.567  1.00  0.00     0.059 A 
ATOM     79  C   UNL     1      16.035   4.827   5.704  1.00  0.00     0.059 A 
ATOM     80  F   UNL     1      13.859   5.578   5.996  1.00  0.00    -0.206 F 
ATOM     81  C   UNL     1      17.399   4.960   5.930  1.00  0.00     0.060 A 
BRANCH  81  82
ATOM     82  S   UNL     1      18.522   3.604   5.504  1.00  0.00     0.124 S 
ATOM     83  O   UNL     1      19.320   4.194   4.435  1.00  0.00    -0.237 OA
ATOM     84  O   UNL     1      19.220   3.372   6.765  1.00  0.00    -0.237 OA
ATOM     85  O   UNL     1      17.621   2.532   5.090  1.00  0.00    -0.744 OA
ENDBRANCH  81  82
ENDBRANCH  49  74
BRANCH  61  86
ATOM     86  C   UNL     1      13.100  11.739  10.304  1.00  0.00     0.058 A 
ATOM     87  C   UNL     1      12.612  11.871   8.990  1.00  0.00     0.135 A 
ATOM     88  C   UNL     1      13.328  12.928  11.012  1.00  0.00     0.135 A 
ATOM     89  F   UNL     1      12.266  10.796   8.274  1.00  0.00    -0.206 F 
ATOM     90  C   UNL     1      12.395  13.119   8.398  1.00  0.00     0.059 A 
ATOM     91  C   UNL     1      13.090  14.183  10.455  1.00  0.00     0.059 A 
ATOM     92  F   UNL     1      13.730  12.879  12.293  1.00  0.00    -0.206 F 
ATOM     93  C   UNL     1      12.635  14.273   9.142  1.00  0.00     0.060 A 
BRANCH  93  94
ATOM     94  S   UNL     1      12.291  15.886   8.405  1.00  0.00     0.124 S 
ATOM     95  O   UNL     1      13.339  15.991   7.395  1.00  0.00    -0.237 OA
ATOM     96  O   UNL     1      10.933  15.720   7.894  1.00  0.00    -0.237 OA
ATOM     97  O   UNL     1      12.415  16.809   9.530  1.00  0.00    -0.744 OA
ENDBRANCH  93  94
ENDBRANCH  61  86
ENDBRANCH  35  36
ENDBRANCH  27  30
ENDBRANCH  25  26
ENDBRANCH   1  25
TORSDOF 16
