REMARK SMILES C[C@H](NC(=O)c1ccc(NC(N)=O)cc1)C(=O)NCCCNC(=O)c1ccc(-c2c3nc(c(-c4c(F)cc(S(=O)(=O)[O-])cc4F)c4ccc([nH]4)c(-c4c(F)cc(S(=O)(=O)[O-])cc4F)c4nc(c(-c5c(F)cc(S(=O)(=O)[O-])cc5F)c5ccc2[nH]5)C=C4)C=C3)cc1
REMARK SMILES IDX 20 1 19 2 18 3 16 4 17 5 2 7 1 8 3 9 4 10 5 12 6 13 7 14
REMARK SMILES IDX 15 15 8 16 14 17 9 18 10 19 11 20 12 22 13 23 21 26 22 27
REMARK SMILES IDX 23 28 24 30 25 31 26 32 90 33 27 34 89 35 28 36 29 37 30 38
REMARK SMILES IDX 83 39 31 40 88 41 82 42 84 43 32 44 87 45 81 46 80 47 33 49
REMARK SMILES IDX 67 50 46 51 66 52 47 53 50 54 65 55 85 56 48 57 49 58 64 60
REMARK SMILES IDX 86 61 51 62 34 63 35 64 44 65 36 66 37 67 43 68 45 69 38 70
REMARK SMILES IDX 39 71 40 72 41 73 42 74 68 75 69 76 78 77 70 78 71 79 77 80
REMARK SMILES IDX 79 81 72 82 73 83 74 84 75 85 76 86 52 87 53 88 62 89 54 90
REMARK SMILES IDX 55 91 61 92 63 93 56 94 57 95 58 96 59 97 60 98
REMARK H PARENT 18 6 3 11 10 21 12 24 12 25 22 29 84 48 50 59
REMARK Flexibility Score: inf
ROOT
ATOM      1  C   UNL     1      -1.325  -1.090   2.540  1.00  0.00     0.042 C 
ENDROOT
BRANCH   1   2
ATOM      2  C   UNL     1      -1.082  -1.969   1.324  1.00  0.00     0.117 C 
BRANCH   2   3
ATOM      3  N   UNL     1      -1.623  -1.386   0.112  1.00  0.00    -0.354 N 
ATOM      4  C   UNL     1      -0.971  -0.960  -1.007  1.00  0.00     0.242 C 
ATOM      5  O   UNL     1      -1.641  -0.496  -1.933  1.00  0.00    -0.273 OA
ATOM      6  H   UNL     1      -2.602  -1.282   0.094  1.00  0.00     0.163 HD
BRANCH   4   7
ATOM      7  C   UNL     1       0.555  -1.134  -1.144  1.00  0.00     0.168 C 
ATOM      8  C   UNL     1       0.866  -2.619  -1.297  1.00  0.00     0.041 C 
BRANCH   7   9
ATOM      9  N   UNL     1       1.242  -0.306  -0.137  1.00  0.00    -0.341 N 
ATOM     10  C   UNL     1       2.150  -0.502   0.866  1.00  0.00     0.251 C 
ATOM     11  H   UNL     1       0.976   0.639  -0.203  1.00  0.00     0.164 HD
ATOM     12  O   UNL     1       2.365   0.404   1.666  1.00  0.00    -0.269 OA
BRANCH  10  13
ATOM     13  C   UNL     1       2.854  -1.780   1.038  1.00  0.00     0.039 A 
ATOM     14  C   UNL     1       2.748  -2.446   2.261  1.00  0.00     0.016 A 
ATOM     15  C   UNL     1       3.633  -2.313   0.015  1.00  0.00     0.016 A 
ATOM     16  C   UNL     1       3.328  -3.708   2.420  1.00  0.00     0.027 A 
ATOM     17  C   UNL     1       4.193  -3.584   0.170  1.00  0.00     0.027 A 
ATOM     18  C   UNL     1       4.024  -4.301   1.363  1.00  0.00     0.042 A 
BRANCH  18  19
ATOM     19  N   UNL     1       4.559  -5.603   1.409  1.00  0.00    -0.308 N 
ATOM     20  C   UNL     1       4.533  -6.481   2.458  1.00  0.00     0.316 C 
ATOM     21  H   UNL     1       5.005  -5.918   0.590  1.00  0.00     0.171 HD
ATOM     22  N   UNL     1       5.091  -7.682   2.144  1.00  0.00    -0.351 N 
ATOM     23  O   UNL     1       4.085  -6.305   3.583  1.00  0.00    -0.249 OA
ATOM     24  H   UNL     1       5.456  -7.834   1.242  1.00  0.00     0.161 HD
ATOM     25  H   UNL     1       5.131  -8.398   2.819  1.00  0.00     0.161 HD
ENDBRANCH  18  19
ENDBRANCH  10  13
ENDBRANCH   7   9
ENDBRANCH   4   7
ENDBRANCH   2   3
ENDBRANCH   1   2
BRANCH   1  26
ATOM     26  C   UNL     1      -2.793  -0.992   2.930  1.00  0.00     0.118 C 
BRANCH  26  27
ATOM     27  N   UNL     1      -3.366  -2.285   3.275  1.00  0.00    -0.352 N 
ATOM     28  C   UNL     1      -4.044  -2.678   4.400  1.00  0.00     0.251 C 
ATOM     29  H   UNL     1      -3.249  -2.987   2.594  1.00  0.00     0.163 HD
ATOM     30  O   UNL     1      -4.274  -3.872   4.575  1.00  0.00    -0.269 OA
BRANCH  28  31
ATOM     31  C   UNL     1      -4.482  -1.680   5.398  1.00  0.00     0.039 A 
ATOM     32  C   UNL     1      -4.403  -2.009   6.753  1.00  0.00     0.014 A 
ATOM     33  C   UNL     1      -4.990  -0.437   5.009  1.00  0.00     0.014 A 
ATOM     34  C   UNL     1      -4.788  -1.073   7.713  1.00  0.00     0.010 A 
ATOM     35  C   UNL     1      -5.279   0.529   5.968  1.00  0.00     0.010 A 
ATOM     36  C   UNL     1      -5.196   0.217   7.330  1.00  0.00    -0.014 A 
BRANCH  36  37
ATOM     37  C   UNL     1      -5.530   1.236   8.357  1.00  0.00     0.031 A 
ATOM     38  C   UNL     1      -6.917   1.815   8.444  1.00  0.00     0.074 A 
ATOM     39  C   UNL     1      -4.567   1.655   9.202  1.00  0.00     0.049 A 
ATOM     40  N   UNL     1      -7.398   2.676   9.304  1.00  0.00    -0.248 NA
ATOM     41  C   UNL     1      -7.885   1.396   7.417  1.00  0.00     0.031 C 
ATOM     42  C   UNL     1      -3.167   1.222   9.166  1.00  0.00     0.029 A 
ATOM     43  N   UNL     1      -4.616   2.526  10.260  1.00  0.00    -0.354 N 
ATOM     44  C   UNL     1      -8.716   2.902   8.923  1.00  0.00     0.074 A 
ATOM     45  C   UNL     1      -8.940   2.141   7.714  1.00  0.00     0.031 C 
ATOM     46  C   UNL     1      -2.504   1.791  10.185  1.00  0.00     0.029 A 
ATOM     47  C   UNL     1      -3.418   2.654  10.924  1.00  0.00     0.049 A 
ATOM     48  H   UNL     1      -5.431   3.014  10.519  1.00  0.00     0.167 HD
ATOM     49  C   UNL     1      -9.662   3.650   9.540  1.00  0.00     0.037 A 
ATOM     50  C   UNL     1      -3.096   3.379  12.012  1.00  0.00     0.037 A 
ATOM     51  C   UNL     1      -9.431   4.395  10.752  1.00  0.00     0.049 A 
ATOM     52  C   UNL     1      -4.168   4.186  12.691  1.00  0.00     0.074 A 
ATOM     53  C   UNL     1     -10.333   5.143  11.489  1.00  0.00     0.029 A 
ATOM     54  N   UNL     1      -8.209   4.491  11.404  1.00  0.00    -0.354 N 
ATOM     55  N   UNL     1      -5.431   4.325  12.362  1.00  0.00    -0.248 NA
ATOM     56  C   UNL     1      -3.776   4.921  13.899  1.00  0.00     0.031 C 
ATOM     57  C   UNL     1      -9.645   5.733  12.555  1.00  0.00     0.029 A 
ATOM     58  C   UNL     1      -8.329   5.303  12.521  1.00  0.00     0.049 A 
ATOM     59  H   UNL     1      -7.379   4.048  11.115  1.00  0.00     0.167 HD
ATOM     60  C   UNL     1      -5.990   5.141  13.339  1.00  0.00     0.074 A 
ATOM     61  C   UNL     1      -4.932   5.443  14.282  1.00  0.00     0.031 C 
ATOM     62  C   UNL     1      -7.263   5.600  13.447  1.00  0.00     0.037 A 
BRANCH  49  63
ATOM     63  C   UNL     1     -11.034   3.697   8.919  1.00  0.00     0.058 A 
ATOM     64  C   UNL     1     -11.874   2.571   8.894  1.00  0.00     0.135 A 
ATOM     65  C   UNL     1     -11.532   4.892   8.374  1.00  0.00     0.135 A 
ATOM     66  F   UNL     1     -11.446   1.397   9.385  1.00  0.00    -0.206 F 
ATOM     67  C   UNL     1     -13.143   2.620   8.327  1.00  0.00     0.059 A 
ATOM     68  C   UNL     1     -12.812   4.973   7.831  1.00  0.00     0.059 A 
ATOM     69  F   UNL     1     -10.775   6.000   8.368  1.00  0.00    -0.206 F 
ATOM     70  C   UNL     1     -13.605   3.827   7.800  1.00  0.00     0.060 A 
BRANCH  70  71
ATOM     71  S   UNL     1     -15.260   3.875   7.080  1.00  0.00     0.124 S 
ATOM     72  O   UNL     1     -15.067   3.105   5.854  1.00  0.00    -0.237 OA
ATOM     73  O   UNL     1     -16.067   3.231   8.112  1.00  0.00    -0.237 OA
ATOM     74  O   UNL     1     -15.509   5.301   6.892  1.00  0.00    -0.744 OA
ENDBRANCH  70  71
ENDBRANCH  49  63
BRANCH  50  75
ATOM     75  C   UNL     1      -1.707   3.341  12.546  1.00  0.00     0.058 A 
ATOM     76  C   UNL     1      -1.419   2.728  13.775  1.00  0.00     0.135 A 
ATOM     77  C   UNL     1      -0.638   3.906  11.833  1.00  0.00     0.135 A 
ATOM     78  F   UNL     1      -2.407   2.175  14.497  1.00  0.00    -0.206 F 
ATOM     79  C   UNL     1      -0.128   2.697  14.290  1.00  0.00     0.059 A 
ATOM     80  C   UNL     1       0.667   3.860  12.313  1.00  0.00     0.059 A 
ATOM     81  F   UNL     1      -0.856   4.487  10.643  1.00  0.00    -0.206 F 
ATOM     82  C   UNL     1       0.910   3.265  13.550  1.00  0.00     0.060 A 
BRANCH  82  83
ATOM     83  S   UNL     1       2.589   3.184  14.209  1.00  0.00     0.124 S 
ATOM     84  O   UNL     1       2.520   4.143  15.306  1.00  0.00    -0.237 OA
ATOM     85  O   UNL     1       2.700   1.780  14.593  1.00  0.00    -0.237 OA
ATOM     86  O   UNL     1       3.416   3.583  13.074  1.00  0.00    -0.744 OA
ENDBRANCH  82  83
ENDBRANCH  50  75
BRANCH  62  87
ATOM     87  C   UNL     1      -7.583   6.447  14.651  1.00  0.00     0.058 A 
ATOM     88  C   UNL     1      -7.054   7.737  14.815  1.00  0.00     0.135 A 
ATOM     89  C   UNL     1      -8.431   5.956  15.658  1.00  0.00     0.135 A 
ATOM     90  F   UNL     1      -6.238   8.257  13.883  1.00  0.00    -0.206 F 
ATOM     91  C   UNL     1      -7.304   8.486  15.960  1.00  0.00     0.059 A 
ATOM     92  C   UNL     1      -8.725   6.702  16.794  1.00  0.00     0.059 A 
ATOM     93  F   UNL     1      -8.980   4.736  15.546  1.00  0.00    -0.206 F 
ATOM     94  C   UNL     1      -8.135   7.956  16.949  1.00  0.00     0.060 A 
BRANCH  94  95
ATOM     95  S   UNL     1      -8.433   8.925  18.441  1.00  0.00     0.124 S 
ATOM     96  O   UNL     1      -7.161   8.785  19.141  1.00  0.00    -0.237 OA
ATOM     97  O   UNL     1      -8.718  10.252  17.902  1.00  0.00    -0.237 OA
ATOM     98  O   UNL     1      -9.569   8.251  19.063  1.00  0.00    -0.744 OA
ENDBRANCH  94  95
ENDBRANCH  62  87
ENDBRANCH  36  37
ENDBRANCH  28  31
ENDBRANCH  26  27
ENDBRANCH   1  26
TORSDOF 16
