REMARK SMILES O=C(C[C@@H](C(=O)Nc1ccc(F)cc1)[C@@H]1CCCO1)NCCCNC(=O)c1ccc(-c2c3nc(c(-c4c(F)cc(S(=O)(=O)[O-])cc4F)c4ccc([nH]4)c(-c4c(F)cc(S(=O)(=O)[O-])cc4F)c4nc(c(-c5c(F)cc(S(=O)(=O)[O-])cc5F)c5ccc2[nH]5)C=C4)C=C3)cc1
REMARK SMILES IDX 22 1 21 2 20 3 1 4 2 5 3 7 4 8 5 9 6 10 7 11 8 13 9 14 14 15
REMARK SMILES IDX 10 16 13 17 11 18 12 19 15 20 16 21 19 22 17 23 18 24 23 25
REMARK SMILES IDX 24 26 25 27 26 29 27 30 28 31 92 32 29 33 91 34 30 35 31 36
REMARK SMILES IDX 32 37 85 38 33 39 90 40 84 41 86 42 34 43 89 44 83 45 82 46
REMARK SMILES IDX 35 48 69 49 48 50 68 51 49 52 52 53 67 54 87 55 50 56 51 57
REMARK SMILES IDX 66 59 88 60 53 61 36 62 37 63 46 64 38 65 39 66 45 67 47 68
REMARK SMILES IDX 40 69 41 70 42 71 43 72 44 73 70 74 71 75 80 76 72 77 73 78
REMARK SMILES IDX 79 79 81 80 74 81 75 82 76 83 77 84 78 85 54 86 55 87 64 88
REMARK SMILES IDX 56 89 57 90 63 91 65 92 58 93 59 94 60 95 61 96 62 97
REMARK H PARENT 20 6 7 12 24 28 86 47 52 58
REMARK Flexibility Score: inf
ROOT
ATOM      1  C   UNL     1       2.584  -0.685   3.757  1.00  0.00     0.042 C 
ENDROOT
BRANCH   1   2
ATOM      2  C   UNL     1       2.228  -0.065   2.419  1.00  0.00     0.117 C 
BRANCH   2   3
ATOM      3  N   UNL     1       3.143  -0.425   1.355  1.00  0.00    -0.356 N 
ATOM      4  O   UNL     1       1.536  -1.157  -0.120  1.00  0.00    -0.275 OA
ATOM      5  C   UNL     1       2.704  -0.888   0.138  1.00  0.00     0.220 C 
ATOM      6  H   UNL     1       4.111  -0.334   1.509  1.00  0.00     0.163 HD
BRANCH   5   7
ATOM      7  C   UNL     1       3.782  -0.946  -0.916  1.00  0.00     0.116 C 
BRANCH   7   8
ATOM      8  C   UNL     1       3.798   0.342  -1.761  1.00  0.00     0.117 C 
BRANCH   8   9
ATOM      9  C   UNL     1       4.419   1.472  -0.951  1.00  0.00     0.230 C 
ATOM     10  O   UNL     1       5.652   1.564  -0.870  1.00  0.00    -0.274 OA
ATOM     11  N   UNL     1       3.741   2.385  -0.209  1.00  0.00    -0.326 N 
ATOM     12  H   UNL     1       4.357   3.034   0.202  1.00  0.00     0.169 HD
BRANCH  11  13
ATOM     13  C   UNL     1       2.408   2.668   0.137  1.00  0.00     0.041 A 
ATOM     14  C   UNL     1       1.267   2.032  -0.348  1.00  0.00     0.029 A 
ATOM     15  C   UNL     1       2.241   3.657   1.128  1.00  0.00     0.029 A 
ATOM     16  C   UNL     1       0.003   2.326   0.182  1.00  0.00     0.041 A 
ATOM     17  C   UNL     1       0.981   3.956   1.654  1.00  0.00     0.041 A 
ATOM     18  C   UNL     1      -0.129   3.277   1.182  1.00  0.00     0.123 A 
ATOM     19  F   UNL     1      -1.337   3.536   1.698  1.00  0.00    -0.207 F 
ENDBRANCH  11  13
ENDBRANCH   8   9
BRANCH   8  20
ATOM     20  C   UNL     1       4.624   0.154  -3.062  1.00  0.00     0.131 C 
ATOM     21  C   UNL     1       4.048   0.923  -4.252  1.00  0.00     0.035 C 
ATOM     22  O   UNL     1       4.675  -1.229  -3.469  1.00  0.00    -0.377 OA
ATOM     23  C   UNL     1       4.451   0.061  -5.423  1.00  0.00     0.031 C 
ATOM     24  C   UNL     1       4.317  -1.329  -4.848  1.00  0.00     0.160 C 
ENDBRANCH   8  20
ENDBRANCH   7   8
ENDBRANCH   5   7
ENDBRANCH   2   3
ENDBRANCH   1   2
BRANCH   1  25
ATOM     25  C   UNL     1       4.008  -0.426   4.229  1.00  0.00     0.118 C 
BRANCH  25  26
ATOM     26  N   UNL     1       4.369   0.980   4.343  1.00  0.00    -0.352 N 
ATOM     27  C   UNL     1       5.199   1.588   5.266  1.00  0.00     0.251 C 
ATOM     28  H   UNL     1       3.968   1.579   3.672  1.00  0.00     0.163 HD
ATOM     29  O   UNL     1       5.355   2.796   5.240  1.00  0.00    -0.269 OA
BRANCH  27  30
ATOM     30  C   UNL     1       5.842   0.762   6.319  1.00  0.00     0.039 A 
ATOM     31  C   UNL     1       5.773   1.195   7.645  1.00  0.00     0.014 A 
ATOM     32  C   UNL     1       6.443  -0.461   6.014  1.00  0.00     0.014 A 
ATOM     33  C   UNL     1       6.212   0.353   8.671  1.00  0.00     0.010 A 
ATOM     34  C   UNL     1       6.794  -1.335   7.040  1.00  0.00     0.010 A 
ATOM     35  C   UNL     1       6.671  -0.944   8.381  1.00  0.00    -0.014 A 
BRANCH  35  36
ATOM     36  C   UNL     1       6.988  -1.910   9.466  1.00  0.00     0.031 A 
ATOM     37  C   UNL     1       8.373  -2.481   9.606  1.00  0.00     0.074 A 
ATOM     38  C   UNL     1       6.005  -2.328  10.291  1.00  0.00     0.049 A 
ATOM     39  N   UNL     1       8.817  -3.369  10.458  1.00  0.00    -0.248 NA
ATOM     40  C   UNL     1       9.384  -2.022   8.640  1.00  0.00     0.031 C 
ATOM     41  C   UNL     1       4.600  -1.917  10.214  1.00  0.00     0.029 A 
ATOM     42  N   UNL     1       6.037  -3.189  11.359  1.00  0.00    -0.354 N 
ATOM     43  C   UNL     1      10.145  -3.592  10.118  1.00  0.00     0.074 A 
ATOM     44  C   UNL     1      10.423  -2.784   8.951  1.00  0.00     0.031 C 
ATOM     45  C   UNL     1       3.918  -2.485  11.222  1.00  0.00     0.029 A 
ATOM     46  C   UNL     1       4.826  -3.322  11.998  1.00  0.00     0.049 A 
ATOM     47  H   UNL     1       6.850  -3.667  11.641  1.00  0.00     0.167 HD
ATOM     48  C   UNL     1      11.061  -4.375  10.737  1.00  0.00     0.037 A 
ATOM     49  C   UNL     1       4.488  -4.025  13.097  1.00  0.00     0.037 A 
ATOM     50  C   UNL     1      10.801  -5.139  11.929  1.00  0.00     0.049 A 
ATOM     51  C   UNL     1       5.538  -4.827  13.810  1.00  0.00     0.074 A 
ATOM     52  C   UNL     1      11.681  -5.915  12.664  1.00  0.00     0.029 A 
ATOM     53  N   UNL     1       9.574  -5.210  12.570  1.00  0.00    -0.354 N 
ATOM     54  N   UNL     1       6.800  -4.991  13.498  1.00  0.00    -0.248 NA
ATOM     55  C   UNL     1       5.120  -5.532  15.030  1.00  0.00     0.031 C 
ATOM     56  C   UNL     1      10.981  -6.467  13.743  1.00  0.00     0.029 A 
ATOM     57  C   UNL     1       9.673  -6.014  13.694  1.00  0.00     0.049 A 
ATOM     58  H   UNL     1       8.753  -4.756  12.271  1.00  0.00     0.167 HD
ATOM     59  C   UNL     1       7.332  -5.810  14.486  1.00  0.00     0.074 A 
ATOM     60  C   UNL     1       6.258  -6.092  15.418  1.00  0.00     0.031 C 
ATOM     61  C   UNL     1       8.594  -6.288  14.609  1.00  0.00     0.037 A 
BRANCH  48  62
ATOM     62  C   UNL     1      12.443  -4.418  10.150  1.00  0.00     0.058 A 
ATOM     63  C   UNL     1      12.907  -5.565   9.487  1.00  0.00     0.135 A 
ATOM     64  C   UNL     1      13.320  -3.328  10.267  1.00  0.00     0.135 A 
ATOM     65  F   UNL     1      12.107  -6.633   9.341  1.00  0.00    -0.206 F 
ATOM     66  C   UNL     1      14.194  -5.630   8.962  1.00  0.00     0.059 A 
ATOM     67  C   UNL     1      14.603  -3.362   9.729  1.00  0.00     0.059 A 
ATOM     68  F   UNL     1      12.916  -2.198  10.870  1.00  0.00    -0.206 F 
ATOM     69  C   UNL     1      15.035  -4.522   9.088  1.00  0.00     0.060 A 
BRANCH  69  70
ATOM     70  S   UNL     1      16.682  -4.593   8.351  1.00  0.00     0.124 S 
ATOM     71  O   UNL     1      17.402  -5.425   9.307  1.00  0.00    -0.237 OA
ATOM     72  O   UNL     1      16.414  -5.200   7.050  1.00  0.00    -0.237 OA
ATOM     73  O   UNL     1      17.087  -3.190   8.302  1.00  0.00    -0.744 OA
ENDBRANCH  69  70
ENDBRANCH  48  62
BRANCH  49  74
ATOM     74  C   UNL     1       3.102  -3.942  13.624  1.00  0.00     0.058 A 
ATOM     75  C   UNL     1       2.035  -4.596  12.990  1.00  0.00     0.135 A 
ATOM     76  C   UNL     1       2.817  -3.168  14.759  1.00  0.00     0.135 A 
ATOM     77  F   UNL     1       2.257  -5.340  11.896  1.00  0.00    -0.206 F 
ATOM     78  C   UNL     1       0.730  -4.470  13.453  1.00  0.00     0.059 A 
ATOM     79  C   UNL     1       1.522  -3.040  15.250  1.00  0.00     0.059 A 
ATOM     80  F   UNL     1       3.810  -2.534  15.402  1.00  0.00    -0.206 F 
ATOM     81  C   UNL     1       0.482  -3.682  14.579  1.00  0.00     0.060 A 
BRANCH  81  82
ATOM     82  S   UNL     1      -1.220  -3.510  15.156  1.00  0.00     0.124 S 
ATOM     83  O   UNL     1      -1.777  -2.612  14.149  1.00  0.00    -0.237 OA
ATOM     84  O   UNL     1      -1.701  -4.887  15.116  1.00  0.00    -0.237 OA
ATOM     85  O   UNL     1      -1.067  -2.941  16.491  1.00  0.00    -0.744 OA
ENDBRANCH  81  82
ENDBRANCH  49  74
BRANCH  61  86
ATOM     86  C   UNL     1       8.884  -7.158  15.796  1.00  0.00     0.058 A 
ATOM     87  C   UNL     1       9.626  -6.663  16.880  1.00  0.00     0.135 A 
ATOM     88  C   UNL     1       8.454  -8.493  15.846  1.00  0.00     0.135 A 
ATOM     89  F   UNL     1      10.062  -5.394  16.878  1.00  0.00    -0.206 F 
ATOM     90  C   UNL     1       9.933  -7.464  17.974  1.00  0.00     0.059 A 
ATOM     91  C   UNL     1       8.734  -9.307  16.940  1.00  0.00     0.059 A 
ATOM     92  F   UNL     1       7.731  -9.007  14.838  1.00  0.00    -0.206 F 
ATOM     93  C   UNL     1       9.484  -8.786  17.994  1.00  0.00     0.060 A 
BRANCH  93  94
ATOM     94  S   UNL     1       9.845  -9.804  19.441  1.00  0.00     0.124 S 
ATOM     95  O   UNL     1      11.231 -10.187  19.197  1.00  0.00    -0.237 OA
ATOM     96  O   UNL     1       9.628  -8.872  20.544  1.00  0.00    -0.237 OA
ATOM     97  O   UNL     1       8.866 -10.883  19.344  1.00  0.00    -0.744 OA
ENDBRANCH  93  94
ENDBRANCH  61  86
ENDBRANCH  35  36
ENDBRANCH  27  30
ENDBRANCH  25  26
ENDBRANCH   1  25
TORSDOF 17
