REMARK SMILES C[NH2+][C@@]1(C(=O)NCCCNC(=O)c2ccc(-c3c4nc(c(-c5c(F)cc(S(=O)(=O)[O-])cc5F)c5ccc([nH]5)c(-c5c(F)cc(S(=O)(=O)[O-])cc5F)c5nc(c(-c6c(F)cc(S(=O)(=O)[O-])cc6F)c6ccc3[nH]6)C=C5)C=C4)cc2)CC[C@H](SC(C)C)C1
REMARK SMILES IDX 8 1 7 2 6 3 4 4 5 5 3 7 79 8 86 9 80 10 81 11 2 12 1 13
REMARK SMILES IDX 82 16 83 17 84 18 85 19 9 20 10 21 11 22 12 24 13 25 14 26
REMARK SMILES IDX 78 27 15 28 77 29 16 30 17 31 18 32 71 33 19 34 76 35 70 36
REMARK SMILES IDX 72 37 20 38 75 39 69 40 68 41 21 43 55 44 34 45 54 46 35 47
REMARK SMILES IDX 38 48 53 49 73 50 36 51 37 52 52 54 74 55 39 56 22 57 23 58
REMARK SMILES IDX 32 59 24 60 25 61 31 62 33 63 26 64 27 65 28 66 29 67 30 68
REMARK SMILES IDX 56 69 57 70 66 71 58 72 59 73 65 74 67 75 60 76 61 77 62 78
REMARK SMILES IDX 63 79 64 80 40 81 41 82 50 83 42 84 43 85 49 86 51 87 44 88
REMARK SMILES IDX 45 89 46 90 47 91 48 92
REMARK H PARENT 6 6 2 14 2 15 10 23 72 42 38 53
REMARK Flexibility Score: inf
ROOT
ATOM      1  C   UNL     1      -4.500  -1.900   3.033  1.00  0.00     0.042 C 
ENDROOT
BRANCH   1   2
ATOM      2  C   UNL     1      -3.704  -0.673   2.606  1.00  0.00     0.118 C 
BRANCH   2   3
ATOM      3  N   UNL     1      -2.333  -0.735   3.046  1.00  0.00    -0.351 N 
ATOM      4  C   UNL     1      -1.146  -0.835   2.403  1.00  0.00     0.281 C 
ATOM      5  O   UNL     1      -0.193  -0.987   3.189  1.00  0.00    -0.268 OA
ATOM      6  H   UNL     1      -2.240  -0.696   4.025  1.00  0.00     0.163 HD
BRANCH   4   7
ATOM      7  C   UNL     1      -0.902  -0.786   0.817  1.00  0.00     0.176 C 
ATOM      8  C   UNL     1      -1.614   0.368   0.102  1.00  0.00     0.080 C 
ATOM      9  C   UNL     1      -1.390  -2.062   0.099  1.00  0.00     0.093 C 
ATOM     10  C   UNL     1      -2.802  -0.211  -0.674  1.00  0.00     0.022 C 
ATOM     11  C   UNL     1      -2.658  -1.730  -0.732  1.00  0.00     0.054 C 
BRANCH   7  12
ATOM     12  N   UNL     1       0.580  -0.737   0.730  1.00  0.00    -0.336 N 
ATOM     13  C   UNL     1       1.272   0.017  -0.278  1.00  0.00     0.331 C 
ATOM     14  H   UNL     1       0.904  -0.373   1.626  1.00  0.00     0.346 HD
ATOM     15  H   UNL     1       0.804  -1.695   0.462  1.00  0.00     0.346 HD
ENDBRANCH   7  12
BRANCH  11  16
ATOM     16  S   UNL     1      -3.988  -2.857  -0.135  1.00  0.00    -0.155 SA
BRANCH  16  17
ATOM     17  C   UNL     1      -5.619  -2.310  -0.787  1.00  0.00     0.040 C 
ATOM     18  C   UNL     1      -5.976  -0.838  -0.667  1.00  0.00     0.019 C 
ATOM     19  C   UNL     1      -5.875  -2.837  -2.192  1.00  0.00     0.019 C 
ENDBRANCH  16  17
ENDBRANCH  11  16
ENDBRANCH   4   7
ENDBRANCH   2   3
ENDBRANCH   1   2
BRANCH   1  20
ATOM     20  C   UNL     1      -5.074  -1.775   4.432  1.00  0.00     0.118 C 
BRANCH  20  21
ATOM     21  N   UNL     1      -6.190  -0.836   4.470  1.00  0.00    -0.352 N 
ATOM     22  C   UNL     1      -7.545  -1.008   4.313  1.00  0.00     0.251 C 
ATOM     23  H   UNL     1      -5.922   0.096   4.640  1.00  0.00     0.163 HD
ATOM     24  O   UNL     1      -8.231  -0.009   4.093  1.00  0.00    -0.269 OA
BRANCH  22  25
ATOM     25  C   UNL     1      -8.197  -2.340   4.388  1.00  0.00     0.039 A 
ATOM     26  C   UNL     1      -9.395  -2.547   3.691  1.00  0.00     0.014 A 
ATOM     27  C   UNL     1      -7.708  -3.363   5.198  1.00  0.00     0.014 A 
ATOM     28  C   UNL     1     -10.061  -3.778   3.773  1.00  0.00     0.010 A 
ATOM     29  C   UNL     1      -8.300  -4.624   5.183  1.00  0.00     0.010 A 
ATOM     30  C   UNL     1      -9.501  -4.842   4.495  1.00  0.00    -0.014 A 
BRANCH  30  31
ATOM     31  C   UNL     1     -10.162  -6.173   4.596  1.00  0.00     0.031 A 
ATOM     32  C   UNL     1     -10.519  -6.737   5.951  1.00  0.00     0.074 A 
ATOM     33  C   UNL     1     -10.365  -6.913   3.487  1.00  0.00     0.049 A 
ATOM     34  N   UNL     1     -10.960  -7.929   6.264  1.00  0.00    -0.248 NA
ATOM     35  C   UNL     1     -10.311  -5.857   7.114  1.00  0.00     0.031 C 
ATOM     36  C   UNL     1     -10.022  -6.508   2.123  1.00  0.00     0.029 A 
ATOM     37  N   UNL     1     -10.895  -8.170   3.334  1.00  0.00    -0.354 N 
ATOM     38  C   UNL     1     -11.040  -7.954   7.653  1.00  0.00     0.074 A 
ATOM     39  C   UNL     1     -10.553  -6.677   8.125  1.00  0.00     0.031 C 
ATOM     40  C   UNL     1     -10.373  -7.485   1.271  1.00  0.00     0.029 A 
ATOM     41  C   UNL     1     -10.922  -8.604   2.030  1.00  0.00     0.049 A 
ATOM     42  H   UNL     1     -11.225  -8.711   4.088  1.00  0.00     0.167 HD
ATOM     43  C   UNL     1     -11.501  -8.938   8.462  1.00  0.00     0.037 A 
ATOM     44  C   UNL     1     -11.332  -9.775   1.503  1.00  0.00     0.037 A 
ATOM     45  C   UNL     1     -12.041 -10.184   7.983  1.00  0.00     0.049 A 
ATOM     46  C   UNL     1     -11.870 -10.842   2.417  1.00  0.00     0.074 A 
ATOM     47  C   UNL     1     -12.608 -11.214   8.714  1.00  0.00     0.029 A 
ATOM     48  N   UNL     1     -12.091 -10.564   6.650  1.00  0.00    -0.354 N 
ATOM     49  N   UNL     1     -11.987 -10.826   3.723  1.00  0.00    -0.248 NA
ATOM     50  C   UNL     1     -12.337 -12.084   1.785  1.00  0.00     0.031 C 
ATOM     51  C   UNL     1     -12.967 -12.233   7.825  1.00  0.00     0.029 A 
ATOM     52  C   UNL     1     -12.666 -11.819   6.537  1.00  0.00     0.049 A 
ATOM     53  H   UNL     1     -11.765 -10.022   5.896  1.00  0.00     0.167 HD
ATOM     54  C   UNL     1     -12.565 -12.043   4.068  1.00  0.00     0.074 A 
ATOM     55  C   UNL     1     -12.784 -12.766   2.832  1.00  0.00     0.031 C 
ATOM     56  C   UNL     1     -12.886 -12.519   5.296  1.00  0.00     0.037 A 
BRANCH  43  57
ATOM     57  C   UNL     1     -11.451  -8.703   9.949  1.00  0.00     0.058 A 
ATOM     58  C   UNL     1     -12.280  -7.759  10.577  1.00  0.00     0.135 A 
ATOM     59  C   UNL     1     -10.579  -9.447  10.761  1.00  0.00     0.135 A 
ATOM     60  F   UNL     1     -13.124  -7.010   9.849  1.00  0.00    -0.206 F 
ATOM     61  C   UNL     1     -12.219  -7.532  11.948  1.00  0.00     0.059 A 
ATOM     62  C   UNL     1     -10.523  -9.258  12.140  1.00  0.00     0.059 A 
ATOM     63  F   UNL     1      -9.766 -10.366  10.217  1.00  0.00    -0.206 F 
ATOM     64  C   UNL     1     -11.334  -8.285  12.721  1.00  0.00     0.060 A 
BRANCH  64  65
ATOM     65  S   UNL     1     -11.262  -7.973  14.498  1.00  0.00     0.124 S 
ATOM     66  O   UNL     1     -10.541  -6.705  14.541  1.00  0.00    -0.237 OA
ATOM     67  O   UNL     1     -12.673  -7.912  14.863  1.00  0.00    -0.237 OA
ATOM     68  O   UNL     1     -10.533  -9.128  15.016  1.00  0.00    -0.744 OA
ENDBRANCH  64  65
ENDBRANCH  43  57
BRANCH  44  69
ATOM     69  C   UNL     1     -11.277  -9.985   0.032  1.00  0.00     0.058 A 
ATOM     70  C   UNL     1     -12.452 -10.013  -0.733  1.00  0.00     0.135 A 
ATOM     71  C   UNL     1     -10.055 -10.139  -0.642  1.00  0.00     0.135 A 
ATOM     72  F   UNL     1     -13.645  -9.877  -0.133  1.00  0.00    -0.206 F 
ATOM     73  C   UNL     1     -12.422 -10.197  -2.111  1.00  0.00     0.059 A 
ATOM     74  C   UNL     1      -9.998 -10.299  -2.024  1.00  0.00     0.059 A 
ATOM     75  F   UNL     1      -8.901 -10.102   0.041  1.00  0.00    -0.206 F 
ATOM     76  C   UNL     1     -11.188 -10.336  -2.748  1.00  0.00     0.060 A 
BRANCH  76  77
ATOM     77  S   UNL     1     -11.159 -10.516  -4.545  1.00  0.00     0.124 S 
ATOM     78  O   UNL     1     -11.627 -11.887  -4.711  1.00  0.00    -0.237 OA
ATOM     79  O   UNL     1     -12.082  -9.470  -4.974  1.00  0.00    -0.237 OA
ATOM     80  O   UNL     1      -9.758 -10.281  -4.883  1.00  0.00    -0.744 OA
ENDBRANCH  76  77
ENDBRANCH  44  69
BRANCH  56  81
ATOM     81  C   UNL     1     -13.544 -13.868   5.365  1.00  0.00     0.058 A 
ATOM     82  C   UNL     1     -12.823 -15.052   5.146  1.00  0.00     0.135 A 
ATOM     83  C   UNL     1     -14.901 -13.979   5.710  1.00  0.00     0.135 A 
ATOM     84  F   UNL     1     -11.525 -15.000   4.808  1.00  0.00    -0.206 F 
ATOM     85  C   UNL     1     -13.430 -16.300   5.246  1.00  0.00     0.059 A 
ATOM     86  C   UNL     1     -15.522 -15.217   5.841  1.00  0.00     0.059 A 
ATOM     87  F   UNL     1     -15.632 -12.877   5.940  1.00  0.00    -0.206 F 
ATOM     88  C   UNL     1     -14.780 -16.372   5.596  1.00  0.00     0.060 A 
BRANCH  88  89
ATOM     89  S   UNL     1     -15.548 -17.998   5.757  1.00  0.00     0.124 S 
ATOM     90  O   UNL     1     -15.699 -18.391   4.360  1.00  0.00    -0.237 OA
ATOM     91  O   UNL     1     -14.550 -18.741   6.520  1.00  0.00    -0.237 OA
ATOM     92  O   UNL     1     -16.791 -17.717   6.469  1.00  0.00    -0.744 OA
ENDBRANCH  88  89
ENDBRANCH  56  81
ENDBRANCH  30  31
ENDBRANCH  22  25
ENDBRANCH  20  21
ENDBRANCH   1  20
TORSDOF 16
