REMARK SMILES CC[C@@](C)(C(=O)NCCCNC(=O)c1ccc(-c2c3nc(c(-c4c(F)cc(S(=O)(=O)[O-])cc4F)c4ccc([nH]4)c(-c4c(F)cc(S(=O)(=O)[O-])cc4F)c4nc(c(-c5c(F)cc(S(=O)(=O)[O-])cc5F)c5ccc2[nH]5)C=C4)C=C3)cc1)n1nnnc1-c1ccc(Br)c(F)c1
REMARK SMILES IDX 9 1 8 2 7 3 5 4 6 5 3 7 4 8 2 9 1 10 80 11 81 12 84 13 82 14
REMARK SMILES IDX 83 15 85 16 86 17 92 18 87 19 90 20 88 21 91 22 89 23 10 24
REMARK SMILES IDX 11 25 12 26 13 28 14 29 15 30 79 31 16 32 78 33 17 34 18 35
REMARK SMILES IDX 19 36 72 37 20 38 77 39 71 40 73 41 21 42 76 43 70 44 69 45
REMARK SMILES IDX 22 47 56 48 35 49 55 50 36 51 39 52 54 53 74 54 37 55 38 56
REMARK SMILES IDX 53 58 75 59 40 60 23 61 24 62 33 63 25 64 26 65 32 66 34 67
REMARK SMILES IDX 27 68 28 69 29 70 30 71 31 72 57 73 58 74 67 75 59 76 60 77
REMARK SMILES IDX 66 78 68 79 61 80 62 81 63 82 64 83 65 84 41 85 42 86 51 87
REMARK SMILES IDX 43 88 44 89 50 90 52 91 45 92 46 93 47 94 48 95 49 96
REMARK H PARENT 7 6 11 27 73 46 39 57
REMARK Flexibility Score: inf
ROOT
ATOM      1  C   UNL     1      -2.754   2.652   1.036  1.00  0.00     0.042 C 
ENDROOT
BRANCH   1   2
ATOM      2  C   UNL     1      -1.866   3.017  -0.146  1.00  0.00     0.117 C 
BRANCH   2   3
ATOM      3  N   UNL     1      -0.725   3.848   0.224  1.00  0.00    -0.354 N 
ATOM      4  C   UNL     1       0.627   3.608   0.281  1.00  0.00     0.247 C 
ATOM      5  O   UNL     1       1.276   4.493   0.843  1.00  0.00    -0.272 OA
ATOM      6  H   UNL     1      -0.974   4.764   0.485  1.00  0.00     0.163 HD
BRANCH   4   7
ATOM      7  C   UNL     1       1.242   2.267  -0.236  1.00  0.00     0.142 C 
ATOM      8  C   UNL     1       0.858   2.124  -1.726  1.00  0.00     0.048 C 
BRANCH   7   9
ATOM      9  C   UNL     1       0.726   1.200   0.790  1.00  0.00     0.037 C 
ATOM     10  C   UNL     1       0.024  -0.047   0.268  1.00  0.00     0.007 C 
ENDBRANCH   7   9
BRANCH   7  11
ATOM     11  N   UNL     1       2.736   2.287  -0.236  1.00  0.00    -0.210 N 
ATOM     12  N   UNL     1       3.414   3.441  -0.426  1.00  0.00    -0.044 NA
ATOM     13  C   UNL     1       3.648   1.240  -0.342  1.00  0.00     0.183 A 
ATOM     14  N   UNL     1       4.694   3.118  -0.452  1.00  0.00    -0.023 NA
ATOM     15  N   UNL     1       4.857   1.765  -0.405  1.00  0.00    -0.108 NA
BRANCH  13  16
ATOM     16  C   UNL     1       3.378  -0.190  -0.401  1.00  0.00     0.024 A 
ATOM     17  C   UNL     1       3.631  -1.001   0.715  1.00  0.00     0.013 A 
ATOM     18  C   UNL     1       2.909  -0.784  -1.578  1.00  0.00     0.052 A 
ATOM     19  C   UNL     1       3.335  -2.369   0.682  1.00  0.00     0.019 A 
ATOM     20  C   UNL     1       2.596  -2.142  -1.600  1.00  0.00     0.138 A 
ATOM     21  C   UNL     1       2.795  -2.934  -0.474  1.00  0.00     0.053 A 
ATOM     22  F   UNL     1       2.082  -2.659  -2.725  1.00  0.00    -0.206 F 
ATOM     23  Br  UNL     1       2.331  -4.765  -0.491  1.00  0.00    -0.048 Br
ENDBRANCH  13  16
ENDBRANCH   7  11
ENDBRANCH   4   7
ENDBRANCH   2   3
ENDBRANCH   1   2
BRANCH   1  24
ATOM     24  C   UNL     1      -3.451   3.832   1.695  1.00  0.00     0.118 C 
BRANCH  24  25
ATOM     25  N   UNL     1      -4.430   4.460   0.822  1.00  0.00    -0.352 N 
ATOM     26  C   UNL     1      -5.796   4.562   0.939  1.00  0.00     0.251 C 
ATOM     27  H   UNL     1      -4.053   4.882   0.017  1.00  0.00     0.163 HD
ATOM     28  O   UNL     1      -6.442   4.971  -0.023  1.00  0.00    -0.269 OA
BRANCH  26  29
ATOM     29  C   UNL     1      -6.494   4.171   2.187  1.00  0.00     0.039 A 
ATOM     30  C   UNL     1      -7.749   3.560   2.092  1.00  0.00     0.014 A 
ATOM     31  C   UNL     1      -5.956   4.444   3.447  1.00  0.00     0.014 A 
ATOM     32  C   UNL     1      -8.431   3.177   3.251  1.00  0.00     0.010 A 
ATOM     33  C   UNL     1      -6.591   3.978   4.597  1.00  0.00     0.010 A 
ATOM     34  C   UNL     1      -7.845   3.356   4.514  1.00  0.00    -0.014 A 
BRANCH  34  35
ATOM     35  C   UNL     1      -8.542   2.933   5.758  1.00  0.00     0.031 A 
ATOM     36  C   UNL     1      -8.927   3.958   6.795  1.00  0.00     0.074 A 
ATOM     37  C   UNL     1      -8.780   1.626   5.984  1.00  0.00     0.049 A 
ATOM     38  N   UNL     1      -9.481   3.781   7.967  1.00  0.00    -0.248 NA
ATOM     39  C   UNL     1      -8.620   5.364   6.487  1.00  0.00     0.031 C 
ATOM     40  C   UNL     1      -8.410   0.530   5.085  1.00  0.00     0.029 A 
ATOM     41  N   UNL     1      -9.383   0.994   7.042  1.00  0.00    -0.354 N 
ATOM     42  C   UNL     1      -9.565   5.044   8.543  1.00  0.00     0.074 A 
ATOM     43  C   UNL     1      -8.960   5.972   7.614  1.00  0.00     0.031 C 
ATOM     44  C   UNL     1      -8.818  -0.633   5.617  1.00  0.00     0.029 A 
ATOM     45  C   UNL     1      -9.447  -0.373   6.908  1.00  0.00     0.049 A 
ATOM     46  H   UNL     1      -9.736   1.475   7.825  1.00  0.00     0.167 HD
ATOM     47  C   UNL     1     -10.120   5.403   9.726  1.00  0.00     0.037 A 
ATOM     48  C   UNL     1      -9.955  -1.310   7.731  1.00  0.00     0.037 A 
ATOM     49  C   UNL     1     -10.762   4.483  10.627  1.00  0.00     0.049 A 
ATOM     50  C   UNL     1     -10.594  -0.884   9.025  1.00  0.00     0.074 A 
ATOM     51  C   UNL     1     -11.415   4.757  11.816  1.00  0.00     0.029 A 
ATOM     52  N   UNL     1     -10.838   3.111  10.437  1.00  0.00    -0.354 N 
ATOM     53  N   UNL     1     -10.719   0.323   9.524  1.00  0.00    -0.248 NA
ATOM     54  C   UNL     1     -11.169  -1.945   9.863  1.00  0.00     0.031 C 
ATOM     55  C   UNL     1     -11.856   3.547  12.363  1.00  0.00     0.029 A 
ATOM     56  C   UNL     1     -11.515   2.524  11.493  1.00  0.00     0.049 A 
ATOM     57  H   UNL     1     -10.465   2.627   9.665  1.00  0.00     0.167 HD
ATOM     58  C   UNL     1     -11.412   0.169  10.719  1.00  0.00     0.074 A 
ATOM     59  C   UNL     1     -11.688  -1.246  10.863  1.00  0.00     0.031 C 
ATOM     60  C   UNL     1     -11.789   1.114  11.616  1.00  0.00     0.037 A 
BRANCH  47  61
ATOM     61  C   UNL     1     -10.064   6.857  10.108  1.00  0.00     0.058 A 
ATOM     62  C   UNL     1     -10.832   7.825   9.442  1.00  0.00     0.135 A 
ATOM     63  C   UNL     1      -9.252   7.285  11.171  1.00  0.00     0.135 A 
ATOM     64  F   UNL     1     -11.614   7.474   8.408  1.00  0.00    -0.206 F 
ATOM     65  C   UNL     1     -10.774   9.170   9.793  1.00  0.00     0.059 A 
ATOM     66  C   UNL     1      -9.199   8.621  11.558  1.00  0.00     0.059 A 
ATOM     67  F   UNL     1      -8.497   6.402  11.844  1.00  0.00    -0.206 F 
ATOM     68  C   UNL     1      -9.951   9.559  10.852  1.00  0.00     0.060 A 
BRANCH  68  69
ATOM     69  S   UNL     1      -9.885  11.307  11.295  1.00  0.00     0.124 S 
ATOM     70  O   UNL     1      -9.072  11.850  10.211  1.00  0.00    -0.237 OA
ATOM     71  O   UNL     1     -11.293  11.688  11.282  1.00  0.00    -0.237 OA
ATOM     72  O   UNL     1      -9.253  11.300  12.611  1.00  0.00    -0.744 OA
ENDBRANCH  68  69
ENDBRANCH  47  61
BRANCH  48  73
ATOM     73  C   UNL     1      -9.914  -2.744   7.338  1.00  0.00     0.058 A 
ATOM     74  C   UNL     1     -11.083  -3.419   6.959  1.00  0.00     0.135 A 
ATOM     75  C   UNL     1      -8.708  -3.462   7.320  1.00  0.00     0.135 A 
ATOM     76  F   UNL     1     -12.261  -2.776   6.966  1.00  0.00    -0.206 F 
ATOM     77  C   UNL     1     -11.064  -4.760   6.590  1.00  0.00     0.059 A 
ATOM     78  C   UNL     1      -8.659  -4.797   6.932  1.00  0.00     0.059 A 
ATOM     79  F   UNL     1      -7.559  -2.856   7.656  1.00  0.00    -0.206 F 
ATOM     80  C   UNL     1      -9.845  -5.441   6.578  1.00  0.00     0.060 A 
BRANCH  80  81
ATOM     81  S   UNL     1      -9.821  -7.167   6.047  1.00  0.00     0.124 S 
ATOM     82  O   UNL     1     -10.388  -7.839   7.209  1.00  0.00    -0.237 OA
ATOM     83  O   UNL     1     -10.662  -7.133   4.854  1.00  0.00    -0.237 OA
ATOM     84  O   UNL     1      -8.405  -7.419   5.797  1.00  0.00    -0.744 OA
ENDBRANCH  80  81
ENDBRANCH  48  73
BRANCH  60  85
ATOM     85  C   UNL     1     -12.573   0.655  12.813  1.00  0.00     0.058 A 
ATOM     86  C   UNL     1     -11.967  -0.045  13.867  1.00  0.00     0.135 A 
ATOM     87  C   UNL     1     -13.940   0.957  12.924  1.00  0.00     0.135 A 
ATOM     88  F   UNL     1     -10.664  -0.363  13.808  1.00  0.00    -0.206 F 
ATOM     89  C   UNL     1     -12.696  -0.456  14.979  1.00  0.00     0.059 A 
ATOM     90  C   UNL     1     -14.682   0.579  14.037  1.00  0.00     0.059 A 
ATOM     91  F   UNL     1     -14.564   1.635  11.947  1.00  0.00    -0.206 F 
ATOM     92  C   UNL     1     -14.055  -0.140  15.054  1.00  0.00     0.060 A 
BRANCH  92  93
ATOM     93  S   UNL     1     -14.987  -0.657  16.511  1.00  0.00     0.124 S 
ATOM     94  O   UNL     1     -15.171  -2.081  16.250  1.00  0.00    -0.237 OA
ATOM     95  O   UNL     1     -14.075  -0.326  17.601  1.00  0.00    -0.237 OA
ATOM     96  O   UNL     1     -16.197   0.157  16.445  1.00  0.00    -0.744 OA
ENDBRANCH  92  93
ENDBRANCH  60  85
ENDBRANCH  34  35
ENDBRANCH  26  29
ENDBRANCH  24  25
ENDBRANCH   1  24
TORSDOF 16
