REMARK SMILES COc1ccc(N2C(=O)/C(=C/c3c(C(=O)NCCCNC(=O)c4ccc(-c5c6nc(c(-c7c(F)cc(S(=O)(=O)[O-])cc7F)c7ccc([nH]7)c(-c7c(F)cc(S(=O)(=O)[O-])cc7F)c7nc(c(-c8c(F)cc(S(=O)(=O)[O-])cc8F)c8ccc5[nH]8)C=C7)C=C6)cc4)[nH]c4cc(OC)ccc34)SC2=S)cc1
REMARK SMILES IDX 18 1 17 2 16 3 14 4 15 5 13 7 12 8 97 9 89 10 90 11 96 12
REMARK SMILES IDX 91 14 95 15 92 16 11 17 7 18 8 19 99 20 9 21 10 22 98 23
REMARK SMILES IDX 100 24 6 25 3 26 4 27 102 28 5 29 101 30 2 31 1 32 93 33
REMARK SMILES IDX 94 34 19 35 20 36 21 37 22 39 23 40 24 41 88 42 25 43 87 44
REMARK SMILES IDX 26 45 27 46 28 47 81 48 29 49 86 50 80 51 82 52 30 53 85 54
REMARK SMILES IDX 79 55 78 56 31 58 65 59 44 60 64 61 45 62 48 63 63 64 83 65
REMARK SMILES IDX 46 66 47 67 62 69 84 70 49 71 32 72 33 73 42 74 34 75 35 76
REMARK SMILES IDX 41 77 43 78 36 79 37 80 38 81 39 82 40 83 66 84 67 85 76 86
REMARK SMILES IDX 68 87 69 88 75 89 77 90 70 91 71 92 72 93 73 94 74 95 50 96
REMARK SMILES IDX 51 97 60 98 52 99 53 100 59 101 61 102 54 103 55 104 56 105
REMARK SMILES IDX 57 106 58 107
REMARK H PARENT 16 6 89 13 20 38 82 57 48 68
REMARK Flexibility Score: inf
ROOT
ATOM      1  C   UNL     1      -0.107   0.406   9.102  1.00  0.00     0.042 C 
ENDROOT
BRANCH   1   2
ATOM      2  C   UNL     1       1.206  -0.215   9.536  1.00  0.00     0.118 C 
BRANCH   2   3
ATOM      3  N   UNL     1       2.334   0.701   9.541  1.00  0.00    -0.351 N 
ATOM      4  C   UNL     1       3.496   0.588  10.269  1.00  0.00     0.268 C 
ATOM      5  O   UNL     1       4.251   1.552  10.326  1.00  0.00    -0.268 OA
ATOM      6  H   UNL     1       2.259   1.490   8.958  1.00  0.00     0.163 HD
BRANCH   4   7
ATOM      7  C   UNL     1       3.731  -0.618  11.027  1.00  0.00     0.112 A 
ATOM      8  C   UNL     1       3.619  -1.989  10.765  1.00  0.00     0.014 A 
ATOM      9  C   UNL     1       3.534  -2.619  12.078  1.00  0.00     0.008 A 
ATOM     10  N   UNL     1       4.189  -0.503  12.311  1.00  0.00    -0.350 N 
ATOM     11  C   UNL     1       3.864  -1.629  13.009  1.00  0.00     0.050 A 
ATOM     12  C   UNL     1       3.173  -3.879  12.628  1.00  0.00     0.015 A 
ATOM     13  H   UNL     1       4.678   0.271  12.674  1.00  0.00     0.167 HD
ATOM     14  C   UNL     1       3.818  -1.789  14.394  1.00  0.00     0.073 A 
ATOM     15  C   UNL     1       3.103  -4.055  14.043  1.00  0.00     0.047 A 
ATOM     16  C   UNL     1       3.412  -3.011  14.913  1.00  0.00     0.120 A 
BRANCH   8  17
ATOM     17  C   UNL     1       3.364  -2.494   9.420  1.00  0.00     0.032 C 
ATOM     18  N   UNL     1       3.758  -0.961   6.147  1.00  0.00    -0.261 N 
ATOM     19  C   UNL     1       3.248  -2.012   6.927  1.00  0.00     0.270 C 
ATOM     20  C   UNL     1       4.808  -0.244   6.701  1.00  0.00     0.152 C 
ATOM     21  O   UNL     1       2.295  -2.738   6.679  1.00  0.00    -0.268 OA
ATOM     22  C   UNL     1       3.933  -2.021   8.280  1.00  0.00     0.081 C 
ATOM     23  S   UNL     1       5.350  -1.042   8.171  1.00  0.00    -0.054 SA
ATOM     24  S   UNL     1       5.573   1.136   6.145  1.00  0.00    -0.051 S 
BRANCH  18  25
ATOM     25  C   UNL     1       3.182  -0.592   4.888  1.00  0.00     0.051 A 
ATOM     26  C   UNL     1       2.252   0.279   2.351  1.00  0.00     0.119 A 
ATOM     27  C   UNL     1       2.016   1.038   3.494  1.00  0.00     0.048 A 
ATOM     28  C   UNL     1       3.001  -0.891   2.467  1.00  0.00     0.048 A 
ATOM     29  C   UNL     1       2.480   0.613   4.748  1.00  0.00     0.030 A 
ATOM     30  C   UNL     1       3.452  -1.332   3.730  1.00  0.00     0.030 A 
BRANCH  26  31
ATOM     31  O   UNL     1       1.742   0.804   1.197  1.00  0.00    -0.497 OA
ATOM     32  C   UNL     1       1.524  -0.102   0.122  1.00  0.00     0.278 C 
ENDBRANCH  26  31
ENDBRANCH  18  25
ENDBRANCH   8  17
BRANCH  16  33
ATOM     33  O   UNL     1       3.288  -2.991  16.273  1.00  0.00    -0.497 OA
ATOM     34  C   UNL     1       3.497  -4.200  16.981  1.00  0.00     0.278 C 
ENDBRANCH  16  33
ENDBRANCH   4   7
ENDBRANCH   2   3
ENDBRANCH   1   2
BRANCH   1  35
ATOM     35  C   UNL     1      -0.158   0.746   7.619  1.00  0.00     0.118 C 
BRANCH  35  36
ATOM     36  N   UNL     1      -0.074  -0.392   6.712  1.00  0.00    -0.352 N 
ATOM     37  C   UNL     1      -0.497  -0.521   5.405  1.00  0.00     0.251 C 
ATOM     38  H   UNL     1       0.353  -1.194   7.091  1.00  0.00     0.163 HD
ATOM     39  O   UNL     1      -0.357  -1.607   4.845  1.00  0.00    -0.269 OA
BRANCH  37  40
ATOM     40  C   UNL     1      -1.177   0.588   4.683  1.00  0.00     0.039 A 
ATOM     41  C   UNL     1      -2.091   0.246   3.678  1.00  0.00     0.014 A 
ATOM     42  C   UNL     1      -0.994   1.935   5.004  1.00  0.00     0.014 A 
ATOM     43  C   UNL     1      -2.945   1.214   3.154  1.00  0.00     0.010 A 
ATOM     44  C   UNL     1      -1.897   2.885   4.559  1.00  0.00     0.010 A 
ATOM     45  C   UNL     1      -2.924   2.508   3.692  1.00  0.00    -0.014 A 
BRANCH  45  46
ATOM     46  C   UNL     1      -4.101   3.394   3.586  1.00  0.00     0.031 A 
ATOM     47  C   UNL     1      -3.999   4.734   2.930  1.00  0.00     0.074 A 
ATOM     48  C   UNL     1      -5.200   3.015   4.273  1.00  0.00     0.049 A 
ATOM     49  N   UNL     1      -4.912   5.660   2.824  1.00  0.00    -0.248 NA
ATOM     50  C   UNL     1      -2.694   5.105   2.358  1.00  0.00     0.031 C 
ATOM     51  C   UNL     1      -5.312   1.784   5.070  1.00  0.00     0.029 A 
ATOM     52  N   UNL     1      -6.414   3.621   4.449  1.00  0.00    -0.354 N 
ATOM     53  C   UNL     1      -4.296   6.726   2.181  1.00  0.00     0.074 A 
ATOM     54  C   UNL     1      -2.916   6.351   1.963  1.00  0.00     0.031 C 
ATOM     55  C   UNL     1      -6.529   1.719   5.627  1.00  0.00     0.029 A 
ATOM     56  C   UNL     1      -7.272   2.913   5.261  1.00  0.00     0.049 A 
ATOM     57  H   UNL     1      -6.652   4.482   4.034  1.00  0.00     0.167 HD
ATOM     58  C   UNL     1      -4.853   7.899   1.802  1.00  0.00     0.037 A 
ATOM     59  C   UNL     1      -8.520   3.203   5.669  1.00  0.00     0.037 A 
ATOM     60  C   UNL     1      -6.238   8.222   2.039  1.00  0.00     0.049 A 
ATOM     61  C   UNL     1      -9.136   4.474   5.162  1.00  0.00     0.074 A 
ATOM     62  C   UNL     1      -6.950   9.328   1.615  1.00  0.00     0.029 A 
ATOM     63  N   UNL     1      -7.115   7.439   2.780  1.00  0.00    -0.354 N 
ATOM     64  N   UNL     1      -8.585   5.411   4.425  1.00  0.00    -0.248 NA
ATOM     65  C   UNL     1     -10.536   4.724   5.514  1.00  0.00     0.031 C 
ATOM     66  C   UNL     1      -8.242   9.241   2.145  1.00  0.00     0.029 A 
ATOM     67  C   UNL     1      -8.355   8.050   2.847  1.00  0.00     0.049 A 
ATOM     68  H   UNL     1      -6.888   6.576   3.197  1.00  0.00     0.167 HD
ATOM     69  C   UNL     1      -9.579   6.353   4.205  1.00  0.00     0.074 A 
ATOM     70  C   UNL     1     -10.770   5.858   4.869  1.00  0.00     0.031 C 
ATOM     71  C   UNL     1      -9.517   7.521   3.519  1.00  0.00     0.037 A 
BRANCH  58  72
ATOM     72  C   UNL     1      -3.992   8.905   1.087  1.00  0.00     0.058 A 
ATOM     73  C   UNL     1      -3.517   8.678  -0.215  1.00  0.00     0.135 A 
ATOM     74  C   UNL     1      -3.702  10.147   1.676  1.00  0.00     0.135 A 
ATOM     75  F   UNL     1      -3.748   7.504  -0.825  1.00  0.00    -0.206 F 
ATOM     76  C   UNL     1      -2.782   9.639  -0.903  1.00  0.00     0.059 A 
ATOM     77  C   UNL     1      -2.991  11.134   0.997  1.00  0.00     0.059 A 
ATOM     78  F   UNL     1      -4.122  10.418   2.922  1.00  0.00    -0.206 F 
ATOM     79  C   UNL     1      -2.533  10.869  -0.292  1.00  0.00     0.060 A 
BRANCH  79  80
ATOM     80  S   UNL     1      -1.628  12.124  -1.223  1.00  0.00     0.124 S 
ATOM     81  O   UNL     1      -0.285  11.554  -1.255  1.00  0.00    -0.237 OA
ATOM     82  O   UNL     1      -2.340  12.139  -2.497  1.00  0.00    -0.237 OA
ATOM     83  O   UNL     1      -1.778  13.327  -0.410  1.00  0.00    -0.744 OA
ENDBRANCH  79  80
ENDBRANCH  58  72
BRANCH  59  84
ATOM     84  C   UNL     1      -9.258   2.266   6.560  1.00  0.00     0.058 A 
ATOM     85  C   UNL     1     -10.365   1.540   6.093  1.00  0.00     0.135 A 
ATOM     86  C   UNL     1      -8.857   2.054   7.889  1.00  0.00     0.135 A 
ATOM     87  F   UNL     1     -10.782   1.695   4.827  1.00  0.00    -0.206 F 
ATOM     88  C   UNL     1     -11.070   0.670   6.919  1.00  0.00     0.059 A 
ATOM     89  C   UNL     1      -9.528   1.166   8.726  1.00  0.00     0.059 A 
ATOM     90  F   UNL     1      -7.783   2.693   8.378  1.00  0.00    -0.206 F 
ATOM     91  C   UNL     1     -10.646   0.493   8.237  1.00  0.00     0.060 A 
BRANCH  91  92
ATOM     92  S   UNL     1     -11.563  -0.646   9.298  1.00  0.00     0.124 S 
ATOM     93  O   UNL     1     -12.792   0.102   9.535  1.00  0.00    -0.237 OA
ATOM     94  O   UNL     1     -11.687  -1.825   8.447  1.00  0.00    -0.237 OA
ATOM     95  O   UNL     1     -10.688  -0.805  10.455  1.00  0.00    -0.744 OA
ENDBRANCH  91  92
ENDBRANCH  59  84
BRANCH  71  96
ATOM     96  C   UNL     1     -10.784   8.319   3.433  1.00  0.00     0.058 A 
ATOM     97  C   UNL     1     -11.300   9.003   4.545  1.00  0.00     0.135 A 
ATOM     98  C   UNL     1     -11.462   8.437   2.210  1.00  0.00     0.135 A 
ATOM     99  F   UNL     1     -10.691   8.912   5.738  1.00  0.00    -0.206 F 
ATOM    100  C   UNL     1     -12.463   9.756   4.453  1.00  0.00     0.059 A 
ATOM    101  C   UNL     1     -12.608   9.213   2.087  1.00  0.00     0.059 A 
ATOM    102  F   UNL     1     -11.002   7.808   1.117  1.00  0.00    -0.206 F 
ATOM    103  C   UNL     1     -13.107   9.858   3.218  1.00  0.00     0.060 A 
BRANCH 103 104
ATOM    104  S   UNL     1     -14.596  10.869   3.105  1.00  0.00     0.124 S 
ATOM    105  O   UNL     1     -15.571  10.033   3.797  1.00  0.00    -0.237 OA
ATOM    106  O   UNL     1     -14.198  12.088   3.801  1.00  0.00    -0.237 OA
ATOM    107  O   UNL     1     -14.801  11.013   1.667  1.00  0.00    -0.744 OA
ENDBRANCH 103 104
ENDBRANCH  71  96
ENDBRANCH  45  46
ENDBRANCH  37  40
ENDBRANCH  35  36
ENDBRANCH   1  35
TORSDOF 17
