REMARK SMILES CC[C@H](C)[C@H](NC(=O)CCOC)C(=O)NCCCNC(=O)c1ccc(-c2c3nc(c(-c4c(F)cc(S(=O)(=O)[O-])cc4F)c4ccc([nH]4)c(-c4c(F)cc(S(=O)(=O)[O-])cc4F)c4nc(c(-c5c(F)cc(S(=O)(=O)[O-])cc5F)c5ccc2[nH]5)C=C4)C=C3)cc1
REMARK SMILES IDX 16 1 15 2 13 3 14 4 5 6 3 7 4 8 2 9 1 10 6 11 7 12 8 14 9 15
REMARK SMILES IDX 10 16 11 17 12 18 17 19 18 20 19 21 20 22 21 24 22 25 23 26
REMARK SMILES IDX 87 27 24 28 86 29 25 30 26 31 27 32 80 33 28 34 85 35 79 36
REMARK SMILES IDX 81 37 29 38 84 39 78 40 77 41 30 43 64 44 43 45 63 46 44 47
REMARK SMILES IDX 47 48 62 49 82 50 45 51 46 52 61 54 83 55 48 56 31 57 32 58
REMARK SMILES IDX 41 59 33 60 34 61 40 62 42 63 35 64 36 65 37 66 38 67 39 68
REMARK SMILES IDX 65 69 66 70 75 71 67 72 68 73 74 74 76 75 69 76 70 77 71 78
REMARK SMILES IDX 72 79 73 80 49 81 50 82 59 83 51 84 52 85 58 86 60 87 53 88
REMARK SMILES IDX 54 89 55 90 56 91 57 92
REMARK H PARENT 15 5 6 13 19 23 81 42 47 53
REMARK Flexibility Score: inf
ROOT
ATOM      1  C   UNL     1       4.020   1.397  -4.215  1.00  0.00     0.117 C 
ENDROOT
BRANCH   1   2
ATOM      2  N   UNL     1       2.998   1.208  -5.221  1.00  0.00    -0.354 N 
ATOM      3  C   UNL     1       1.644   1.288  -5.112  1.00  0.00     0.242 C 
ATOM      4  O   UNL     1       0.993   1.264  -6.160  1.00  0.00    -0.273 OA
ATOM      5  H   UNL     1       3.332   0.989  -6.121  1.00  0.00     0.163 HD
BRANCH   3   6
ATOM      6  C   UNL     1       0.964   1.560  -3.752  1.00  0.00     0.174 C 
BRANCH   6   7
ATOM      7  C   UNL     1       1.087   3.092  -3.339  1.00  0.00     0.018 C 
ATOM      8  C   UNL     1       1.783   3.350  -1.987  1.00  0.00     0.010 C 
BRANCH   7   9
ATOM      9  C   UNL     1       1.664   3.994  -4.466  1.00  0.00     0.002 C 
ATOM     10  C   UNL     1       1.522   5.494  -4.253  1.00  0.00     0.004 C 
ENDBRANCH   7   9
ENDBRANCH   6   7
BRANCH   6  11
ATOM     11  N   UNL     1       1.328   0.619  -2.671  1.00  0.00    -0.344 N 
ATOM     12  C   UNL     1       1.213  -0.742  -2.636  1.00  0.00     0.222 C 
ATOM     13  H   UNL     1       1.707   1.032  -1.862  1.00  0.00     0.164 HD
ATOM     14  O   UNL     1       1.006  -1.269  -1.540  1.00  0.00    -0.275 OA
BRANCH  12  15
ATOM     15  C   UNL     1       1.408  -1.593  -3.869  1.00  0.00     0.128 C 
BRANCH  15  16
ATOM     16  C   UNL     1       0.113  -2.142  -4.434  1.00  0.00     0.169 C 
BRANCH  16  17
ATOM     17  O   UNL     1      -0.750  -1.090  -4.854  1.00  0.00    -0.384 OA
ATOM     18  C   UNL     1      -1.872  -0.935  -3.997  1.00  0.00     0.194 C 
ENDBRANCH  16  17
ENDBRANCH  15  16
ENDBRANCH  12  15
ENDBRANCH   6  11
ENDBRANCH   3   6
ENDBRANCH   1   2
BRANCH   1  19
ATOM     19  C   UNL     1       4.747   0.114  -3.859  1.00  0.00     0.042 C 
BRANCH  19  20
ATOM     20  C   UNL     1       5.285  -0.614  -5.079  1.00  0.00     0.118 C 
BRANCH  20  21
ATOM     21  N   UNL     1       6.164   0.237  -5.872  1.00  0.00    -0.352 N 
ATOM     22  C   UNL     1       7.530   0.205  -5.993  1.00  0.00     0.251 C 
ATOM     23  H   UNL     1       5.712   0.936  -6.397  1.00  0.00     0.163 HD
ATOM     24  O   UNL     1       8.127   1.173  -6.449  1.00  0.00    -0.269 OA
BRANCH  22  25
ATOM     25  C   UNL     1       8.264  -1.000  -5.562  1.00  0.00     0.039 A 
ATOM     26  C   UNL     1       9.464  -0.858  -4.865  1.00  0.00     0.014 A 
ATOM     27  C   UNL     1       7.758  -2.270  -5.853  1.00  0.00     0.014 A 
ATOM     28  C   UNL     1      10.127  -1.997  -4.410  1.00  0.00     0.010 A 
ATOM     29  C   UNL     1       8.363  -3.394  -5.309  1.00  0.00     0.010 A 
ATOM     30  C   UNL     1       9.564  -3.271  -4.599  1.00  0.00    -0.014 A 
BRANCH  30  31
ATOM     31  C   UNL     1      10.229  -4.491  -4.083  1.00  0.00     0.031 A 
ATOM     32  C   UNL     1      10.690  -5.556  -5.042  1.00  0.00     0.074 A 
ATOM     33  C   UNL     1      10.361  -4.660  -2.753  1.00  0.00     0.049 A 
ATOM     34  N   UNL     1      11.238  -6.714  -4.785  1.00  0.00    -0.248 NA
ATOM     35  C   UNL     1      10.475  -5.301  -6.477  1.00  0.00     0.031 C 
ATOM     36  C   UNL     1       9.885  -3.727  -1.728  1.00  0.00     0.029 A 
ATOM     37  N   UNL     1      10.928  -5.680  -2.033  1.00  0.00    -0.354 N 
ATOM     38  C   UNL     1      11.424  -7.326  -6.020  1.00  0.00     0.074 A 
ATOM     39  C   UNL     1      10.869  -6.443  -7.020  1.00  0.00     0.031 C 
ATOM     40  C   UNL     1      10.205  -4.205  -0.514  1.00  0.00     0.029 A 
ATOM     41  C   UNL     1      10.878  -5.489  -0.672  1.00  0.00     0.049 A 
ATOM     42  H   UNL     1      11.334  -6.474  -2.451  1.00  0.00     0.167 HD
ATOM     43  C   UNL     1      12.034  -8.503  -6.297  1.00  0.00     0.037 A 
ATOM     44  C   UNL     1      11.323  -6.267   0.333  1.00  0.00     0.037 A 
ATOM     45  C   UNL     1      12.614  -9.358  -5.296  1.00  0.00     0.049 A 
ATOM     46  C   UNL     1      12.023  -7.556  -0.004  1.00  0.00     0.074 A 
ATOM     47  C   UNL     1      13.303 -10.544  -5.471  1.00  0.00     0.029 A 
ATOM     48  N   UNL     1      12.579  -9.112  -3.930  1.00  0.00    -0.354 N 
ATOM     49  N   UNL     1      12.247  -8.088  -1.182  1.00  0.00    -0.248 NA
ATOM     50  C   UNL     1      12.539  -8.344   1.123  1.00  0.00     0.031 C 
ATOM     51  C   UNL     1      13.657 -11.034  -4.209  1.00  0.00     0.029 A 
ATOM     52  C   UNL     1      13.225 -10.130  -3.250  1.00  0.00     0.049 A 
ATOM     53  H   UNL     1      12.158  -8.329  -3.508  1.00  0.00     0.167 HD
ATOM     54  C   UNL     1      12.946  -9.265  -0.939  1.00  0.00     0.074 A 
ATOM     55  C   UNL     1      13.129  -9.352   0.496  1.00  0.00     0.031 C 
ATOM     56  C   UNL     1      13.394 -10.193  -1.821  1.00  0.00     0.037 A 
BRANCH  43  57
ATOM     57  C   UNL     1      12.128  -8.918  -7.739  1.00  0.00     0.058 A 
ATOM     58  C   UNL     1      12.973  -8.250  -8.640  1.00  0.00     0.135 A 
ATOM     59  C   UNL     1      11.403 -10.021  -8.218  1.00  0.00     0.135 A 
ATOM     60  F   UNL     1      13.674  -7.176  -8.240  1.00  0.00    -0.206 F 
ATOM     61  C   UNL     1      13.082  -8.647  -9.968  1.00  0.00     0.059 A 
ATOM     62  C   UNL     1      11.518 -10.453  -9.537  1.00  0.00     0.059 A 
ATOM     63  F   UNL     1      10.576 -10.693  -7.402  1.00  0.00    -0.206 F 
ATOM     64  C   UNL     1      12.353  -9.753 -10.406  1.00  0.00     0.060 A 
BRANCH  64  65
ATOM     65  S   UNL     1      12.528 -10.271 -12.127  1.00  0.00     0.124 S 
ATOM     66  O   UNL     1      11.794  -9.220 -12.824  1.00  0.00    -0.237 OA
ATOM     67  O   UNL     1      13.976 -10.260 -12.309  1.00  0.00    -0.237 OA
ATOM     68  O   UNL     1      11.907 -11.592 -12.149  1.00  0.00    -0.744 OA
ENDBRANCH  64  65
ENDBRANCH  43  57
BRANCH  44  69
ATOM     69  C   UNL     1      11.143  -5.838   1.745  1.00  0.00     0.058 A 
ATOM     70  C   UNL     1      12.239  -5.440   2.526  1.00  0.00     0.135 A 
ATOM     71  C   UNL     1       9.874  -5.816   2.342  1.00  0.00     0.135 A 
ATOM     72  F   UNL     1      13.473  -5.445   2.000  1.00  0.00    -0.206 F 
ATOM     73  C   UNL     1      12.088  -5.062   3.856  1.00  0.00     0.059 A 
ATOM     74  C   UNL     1       9.693  -5.416   3.663  1.00  0.00     0.059 A 
ATOM     75  F   UNL     1       8.790  -6.166   1.632  1.00  0.00    -0.206 F 
ATOM     76  C   UNL     1      10.809  -5.056   4.416  1.00  0.00     0.060 A 
BRANCH  76  77
ATOM     77  S   UNL     1      10.618  -4.535   6.135  1.00  0.00     0.124 S 
ATOM     78  O   UNL     1      11.122  -5.700   6.852  1.00  0.00    -0.237 OA
ATOM     79  O   UNL     1      11.455  -3.340   6.190  1.00  0.00    -0.237 OA
ATOM     80  O   UNL     1       9.184  -4.291   6.252  1.00  0.00    -0.744 OA
ENDBRANCH  76  77
ENDBRANCH  44  69
BRANCH  56  81
ATOM     81  C   UNL     1      14.140 -11.368  -1.255  1.00  0.00     0.058 A 
ATOM     82  C   UNL     1      13.481 -12.383  -0.545  1.00  0.00     0.135 A 
ATOM     83  C   UNL     1      15.524 -11.494  -1.452  1.00  0.00     0.135 A 
ATOM     84  F   UNL     1      12.159 -12.306  -0.326  1.00  0.00    -0.206 F 
ATOM     85  C   UNL     1      14.175 -13.467  -0.018  1.00  0.00     0.059 A 
ATOM     86  C   UNL     1      16.234 -12.584  -0.959  1.00  0.00     0.059 A 
ATOM     87  F   UNL     1      16.199 -10.556  -2.136  1.00  0.00    -0.206 F 
ATOM     88  C   UNL     1      15.552 -13.557  -0.229  1.00  0.00     0.060 A 
BRANCH  88  89
ATOM     89  S   UNL     1      16.440 -14.974   0.449  1.00  0.00     0.124 S 
ATOM     90  O   UNL     1      16.503 -14.630   1.866  1.00  0.00    -0.237 OA
ATOM     91  O   UNL     1      15.562 -16.088   0.106  1.00  0.00    -0.237 OA
ATOM     92  O   UNL     1      17.715 -14.947  -0.262  1.00  0.00    -0.744 OA
ENDBRANCH  88  89
ENDBRANCH  56  81
ENDBRANCH  30  31
ENDBRANCH  22  25
ENDBRANCH  20  21
ENDBRANCH  19  20
ENDBRANCH   1  19
TORSDOF 19
