REMARK SMILES C[C@@](NC(=O)CCOC1CC[NH2+]CC1)(C(=O)NCCCNC(=O)c1ccc(-c2c3nc(c(-c4c(F)cc(S(=O)(=O)[O-])cc4F)c4ccc([nH]4)c(-c4c(F)cc(S(=O)(=O)[O-])cc4F)c4nc(c(-c5c(F)cc(S(=O)(=O)[O-])cc5F)c5ccc2[nH]5)C=C4)C=C3)cc1)C(F)(F)F
REMARK SMILES IDX 18 1 17 2 15 3 16 4 2 6 1 7 3 8 4 9 5 11 6 12 7 13 8 14 9 15
REMARK SMILES IDX 10 16 14 17 11 18 13 19 12 20 90 23 91 24 92 25 93 26 19 27
REMARK SMILES IDX 20 28 21 29 22 30 23 32 24 33 25 34 89 35 26 36 88 37 27 38
REMARK SMILES IDX 28 39 29 40 82 41 30 42 87 43 81 44 83 45 31 46 86 47 80 48
REMARK SMILES IDX 79 49 32 51 66 52 45 53 65 54 46 55 49 56 64 57 84 58 47 59
REMARK SMILES IDX 48 60 63 62 85 63 50 64 33 65 34 66 43 67 35 68 36 69 42 70
REMARK SMILES IDX 44 71 37 72 38 73 39 74 40 75 41 76 67 77 68 78 77 79 69 80
REMARK SMILES IDX 70 81 76 82 78 83 71 84 72 85 73 86 74 87 75 88 51 89 52 90
REMARK SMILES IDX 61 91 53 92 54 93 60 94 62 95 55 96 56 97 57 98 58 99 59 100
REMARK H PARENT 17 5 3 10 12 21 12 22 21 31 83 50 49 61
REMARK Flexibility Score: inf
ROOT
ATOM      1  C   UNL     1      -1.002  -1.034   0.819  1.00  0.00     0.117 C 
ENDROOT
BRANCH   1   2
ATOM      2  N   UNL     1      -1.573   0.169   0.232  1.00  0.00    -0.354 N 
ATOM      3  C   UNL     1      -1.155   0.998  -0.770  1.00  0.00     0.254 C 
ATOM      4  O   UNL     1      -2.075   1.631  -1.304  1.00  0.00    -0.272 OA
ATOM      5  H   UNL     1      -2.429   0.439   0.637  1.00  0.00     0.163 HD
BRANCH   3   6
ATOM      6  C   UNL     1       0.282   1.082  -1.345  1.00  0.00     0.212 C 
ATOM      7  C   UNL     1       1.368   0.776  -0.295  1.00  0.00     0.056 C 
BRANCH   6   8
ATOM      8  N   UNL     1       0.579   0.194  -2.518  1.00  0.00    -0.334 N 
ATOM      9  C   UNL     1      -0.123   0.019  -3.665  1.00  0.00     0.223 C 
ATOM     10  H   UNL     1       1.404  -0.339  -2.445  1.00  0.00     0.164 HD
ATOM     11  O   UNL     1       0.401   0.422  -4.706  1.00  0.00    -0.275 OA
BRANCH   9  12
ATOM     12  C   UNL     1      -1.418  -0.767  -3.712  1.00  0.00     0.128 C 
BRANCH  12  13
ATOM     13  C   UNL     1      -1.748  -1.824  -2.663  1.00  0.00     0.170 C 
BRANCH  13  14
ATOM     14  O   UNL     1      -0.902  -2.971  -2.532  1.00  0.00    -0.377 OA
BRANCH  14  15
ATOM     15  C   UNL     1       0.397  -2.767  -1.968  1.00  0.00     0.129 C 
ATOM     16  C   UNL     1       1.444  -2.891  -3.067  1.00  0.00     0.093 C 
ATOM     17  C   UNL     1       0.702  -3.758  -0.839  1.00  0.00     0.093 C 
ATOM     18  C   UNL     1       1.557  -4.338  -3.524  1.00  0.00     0.263 C 
ATOM     19  C   UNL     1       0.924  -5.171  -1.350  1.00  0.00     0.263 C 
ATOM     20  N   UNL     1       1.935  -5.207  -2.410  1.00  0.00    -0.346 N 
ATOM     21  H   UNL     1       2.828  -4.894  -2.030  1.00  0.00     0.346 HD
ATOM     22  H   UNL     1       2.009  -6.164  -2.756  1.00  0.00     0.346 HD
ENDBRANCH  14  15
ENDBRANCH  13  14
ENDBRANCH  12  13
ENDBRANCH   9  12
ENDBRANCH   6   8
BRANCH   6  23
ATOM     23  C   UNL     1       0.467   2.577  -1.733  1.00  0.00     0.420 C 
ATOM     24  F   UNL     1       0.306   3.398  -0.669  1.00  0.00    -0.168 F 
ATOM     25  F   UNL     1       1.740   2.776  -2.179  1.00  0.00    -0.168 F 
ATOM     26  F   UNL     1      -0.348   2.994  -2.722  1.00  0.00    -0.168 F 
ENDBRANCH   6  23
ENDBRANCH   3   6
ENDBRANCH   1   2
BRANCH   1  27
ATOM     27  C   UNL     1      -1.790  -1.615   1.982  1.00  0.00     0.042 C 
BRANCH  27  28
ATOM     28  C   UNL     1      -3.171  -2.168   1.637  1.00  0.00     0.118 C 
BRANCH  28  29
ATOM     29  N   UNL     1      -3.185  -3.400   0.849  1.00  0.00    -0.352 N 
ATOM     30  C   UNL     1      -3.702  -4.652   1.132  1.00  0.00     0.251 C 
ATOM     31  H   UNL     1      -2.753  -3.327  -0.033  1.00  0.00     0.163 HD
ATOM     32  O   UNL     1      -3.602  -5.550   0.297  1.00  0.00    -0.269 OA
BRANCH  30  33
ATOM     33  C   UNL     1      -4.303  -4.948   2.455  1.00  0.00     0.039 A 
ATOM     34  C   UNL     1      -3.963  -6.136   3.110  1.00  0.00     0.014 A 
ATOM     35  C   UNL     1      -5.135  -4.031   3.090  1.00  0.00     0.014 A 
ATOM     36  C   UNL     1      -4.317  -6.317   4.452  1.00  0.00     0.010 A 
ATOM     37  C   UNL     1      -5.358  -4.144   4.457  1.00  0.00     0.010 A 
ATOM     38  C   UNL     1      -4.936  -5.278   5.166  1.00  0.00    -0.014 A 
BRANCH  38  39
ATOM     39  C   UNL     1      -5.127  -5.326   6.645  1.00  0.00     0.031 A 
ATOM     40  C   UNL     1      -6.494  -5.090   7.237  1.00  0.00     0.074 A 
ATOM     41  C   UNL     1      -4.058  -5.452   7.462  1.00  0.00     0.049 A 
ATOM     42  N   UNL     1      -6.837  -4.908   8.487  1.00  0.00    -0.248 NA
ATOM     43  C   UNL     1      -7.618  -4.989   6.292  1.00  0.00     0.031 C 
ATOM     44  C   UNL     1      -2.666  -5.609   7.028  1.00  0.00     0.029 A 
ATOM     45  N   UNL     1      -3.969  -5.451   8.834  1.00  0.00    -0.354 N 
ATOM     46  C   UNL     1      -8.199  -4.629   8.470  1.00  0.00     0.074 A 
ATOM     47  C   UNL     1      -8.605  -4.598   7.083  1.00  0.00     0.031 C 
ATOM     48  C   UNL     1      -1.874  -5.725   8.105  1.00  0.00     0.029 A 
ATOM     49  C   UNL     1      -2.686  -5.601   9.310  1.00  0.00     0.049 A 
ATOM     50  H   UNL     1      -4.752  -5.352   9.422  1.00  0.00     0.167 HD
ATOM     51  C   UNL     1      -9.045  -4.451   9.513  1.00  0.00     0.037 A 
ATOM     52  C   UNL     1      -2.212  -5.628  10.572  1.00  0.00     0.037 A 
ATOM     53  C   UNL     1      -8.649  -4.552  10.892  1.00  0.00     0.049 A 
ATOM     54  C   UNL     1      -3.178  -5.478  11.717  1.00  0.00     0.074 A 
ATOM     55  C   UNL     1      -9.442  -4.473  12.023  1.00  0.00     0.029 A 
ATOM     56  N   UNL     1      -7.351  -4.770  11.329  1.00  0.00    -0.354 N 
ATOM     57  N   UNL     1      -4.474  -5.275  11.680  1.00  0.00    -0.248 NA
ATOM     58  C   UNL     1      -2.621  -5.564  13.074  1.00  0.00     0.031 C 
ATOM     59  C   UNL     1      -8.618  -4.609  13.145  1.00  0.00     0.029 A 
ATOM     60  C   UNL     1      -7.318  -4.819  12.712  1.00  0.00     0.049 A 
ATOM     61  H   UNL     1      -6.567  -4.875  10.741  1.00  0.00     0.167 HD
ATOM     62  C   UNL     1      -4.891  -5.240  13.006  1.00  0.00     0.074 A 
ATOM     63  C   UNL     1      -3.712  -5.453  13.820  1.00  0.00     0.031 C 
ATOM     64  C   UNL     1      -6.137  -5.048  13.505  1.00  0.00     0.037 A 
BRANCH  51  65
ATOM     65  C   UNL     1     -10.487  -4.154   9.198  1.00  0.00     0.058 A 
ATOM     66  C   UNL     1     -11.327  -5.115   8.612  1.00  0.00     0.135 A 
ATOM     67  C   UNL     1     -11.044  -2.901   9.502  1.00  0.00     0.135 A 
ATOM     68  F   UNL     1     -10.846  -6.326   8.286  1.00  0.00    -0.206 F 
ATOM     69  C   UNL     1     -12.652  -4.832   8.298  1.00  0.00     0.059 A 
ATOM     70  C   UNL     1     -12.377  -2.607   9.228  1.00  0.00     0.059 A 
ATOM     71  F   UNL     1     -10.289  -1.944  10.066  1.00  0.00    -0.206 F 
ATOM     72  C   UNL     1     -13.167  -3.573   8.609  1.00  0.00     0.060 A 
BRANCH  72  73
ATOM     73  S   UNL     1     -14.888  -3.222   8.191  1.00  0.00     0.124 S 
ATOM     74  O   UNL     1     -14.810  -3.076   6.741  1.00  0.00    -0.237 OA
ATOM     75  O   UNL     1     -15.575  -4.417   8.671  1.00  0.00    -0.237 OA
ATOM     76  O   UNL     1     -15.174  -1.997   8.931  1.00  0.00    -0.744 OA
ENDBRANCH  72  73
ENDBRANCH  51  65
BRANCH  52  77
ATOM     77  C   UNL     1      -0.760  -5.840  10.823  1.00  0.00     0.058 A 
ATOM     78  C   UNL     1      -0.296  -7.046  11.371  1.00  0.00     0.135 A 
ATOM     79  C   UNL     1       0.192  -4.856  10.517  1.00  0.00     0.135 A 
ATOM     80  F   UNL     1      -1.166  -8.017  11.688  1.00  0.00    -0.206 F 
ATOM     81  C   UNL     1       1.055  -7.263  11.623  1.00  0.00     0.059 A 
ATOM     82  C   UNL     1       1.552  -5.059  10.736  1.00  0.00     0.059 A 
ATOM     83  F   UNL     1      -0.195  -3.691   9.974  1.00  0.00    -0.206 F 
ATOM     84  C   UNL     1       1.973  -6.263  11.300  1.00  0.00     0.060 A 
BRANCH  84  85
ATOM     85  S   UNL     1       3.730  -6.574  11.585  1.00  0.00     0.124 S 
ATOM     86  O   UNL     1       3.812  -6.483  13.038  1.00  0.00    -0.237 OA
ATOM     87  O   UNL     1       3.901  -7.909  11.018  1.00  0.00    -0.237 OA
ATOM     88  O   UNL     1       4.384  -5.499  10.846  1.00  0.00    -0.744 OA
ENDBRANCH  84  85
ENDBRANCH  52  77
BRANCH  64  89
ATOM     89  C   UNL     1      -6.302  -5.101  14.998  1.00  0.00     0.058 A 
ATOM     90  C   UNL     1      -5.855  -4.062  15.827  1.00  0.00     0.135 A 
ATOM     91  C   UNL     1      -6.974  -6.179  15.598  1.00  0.00     0.135 A 
ATOM     92  F   UNL     1      -5.202  -3.013  15.304  1.00  0.00    -0.206 F 
ATOM     93  C   UNL     1      -6.051  -4.098  17.204  1.00  0.00     0.059 A 
ATOM     94  C   UNL     1      -7.205  -6.223  16.968  1.00  0.00     0.059 A 
ATOM     95  F   UNL     1      -7.431  -7.194  14.846  1.00  0.00    -0.206 F 
ATOM     96  C   UNL     1      -6.730  -5.182  17.765  1.00  0.00     0.060 A 
BRANCH  96  97
ATOM     97  S   UNL     1      -7.014  -5.196  19.547  1.00  0.00     0.124 S 
ATOM     98  O   UNL     1      -5.683  -5.511  20.054  1.00  0.00    -0.237 OA
ATOM     99  O   UNL     1      -7.484  -3.837  19.799  1.00  0.00    -0.237 OA
ATOM    100  O   UNL     1      -8.017  -6.242  19.723  1.00  0.00    -0.744 OA
ENDBRANCH  96  97
ENDBRANCH  64  89
ENDBRANCH  38  39
ENDBRANCH  30  33
ENDBRANCH  28  29
ENDBRANCH  27  28
ENDBRANCH   1  27
TORSDOF 19
