REMARK SMILES [NH3+][C@H]1CN(C(=O)OCC2c3ccccc3-c3ccccc32)C[C@@H]1C(=O)NCCCNC(=O)c1ccc(-c2c3nc(c(-c4c(F)cc(S(=O)(=O)[O-])cc4F)c4ccc([nH]4)c(-c4c(F)cc(S(=O)(=O)[O-])cc4F)c4nc(c(-c5c(F)cc(S(=O)(=O)[O-])cc5F)c5ccc2[nH]5)C=C4)C=C3)cc1
REMARK SMILES IDX 27 1 26 2 24 3 25 4 23 6 2 7 3 8 4 9 22 10 1 11 5 15 6 16
REMARK SMILES IDX 7 17 8 18 9 19 10 20 21 21 11 22 15 23 16 24 20 25 12 26
REMARK SMILES IDX 14 27 17 28 19 29 13 30 18 31 28 32 29 33 30 34 31 35 32 37
REMARK SMILES IDX 33 38 34 39 98 40 35 41 97 42 36 43 37 44 38 45 91 46 39 47
REMARK SMILES IDX 96 48 90 49 92 50 40 51 95 52 89 53 88 54 41 56 75 57 54 58
REMARK SMILES IDX 74 59 55 60 58 61 73 62 93 63 56 64 57 65 72 67 94 68 59 69
REMARK SMILES IDX 42 70 43 71 52 72 44 73 45 74 51 75 53 76 46 77 47 78 48 79
REMARK SMILES IDX 49 80 50 81 76 82 77 83 86 84 78 85 79 86 85 87 87 88 80 89
REMARK SMILES IDX 81 90 82 91 83 92 84 93 60 94 61 95 70 96 62 97 63 98 69 99
REMARK SMILES IDX 71 100 64 101 65 102 66 103 67 104 68 105
REMARK H PARENT 26 5 1 12 1 13 1 14 30 36 92 55 58 66
REMARK Flexibility Score: inf
ROOT
ATOM      1  C   UNL     1       4.181  -3.650   0.197  1.00  0.00     0.117 C 
ENDROOT
BRANCH   1   2
ATOM      2  N   UNL     1       3.515  -2.824   1.192  1.00  0.00    -0.356 N 
ATOM      3  C   UNL     1       2.355  -2.107   1.093  1.00  0.00     0.231 C 
ATOM      4  O   UNL     1       2.059  -1.338   2.006  1.00  0.00    -0.274 OA
ATOM      5  H   UNL     1       3.966  -2.773   2.066  1.00  0.00     0.163 HD
BRANCH   3   6
ATOM      6  C   UNL     1       1.446  -2.351  -0.098  1.00  0.00     0.158 C 
ATOM      7  C   UNL     1       0.436  -1.215  -0.335  1.00  0.00     0.215 C 
ATOM      8  C   UNL     1      -0.737  -1.559   0.607  1.00  0.00     0.188 C 
ATOM      9  N   UNL     1      -0.625  -2.986   0.853  1.00  0.00    -0.301 N 
ATOM     10  C   UNL     1       0.563  -3.550   0.233  1.00  0.00     0.143 C 
BRANCH   7  11
ATOM     11  N   UNL     1       0.014  -1.205  -1.751  1.00  0.00    -0.353 N 
ATOM     12  H   UNL     1      -0.654  -0.450  -1.901  1.00  0.00     0.344 HD
ATOM     13  H   UNL     1      -0.423  -2.097  -1.982  1.00  0.00     0.344 HD
ATOM     14  H   UNL     1       0.829  -1.061  -2.348  1.00  0.00     0.344 HD
ENDBRANCH   7  11
BRANCH   9  15
ATOM     15  C   UNL     1      -1.348  -3.662   1.796  1.00  0.00     0.410 C 
ATOM     16  O   UNL     1      -0.986  -4.738   2.267  1.00  0.00    -0.224 OA
BRANCH  15  17
ATOM     17  O   UNL     1      -2.509  -3.038   2.121  1.00  0.00    -0.448 OA
BRANCH  17  18
ATOM     18  C   UNL     1      -3.361  -3.712   3.080  1.00  0.00     0.248 C 
BRANCH  18  19
ATOM     19  C   UNL     1      -4.375  -4.643   2.379  1.00  0.00     0.088 C 
ATOM     20  C   UNL     1      -4.151  -6.133   2.656  1.00  0.00    -0.029 A 
ATOM     21  C   UNL     1      -5.801  -4.461   2.915  1.00  0.00    -0.029 A 
ATOM     22  C   UNL     1      -3.067  -6.931   2.324  1.00  0.00     0.005 A 
ATOM     23  C   UNL     1      -5.270  -6.691   3.309  1.00  0.00    -0.014 A 
ATOM     24  C   UNL     1      -6.286  -5.674   3.450  1.00  0.00    -0.014 A 
ATOM     25  C   UNL     1      -6.599  -3.326   2.886  1.00  0.00     0.005 A 
ATOM     26  C   UNL     1      -3.072  -8.272   2.711  1.00  0.00     0.000 A 
ATOM     27  C   UNL     1      -5.283  -8.027   3.683  1.00  0.00     0.009 A 
ATOM     28  C   UNL     1      -7.570  -5.761   3.964  1.00  0.00     0.009 A 
ATOM     29  C   UNL     1      -7.893  -3.413   3.408  1.00  0.00     0.000 A 
ATOM     30  C   UNL     1      -4.168  -8.815   3.392  1.00  0.00     0.001 A 
ATOM     31  C   UNL     1      -8.376  -4.620   3.941  1.00  0.00     0.001 A 
ENDBRANCH  18  19
ENDBRANCH  17  18
ENDBRANCH  15  17
ENDBRANCH   9  15
ENDBRANCH   3   6
ENDBRANCH   1   2
BRANCH   1  32
ATOM     32  C   UNL     1       5.337  -2.904  -0.468  1.00  0.00     0.042 C 
BRANCH  32  33
ATOM     33  C   UNL     1       6.499  -2.590   0.476  1.00  0.00     0.118 C 
BRANCH  33  34
ATOM     34  N   UNL     1       7.163  -3.791   0.969  1.00  0.00    -0.352 N 
ATOM     35  C   UNL     1       8.479  -4.176   0.887  1.00  0.00     0.251 C 
ATOM     36  H   UNL     1       6.574  -4.427   1.435  1.00  0.00     0.163 HD
ATOM     37  O   UNL     1       8.791  -5.317   1.218  1.00  0.00    -0.269 OA
BRANCH  35  38
ATOM     38  C   UNL     1       9.513  -3.244   0.383  1.00  0.00     0.039 A 
ATOM     39  C   UNL     1      10.473  -3.727  -0.512  1.00  0.00     0.014 A 
ATOM     40  C   UNL     1       9.558  -1.913   0.804  1.00  0.00     0.014 A 
ATOM     41  C   UNL     1      11.423  -2.855  -1.051  1.00  0.00     0.010 A 
ATOM     42  C   UNL     1      10.469  -1.032   0.222  1.00  0.00     0.010 A 
ATOM     43  C   UNL     1      11.399  -1.490  -0.724  1.00  0.00    -0.014 A 
BRANCH  43  44
ATOM     44  C   UNL     1      12.295  -0.515  -1.400  1.00  0.00     0.031 A 
ATOM     45  C   UNL     1      13.336   0.238  -0.620  1.00  0.00     0.074 A 
ATOM     46  C   UNL     1      12.105  -0.246  -2.708  1.00  0.00     0.049 A 
ATOM     47  N   UNL     1      14.118   1.210  -1.014  1.00  0.00    -0.248 NA
ATOM     48  C   UNL     1      13.507  -0.137   0.792  1.00  0.00     0.031 C 
ATOM     49  C   UNL     1      11.105  -0.886  -3.566  1.00  0.00     0.029 A 
ATOM     50  N   UNL     1      12.728   0.651  -3.540  1.00  0.00    -0.354 N 
ATOM     51  C   UNL     1      14.865   1.573   0.101  1.00  0.00     0.074 A 
ATOM     52  C   UNL     1      14.416   0.740   1.196  1.00  0.00     0.031 C 
ATOM     53  C   UNL     1      11.186  -0.366  -4.801  1.00  0.00     0.029 A 
ATOM     54  C   UNL     1      12.209   0.675  -4.813  1.00  0.00     0.049 A 
ATOM     55  H   UNL     1      13.476   1.223  -3.252  1.00  0.00     0.167 HD
ATOM     56  C   UNL     1      15.844   2.504   0.196  1.00  0.00     0.037 A 
ATOM     57  C   UNL     1      12.504   1.461  -5.867  1.00  0.00     0.037 A 
ATOM     58  C   UNL     1      16.299   3.318  -0.903  1.00  0.00     0.049 A 
ATOM     59  C   UNL     1      13.571   2.511  -5.725  1.00  0.00     0.074 A 
ATOM     60  C   UNL     1      17.328   4.243  -0.919  1.00  0.00     0.029 A 
ATOM     61  N   UNL     1      15.749   3.312  -2.176  1.00  0.00    -0.354 N 
ATOM     62  N   UNL     1      14.307   2.801  -4.679  1.00  0.00    -0.248 NA
ATOM     63  C   UNL     1      13.845   3.344  -6.905  1.00  0.00     0.031 C 
ATOM     64  C   UNL     1      17.371   4.829  -2.189  1.00  0.00     0.029 A 
ATOM     65  C   UNL     1      16.397   4.238  -2.978  1.00  0.00     0.049 A 
ATOM     66  H   UNL     1      15.007   2.734  -2.468  1.00  0.00     0.167 HD
ATOM     67  C   UNL     1      15.140   3.840  -5.077  1.00  0.00     0.074 A 
ATOM     68  C   UNL     1      14.831   4.115  -6.466  1.00  0.00     0.031 C 
ATOM     69  C   UNL     1      16.074   4.507  -4.357  1.00  0.00     0.037 A 
BRANCH  56  70
ATOM     70  C   UNL     1      16.497   2.697   1.537  1.00  0.00     0.058 A 
ATOM     71  C   UNL     1      17.376   1.742   2.071  1.00  0.00     0.135 A 
ATOM     72  C   UNL     1      16.281   3.873   2.274  1.00  0.00     0.135 A 
ATOM     73  F   UNL     1      17.608   0.595   1.414  1.00  0.00    -0.206 F 
ATOM     74  C   UNL     1      17.998   1.933   3.301  1.00  0.00     0.059 A 
ATOM     75  C   UNL     1      16.913   4.097   3.495  1.00  0.00     0.059 A 
ATOM     76  F   UNL     1      15.452   4.820   1.809  1.00  0.00    -0.206 F 
ATOM     77  C   UNL     1      17.760   3.114   4.006  1.00  0.00     0.060 A 
BRANCH  77  78
ATOM     78  S   UNL     1      18.583   3.350   5.595  1.00  0.00     0.124 S 
ATOM     79  O   UNL     1      17.836   2.430   6.448  1.00  0.00    -0.237 OA
ATOM     80  O   UNL     1      19.957   2.962   5.297  1.00  0.00    -0.237 OA
ATOM     81  O   UNL     1      18.382   4.768   5.875  1.00  0.00    -0.744 OA
ENDBRANCH  77  78
ENDBRANCH  56  70
BRANCH  57  82
ATOM     82  C   UNL     1      11.768   1.291  -7.147  1.00  0.00     0.058 A 
ATOM     83  C   UNL     1      12.402   0.749  -8.275  1.00  0.00     0.135 A 
ATOM     84  C   UNL     1      10.418   1.653  -7.267  1.00  0.00     0.135 A 
ATOM     85  F   UNL     1      13.695   0.396  -8.212  1.00  0.00    -0.206 F 
ATOM     86  C   UNL     1      11.728   0.583  -9.480  1.00  0.00     0.059 A 
ATOM     87  C   UNL     1       9.715   1.474  -8.454  1.00  0.00     0.059 A 
ATOM     88  F   UNL     1       9.761   2.162  -6.212  1.00  0.00    -0.206 F 
ATOM     89  C   UNL     1      10.383   0.947  -9.559  1.00  0.00     0.060 A 
BRANCH  89  90
ATOM     90  S   UNL     1       9.501   0.679 -11.112  1.00  0.00     0.124 S 
ATOM     91  O   UNL     1      10.030   1.757 -11.939  1.00  0.00    -0.237 OA
ATOM     92  O   UNL     1       9.922  -0.671 -11.475  1.00  0.00    -0.237 OA
ATOM     93  O   UNL     1       8.099   0.806 -10.727  1.00  0.00    -0.744 OA
ENDBRANCH  89  90
ENDBRANCH  57  82
BRANCH  69  94
ATOM     94  C   UNL     1      16.837   5.597  -5.057  1.00  0.00     0.058 A 
ATOM     95  C   UNL     1      16.244   6.835  -5.349  1.00  0.00     0.135 A 
ATOM     96  C   UNL     1      18.189   5.421  -5.394  1.00  0.00     0.135 A 
ATOM     97  F   UNL     1      14.951   7.050  -5.058  1.00  0.00    -0.206 F 
ATOM     98  C   UNL     1      16.959   7.856  -5.966  1.00  0.00     0.059 A 
ATOM     99  C   UNL     1      18.931   6.437  -5.988  1.00  0.00     0.059 A 
ATOM    100  F   UNL     1      18.806   4.259  -5.129  1.00  0.00    -0.206 F 
ATOM    101  C   UNL     1      18.304   7.649  -6.279  1.00  0.00     0.060 A 
BRANCH 101 102
ATOM    102  S   UNL     1      19.233   8.997  -7.040  1.00  0.00     0.124 S 
ATOM    103  O   UNL     1      18.714   8.978  -8.403  1.00  0.00    -0.237 OA
ATOM    104  O   UNL     1      18.841  10.145  -6.228  1.00  0.00    -0.237 OA
ATOM    105  O   UNL     1      20.624   8.577  -6.892  1.00  0.00    -0.744 OA
ENDBRANCH 101 102
ENDBRANCH  69  94
ENDBRANCH  43  44
ENDBRANCH  35  38
ENDBRANCH  33  34
ENDBRANCH  32  33
ENDBRANCH   1  32
TORSDOF 18
