REMARK SMILES O=C(NCCCNC(=O)[C@H](CO)NC(=O)[C@H](CS)NC(=O)c1ccc(F)cc1)c1ccc(-c2c3nc(c(-c4c(F)cc(S(=O)(=O)[O-])cc4F)c4ccc([nH]4)c(-c4c(F)cc(S(=O)(=O)[O-])cc4F)c4nc(c(-c5c(F)cc(S(=O)(=O)[O-])cc5F)c5ccc2[nH]5)C=C4)C=C3)cc1
REMARK SMILES IDX 5 1 4 2 3 3 1 4 2 5 29 7 30 8 94 9 31 10 93 11 32 12 33 13
REMARK SMILES IDX 34 14 87 15 35 16 92 17 86 18 88 19 36 20 91 21 85 22 84 23
REMARK SMILES IDX 37 25 71 26 50 27 70 28 51 29 54 30 69 31 89 32 52 33 53 34
REMARK SMILES IDX 68 36 90 37 55 38 38 39 39 40 48 41 40 42 41 43 47 44 49 45
REMARK SMILES IDX 42 46 43 47 44 48 45 49 46 50 72 51 73 52 82 53 74 54 75 55
REMARK SMILES IDX 81 56 83 57 76 58 77 59 78 60 79 61 80 62 56 63 57 64 66 65
REMARK SMILES IDX 58 66 59 67 65 68 67 69 60 70 61 71 62 72 63 73 64 74 6 75
REMARK SMILES IDX 7 76 8 77 9 79 10 80 13 81 14 82 15 84 16 85 19 86 20 87
REMARK SMILES IDX 21 89 22 90 23 91 28 92 24 93 27 94 25 95 26 96 17 97 18 98
REMARK SMILES IDX 11 100 12 101
REMARK H PARENT 3 6 88 24 54 35 7 78 13 83 19 88 18 99 12 102
REMARK Flexibility Score: inf
ROOT
ATOM      1  C   UNL     1       3.552   0.473  -3.100  1.00  0.00     0.042 C 
ENDROOT
BRANCH   1   2
ATOM      2  C   UNL     1       2.097   0.372  -2.669  1.00  0.00     0.118 C 
BRANCH   2   3
ATOM      3  N   UNL     1       1.450  -0.834  -3.178  1.00  0.00    -0.352 N 
ATOM      4  O   UNL     1       0.847  -3.007  -3.205  1.00  0.00    -0.269 OA
ATOM      5  C   UNL     1       1.195  -2.030  -2.546  1.00  0.00     0.251 C 
ATOM      6  H   UNL     1       1.152  -0.784  -4.115  1.00  0.00     0.163 HD
BRANCH   5   7
ATOM      7  C   UNL     1       1.365  -2.134  -1.081  1.00  0.00     0.039 A 
ATOM      8  C   UNL     1       0.957  -1.083  -0.265  1.00  0.00     0.014 A 
ATOM      9  C   UNL     1       1.941  -3.273  -0.512  1.00  0.00     0.014 A 
ATOM     10  C   UNL     1       1.332  -1.063   1.066  1.00  0.00     0.010 A 
ATOM     11  C   UNL     1       2.167  -3.321   0.870  1.00  0.00     0.010 A 
ATOM     12  C   UNL     1       1.894  -2.201   1.668  1.00  0.00    -0.014 A 
BRANCH  12  13
ATOM     13  C   UNL     1       2.069  -2.187   3.146  1.00  0.00     0.031 A 
ATOM     14  C   UNL     1       3.418  -2.351   3.788  1.00  0.00     0.074 A 
ATOM     15  C   UNL     1       0.980  -1.925   3.901  1.00  0.00     0.049 A 
ATOM     16  N   UNL     1       3.729  -2.283   5.058  1.00  0.00    -0.248 NA
ATOM     17  C   UNL     1       4.565  -2.634   2.910  1.00  0.00     0.031 C 
ATOM     18  C   UNL     1      -0.383  -1.762   3.378  1.00  0.00     0.029 A 
ATOM     19  N   UNL     1       0.841  -1.690   5.243  1.00  0.00    -0.354 N 
ATOM     20  C   UNL     1       5.094  -2.532   5.136  1.00  0.00     0.074 A 
ATOM     21  C   UNL     1       5.554  -2.775   3.786  1.00  0.00     0.031 C 
ATOM     22  C   UNL     1      -1.189  -1.344   4.362  1.00  0.00     0.029 A 
ATOM     23  C   UNL     1      -0.433  -1.317   5.606  1.00  0.00     0.049 A 
ATOM     24  H   UNL     1       1.581  -1.779   5.886  1.00  0.00     0.167 HD
ATOM     25  C   UNL     1       5.885  -2.548   6.236  1.00  0.00     0.037 A 
ATOM     26  C   UNL     1      -0.950  -1.003   6.808  1.00  0.00     0.037 A 
ATOM     27  C   UNL     1       5.413  -2.279   7.573  1.00  0.00     0.049 A 
ATOM     28  C   UNL     1      -0.050  -1.052   8.006  1.00  0.00     0.074 A 
ATOM     29  C   UNL     1       6.141  -2.257   8.751  1.00  0.00     0.029 A 
ATOM     30  N   UNL     1       4.102  -1.976   7.911  1.00  0.00    -0.354 N 
ATOM     31  N   UNL     1       1.237  -1.297   8.055  1.00  0.00    -0.248 NA
ATOM     32  C   UNL     1      -0.673  -0.805   9.311  1.00  0.00     0.031 C 
ATOM     33  C   UNL     1       5.263  -1.987   9.804  1.00  0.00     0.029 A 
ATOM     34  C   UNL     1       3.997  -1.787   9.280  1.00  0.00     0.049 A 
ATOM     35  H   UNL     1       3.356  -1.907   7.272  1.00  0.00     0.167 HD
ATOM     36  C   UNL     1       1.580  -1.232   9.399  1.00  0.00     0.074 A 
ATOM     37  C   UNL     1       0.372  -0.889  10.122  1.00  0.00     0.031 C 
ATOM     38  C   UNL     1       2.784  -1.451   9.982  1.00  0.00     0.037 A 
BRANCH  25  39
ATOM     39  C   UNL     1       7.347  -2.863   6.066  1.00  0.00     0.058 A 
ATOM     40  C   UNL     1       7.877  -4.067   6.562  1.00  0.00     0.135 A 
ATOM     41  C   UNL     1       8.243  -1.928   5.527  1.00  0.00     0.135 A 
ATOM     42  F   UNL     1       7.064  -5.000   7.081  1.00  0.00    -0.206 F 
ATOM     43  C   UNL     1       9.246  -4.316   6.561  1.00  0.00     0.059 A 
ATOM     44  C   UNL     1       9.615  -2.165   5.496  1.00  0.00     0.059 A 
ATOM     45  F   UNL     1       7.788  -0.771   5.019  1.00  0.00    -0.206 F 
ATOM     46  C   UNL     1      10.109  -3.353   6.035  1.00  0.00     0.060 A 
BRANCH  46  47
ATOM     47  S   UNL     1      11.884  -3.683   6.063  1.00  0.00     0.124 S 
ATOM     48  O   UNL     1      12.176  -3.646   7.491  1.00  0.00    -0.237 OA
ATOM     49  O   UNL     1      11.960  -4.996   5.430  1.00  0.00    -0.237 OA
ATOM     50  O   UNL     1      12.444  -2.586   5.278  1.00  0.00    -0.744 OA
ENDBRANCH  46  47
ENDBRANCH  25  39
BRANCH  26  51
ATOM     51  C   UNL     1      -2.388  -0.643   6.931  1.00  0.00     0.058 A 
ATOM     52  C   UNL     1      -3.397  -1.580   6.654  1.00  0.00     0.135 A 
ATOM     53  C   UNL     1      -2.782   0.650   7.304  1.00  0.00     0.135 A 
ATOM     54  F   UNL     1      -3.075  -2.828   6.280  1.00  0.00    -0.206 F 
ATOM     55  C   UNL     1      -4.742  -1.242   6.718  1.00  0.00     0.059 A 
ATOM     56  C   UNL     1      -4.125   1.002   7.410  1.00  0.00     0.059 A 
ATOM     57  F   UNL     1      -1.855   1.579   7.585  1.00  0.00    -0.206 F 
ATOM     58  C   UNL     1      -5.097   0.052   7.099  1.00  0.00     0.060 A 
BRANCH  58  59
ATOM     59  S   UNL     1      -6.852   0.460   7.203  1.00  0.00     0.124 S 
ATOM     60  O   UNL     1      -7.224   0.503   5.793  1.00  0.00    -0.237 OA
ATOM     61  O   UNL     1      -7.383  -0.666   7.966  1.00  0.00    -0.237 OA
ATOM     62  O   UNL     1      -6.858   1.743   7.896  1.00  0.00    -0.744 OA
ENDBRANCH  58  59
ENDBRANCH  26  51
BRANCH  38  63
ATOM     63  C   UNL     1       2.851  -1.317  11.476  1.00  0.00     0.058 A 
ATOM     64  C   UNL     1       3.528  -0.238  12.065  1.00  0.00     0.135 A 
ATOM     65  C   UNL     1       2.272  -2.274  12.325  1.00  0.00     0.135 A 
ATOM     66  F   UNL     1       4.103   0.702  11.298  1.00  0.00    -0.206 F 
ATOM     67  C   UNL     1       3.636  -0.117  13.445  1.00  0.00     0.059 A 
ATOM     68  C   UNL     1       2.341  -2.156  13.709  1.00  0.00     0.059 A 
ATOM     69  F   UNL     1       1.601  -3.316  11.808  1.00  0.00    -0.206 F 
ATOM     70  C   UNL     1       3.037  -1.080  14.259  1.00  0.00     0.060 A 
BRANCH  70  71
ATOM     71  S   UNL     1       3.149  -0.882  16.049  1.00  0.00     0.124 S 
ATOM     72  O   UNL     1       4.552  -1.196  16.297  1.00  0.00    -0.237 OA
ATOM     73  O   UNL     1       2.769   0.516  16.230  1.00  0.00    -0.237 OA
ATOM     74  O   UNL     1       2.187  -1.856  16.558  1.00  0.00    -0.744 OA
ENDBRANCH  70  71
ENDBRANCH  38  63
ENDBRANCH  12  13
ENDBRANCH   5   7
ENDBRANCH   2   3
ENDBRANCH   1   2
BRANCH   1  75
ATOM     75  C   UNL     1       3.683   0.922  -4.545  1.00  0.00     0.117 C 
BRANCH  75  76
ATOM     76  N   UNL     1       3.264   2.306  -4.702  1.00  0.00    -0.354 N 
ATOM     77  C   UNL     1       3.992   3.395  -5.072  1.00  0.00     0.244 C 
ATOM     78  H   UNL     1       2.313   2.481  -4.513  1.00  0.00     0.163 HD
ATOM     79  O   UNL     1       3.459   4.505  -4.988  1.00  0.00    -0.273 OA
BRANCH  77  80
ATOM     80  C   UNL     1       5.445   3.231  -5.544  1.00  0.00     0.197 C 
BRANCH  80  81
ATOM     81  N   UNL     1       5.669   4.269  -6.548  1.00  0.00    -0.340 N 
ATOM     82  C   UNL     1       5.612   4.262  -7.899  1.00  0.00     0.244 C 
ATOM     83  H   UNL     1       5.908   5.144  -6.166  1.00  0.00     0.164 HD
ATOM     84  O   UNL     1       5.727   5.367  -8.448  1.00  0.00    -0.273 OA
BRANCH  82  85
ATOM     85  C   UNL     1       5.624   2.994  -8.773  1.00  0.00     0.181 C 
BRANCH  85  86
ATOM     86  N   UNL     1       7.014   2.515  -8.875  1.00  0.00    -0.339 N 
ATOM     87  C   UNL     1       7.678   2.088  -9.999  1.00  0.00     0.251 C 
ATOM     88  H   UNL     1       7.529   2.499  -8.036  1.00  0.00     0.164 HD
ATOM     89  O   UNL     1       8.735   1.473  -9.912  1.00  0.00    -0.269 OA
BRANCH  87  90
ATOM     90  C   UNL     1       7.078   2.342 -11.324  1.00  0.00     0.040 A 
ATOM     91  C   UNL     1       6.760   3.650 -11.716  1.00  0.00     0.017 A 
ATOM     92  C   UNL     1       6.800   1.258 -12.164  1.00  0.00     0.017 A 
ATOM     93  C   UNL     1       6.079   3.864 -12.912  1.00  0.00     0.040 A 
ATOM     94  C   UNL     1       6.134   1.481 -13.369  1.00  0.00     0.040 A 
ATOM     95  C   UNL     1       5.764   2.777 -13.723  1.00  0.00     0.123 A 
ATOM     96  F   UNL     1       5.091   2.982 -14.862  1.00  0.00    -0.207 F 
ENDBRANCH  87  90
ENDBRANCH  85  86
BRANCH  85  97
ATOM     97  C   UNL     1       4.676   1.818  -8.543  1.00  0.00     0.101 C 
BRANCH  97  98
ATOM     98  S   UNL     1       2.954   2.262  -8.203  1.00  0.00    -0.177 SA
ATOM     99  H   UNL     1       2.890   2.969  -7.042  1.00  0.00     0.102 HD
ENDBRANCH  97  98
ENDBRANCH  85  97
ENDBRANCH  82  85
ENDBRANCH  80  81
BRANCH  80 100
ATOM    100  C   UNL     1       6.356   3.439  -4.328  1.00  0.00     0.191 C 
BRANCH 100 101
ATOM    101  O   UNL     1       6.314   2.309  -3.462  1.00  0.00    -0.394 OA
ATOM    102  H   UNL     1       5.407   2.180  -3.143  1.00  0.00     0.210 HD
ENDBRANCH 100 101
ENDBRANCH  80 100
ENDBRANCH  77  80
ENDBRANCH  75  76
ENDBRANCH   1  75
TORSDOF 21
