REMARK SMILES CCC(CC)(NC(=O)c1c(C)noc1C)C(=O)NCCCNC(=O)c1ccc(-c2c3nc(c(-c4c(F)cc(S(=O)(=O)[O-])cc4F)c4ccc([nH]4)c(-c4c(F)cc(S(=O)(=O)[O-])cc4F)c4nc(c(-c5c(F)cc(S(=O)(=O)[O-])cc5F)c5ccc2[nH]5)C=C4)C=C3)cc1
REMARK SMILES IDX 20 1 19 2 18 3 16 4 17 5 3 7 2 8 1 9 4 10 5 11 6 12 7 13
REMARK SMILES IDX 8 15 9 16 10 17 14 18 11 19 12 20 13 21 15 22 21 23 22 24
REMARK SMILES IDX 23 25 24 27 25 28 26 29 90 30 27 31 89 32 28 33 29 34 30 35
REMARK SMILES IDX 83 36 31 37 88 38 82 39 84 40 32 41 87 42 81 43 80 44 33 46
REMARK SMILES IDX 67 47 46 48 66 49 47 50 50 51 65 52 85 53 48 54 49 55 64 57
REMARK SMILES IDX 86 58 51 59 34 60 35 61 44 62 36 63 37 64 43 65 45 66 38 67
REMARK SMILES IDX 39 68 40 69 41 70 42 71 68 72 69 73 78 74 70 75 71 76 77 77
REMARK SMILES IDX 79 78 72 79 73 80 74 81 75 82 76 83 52 84 53 85 62 86 54 87
REMARK SMILES IDX 55 88 61 89 63 90 56 91 57 92 58 93 59 94 60 95
REMARK H PARENT 18 6 6 14 22 26 84 45 50 56
REMARK Flexibility Score: inf
ROOT
ATOM      1  C   UNL     1       2.358   5.331  -3.383  1.00  0.00     0.042 C 
ENDROOT
BRANCH   1   2
ATOM      2  C   UNL     1       1.927   3.908  -3.765  1.00  0.00     0.117 C 
BRANCH   2   3
ATOM      3  N   UNL     1       2.573   2.724  -3.183  1.00  0.00    -0.354 N 
ATOM      4  C   UNL     1       2.265   1.877  -2.131  1.00  0.00     0.245 C 
ATOM      5  O   UNL     1       2.842   0.787  -2.092  1.00  0.00    -0.272 OA
ATOM      6  H   UNL     1       3.409   2.478  -3.641  1.00  0.00     0.163 HD
BRANCH   4   7
ATOM      7  C   UNL     1       1.097   2.189  -1.185  1.00  0.00     0.118 C 
BRANCH   7   8
ATOM      8  C   UNL     1       1.003   1.434   0.169  1.00  0.00     0.035 C 
ATOM      9  C   UNL     1       0.929  -0.088   0.150  1.00  0.00     0.007 C 
ENDBRANCH   7   8
BRANCH   7  10
ATOM     10  C   UNL     1      -0.142   1.809  -2.085  1.00  0.00     0.035 C 
ATOM     11  C   UNL     1      -1.546   2.043  -1.558  1.00  0.00     0.007 C 
ENDBRANCH   7  10
BRANCH   7  12
ATOM     12  N   UNL     1       1.209   3.624  -0.871  1.00  0.00    -0.337 N 
ATOM     13  C   UNL     1       2.138   4.402  -0.201  1.00  0.00     0.257 C 
ATOM     14  H   UNL     1       0.452   4.149  -1.217  1.00  0.00     0.164 HD
ATOM     15  O   UNL     1       1.617   5.453   0.198  1.00  0.00    -0.269 OA
BRANCH  13  16
ATOM     16  C   UNL     1       3.571   4.172   0.094  1.00  0.00     0.105 A 
ATOM     17  C   UNL     1       4.220   4.905   1.176  1.00  0.00     0.093 A 
ATOM     18  C   UNL     1       4.683   3.551  -0.492  1.00  0.00     0.146 A 
ATOM     19  C   UNL     1       3.672   5.941   2.086  1.00  0.00     0.071 C 
ATOM     20  N   UNL     1       5.509   4.603   1.305  1.00  0.00    -0.084 NA
ATOM     21  O   UNL     1       5.784   3.753   0.288  1.00  0.00    -0.361 OA
ATOM     22  C   UNL     1       5.126   2.841  -1.712  1.00  0.00     0.092 C 
ENDBRANCH  13  16
ENDBRANCH   7  12
ENDBRANCH   4   7
ENDBRANCH   2   3
ENDBRANCH   1   2
BRANCH   1  23
ATOM     23  C   UNL     1       3.809   5.779  -3.484  1.00  0.00     0.118 C 
BRANCH  23  24
ATOM     24  N   UNL     1       4.468   5.429  -4.722  1.00  0.00    -0.352 N 
ATOM     25  C   UNL     1       5.373   6.162  -5.452  1.00  0.00     0.251 C 
ATOM     26  H   UNL     1       4.236   4.547  -5.093  1.00  0.00     0.163 HD
ATOM     27  O   UNL     1       5.788   5.707  -6.517  1.00  0.00    -0.269 OA
BRANCH  25  28
ATOM     28  C   UNL     1       5.813   7.505  -5.000  1.00  0.00     0.039 A 
ATOM     29  C   UNL     1       5.814   8.544  -5.935  1.00  0.00     0.014 A 
ATOM     30  C   UNL     1       6.246   7.752  -3.692  1.00  0.00     0.014 A 
ATOM     31  C   UNL     1       6.202   9.832  -5.554  1.00  0.00     0.010 A 
ATOM     32  C   UNL     1       6.585   9.052  -3.300  1.00  0.00     0.010 A 
ATOM     33  C   UNL     1       6.571  10.107  -4.226  1.00  0.00    -0.014 A 
BRANCH  33  34
ATOM     34  C   UNL     1       6.943  11.493  -3.822  1.00  0.00     0.031 A 
ATOM     35  C   UNL     1       8.355  11.820  -3.411  1.00  0.00     0.074 A 
ATOM     36  C   UNL     1       6.007  12.464  -3.821  1.00  0.00     0.049 A 
ATOM     37  N   UNL     1       8.868  12.974  -3.062  1.00  0.00    -0.248 NA
ATOM     38  C   UNL     1       9.313  10.705  -3.373  1.00  0.00     0.031 C 
ATOM     39  C   UNL     1       4.595  12.274  -4.160  1.00  0.00     0.029 A 
ATOM     40  N   UNL     1       6.099  13.804  -3.530  1.00  0.00    -0.354 N 
ATOM     41  C   UNL     1      10.203  12.725  -2.762  1.00  0.00     0.074 A 
ATOM     42  C   UNL     1      10.407  11.300  -2.920  1.00  0.00     0.031 C 
ATOM     43  C   UNL     1       3.961  13.456  -4.082  1.00  0.00     0.029 A 
ATOM     44  C   UNL     1       4.909  14.483  -3.661  1.00  0.00     0.049 A 
ATOM     45  H   UNL     1       6.938  14.238  -3.253  1.00  0.00     0.167 HD
ATOM     46  C   UNL     1      11.175  13.602  -2.411  1.00  0.00     0.037 A 
ATOM     47  C   UNL     1       4.613  15.784  -3.467  1.00  0.00     0.037 A 
ATOM     48  C   UNL     1      10.972  15.021  -2.263  1.00  0.00     0.049 A 
ATOM     49  C   UNL     1       5.708  16.738  -3.068  1.00  0.00     0.074 A 
ATOM     50  C   UNL     1      11.905  15.996  -1.953  1.00  0.00     0.029 A 
ATOM     51  N   UNL     1       9.754  15.669  -2.409  1.00  0.00    -0.354 N 
ATOM     52  N   UNL     1       6.979  16.494  -2.856  1.00  0.00    -0.248 NA
ATOM     53  C   UNL     1       5.331  18.149  -2.894  1.00  0.00     0.031 C 
ATOM     54  C   UNL     1      11.243  17.225  -1.864  1.00  0.00     0.029 A 
ATOM     55  C   UNL     1       9.908  17.027  -2.176  1.00  0.00     0.049 A 
ATOM     56  H   UNL     1       8.905  15.229  -2.644  1.00  0.00     0.167 HD
ATOM     57  C   UNL     1       7.559  17.722  -2.556  1.00  0.00     0.074 A 
ATOM     58  C   UNL     1       6.502  18.710  -2.624  1.00  0.00     0.031 C 
ATOM     59  C   UNL     1       8.851  18.005  -2.256  1.00  0.00     0.037 A 
BRANCH  46  60
ATOM     60  C   UNL     1      12.555  13.051  -2.160  1.00  0.00     0.058 A 
ATOM     61  C   UNL     1      13.350  12.552  -3.205  1.00  0.00     0.135 A 
ATOM     62  C   UNL     1      13.104  13.056  -0.868  1.00  0.00     0.135 A 
ATOM     63  F   UNL     1      12.873  12.514  -4.459  1.00  0.00    -0.206 F 
ATOM     64  C   UNL     1      14.626  12.048  -2.973  1.00  0.00     0.059 A 
ATOM     65  C   UNL     1      14.390  12.583  -0.617  1.00  0.00     0.059 A 
ATOM     66  F   UNL     1      12.392  13.525   0.169  1.00  0.00    -0.206 F 
ATOM     67  C   UNL     1      15.137  12.066  -1.674  1.00  0.00     0.060 A 
BRANCH  67  68
ATOM     68  S   UNL     1      16.795  11.408  -1.391  1.00  0.00     0.124 S 
ATOM     69  O   UNL     1      16.569   9.974  -1.543  1.00  0.00    -0.237 OA
ATOM     70  O   UNL     1      17.568  12.043  -2.454  1.00  0.00    -0.237 OA
ATOM     71  O   UNL     1      17.112  11.853  -0.038  1.00  0.00    -0.744 OA
ENDBRANCH  67  68
ENDBRANCH  46  60
BRANCH  47  72
ATOM     72  C   UNL     1       3.220  16.269  -3.672  1.00  0.00     0.058 A 
ATOM     73  C   UNL     1       2.895  17.109  -4.748  1.00  0.00     0.135 A 
ATOM     74  C   UNL     1       2.185  15.901  -2.798  1.00  0.00     0.135 A 
ATOM     75  F   UNL     1       3.850  17.498  -5.607  1.00  0.00    -0.206 F 
ATOM     76  C   UNL     1       1.600  17.581  -4.942  1.00  0.00     0.059 A 
ATOM     77  C   UNL     1       0.877  16.337  -2.987  1.00  0.00     0.059 A 
ATOM     78  F   UNL     1       2.438  15.088  -1.761  1.00  0.00    -0.206 F 
ATOM     79  C   UNL     1       0.596  17.186  -4.056  1.00  0.00     0.060 A 
BRANCH  79  80
ATOM     80  S   UNL     1      -1.091  17.764  -4.344  1.00  0.00     0.124 S 
ATOM     81  O   UNL     1      -0.990  19.167  -3.960  1.00  0.00    -0.237 OA
ATOM     82  O   UNL     1      -1.265  17.502  -5.769  1.00  0.00    -0.237 OA
ATOM     83  O   UNL     1      -1.889  16.922  -3.458  1.00  0.00    -0.744 OA
ENDBRANCH  79  80
ENDBRANCH  47  72
BRANCH  59  84
ATOM     84  C   UNL     1       9.211  19.448  -2.020  1.00  0.00     0.058 A 
ATOM     85  C   UNL     1       8.809  20.135  -0.864  1.00  0.00     0.135 A 
ATOM     86  C   UNL     1      10.012  20.139  -2.946  1.00  0.00     0.135 A 
ATOM     87  F   UNL     1       8.039  19.526   0.051  1.00  0.00    -0.206 F 
ATOM     88  C   UNL     1       9.165  21.463  -0.646  1.00  0.00     0.059 A 
ATOM     89  C   UNL     1      10.404  21.457  -2.735  1.00  0.00     0.059 A 
ATOM     90  F   UNL     1      10.434  19.527  -4.064  1.00  0.00    -0.206 F 
ATOM     91  C   UNL     1       9.964  22.116  -1.588  1.00  0.00     0.060 A 
BRANCH  91  92
ATOM     92  S   UNL     1      10.442  23.829  -1.280  1.00  0.00     0.124 S 
ATOM     93  O   UNL     1       9.193  24.535  -1.544  1.00  0.00    -0.237 OA
ATOM     94  O   UNL     1      10.866  23.791   0.116  1.00  0.00    -0.237 OA
ATOM     95  O   UNL     1      11.511  24.063  -2.247  1.00  0.00    -0.744 OA
ENDBRANCH  91  92
ENDBRANCH  59  84
ENDBRANCH  33  34
ENDBRANCH  25  28
ENDBRANCH  23  24
ENDBRANCH   1  23
TORSDOF 17
