REMARK SMILES CC(C)[C@@H](CC(=O)NCCCNC(=O)c1ccc(-c2c3nc(c(-c4c(F)cc(S(=O)(=O)[O-])cc4F)c4ccc([nH]4)c(-c4c(F)cc(S(=O)(=O)[O-])cc4F)c4nc(c(-c5c(F)cc(S(=O)(=O)[O-])cc5F)c5ccc2[nH]5)C=C4)C=C3)cc1)NC(=O)OCc1ccccc1
REMARK SMILES IDX 9 1 8 2 6 3 7 4 5 6 4 7 2 8 1 9 3 10 81 11 82 12 83 14 84 15
REMARK SMILES IDX 85 16 86 17 87 18 91 19 88 20 90 21 89 22 10 23 11 24 12 25
REMARK SMILES IDX 13 26 14 28 15 29 16 30 80 31 17 32 79 33 18 34 19 35 20 36
REMARK SMILES IDX 73 37 21 38 78 39 72 40 74 41 22 42 77 43 71 44 70 45 23 47
REMARK SMILES IDX 57 48 36 49 56 50 37 51 40 52 55 53 75 54 38 55 39 56 54 58
REMARK SMILES IDX 76 59 41 60 24 61 25 62 34 63 26 64 27 65 33 66 35 67 28 68
REMARK SMILES IDX 29 69 30 70 31 71 32 72 58 73 59 74 68 75 60 76 61 77 67 78
REMARK SMILES IDX 69 79 62 80 63 81 64 82 65 83 66 84 42 85 43 86 52 87 44 88
REMARK SMILES IDX 45 89 51 90 53 91 46 92 47 93 48 94 49 95 50 96
REMARK H PARENT 8 5 81 13 12 27 74 46 40 57
REMARK Flexibility Score: inf
ROOT
ATOM      1  C   UNL     1       1.357  -2.355   1.278  1.00  0.00     0.117 C 
ENDROOT
BRANCH   1   2
ATOM      2  N   UNL     1       0.133  -2.636   2.002  1.00  0.00    -0.356 N 
ATOM      3  C   UNL     1      -1.099  -2.070   1.908  1.00  0.00     0.222 C 
ATOM      4  O   UNL     1      -1.953  -2.434   2.720  1.00  0.00    -0.275 OA
ATOM      5  H   UNL     1       0.206  -3.355   2.671  1.00  0.00     0.163 HD
BRANCH   3   6
ATOM      6  C   UNL     1      -1.439  -1.054   0.830  1.00  0.00     0.125 C 
BRANCH   6   7
ATOM      7  C   UNL     1      -1.172   0.435   1.150  1.00  0.00     0.097 C 
BRANCH   7   8
ATOM      8  C   UNL     1       0.277   0.910   0.876  1.00  0.00     0.006 C 
ATOM      9  C   UNL     1       0.666   0.873  -0.603  1.00  0.00     0.009 C 
ATOM     10  C   UNL     1       0.643   2.280   1.458  1.00  0.00     0.009 C 
ENDBRANCH   7   8
BRANCH   7  11
ATOM     11  N   UNL     1      -1.569   0.759   2.516  1.00  0.00    -0.318 N 
ATOM     12  C   UNL     1      -2.235   1.880   2.918  1.00  0.00     0.407 C 
ATOM     13  H   UNL     1      -1.335   0.106   3.215  1.00  0.00     0.167 HD
ATOM     14  O   UNL     1      -2.353   2.168   4.098  1.00  0.00    -0.225 OA
BRANCH  12  15
ATOM     15  O   UNL     1      -2.759   2.567   1.874  1.00  0.00    -0.445 OA
BRANCH  15  16
ATOM     16  C   UNL     1      -3.617   3.656   2.229  1.00  0.00     0.270 C 
BRANCH  16  17
ATOM     17  C   UNL     1      -4.975   3.217   2.735  1.00  0.00    -0.011 A 
ATOM     18  C   UNL     1      -5.846   4.184   3.258  1.00  0.00     0.007 A 
ATOM     19  C   UNL     1      -5.384   1.874   2.739  1.00  0.00     0.007 A 
ATOM     20  C   UNL     1      -7.068   3.809   3.818  1.00  0.00     0.000 A 
ATOM     21  C   UNL     1      -6.596   1.498   3.317  1.00  0.00     0.000 A 
ATOM     22  C   UNL     1      -7.435   2.465   3.862  1.00  0.00     0.000 A 
ENDBRANCH  16  17
ENDBRANCH  15  16
ENDBRANCH  12  15
ENDBRANCH   7  11
ENDBRANCH   6   7
ENDBRANCH   3   6
ENDBRANCH   1   2
BRANCH   1  23
ATOM     23  C   UNL     1       2.310  -1.522   2.130  1.00  0.00     0.042 C 
BRANCH  23  24
ATOM     24  C   UNL     1       3.157  -2.322   3.092  1.00  0.00     0.118 C 
BRANCH  24  25
ATOM     25  N   UNL     1       4.206  -3.055   2.413  1.00  0.00    -0.352 N 
ATOM     26  C   UNL     1       5.570  -2.944   2.526  1.00  0.00     0.251 C 
ATOM     27  H   UNL     1       3.893  -3.736   1.774  1.00  0.00     0.163 HD
ATOM     28  O   UNL     1       6.275  -3.498   1.686  1.00  0.00    -0.269 OA
BRANCH  26  29
ATOM     29  C   UNL     1       6.191  -2.165   3.625  1.00  0.00     0.039 A 
ATOM     30  C   UNL     1       7.422  -1.545   3.393  1.00  0.00     0.014 A 
ATOM     31  C   UNL     1       5.612  -2.084   4.895  1.00  0.00     0.014 A 
ATOM     32  C   UNL     1       8.055  -0.846   4.423  1.00  0.00     0.010 A 
ATOM     33  C   UNL     1       6.175  -1.276   5.876  1.00  0.00     0.010 A 
ATOM     34  C   UNL     1       7.431  -0.694   5.672  1.00  0.00    -0.014 A 
BRANCH  34  35
ATOM     35  C   UNL     1       8.119  -0.014   6.799  1.00  0.00     0.031 A 
ATOM     36  C   UNL     1       8.423  -0.779   8.064  1.00  0.00     0.074 A 
ATOM     37  C   UNL     1       8.455   1.286   6.693  1.00  0.00     0.049 A 
ATOM     38  N   UNL     1       9.008  -0.366   9.160  1.00  0.00    -0.248 NA
ATOM     39  C   UNL     1       7.983  -2.184   8.120  1.00  0.00     0.031 C 
ATOM     40  C   UNL     1       8.160   2.145   5.544  1.00  0.00     0.029 A 
ATOM     41  N   UNL     1       9.120   2.112   7.562  1.00  0.00    -0.354 N 
ATOM     42  C   UNL     1       8.996  -1.453  10.028  1.00  0.00     0.074 A 
ATOM     43  C   UNL     1       8.272  -2.514   9.368  1.00  0.00     0.031 C 
ATOM     44  C   UNL     1       8.672   3.366   5.765  1.00  0.00     0.029 A 
ATOM     45  C   UNL     1       9.296   3.389   7.084  1.00  0.00     0.049 A 
ATOM     46  H   UNL     1       9.440   1.819   8.446  1.00  0.00     0.167 HD
ATOM     47  C   UNL     1       9.571  -1.573  11.248  1.00  0.00     0.037 A 
ATOM     48  C   UNL     1       9.894   4.457   7.646  1.00  0.00     0.037 A 
ATOM     49  C   UNL     1      10.308  -0.516  11.889  1.00  0.00     0.049 A 
ATOM     50  C   UNL     1      10.532   4.303   9.000  1.00  0.00     0.074 A 
ATOM     51  C   UNL     1      10.965  -0.538  13.106  1.00  0.00     0.029 A 
ATOM     52  N   UNL     1      10.486   0.755  11.361  1.00  0.00    -0.354 N 
ATOM     53  N   UNL     1      10.565   3.249   9.782  1.00  0.00    -0.248 NA
ATOM     54  C   UNL     1      11.230   5.475   9.541  1.00  0.00     0.031 C 
ATOM     55  C   UNL     1      11.496   0.735  13.337  1.00  0.00     0.029 A 
ATOM     56  C   UNL     1      11.228   1.532  12.234  1.00  0.00     0.049 A 
ATOM     57  H   UNL     1      10.135   1.060  10.493  1.00  0.00     0.167 HD
ATOM     58  C   UNL     1      11.312   3.622  10.894  1.00  0.00     0.074 A 
ATOM     59  C   UNL     1      11.725   4.993  10.673  1.00  0.00     0.031 C 
ATOM     60  C   UNL     1      11.632   2.896  11.995  1.00  0.00     0.037 A 
BRANCH  47  61
ATOM     61  C   UNL     1       9.430  -2.895  11.959  1.00  0.00     0.058 A 
ATOM     62  C   UNL     1      10.042  -4.064  11.474  1.00  0.00     0.135 A 
ATOM     63  C   UNL     1       8.685  -2.997  13.145  1.00  0.00     0.135 A 
ATOM     64  F   UNL     1      10.753  -4.034  10.335  1.00  0.00    -0.206 F 
ATOM     65  C   UNL     1       9.888  -5.290  12.115  1.00  0.00     0.059 A 
ATOM     66  C   UNL     1       8.548  -4.206  13.823  1.00  0.00     0.059 A 
ATOM     67  F   UNL     1       8.077  -1.915  13.656  1.00  0.00    -0.206 F 
ATOM     68  C   UNL     1       9.138  -5.350  13.289  1.00  0.00     0.060 A 
BRANCH  68  69
ATOM     69  S   UNL     1       8.948  -6.949  14.106  1.00  0.00     0.124 S 
ATOM     70  O   UNL     1       8.057  -7.644  13.181  1.00  0.00    -0.237 OA
ATOM     71  O   UNL     1      10.321  -7.440  14.152  1.00  0.00    -0.237 OA
ATOM     72  O   UNL     1       8.363  -6.604  15.398  1.00  0.00    -0.744 OA
ENDBRANCH  68  69
ENDBRANCH  47  61
BRANCH  48  73
ATOM     73  C   UNL     1       9.937   5.751   6.913  1.00  0.00     0.058 A 
ATOM     74  C   UNL     1      11.139   6.261   6.400  1.00  0.00     0.135 A 
ATOM     75  C   UNL     1       8.765   6.491   6.684  1.00  0.00     0.135 A 
ATOM     76  F   UNL     1      12.287   5.593   6.593  1.00  0.00    -0.206 F 
ATOM     77  C   UNL     1      11.183   7.464   5.703  1.00  0.00     0.059 A 
ATOM     78  C   UNL     1       8.779   7.681   5.964  1.00  0.00     0.059 A 
ATOM     79  F   UNL     1       7.585   6.039   7.136  1.00  0.00    -0.206 F 
ATOM     80  C   UNL     1       9.995   8.165   5.485  1.00  0.00     0.060 A 
BRANCH  80  81
ATOM     81  S   UNL     1      10.055   9.696   4.529  1.00  0.00     0.124 S 
ATOM     82  O   UNL     1      10.721  10.599   5.461  1.00  0.00    -0.237 OA
ATOM     83  O   UNL     1      10.833   9.296   3.361  1.00  0.00    -0.237 OA
ATOM     84  O   UNL     1       8.648   9.984   4.268  1.00  0.00    -0.744 OA
ENDBRANCH  80  81
ENDBRANCH  48  73
BRANCH  60  85
ATOM     85  C   UNL     1      12.510   3.554  13.025  1.00  0.00     0.058 A 
ATOM     86  C   UNL     1      12.051   4.607  13.832  1.00  0.00     0.135 A 
ATOM     87  C   UNL     1      13.823   3.097  13.229  1.00  0.00     0.135 A 
ATOM     88  F   UNL     1      10.806   5.085  13.678  1.00  0.00    -0.206 F 
ATOM     89  C   UNL     1      12.876   5.211  14.775  1.00  0.00     0.059 A 
ATOM     90  C   UNL     1      14.652   3.662  14.192  1.00  0.00     0.059 A 
ATOM     91  F   UNL     1      14.308   2.082  12.496  1.00  0.00    -0.206 F 
ATOM     92  C   UNL     1      14.175   4.732  14.947  1.00  0.00     0.060 A 
BRANCH  92  93
ATOM     93  S   UNL     1      15.232   5.519  16.180  1.00  0.00     0.124 S 
ATOM     94  O   UNL     1      15.531   6.795  15.539  1.00  0.00    -0.237 OA
ATOM     95  O   UNL     1      14.355   5.585  17.345  1.00  0.00    -0.237 OA
ATOM     96  O   UNL     1      16.358   4.598  16.302  1.00  0.00    -0.744 OA
ENDBRANCH  92  93
ENDBRANCH  60  85
ENDBRANCH  34  35
ENDBRANCH  26  29
ENDBRANCH  24  25
ENDBRANCH  23  24
ENDBRANCH   1  23
TORSDOF 19
