REMARK SMILES CC[C@@](C)(NC(=O)c1cc(C)c(Br)s1)C(=O)NCCCNC(=O)c1ccc(-c2c3nc(c(-c4c(F)cc(S(=O)(=O)[O-])cc4F)c4ccc([nH]4)c(-c4c(F)cc(S(=O)(=O)[O-])cc4F)c4nc(c(-c5c(F)cc(S(=O)(=O)[O-])cc5F)c5ccc2[nH]5)C=C4)C=C3)cc1
REMARK SMILES IDX 19 1 18 2 17 3 15 4 16 5 3 7 4 8 2 9 1 10 5 11 6 12 7 14
REMARK SMILES IDX 8 15 9 16 14 17 10 18 12 19 11 20 13 21 20 22 21 23 22 24
REMARK SMILES IDX 23 26 24 27 25 28 89 29 26 30 88 31 27 32 28 33 29 34 82 35
REMARK SMILES IDX 30 36 87 37 81 38 83 39 31 40 86 41 80 42 79 43 32 45 66 46
REMARK SMILES IDX 45 47 65 48 46 49 49 50 64 51 84 52 47 53 48 54 63 56 85 57
REMARK SMILES IDX 50 58 33 59 34 60 43 61 35 62 36 63 42 64 44 65 37 66 38 67
REMARK SMILES IDX 39 68 40 69 41 70 67 71 68 72 77 73 69 74 70 75 76 76 78 77
REMARK SMILES IDX 71 78 72 79 73 80 74 81 75 82 51 83 52 84 61 85 53 86 54 87
REMARK SMILES IDX 60 88 62 89 55 90 56 91 57 92 58 93 59 94
REMARK H PARENT 17 6 5 13 21 25 83 44 49 55
REMARK Flexibility Score: inf
ROOT
ATOM      1  C   UNL     1       2.004   4.055   4.810  1.00  0.00     0.042 C 
ENDROOT
BRANCH   1   2
ATOM      2  C   UNL     1       1.705   4.218   3.317  1.00  0.00     0.117 C 
BRANCH   2   3
ATOM      3  N   UNL     1       2.393   3.351   2.366  1.00  0.00    -0.354 N 
ATOM      4  C   UNL     1       2.091   2.155   1.759  1.00  0.00     0.245 C 
ATOM      5  O   UNL     1       2.812   1.849   0.804  1.00  0.00    -0.272 OA
ATOM      6  H   UNL     1       3.273   3.701   2.098  1.00  0.00     0.163 HD
BRANCH   4   7
ATOM      7  C   UNL     1       0.874   1.281   2.168  1.00  0.00     0.116 C 
ATOM      8  C   UNL     1      -0.373   2.044   1.652  1.00  0.00     0.045 C 
BRANCH   7   9
ATOM      9  C   UNL     1       0.830  -0.144   1.530  1.00  0.00     0.035 C 
ATOM     10  C   UNL     1       0.894  -0.252   0.008  1.00  0.00     0.007 C 
ENDBRANCH   7   9
BRANCH   7  11
ATOM     11  N   UNL     1       0.759   1.111   3.640  1.00  0.00    -0.337 N 
ATOM     12  C   UNL     1       1.512   0.387   4.553  1.00  0.00     0.262 C 
ATOM     13  H   UNL     1       0.008   1.605   4.042  1.00  0.00     0.164 HD
ATOM     14  O   UNL     1       0.858   0.007   5.530  1.00  0.00    -0.268 OA
BRANCH  12  15
ATOM     15  C   UNL     1       2.948   0.153   4.425  1.00  0.00     0.093 A 
ATOM     16  C   UNL     1       3.947   0.845   3.777  1.00  0.00     0.030 A 
ATOM     17  S   UNL     1       3.673  -1.118   5.343  1.00  0.00    -0.123 S 
ATOM     18  C   UNL     1       5.270   0.327   3.929  1.00  0.00    -0.025 A 
ATOM     19  C   UNL     1       5.243  -0.701   4.840  1.00  0.00     0.074 A 
ATOM     20  C   UNL     1       6.438   0.912   3.206  1.00  0.00     0.046 C 
ATOM     21  Br  UNL     1       6.768  -1.556   5.524  1.00  0.00    -0.039 Br
ENDBRANCH  12  15
ENDBRANCH   7  11
ENDBRANCH   4   7
ENDBRANCH   2   3
ENDBRANCH   1   2
BRANCH   1  22
ATOM     22  C   UNL     1       3.447   4.284   5.223  1.00  0.00     0.118 C 
BRANCH  22  23
ATOM     23  N   UNL     1       3.974   5.629   4.990  1.00  0.00    -0.352 N 
ATOM     24  C   UNL     1       5.193   6.172   5.392  1.00  0.00     0.251 C 
ATOM     25  H   UNL     1       3.387   6.233   4.479  1.00  0.00     0.163 HD
ATOM     26  O   UNL     1       5.364   7.378   5.345  1.00  0.00    -0.269 OA
BRANCH  24  27
ATOM     27  C   UNL     1       6.279   5.280   5.870  1.00  0.00     0.039 A 
ATOM     28  C   UNL     1       7.250   5.689   6.797  1.00  0.00     0.014 A 
ATOM     29  C   UNL     1       6.345   4.001   5.346  1.00  0.00     0.014 A 
ATOM     30  C   UNL     1       8.259   4.793   7.179  1.00  0.00     0.010 A 
ATOM     31  C   UNL     1       7.158   3.066   5.912  1.00  0.00     0.010 A 
ATOM     32  C   UNL     1       8.209   3.483   6.704  1.00  0.00    -0.014 A 
BRANCH  32  33
ATOM     33  C   UNL     1       9.189   2.445   6.988  1.00  0.00     0.031 A 
ATOM     34  C   UNL     1       9.123   1.897   8.364  1.00  0.00     0.074 A 
ATOM     35  C   UNL     1       9.813   1.795   5.976  1.00  0.00     0.049 A 
ATOM     36  N   UNL     1      10.029   1.979   9.279  1.00  0.00    -0.248 NA
ATOM     37  C   UNL     1       7.847   1.334   8.839  1.00  0.00     0.031 C 
ATOM     38  C   UNL     1       9.681   2.025   4.529  1.00  0.00     0.029 A 
ATOM     39  N   UNL     1      10.590   0.680   6.018  1.00  0.00    -0.354 N 
ATOM     40  C   UNL     1       9.528   1.274  10.369  1.00  0.00     0.074 A 
ATOM     41  C   UNL     1       8.119   1.119  10.128  1.00  0.00     0.031 C 
ATOM     42  C   UNL     1      10.154   0.954   3.852  1.00  0.00     0.029 A 
ATOM     43  C   UNL     1      10.751   0.029   4.795  1.00  0.00     0.049 A 
ATOM     44  H   UNL     1      11.008   0.357   6.849  1.00  0.00     0.167 HD
ATOM     45  C   UNL     1      10.358   0.654  11.255  1.00  0.00     0.037 A 
ATOM     46  C   UNL     1      11.296  -1.203   4.599  1.00  0.00     0.037 A 
ATOM     47  C   UNL     1      11.727   1.065  11.050  1.00  0.00     0.049 A 
ATOM     48  C   UNL     1      12.111  -1.494   5.815  1.00  0.00     0.074 A 
ATOM     49  C   UNL     1      12.382   2.282  11.074  1.00  0.00     0.029 A 
ATOM     50  N   UNL     1      12.552   0.206  10.360  1.00  0.00    -0.354 N 
ATOM     51  N   UNL     1      13.183  -0.819   6.140  1.00  0.00    -0.248 NA
ATOM     52  C   UNL     1      11.462  -2.188   6.919  1.00  0.00     0.031 C 
ATOM     53  C   UNL     1      13.309   2.221   9.993  1.00  0.00     0.029 A 
ATOM     54  C   UNL     1      13.229   0.949   9.424  1.00  0.00     0.049 A 
ATOM     55  H   UNL     1      12.641  -0.762  10.510  1.00  0.00     0.167 HD
ATOM     56  C   UNL     1      13.099  -0.648   7.516  1.00  0.00     0.074 A 
ATOM     57  C   UNL     1      12.063  -1.585   7.950  1.00  0.00     0.031 C 
ATOM     58  C   UNL     1      13.647   0.444   8.132  1.00  0.00     0.037 A 
BRANCH  45  59
ATOM     59  C   UNL     1      10.009  -0.573  12.063  1.00  0.00     0.058 A 
ATOM     60  C   UNL     1      10.894  -0.997  13.077  1.00  0.00     0.135 A 
ATOM     61  C   UNL     1       8.994  -1.494  11.721  1.00  0.00     0.135 A 
ATOM     62  F   UNL     1      11.897  -0.203  13.486  1.00  0.00    -0.206 F 
ATOM     63  C   UNL     1      10.828  -2.269  13.645  1.00  0.00     0.059 A 
ATOM     64  C   UNL     1       8.872  -2.743  12.318  1.00  0.00     0.059 A 
ATOM     65  F   UNL     1       8.132  -1.276  10.723  1.00  0.00    -0.206 F 
ATOM     66  C   UNL     1       9.822  -3.142  13.243  1.00  0.00     0.060 A 
BRANCH  66  67
ATOM     67  S   UNL     1       9.806  -4.826  13.878  1.00  0.00     0.124 S 
ATOM     68  O   UNL     1      10.987  -5.389  13.233  1.00  0.00    -0.237 OA
ATOM     69  O   UNL     1       9.906  -4.608  15.318  1.00  0.00    -0.237 OA
ATOM     70  O   UNL     1       8.524  -5.348  13.416  1.00  0.00    -0.744 OA
ENDBRANCH  66  67
ENDBRANCH  45  59
BRANCH  46  71
ATOM     71  C   UNL     1      10.916  -2.245   3.596  1.00  0.00     0.058 A 
ATOM     72  C   UNL     1      11.679  -3.417   3.421  1.00  0.00     0.135 A 
ATOM     73  C   UNL     1       9.653  -2.248   2.969  1.00  0.00     0.135 A 
ATOM     74  F   UNL     1      12.897  -3.516   3.974  1.00  0.00    -0.206 F 
ATOM     75  C   UNL     1      11.193  -4.537   2.729  1.00  0.00     0.059 A 
ATOM     76  C   UNL     1       9.145  -3.350   2.280  1.00  0.00     0.059 A 
ATOM     77  F   UNL     1       8.829  -1.197   3.067  1.00  0.00    -0.206 F 
ATOM     78  C   UNL     1       9.910  -4.504   2.184  1.00  0.00     0.060 A 
BRANCH  78  79
ATOM     79  S   UNL     1       9.194  -6.002   1.461  1.00  0.00     0.124 S 
ATOM     80  O   UNL     1       9.928  -6.111   0.205  1.00  0.00    -0.237 OA
ATOM     81  O   UNL     1       9.501  -7.012   2.468  1.00  0.00    -0.237 OA
ATOM     82  O   UNL     1       7.778  -5.670   1.329  1.00  0.00    -0.744 OA
ENDBRANCH  78  79
ENDBRANCH  46  71
BRANCH  58  83
ATOM     83  C   UNL     1      14.566   1.339   7.334  1.00  0.00     0.058 A 
ATOM     84  C   UNL     1      14.162   2.093   6.217  1.00  0.00     0.135 A 
ATOM     85  C   UNL     1      15.851   1.591   7.835  1.00  0.00     0.135 A 
ATOM     86  F   UNL     1      12.917   2.002   5.737  1.00  0.00    -0.206 F 
ATOM     87  C   UNL     1      15.004   3.023   5.605  1.00  0.00     0.059 A 
ATOM     88  C   UNL     1      16.698   2.538   7.262  1.00  0.00     0.059 A 
ATOM     89  F   UNL     1      16.276   0.957   8.941  1.00  0.00    -0.206 F 
ATOM     90  C   UNL     1      16.271   3.242   6.138  1.00  0.00     0.060 A 
BRANCH  90  91
ATOM     91  S   UNL     1      17.326   4.508   5.400  1.00  0.00     0.124 S 
ATOM     92  O   UNL     1      17.734   3.875   4.151  1.00  0.00    -0.237 OA
ATOM     93  O   UNL     1      16.418   5.644   5.269  1.00  0.00    -0.237 OA
ATOM     94  O   UNL     1      18.389   4.684   6.387  1.00  0.00    -0.744 OA
ENDBRANCH  90  91
ENDBRANCH  58  83
ENDBRANCH  32  33
ENDBRANCH  24  27
ENDBRANCH  22  23
ENDBRANCH   1  22
TORSDOF 16
