REMARK SMILES O=C(NCCCNC(=O)c1cccc(NC(=O)c2cc3ccccc3[nH]2)c1)c1ccc(-c2c3nc(c(-c4c(F)cc(S(=O)(=O)[O-])cc4F)c4ccc([nH]4)c(-c4c(F)cc(S(=O)(=O)[O-])cc4F)c4nc(c(-c5c(F)cc(S(=O)(=O)[O-])cc5F)c5ccc2[nH]5)C=C4)C=C3)cc1
REMARK SMILES IDX 4 1 3 2 1 3 2 4 28 6 29 7 93 8 30 9 92 10 31 11 32 12 33 13
REMARK SMILES IDX 86 14 34 15 91 16 85 17 87 18 35 19 90 20 84 21 83 22 36 24
REMARK SMILES IDX 70 25 49 26 69 27 50 28 53 29 68 30 88 31 51 32 52 33 67 35
REMARK SMILES IDX 89 36 54 37 37 38 38 39 47 40 39 41 40 42 46 43 48 44 41 45
REMARK SMILES IDX 42 46 43 47 44 48 45 49 71 50 72 51 81 52 73 53 74 54 80 55
REMARK SMILES IDX 82 56 75 57 76 58 77 59 78 60 79 61 55 62 56 63 65 64 57 65
REMARK SMILES IDX 58 66 64 67 66 68 59 69 60 70 61 71 62 72 63 73 5 74 6 75
REMARK SMILES IDX 7 76 8 77 9 79 10 80 11 81 27 82 12 83 14 84 13 85 15 86
REMARK SMILES IDX 16 87 17 89 18 90 19 91 26 92 20 93 25 94 21 96 24 97 22 98
REMARK SMILES IDX 23 99
REMARK H PARENT 3 5 87 23 53 34 7 78 15 88 26 95
REMARK Flexibility Score: inf
ROOT
ATOM      1  C   UNL     1       4.638  -0.217  -1.411  1.00  0.00     0.118 C 
ENDROOT
BRANCH   1   2
ATOM      2  N   UNL     1       3.205  -0.056  -1.202  1.00  0.00    -0.352 N 
ATOM      3  O   UNL     1       1.261   0.083  -0.083  1.00  0.00    -0.269 OA
ATOM      4  C   UNL     1       2.487   0.141  -0.045  1.00  0.00     0.251 C 
ATOM      5  H   UNL     1       2.662  -0.095  -2.022  1.00  0.00     0.163 HD
BRANCH   4   6
ATOM      6  C   UNL     1       3.179   0.397   1.238  1.00  0.00     0.039 A 
ATOM      7  C   UNL     1       4.297   1.228   1.298  1.00  0.00     0.014 A 
ATOM      8  C   UNL     1       2.684  -0.184   2.411  1.00  0.00     0.014 A 
ATOM      9  C   UNL     1       5.020   1.335   2.479  1.00  0.00     0.010 A 
ATOM     10  C   UNL     1       3.352   0.012   3.625  1.00  0.00     0.010 A 
ATOM     11  C   UNL     1       4.548   0.744   3.662  1.00  0.00    -0.014 A 
BRANCH  11  12
ATOM     12  C   UNL     1       5.298   0.966   4.926  1.00  0.00     0.031 A 
ATOM     13  C   UNL     1       5.934  -0.177   5.669  1.00  0.00     0.074 A 
ATOM     14  C   UNL     1       5.438   2.228   5.378  1.00  0.00     0.049 A 
ATOM     15  N   UNL     1       6.652  -0.147   6.763  1.00  0.00    -0.248 NA
ATOM     16  C   UNL     1       5.734  -1.529   5.124  1.00  0.00     0.031 C 
ATOM     17  C   UNL     1       4.849   3.416   4.749  1.00  0.00     0.029 A 
ATOM     18  N   UNL     1       6.132   2.732   6.447  1.00  0.00    -0.354 N 
ATOM     19  C   UNL     1       6.973  -1.469   7.050  1.00  0.00     0.074 A 
ATOM     20  C   UNL     1       6.351  -2.281   6.026  1.00  0.00     0.031 C 
ATOM     21  C   UNL     1       5.254   4.510   5.409  1.00  0.00     0.029 A 
ATOM     22  C   UNL     1       6.075   4.102   6.543  1.00  0.00     0.049 A 
ATOM     23  H   UNL     1       6.625   2.166   7.084  1.00  0.00     0.167 HD
ATOM     24  C   UNL     1       7.723  -1.956   8.068  1.00  0.00     0.037 A 
ATOM     25  C   UNL     1       6.610   4.941   7.449  1.00  0.00     0.037 A 
ATOM     26  C   UNL     1       8.355  -1.137   9.072  1.00  0.00     0.049 A 
ATOM     27  C   UNL     1       7.435   4.374   8.567  1.00  0.00     0.074 A 
ATOM     28  C   UNL     1       9.161  -1.534  10.125  1.00  0.00     0.029 A 
ATOM     29  N   UNL     1       8.253   0.245   9.149  1.00  0.00    -0.354 N 
ATOM     30  N   UNL     1       7.745   3.122   8.805  1.00  0.00    -0.248 NA
ATOM     31  C   UNL     1       7.977   5.329   9.540  1.00  0.00     0.031 C 
ATOM     32  C   UNL     1       9.515  -0.398  10.860  1.00  0.00     0.029 A 
ATOM     33  C   UNL     1       8.966   0.713  10.241  1.00  0.00     0.049 A 
ATOM     34  H   UNL     1       7.748   0.809   8.520  1.00  0.00     0.167 HD
ATOM     35  C   UNL     1       8.529   3.140   9.952  1.00  0.00     0.074 A 
ATOM     36  C   UNL     1       8.661   4.528  10.346  1.00  0.00     0.031 C 
ATOM     37  C   UNL     1       9.084   2.099  10.620  1.00  0.00     0.037 A 
BRANCH  24  38
ATOM     38  C   UNL     1       7.893  -3.449   8.161  1.00  0.00     0.058 A 
ATOM     39  C   UNL     1       8.713  -4.156   7.268  1.00  0.00     0.135 A 
ATOM     40  C   UNL     1       7.262  -4.175   9.184  1.00  0.00     0.135 A 
ATOM     41  F   UNL     1       9.329  -3.515   6.263  1.00  0.00    -0.206 F 
ATOM     42  C   UNL     1       8.883  -5.534   7.372  1.00  0.00     0.059 A 
ATOM     43  C   UNL     1       7.435  -5.549   9.321  1.00  0.00     0.059 A 
ATOM     44  F   UNL     1       6.467  -3.548  10.066  1.00  0.00    -0.206 F 
ATOM     45  C   UNL     1       8.238  -6.222   8.401  1.00  0.00     0.060 A 
BRANCH  45  46
ATOM     46  S   UNL     1       8.470  -8.009   8.525  1.00  0.00     0.124 S 
ATOM     47  O   UNL     1       7.645  -8.486   7.419  1.00  0.00    -0.237 OA
ATOM     48  O   UNL     1       9.911  -8.152   8.346  1.00  0.00    -0.237 OA
ATOM     49  O   UNL     1       7.973  -8.325   9.860  1.00  0.00    -0.744 OA
ENDBRANCH  45  46
ENDBRANCH  24  38
BRANCH  25  50
ATOM     50  C   UNL     1       6.374   6.402   7.327  1.00  0.00     0.058 A 
ATOM     51  C   UNL     1       7.406   7.274   6.953  1.00  0.00     0.135 A 
ATOM     52  C   UNL     1       5.099   6.949   7.543  1.00  0.00     0.135 A 
ATOM     53  F   UNL     1       8.642   6.798   6.738  1.00  0.00    -0.206 F 
ATOM     54  C   UNL     1       7.186   8.640   6.806  1.00  0.00     0.059 A 
ATOM     55  C   UNL     1       4.849   8.306   7.377  1.00  0.00     0.059 A 
ATOM     56  F   UNL     1       4.074   6.152   7.883  1.00  0.00    -0.206 F 
ATOM     57  C   UNL     1       5.902   9.146   7.017  1.00  0.00     0.060 A 
BRANCH  57  58
ATOM     58  S   UNL     1       5.609  10.909   6.765  1.00  0.00     0.124 S 
ATOM     59  O   UNL     1       6.189  11.478   7.976  1.00  0.00    -0.237 OA
ATOM     60  O   UNL     1       6.336  11.169   5.526  1.00  0.00    -0.237 OA
ATOM     61  O   UNL     1       4.156  10.995   6.658  1.00  0.00    -0.744 OA
ENDBRANCH  57  58
ENDBRANCH  25  50
BRANCH  37  62
ATOM     62  C   UNL     1       9.903   2.430  11.836  1.00  0.00     0.058 A 
ATOM     63  C   UNL     1       9.302   2.829  13.040  1.00  0.00     0.135 A 
ATOM     64  C   UNL     1      11.302   2.320  11.803  1.00  0.00     0.135 A 
ATOM     65  F   UNL     1       7.968   2.957  13.119  1.00  0.00    -0.206 F 
ATOM     66  C   UNL     1      10.062   3.134  14.163  1.00  0.00     0.059 A 
ATOM     67  C   UNL     1      12.080   2.597  12.922  1.00  0.00     0.059 A 
ATOM     68  F   UNL     1      11.924   1.935  10.677  1.00  0.00    -0.206 F 
ATOM     69  C   UNL     1      11.452   3.017  14.094  1.00  0.00     0.060 A 
BRANCH  69  70
ATOM     70  S   UNL     1      12.429   3.396  15.563  1.00  0.00     0.124 S 
ATOM     71  O   UNL     1      12.403   4.854  15.565  1.00  0.00    -0.237 OA
ATOM     72  O   UNL     1      11.666   2.746  16.625  1.00  0.00    -0.237 OA
ATOM     73  O   UNL     1      13.726   2.791  15.273  1.00  0.00    -0.744 OA
ENDBRANCH  69  70
ENDBRANCH  37  62
ENDBRANCH  11  12
ENDBRANCH   4   6
ENDBRANCH   1   2
BRANCH   1  74
ATOM     74  C   UNL     1       5.013  -1.601  -1.917  1.00  0.00     0.042 C 
BRANCH  74  75
ATOM     75  C   UNL     1       4.459  -1.929  -3.294  1.00  0.00     0.118 C 
BRANCH  75  76
ATOM     76  N   UNL     1       4.970  -1.045  -4.339  1.00  0.00    -0.352 N 
ATOM     77  C   UNL     1       5.856  -1.283  -5.367  1.00  0.00     0.251 C 
ATOM     78  H   UNL     1       4.623  -0.124  -4.303  1.00  0.00     0.163 HD
ATOM     79  O   UNL     1       6.292  -0.353  -6.033  1.00  0.00    -0.269 OA
BRANCH  77  80
ATOM     80  C   UNL     1       6.279  -2.665  -5.678  1.00  0.00     0.041 A 
ATOM     81  C   UNL     1       7.622  -2.960  -5.899  1.00  0.00     0.014 A 
ATOM     82  C   UNL     1       5.330  -3.681  -5.728  1.00  0.00     0.040 A 
ATOM     83  C   UNL     1       8.008  -4.291  -6.088  1.00  0.00     0.003 A 
ATOM     84  C   UNL     1       5.722  -5.019  -5.804  1.00  0.00     0.042 A 
ATOM     85  C   UNL     1       7.063  -5.327  -6.015  1.00  0.00     0.026 A 
BRANCH  84  86
ATOM     86  N   UNL     1       4.718  -5.925  -5.455  1.00  0.00    -0.321 N 
ATOM     87  C   UNL     1       4.702  -7.268  -5.251  1.00  0.00     0.272 C 
ATOM     88  H   UNL     1       3.838  -5.501  -5.330  1.00  0.00     0.170 HD
ATOM     89  O   UNL     1       3.881  -7.688  -4.434  1.00  0.00    -0.267 OA
BRANCH  87  90
ATOM     90  C   UNL     1       5.423  -8.173  -6.102  1.00  0.00     0.105 A 
ATOM     91  C   UNL     1       6.283  -9.190  -5.715  1.00  0.00     0.042 A 
ATOM     92  N   UNL     1       4.915  -8.562  -7.327  1.00  0.00    -0.351 N 
ATOM     93  C   UNL     1       5.774 -10.363  -6.353  1.00  0.00     0.000 A 
ATOM     94  C   UNL     1       4.854  -9.943  -7.313  1.00  0.00     0.046 A 
ATOM     95  H   UNL     1       4.647  -7.970  -8.067  1.00  0.00     0.167 HD
ATOM     96  C   UNL     1       5.886 -11.737  -6.076  1.00  0.00     0.010 A 
ATOM     97  C   UNL     1       3.999 -10.819  -7.987  1.00  0.00     0.026 A 
ATOM     98  C   UNL     1       4.995 -12.623  -6.693  1.00  0.00     0.001 A 
ATOM     99  C   UNL     1       4.060 -12.167  -7.623  1.00  0.00     0.002 A 
ENDBRANCH  87  90
ENDBRANCH  84  86
ENDBRANCH  77  80
ENDBRANCH  75  76
ENDBRANCH  74  75
ENDBRANCH   1  74
TORSDOF 15
