REMARK SMILES Cc1c(C(=O)NC(=S)Nc2ccccc2C(=O)NCCCNC(=O)c2ccc(-c3c4nc(c(-c5c(F)cc(S(=O)(=O)[O-])cc5F)c5ccc([nH]5)c(-c5c(F)cc(S(=O)(=O)[O-])cc5F)c5nc(c(-c6c(F)cc(S(=O)(=O)[O-])cc6F)c6ccc3[nH]6)C=C5)C=C4)cc2)cccc1[N+](=O)[O-]
REMARK SMILES IDX 19 1 18 2 16 3 17 4 15 6 10 7 11 8 12 9 14 10 13 11 9 12
REMARK SMILES IDX 7 14 8 15 6 16 4 17 5 18 3 20 1 21 2 22 94 23 91 24 93 25
REMARK SMILES IDX 92 26 95 27 96 28 97 29 20 30 21 31 22 32 23 33 24 35 25 36
REMARK SMILES IDX 26 37 90 38 27 39 89 40 28 41 29 42 30 43 83 44 31 45 88 46
REMARK SMILES IDX 82 47 84 48 32 49 87 50 81 51 80 52 33 54 67 55 46 56 66 57
REMARK SMILES IDX 47 58 50 59 65 60 85 61 48 62 49 63 64 65 86 66 51 67 34 68
REMARK SMILES IDX 35 69 44 70 36 71 37 72 43 73 45 74 38 75 39 76 40 77 41 78
REMARK SMILES IDX 42 79 68 80 69 81 78 82 70 83 71 84 77 85 79 86 72 87 73 88
REMARK SMILES IDX 74 89 75 90 76 91 52 92 53 93 62 94 54 95 55 96 61 97 63 98
REMARK SMILES IDX 56 99 57 100 58 101 59 102 60 103
REMARK H PARENT 18 5 9 13 6 19 22 34 84 53 50 64
REMARK Flexibility Score: inf
ROOT
ATOM      1  C   UNL     1      -0.852  -2.370   2.607  1.00  0.00     0.118 C 
ENDROOT
BRANCH   1   2
ATOM      2  N   UNL     1       0.610  -2.084   2.837  1.00  0.00    -0.352 N 
ATOM      3  C   UNL     1       1.446  -0.927   2.795  1.00  0.00     0.253 C 
ATOM      4  O   UNL     1       2.541  -0.978   3.349  1.00  0.00    -0.269 OA
ATOM      5  H   UNL     1       1.113  -2.896   3.077  1.00  0.00     0.163 HD
BRANCH   3   6
ATOM      6  C   UNL     1       1.076   0.329   1.986  1.00  0.00     0.063 A 
ATOM      7  C   UNL     1       2.114   0.955   0.663  1.00  0.00     0.053 A 
ATOM      8  C   UNL     1       1.420   1.497  -0.954  1.00  0.00     0.027 A 
ATOM      9  C   UNL     1      -0.286   0.835  -1.345  1.00  0.00     0.002 A 
ATOM     10  C   UNL     1      -0.504   0.177   1.856  1.00  0.00     0.016 A 
ATOM     11  C   UNL     1      -1.224   0.123   0.295  1.00  0.00     0.001 A 
BRANCH   7  12
ATOM     12  N   UNL     1       3.214  -0.002   0.461  1.00  0.00    -0.332 N 
ATOM     13  H   UNL     1       4.074   0.408   0.213  1.00  0.00     0.169 HD
BRANCH  12  14
ATOM     14  C   UNL     1       3.241  -1.399   0.562  1.00  0.00     0.177 C 
ATOM     15  S   UNL     1       4.751  -2.100   0.832  1.00  0.00    -0.040 S 
BRANCH  14  16
ATOM     16  N   UNL     1       2.138  -2.325   0.276  1.00  0.00    -0.299 N 
ATOM     17  C   UNL     1       0.748  -2.621  -0.352  1.00  0.00     0.257 C 
ATOM     18  O   UNL     1       0.467  -3.780  -0.645  1.00  0.00    -0.269 OA
ATOM     19  H   UNL     1       2.415  -3.177   0.683  1.00  0.00     0.172 HD
BRANCH  17  20
ATOM     20  C   UNL     1      -0.189  -1.471  -0.735  1.00  0.00     0.049 A 
ATOM     21  C   UNL     1       1.674  -0.583  -1.701  1.00  0.00     0.053 C 
ATOM     22  C   UNL     1       0.625  -0.175  -0.109  1.00  0.00     0.039 A 
ATOM     23  C   UNL     1      -0.180   1.658   0.290  1.00  0.00     0.273 A 
ATOM     24  C   UNL     1      -1.718  -1.095  -1.460  1.00  0.00     0.014 A 
ATOM     25  C   UNL     1      -1.841   1.923  -0.467  1.00  0.00     0.086 A 
ATOM     26  C   UNL     1      -2.529   0.522  -1.372  1.00  0.00     0.008 A 
BRANCH  23  27
ATOM     27  N   UNL     1       0.290   3.013   0.847  1.00  0.00     0.063 N 
ATOM     28  O   UNL     1      -0.298   4.006   0.391  1.00  0.00    -0.258 OA
ATOM     29  O   UNL     1       1.175   3.087   1.707  1.00  0.00    -0.258 OA
ENDBRANCH  23  27
ENDBRANCH  17  20
ENDBRANCH  14  16
ENDBRANCH  12  14
ENDBRANCH   7  12
ENDBRANCH   3   6
ENDBRANCH   1   2
BRANCH   1  30
ATOM     30  C   UNL     1      -1.298  -3.647   1.931  1.00  0.00     0.042 C 
BRANCH  30  31
ATOM     31  C   UNL     1      -0.515  -4.836   2.364  1.00  0.00     0.118 C 
BRANCH  31  32
ATOM     32  N   UNL     1      -0.649  -4.959   3.790  1.00  0.00    -0.352 N 
ATOM     33  C   UNL     1      -1.839  -5.444   4.302  1.00  0.00     0.251 C 
ATOM     34  H   UNL     1       0.090  -4.704   4.388  1.00  0.00     0.163 HD
ATOM     35  O   UNL     1      -2.474  -4.612   4.928  1.00  0.00    -0.269 OA
BRANCH  33  36
ATOM     36  C   UNL     1      -2.133  -6.941   4.133  1.00  0.00     0.039 A 
ATOM     37  C   UNL     1      -2.392  -7.566   5.359  1.00  0.00     0.014 A 
ATOM     38  C   UNL     1      -1.201  -7.579   3.326  1.00  0.00     0.014 A 
ATOM     39  C   UNL     1      -1.353  -8.194   6.014  1.00  0.00     0.010 A 
ATOM     40  C   UNL     1      -0.083  -8.014   3.962  1.00  0.00     0.010 A 
ATOM     41  C   UNL     1      -0.154  -8.190   5.340  1.00  0.00    -0.014 A 
BRANCH  41  42
ATOM     42  C   UNL     1       1.141  -8.396   5.925  1.00  0.00     0.031 A 
ATOM     43  C   UNL     1       1.500  -9.829   5.837  1.00  0.00     0.074 A 
ATOM     44  C   UNL     1       1.746  -7.193   6.127  1.00  0.00     0.049 A 
ATOM     45  N   UNL     1       2.257 -10.502   6.618  1.00  0.00    -0.248 NA
ATOM     46  C   UNL     1       0.829 -10.741   4.872  1.00  0.00     0.031 C 
ATOM     47  C   UNL     1       3.120  -6.735   6.314  1.00  0.00     0.029 A 
ATOM     48  N   UNL     1       1.012  -6.006   6.384  1.00  0.00    -0.354 N 
ATOM     49  C   UNL     1       2.626 -11.612   5.871  1.00  0.00     0.074 A 
ATOM     50  C   UNL     1       1.510 -11.876   5.021  1.00  0.00     0.031 C 
ATOM     51  C   UNL     1       3.101  -5.577   7.019  1.00  0.00     0.029 A 
ATOM     52  C   UNL     1       1.708  -5.296   7.371  1.00  0.00     0.049 A 
ATOM     53  H   UNL     1       0.171  -5.733   5.950  1.00  0.00     0.167 HD
ATOM     54  C   UNL     1       3.956 -11.905   5.778  1.00  0.00     0.037 A 
ATOM     55  C   UNL     1       1.192  -5.346   8.640  1.00  0.00     0.037 A 
ATOM     56  C   UNL     1       4.683 -10.900   6.573  1.00  0.00     0.049 A 
ATOM     57  C   UNL     1       2.058  -6.321   9.447  1.00  0.00     0.074 A 
ATOM     58  C   UNL     1       5.375  -9.753   6.218  1.00  0.00     0.029 A 
ATOM     59  N   UNL     1       4.339 -10.742   7.913  1.00  0.00    -0.354 N 
ATOM     60  N   UNL     1       2.549  -7.451   8.991  1.00  0.00    -0.248 NA
ATOM     61  C   UNL     1       2.600  -5.961  10.757  1.00  0.00     0.031 C 
ATOM     62  C   UNL     1       5.344  -8.869   7.342  1.00  0.00     0.029 A 
ATOM     63  C   UNL     1       4.603  -9.458   8.356  1.00  0.00     0.049 A 
ATOM     64  H   UNL     1       3.957 -11.455   8.475  1.00  0.00     0.167 HD
ATOM     65  C   UNL     1       3.476  -7.938   9.883  1.00  0.00     0.074 A 
ATOM     66  C   UNL     1       3.469  -6.963  10.964  1.00  0.00     0.031 C 
ATOM     67  C   UNL     1       4.229  -9.072   9.714  1.00  0.00     0.037 A 
BRANCH  54  68
ATOM     68  C   UNL     1       4.635 -12.832   4.778  1.00  0.00     0.058 A 
ATOM     69  C   UNL     1       6.047 -12.876   4.740  1.00  0.00     0.135 A 
ATOM     70  C   UNL     1       4.011 -13.696   3.847  1.00  0.00     0.135 A 
ATOM     71  F   UNL     1       6.789 -12.150   5.589  1.00  0.00    -0.206 F 
ATOM     72  C   UNL     1       6.771 -13.671   3.848  1.00  0.00     0.059 A 
ATOM     73  C   UNL     1       4.716 -14.500   2.939  1.00  0.00     0.059 A 
ATOM     74  F   UNL     1       2.685 -13.833   3.771  1.00  0.00    -0.206 F 
ATOM     75  C   UNL     1       6.099 -14.482   2.947  1.00  0.00     0.060 A 
BRANCH  75  76
ATOM     76  S   UNL     1       7.061 -15.524   1.836  1.00  0.00     0.124 S 
ATOM     77  O   UNL     1       7.811 -14.536   1.067  1.00  0.00    -0.237 OA
ATOM     78  O   UNL     1       7.842 -16.327   2.771  1.00  0.00    -0.237 OA
ATOM     79  O   UNL     1       6.046 -16.256   1.084  1.00  0.00    -0.744 OA
ENDBRANCH  75  76
ENDBRANCH  54  68
BRANCH  55  80
ATOM     80  C   UNL     1      -0.328  -5.254   8.652  1.00  0.00     0.058 A 
ATOM     81  C   UNL     1      -0.984  -4.116   8.108  1.00  0.00     0.135 A 
ATOM     82  C   UNL     1      -1.153  -6.358   8.883  1.00  0.00     0.135 A 
ATOM     83  F   UNL     1      -0.278  -2.991   7.888  1.00  0.00    -0.206 F 
ATOM     84  C   UNL     1      -2.338  -4.119   7.705  1.00  0.00     0.059 A 
ATOM     85  C   UNL     1      -2.507  -6.382   8.483  1.00  0.00     0.059 A 
ATOM     86  F   UNL     1      -0.643  -7.481   9.406  1.00  0.00    -0.206 F 
ATOM     87  C   UNL     1      -3.083  -5.290   7.825  1.00  0.00     0.060 A 
BRANCH  87  88
ATOM     88  S   UNL     1      -4.815  -5.410   7.186  1.00  0.00     0.124 S 
ATOM     89  O   UNL     1      -5.417  -4.169   7.663  1.00  0.00    -0.237 OA
ATOM     90  O   UNL     1      -4.725  -5.532   5.736  1.00  0.00    -0.237 OA
ATOM     91  O   UNL     1      -5.300  -6.628   7.832  1.00  0.00    -0.744 OA
ENDBRANCH  87  88
ENDBRANCH  55  80
BRANCH  67  92
ATOM     92  C   UNL     1       4.737  -9.907  10.881  1.00  0.00     0.058 A 
ATOM     93  C   UNL     1       4.252  -9.776  12.195  1.00  0.00     0.135 A 
ATOM     94  C   UNL     1       5.631 -10.993  10.687  1.00  0.00     0.135 A 
ATOM     95  F   UNL     1       3.258  -8.935  12.509  1.00  0.00    -0.206 F 
ATOM     96  C   UNL     1       4.734 -10.539  13.252  1.00  0.00     0.059 A 
ATOM     97  C   UNL     1       6.034 -11.844  11.709  1.00  0.00     0.059 A 
ATOM     98  F   UNL     1       6.146 -11.297   9.488  1.00  0.00    -0.206 F 
ATOM     99  C   UNL     1       5.629 -11.568  13.001  1.00  0.00     0.060 A 
BRANCH  99 100
ATOM    100  S   UNL     1       6.242 -12.537  14.378  1.00  0.00     0.124 S 
ATOM    101  O   UNL     1       7.189 -11.606  14.983  1.00  0.00    -0.237 OA
ATOM    102  O   UNL     1       5.027 -12.792  15.146  1.00  0.00    -0.237 OA
ATOM    103  O   UNL     1       6.831 -13.709  13.738  1.00  0.00    -0.744 OA
ENDBRANCH  99 100
ENDBRANCH  67  92
ENDBRANCH  41  42
ENDBRANCH  33  36
ENDBRANCH  31  32
ENDBRANCH  30  31
ENDBRANCH   1  30
TORSDOF 18
