REMARK SMILES N#Cc1cccnc1N1CC[NH+]([C@@H](C(=O)NCCCNC(=O)c2ccc(-c3c4nc(c(-c5c(F)cc(S(=O)(=O)[O-])cc5F)c5ccc([nH]5)c(-c5c(F)cc(S(=O)(=O)[O-])cc5F)c5nc(c(-c6c(F)cc(S(=O)(=O)[O-])cc6F)c6ccc3[nH]6)C=C5)C=C4)cc2)c2c[nH]c3cc(CO)ccc23)CC1
REMARK SMILES IDX 18 1 17 2 16 3 14 4 15 5 13 7 12 8 9 9 10 10 101 11 11 12
REMARK SMILES IDX 100 13 8 15 3 16 4 17 5 18 7 19 6 20 2 21 1 22 89 23 90 24
REMARK SMILES IDX 99 25 91 26 92 27 98 28 93 30 97 31 94 32 95 33 96 34 19 36
REMARK SMILES IDX 20 37 21 38 22 40 23 41 24 42 88 43 25 44 87 45 26 46 27 47
REMARK SMILES IDX 28 48 81 49 29 50 86 51 80 52 82 53 30 54 85 55 79 56 78 57
REMARK SMILES IDX 31 59 65 60 44 61 64 62 45 63 48 64 63 65 83 66 46 67 47 68
REMARK SMILES IDX 62 70 84 71 49 72 32 73 33 74 42 75 34 76 35 77 41 78 43 79
REMARK SMILES IDX 36 80 37 81 38 82 39 83 40 84 66 85 67 86 76 87 68 88 69 89
REMARK SMILES IDX 75 90 77 91 70 92 71 93 72 94 73 95 74 96 50 97 51 98 60 99
REMARK SMILES IDX 52 100 53 101 59 102 61 103 54 104 55 105 56 106 57 107
REMARK SMILES IDX 58 108
REMARK H PARENT 16 6 12 14 91 29 96 35 20 39 82 58 48 69
REMARK Flexibility Score: inf
ROOT
ATOM      1  C   UNL     1       1.931  -3.093   3.330  1.00  0.00     0.042 C 
ENDROOT
BRANCH   1   2
ATOM      2  C   UNL     1       1.237  -4.445   2.978  1.00  0.00     0.118 C 
BRANCH   2   3
ATOM      3  N   UNL     1       0.000  -4.381   2.194  1.00  0.00    -0.351 N 
ATOM      4  C   UNL     1      -0.445  -4.765   0.947  1.00  0.00     0.283 C 
ATOM      5  O   UNL     1      -1.670  -4.630   0.826  1.00  0.00    -0.268 OA
ATOM      6  H   UNL     1      -0.716  -3.937   2.702  1.00  0.00     0.163 HD
BRANCH   4   7
ATOM      7  C   UNL     1       0.442  -5.389  -0.187  1.00  0.00     0.307 C 
BRANCH   7   8
ATOM      8  N   UNL     1       1.469  -4.488  -0.863  1.00  0.00    -0.318 N 
ATOM      9  N   UNL     1       0.694  -1.623  -0.916  1.00  0.00    -0.344 N 
ATOM     10  C   UNL     1       0.070  -2.601  -1.809  1.00  0.00     0.179 C 
ATOM     11  C   UNL     1       1.347  -2.191   0.269  1.00  0.00     0.179 C 
ATOM     12  C   UNL     1       1.087  -3.718  -2.069  1.00  0.00     0.284 C 
ATOM     13  C   UNL     1       2.148  -3.496  -0.025  1.00  0.00     0.284 C 
ATOM     14  H   UNL     1       2.072  -5.268  -1.121  1.00  0.00     0.349 HD
BRANCH   9  15
ATOM     15  C   UNL     1      -0.077  -0.485  -0.665  1.00  0.00     0.146 A 
ATOM     16  C   UNL     1       0.520   0.763  -0.457  1.00  0.00     0.095 A 
ATOM     17  C   UNL     1      -0.293   1.875  -0.227  1.00  0.00     0.025 A 
ATOM     18  C   UNL     1      -1.673   1.717  -0.155  1.00  0.00     0.022 A 
ATOM     19  N   UNL     1      -1.427  -0.633  -0.615  1.00  0.00    -0.238 NA
ATOM     20  C   UNL     1      -2.188   0.451  -0.350  1.00  0.00     0.113 A 
BRANCH  16  21
ATOM     21  C   UNL     1       1.950   0.914  -0.459  1.00  0.00     0.103 C 
ATOM     22  N   UNL     1       3.095   0.992  -0.388  1.00  0.00    -0.192 NA
ENDBRANCH  16  21
ENDBRANCH   9  15
ENDBRANCH   7   8
BRANCH   7  23
ATOM     23  C   UNL     1      -0.347  -6.150  -1.314  1.00  0.00     0.044 A 
ATOM     24  C   UNL     1       0.093  -7.263  -2.026  1.00  0.00     0.094 A 
ATOM     25  C   UNL     1      -1.418  -5.688  -2.164  1.00  0.00     0.009 A 
ATOM     26  N   UNL     1       0.062  -6.822  -3.338  1.00  0.00    -0.361 N 
ATOM     27  C   UNL     1      -0.904  -5.848  -3.455  1.00  0.00     0.046 A 
ATOM     28  C   UNL     1      -2.604  -4.951  -2.025  1.00  0.00     0.011 A 
ATOM     29  H   UNL     1       0.636  -7.150  -4.067  1.00  0.00     0.166 HD
ATOM     30  C   UNL     1      -1.266  -5.006  -4.516  1.00  0.00     0.032 A 
ATOM     31  C   UNL     1      -3.082  -4.219  -3.116  1.00  0.00     0.007 A 
ATOM     32  C   UNL     1      -2.327  -4.114  -4.290  1.00  0.00    -0.021 A 
BRANCH  32  33
ATOM     33  C   UNL     1      -2.620  -3.004  -5.268  1.00  0.00     0.191 C 
BRANCH  33  34
ATOM     34  O   UNL     1      -2.680  -1.738  -4.613  1.00  0.00    -0.392 OA
ATOM     35  H   UNL     1      -3.392  -1.749  -3.954  1.00  0.00     0.211 HD
ENDBRANCH  33  34
ENDBRANCH  32  33
ENDBRANCH   7  23
ENDBRANCH   4   7
ENDBRANCH   2   3
ENDBRANCH   1   2
BRANCH   1  36
ATOM     36  C   UNL     1       1.053  -1.845   3.562  1.00  0.00     0.118 C 
BRANCH  36  37
ATOM     37  N   UNL     1       1.110  -1.384   4.937  1.00  0.00    -0.352 N 
ATOM     38  C   UNL     1       1.405  -0.146   5.459  1.00  0.00     0.251 C 
ATOM     39  H   UNL     1       0.904  -2.073   5.609  1.00  0.00     0.163 HD
ATOM     40  O   UNL     1       1.609  -0.062   6.670  1.00  0.00    -0.269 OA
BRANCH  38  41
ATOM     41  C   UNL     1       1.475   1.090   4.632  1.00  0.00     0.039 A 
ATOM     42  C   UNL     1       2.472   2.033   4.926  1.00  0.00     0.014 A 
ATOM     43  C   UNL     1       0.494   1.420   3.695  1.00  0.00     0.014 A 
ATOM     44  C   UNL     1       2.505   3.275   4.271  1.00  0.00     0.010 A 
ATOM     45  C   UNL     1       0.538   2.662   3.036  1.00  0.00     0.010 A 
ATOM     46  C   UNL     1       1.544   3.606   3.303  1.00  0.00    -0.014 A 
BRANCH  46  47
ATOM     47  C   UNL     1       1.587   4.922   2.586  1.00  0.00     0.031 A 
ATOM     48  C   UNL     1       0.472   5.932   2.736  1.00  0.00     0.074 A 
ATOM     49  C   UNL     1       2.618   5.215   1.765  1.00  0.00     0.049 A 
ATOM     50  N   UNL     1       0.325   7.099   2.157  1.00  0.00    -0.248 NA
ATOM     51  C   UNL     1      -0.633   5.573   3.637  1.00  0.00     0.031 C 
ATOM     52  C   UNL     1       3.750   4.332   1.486  1.00  0.00     0.029 A 
ATOM     53  N   UNL     1       2.881   6.335   1.007  1.00  0.00    -0.354 N 
ATOM     54  C   UNL     1      -0.887   7.609   2.614  1.00  0.00     0.074 A 
ATOM     55  C   UNL     1      -1.459   6.598   3.479  1.00  0.00     0.031 C 
ATOM     56  C   UNL     1       4.596   4.950   0.645  1.00  0.00     0.029 A 
ATOM     57  C   UNL     1       4.053   6.258   0.287  1.00  0.00     0.049 A 
ATOM     58  H   UNL     1       2.285   7.119   0.982  1.00  0.00     0.167 HD
ATOM     59  C   UNL     1      -1.464   8.811   2.357  1.00  0.00     0.037 A 
ATOM     60  C   UNL     1       4.627   7.128  -0.570  1.00  0.00     0.037 A 
ATOM     61  C   UNL     1      -0.888   9.834   1.519  1.00  0.00     0.049 A 
ATOM     62  C   UNL     1       3.962   8.451  -0.850  1.00  0.00     0.074 A 
ATOM     63  C   UNL     1      -1.382  11.100   1.246  1.00  0.00     0.029 A 
ATOM     64  N   UNL     1       0.302   9.715   0.817  1.00  0.00    -0.354 N 
ATOM     65  N   UNL     1       2.841   8.929  -0.368  1.00  0.00    -0.248 NA
ATOM     66  C   UNL     1       4.643   9.354  -1.791  1.00  0.00     0.031 C 
ATOM     67  C   UNL     1      -0.517  11.726   0.342  1.00  0.00     0.029 A 
ATOM     68  C   UNL     1       0.546  10.874   0.094  1.00  0.00     0.049 A 
ATOM     69  H   UNL     1       0.888   8.925   0.830  1.00  0.00     0.167 HD
ATOM     70  C   UNL     1       2.698  10.198  -0.922  1.00  0.00     0.074 A 
ATOM     71  C   UNL     1       3.852  10.418  -1.768  1.00  0.00     0.031 C 
ATOM     72  C   UNL     1       1.700  11.098  -0.742  1.00  0.00     0.037 A 
BRANCH  59  73
ATOM     73  C   UNL     1      -2.801   9.096   2.993  1.00  0.00     0.058 A 
ATOM     74  C   UNL     1      -2.932   9.312   4.375  1.00  0.00     0.135 A 
ATOM     75  C   UNL     1      -3.960   9.201   2.205  1.00  0.00     0.135 A 
ATOM     76  F   UNL     1      -1.860   9.218   5.178  1.00  0.00    -0.206 F 
ATOM     77  C   UNL     1      -4.167   9.582   4.957  1.00  0.00     0.059 A 
ATOM     78  C   UNL     1      -5.201   9.501   2.762  1.00  0.00     0.059 A 
ATOM     79  F   UNL     1      -3.894   9.013   0.878  1.00  0.00    -0.206 F 
ATOM     80  C   UNL     1      -5.297   9.671   4.142  1.00  0.00     0.060 A 
BRANCH  80  81
ATOM     81  S   UNL     1      -6.893  10.008   4.916  1.00  0.00     0.124 S 
ATOM     82  O   UNL     1      -7.170   8.734   5.574  1.00  0.00    -0.237 OA
ATOM     83  O   UNL     1      -6.582  11.124   5.803  1.00  0.00    -0.237 OA
ATOM     84  O   UNL     1      -7.758  10.330   3.785  1.00  0.00    -0.744 OA
ENDBRANCH  80  81
ENDBRANCH  59  73
BRANCH  60  85
ATOM     85  C   UNL     1       5.921   6.783  -1.223  1.00  0.00     0.058 A 
ATOM     86  C   UNL     1       7.104   7.459  -0.887  1.00  0.00     0.135 A 
ATOM     87  C   UNL     1       6.002   5.773  -2.194  1.00  0.00     0.135 A 
ATOM     88  F   UNL     1       7.078   8.445   0.023  1.00  0.00    -0.206 F 
ATOM     89  C   UNL     1       8.318   7.156  -1.498  1.00  0.00     0.059 A 
ATOM     90  C   UNL     1       7.209   5.431  -2.797  1.00  0.00     0.059 A 
ATOM     91  F   UNL     1       4.900   5.094  -2.550  1.00  0.00    -0.206 F 
ATOM     92  C   UNL     1       8.361   6.135  -2.449  1.00  0.00     0.060 A 
BRANCH  92  93
ATOM     93  S   UNL     1       9.951   5.717  -3.198  1.00  0.00     0.124 S 
ATOM     94  O   UNL     1      10.172   6.859  -4.077  1.00  0.00    -0.237 OA
ATOM     95  O   UNL     1      10.825   5.630  -2.033  1.00  0.00    -0.237 OA
ATOM     96  O   UNL     1       9.684   4.447  -3.868  1.00  0.00    -0.744 OA
ENDBRANCH  92  93
ENDBRANCH  60  85
BRANCH  72  97
ATOM     97  C   UNL     1       1.819  12.429  -1.438  1.00  0.00     0.058 A 
ATOM     98  C   UNL     1       1.650  12.558  -2.826  1.00  0.00     0.135 A 
ATOM     99  C   UNL     1       2.054  13.600  -0.698  1.00  0.00     0.135 A 
ATOM    100  F   UNL     1       1.429  11.473  -3.584  1.00  0.00    -0.206 F 
ATOM    101  C   UNL     1       1.730  13.797  -3.457  1.00  0.00     0.059 A 
ATOM    102  C   UNL     1       2.110  14.852  -1.305  1.00  0.00     0.059 A 
ATOM    103  F   UNL     1       2.214  13.537   0.633  1.00  0.00    -0.206 F 
ATOM    104  C   UNL     1       1.958  14.939  -2.687  1.00  0.00     0.060 A 
BRANCH 104 105
ATOM    105  S   UNL     1       2.021  16.544  -3.514  1.00  0.00     0.124 S 
ATOM    106  O   UNL     1       3.313  16.477  -4.189  1.00  0.00    -0.237 OA
ATOM    107  O   UNL     1       0.849  16.495  -4.382  1.00  0.00    -0.237 OA
ATOM    108  O   UNL     1       1.937  17.498  -2.412  1.00  0.00    -0.744 OA
ENDBRANCH 104 105
ENDBRANCH  72  97
ENDBRANCH  46  47
ENDBRANCH  38  41
ENDBRANCH  36  37
ENDBRANCH   1  36
TORSDOF 19
