REMARK SMILES CC[C@H]1CCCCN1S(=O)(=O)c1ccc2oc(C(=O)NCCCNC(=O)c3ccc(-c4c5nc(c(-c6c(F)cc(S(=O)(=O)[O-])cc6F)c6ccc([nH]6)c(-c6c(F)cc(S(=O)(=O)[O-])cc6F)c6nc(c(-c7c(F)cc(S(=O)(=O)[O-])cc7F)c7ccc4[nH]7)C=C6)C=C5)cc3)c(C)c2c1
REMARK SMILES IDX 22 1 21 2 20 3 18 4 19 5 17 7 12 8 13 9 96 10 14 11 95 12
REMARK SMILES IDX 15 13 93 14 16 15 94 16 9 17 10 18 11 19 8 20 3 21 4 22 5 23
REMARK SMILES IDX 7 24 6 25 2 26 1 27 23 28 24 29 25 30 26 32 27 33 28 34
REMARK SMILES IDX 92 35 29 36 91 37 30 38 31 39 32 40 85 41 33 42 90 43 84 44
REMARK SMILES IDX 86 45 34 46 89 47 83 48 82 49 35 51 69 52 48 53 68 54 49 55
REMARK SMILES IDX 52 56 67 57 87 58 50 59 51 60 66 62 88 63 53 64 36 65 37 66
REMARK SMILES IDX 46 67 38 68 39 69 45 70 47 71 40 72 41 73 42 74 43 75 44 76
REMARK SMILES IDX 70 77 71 78 80 79 72 80 73 81 79 82 81 83 74 84 75 85 76 86
REMARK SMILES IDX 77 87 78 88 54 89 55 90 64 91 56 92 57 93 63 94 65 95 58 96
REMARK SMILES IDX 59 97 60 98 61 99 62 100
REMARK H PARENT 20 6 24 31 86 50 52 61
REMARK Flexibility Score: inf
ROOT
ATOM      1  C   UNL     1      -3.124  11.745  -0.730  1.00  0.00     0.042 C 
ENDROOT
BRANCH   1   2
ATOM      2  C   UNL     1      -3.078  11.308   0.729  1.00  0.00     0.118 C 
BRANCH   2   3
ATOM      3  N   UNL     1      -4.355  10.865   1.223  1.00  0.00    -0.349 N 
ATOM      4  C   UNL     1      -4.852   9.652   1.627  1.00  0.00     0.287 C 
ATOM      5  O   UNL     1      -5.952   9.750   2.186  1.00  0.00    -0.266 OA
ATOM      6  H   UNL     1      -5.017  11.591   1.283  1.00  0.00     0.163 HD
BRANCH   4   7
ATOM      7  C   UNL     1      -4.215   8.354   1.423  1.00  0.00     0.195 A 
ATOM      8  C   UNL     1      -2.760   4.028   0.958  1.00  0.00     0.083 A 
ATOM      9  C   UNL     1      -3.830   3.812   1.834  1.00  0.00     0.025 A 
ATOM     10  C   UNL     1      -2.542   5.284   0.389  1.00  0.00     0.034 A 
ATOM     11  C   UNL     1      -4.676   4.874   2.199  1.00  0.00     0.049 A 
ATOM     12  C   UNL     1      -3.251   6.377   0.897  1.00  0.00     0.025 A 
ATOM     13  C   UNL     1      -4.319   6.139   1.730  1.00  0.00     0.135 A 
ATOM     14  C   UNL     1      -3.080   7.794   0.825  1.00  0.00     0.008 A 
ATOM     15  O   UNL     1      -4.934   7.312   2.002  1.00  0.00    -0.451 OA
ATOM     16  C   UNL     1      -1.837   8.374   0.252  1.00  0.00     0.049 C 
BRANCH   8  17
ATOM     17  S   UNL     1      -1.703   2.706   0.424  1.00  0.00     0.243 S 
ATOM     18  O   UNL     1      -1.896   2.636  -1.005  1.00  0.00    -0.207 OA
ATOM     19  O   UNL     1      -1.996   1.553   1.254  1.00  0.00    -0.207 OA
BRANCH  17  20
ATOM     20  N   UNL     1      -0.078   3.139   0.768  1.00  0.00    -0.195 NA
ATOM     21  C   UNL     1       0.961   2.147   0.331  1.00  0.00     0.073 C 
ATOM     22  C   UNL     1       2.086   2.192   1.391  1.00  0.00     0.020 C 
ATOM     23  C   UNL     1       2.695   3.591   1.529  1.00  0.00     0.003 C 
ATOM     24  C   UNL     1       0.429   4.525   0.793  1.00  0.00     0.103 C 
ATOM     25  C   UNL     1       1.616   4.640   1.755  1.00  0.00     0.017 C 
BRANCH  21  26
ATOM     26  C   UNL     1       1.576   2.377  -1.073  1.00  0.00     0.017 C 
ATOM     27  C   UNL     1       0.644   2.591  -2.250  1.00  0.00     0.005 C 
ENDBRANCH  21  26
ENDBRANCH  17  20
ENDBRANCH   8  17
ENDBRANCH   4   7
ENDBRANCH   2   3
ENDBRANCH   1   2
BRANCH   1  28
ATOM     28  C   UNL     1      -3.351  13.248  -0.868  1.00  0.00     0.118 C 
BRANCH  28  29
ATOM     29  N   UNL     1      -2.238  14.020  -0.316  1.00  0.00    -0.352 N 
ATOM     30  C   UNL     1      -1.237  14.734  -0.927  1.00  0.00     0.251 C 
ATOM     31  H   UNL     1      -2.200  14.030   0.668  1.00  0.00     0.163 HD
ATOM     32  O   UNL     1      -0.260  15.076  -0.267  1.00  0.00    -0.269 OA
BRANCH  30  33
ATOM     33  C   UNL     1      -1.321  15.080  -2.361  1.00  0.00     0.039 A 
ATOM     34  C   UNL     1      -0.156  15.082  -3.135  1.00  0.00     0.014 A 
ATOM     35  C   UNL     1      -2.539  15.439  -2.938  1.00  0.00     0.014 A 
ATOM     36  C   UNL     1      -0.231  15.361  -4.503  1.00  0.00     0.010 A 
ATOM     37  C   UNL     1      -2.629  15.616  -4.313  1.00  0.00     0.010 A 
ATOM     38  C   UNL     1      -1.476  15.583  -5.111  1.00  0.00    -0.014 A 
BRANCH  38  39
ATOM     39  C   UNL     1      -1.617  15.793  -6.574  1.00  0.00     0.031 A 
ATOM     40  C   UNL     1      -2.231  17.067  -7.089  1.00  0.00     0.074 A 
ATOM     41  C   UNL     1      -1.299  14.799  -7.426  1.00  0.00     0.049 A 
ATOM     42  N   UNL     1      -2.610  17.371  -8.303  1.00  0.00    -0.248 NA
ATOM     43  C   UNL     1      -2.492  18.124  -6.097  1.00  0.00     0.031 C 
ATOM     44  C   UNL     1      -0.744  13.497  -7.045  1.00  0.00     0.029 A 
ATOM     45  N   UNL     1      -1.417  14.719  -8.791  1.00  0.00    -0.354 N 
ATOM     46  C   UNL     1      -3.190  18.631  -8.213  1.00  0.00     0.074 A 
ATOM     47  C   UNL     1      -3.153  19.016  -6.820  1.00  0.00     0.031 C 
ATOM     48  C   UNL     1      -0.549  12.760  -8.150  1.00  0.00     0.029 A 
ATOM     49  C   UNL     1      -1.006  13.515  -9.312  1.00  0.00     0.049 A 
ATOM     50  H   UNL     1      -1.764  15.456  -9.345  1.00  0.00     0.167 HD
ATOM     51  C   UNL     1      -3.688  19.407  -9.206  1.00  0.00     0.037 A 
ATOM     52  C   UNL     1      -1.011  13.066 -10.581  1.00  0.00     0.037 A 
ATOM     53  C   UNL     1      -3.668  19.041 -10.597  1.00  0.00     0.049 A 
ATOM     54  C   UNL     1      -1.537  13.957 -11.671  1.00  0.00     0.074 A 
ATOM     55  C   UNL     1      -4.079  19.784 -11.689  1.00  0.00     0.029 A 
ATOM     56  N   UNL     1      -3.198  17.831 -11.087  1.00  0.00    -0.354 N 
ATOM     57  N   UNL     1      -2.045  15.163 -11.573  1.00  0.00    -0.248 NA
ATOM     58  C   UNL     1      -1.492  13.429 -13.041  1.00  0.00     0.031 C 
ATOM     59  C   UNL     1      -3.878  19.013 -12.840  1.00  0.00     0.029 A 
ATOM     60  C   UNL     1      -3.315  17.803 -12.466  1.00  0.00     0.049 A 
ATOM     61  H   UNL     1      -2.836  17.101 -10.536  1.00  0.00     0.167 HD
ATOM     62  C   UNL     1      -2.360  15.547 -12.871  1.00  0.00     0.074 A 
ATOM     63  C   UNL     1      -1.979  14.449 -13.736  1.00  0.00     0.031 C 
ATOM     64  C   UNL     1      -2.917  16.703 -13.307  1.00  0.00     0.037 A 
BRANCH  51  65
ATOM     65  C   UNL     1      -4.280  20.732  -8.817  1.00  0.00     0.058 A 
ATOM     66  C   UNL     1      -3.476  21.796  -8.377  1.00  0.00     0.135 A 
ATOM     67  C   UNL     1      -5.666  20.946  -8.890  1.00  0.00     0.135 A 
ATOM     68  F   UNL     1      -2.147  21.640  -8.273  1.00  0.00    -0.206 F 
ATOM     69  C   UNL     1      -4.027  23.011  -7.986  1.00  0.00     0.059 A 
ATOM     70  C   UNL     1      -6.237  22.163  -8.529  1.00  0.00     0.059 A 
ATOM     71  F   UNL     1      -6.481  19.963  -9.303  1.00  0.00    -0.206 F 
ATOM     72  C   UNL     1      -5.410  23.183  -8.059  1.00  0.00     0.060 A 
BRANCH  72  73
ATOM     73  S   UNL     1      -6.114  24.760  -7.533  1.00  0.00     0.124 S 
ATOM     74  O   UNL     1      -6.058  24.631  -6.080  1.00  0.00    -0.237 OA
ATOM     75  O   UNL     1      -5.192  25.728  -8.118  1.00  0.00    -0.237 OA
ATOM     76  O   UNL     1      -7.452  24.744  -8.115  1.00  0.00    -0.744 OA
ENDBRANCH  72  73
ENDBRANCH  51  65
BRANCH  52  77
ATOM     77  C   UNL     1      -0.472  11.716 -10.891  1.00  0.00     0.058 A 
ATOM     78  C   UNL     1       0.768  11.574 -11.529  1.00  0.00     0.135 A 
ATOM     79  C   UNL     1      -1.164  10.549 -10.534  1.00  0.00     0.135 A 
ATOM     80  F   UNL     1       1.464  12.662 -11.892  1.00  0.00    -0.206 F 
ATOM     81  C   UNL     1       1.301  10.322 -11.815  1.00  0.00     0.059 A 
ATOM     82  C   UNL     1      -0.642   9.285 -10.791  1.00  0.00     0.059 A 
ATOM     83  F   UNL     1      -2.346  10.634  -9.904  1.00  0.00    -0.206 F 
ATOM     84  C   UNL     1       0.588   9.182 -11.439  1.00  0.00     0.060 A 
BRANCH  84  85
ATOM     85  S   UNL     1       1.317   7.560 -11.759  1.00  0.00     0.124 S 
ATOM     86  O   UNL     1       1.087   7.413 -13.191  1.00  0.00    -0.237 OA
ATOM     87  O   UNL     1       2.704   7.759 -11.351  1.00  0.00    -0.237 OA
ATOM     88  O   UNL     1       0.542   6.671 -10.898  1.00  0.00    -0.744 OA
ENDBRANCH  84  85
ENDBRANCH  52  77
BRANCH  64  89
ATOM     89  C   UNL     1      -3.119  16.854 -14.787  1.00  0.00     0.058 A 
ATOM     90  C   UNL     1      -4.170  16.206 -15.452  1.00  0.00     0.135 A 
ATOM     91  C   UNL     1      -2.291  17.707 -15.533  1.00  0.00     0.135 A 
ATOM     92  F   UNL     1      -4.983  15.374 -14.782  1.00  0.00    -0.206 F 
ATOM     93  C   UNL     1      -4.388  16.391 -16.813  1.00  0.00     0.059 A 
ATOM     94  C   UNL     1      -2.503  17.923 -16.890  1.00  0.00     0.059 A 
ATOM     95  F   UNL     1      -1.276  18.355 -14.938  1.00  0.00    -0.206 F 
ATOM     96  C   UNL     1      -3.550  17.254 -17.523  1.00  0.00     0.060 A 
BRANCH  96  97
ATOM     97  S   UNL     1      -3.873  17.526 -19.278  1.00  0.00     0.124 S 
ATOM     98  O   UNL     1      -3.340  16.302 -19.867  1.00  0.00    -0.237 OA
ATOM     99  O   UNL     1      -5.325  17.668 -19.313  1.00  0.00    -0.237 OA
ATOM    100  O   UNL     1      -3.124  18.744 -19.574  1.00  0.00    -0.744 OA
ENDBRANCH  96  97
ENDBRANCH  64  89
ENDBRANCH  38  39
ENDBRANCH  30  33
ENDBRANCH  28  29
ENDBRANCH   1  28
TORSDOF 16
