REMARK SMILES CC[C@@H](C(=O)NCCCNC(=O)c1ccc(-c2c3nc(c(-c4c(F)cc(S(=O)(=O)[O-])cc4F)c4ccc([nH]4)c(-c4c(F)cc(S(=O)(=O)[O-])cc4F)c4nc(c(-c5c(F)cc(S(=O)(=O)[O-])cc5F)c5ccc2[nH]5)C=C4)C=C3)cc1)N1CCN(Cc2cccc(C)c2)C(=O)C1=O
REMARK SMILES IDX 8 1 7 2 6 3 4 4 5 5 3 7 2 8 1 9 79 10 80 11 93 12 81 13
REMARK SMILES IDX 91 14 94 15 82 16 92 17 83 18 84 19 85 20 90 21 86 22 88 23
REMARK SMILES IDX 87 24 89 25 9 26 10 27 11 28 12 30 13 31 14 32 78 33 15 34
REMARK SMILES IDX 77 35 16 36 17 37 18 38 71 39 19 40 76 41 70 42 72 43 20 44
REMARK SMILES IDX 75 45 69 46 68 47 21 49 55 50 34 51 54 52 35 53 38 54 53 55
REMARK SMILES IDX 73 56 36 57 37 58 52 60 74 61 39 62 22 63 23 64 32 65 24 66
REMARK SMILES IDX 25 67 31 68 33 69 26 70 27 71 28 72 29 73 30 74 56 75 57 76
REMARK SMILES IDX 66 77 58 78 59 79 65 80 67 81 60 82 61 83 62 84 63 85 64 86
REMARK SMILES IDX 40 87 41 88 50 89 42 90 43 91 49 92 51 93 44 94 45 95 46 96
REMARK SMILES IDX 47 97 48 98
REMARK H PARENT 6 6 10 29 72 48 38 59
REMARK Flexibility Score: inf
ROOT
ATOM      1  C   UNL     1       1.276   0.405  -2.446  1.00  0.00     0.042 C 
ENDROOT
BRANCH   1   2
ATOM      2  C   UNL     1       1.853   1.492  -1.543  1.00  0.00     0.117 C 
BRANCH   2   3
ATOM      3  N   UNL     1       0.796   2.330  -1.003  1.00  0.00    -0.354 N 
ATOM      4  C   UNL     1       0.251   2.419   0.245  1.00  0.00     0.242 C 
ATOM      5  O   UNL     1      -0.686   3.217   0.365  1.00  0.00    -0.273 OA
ATOM      6  H   UNL     1       0.401   2.950  -1.658  1.00  0.00     0.163 HD
BRANCH   4   7
ATOM      7  C   UNL     1       0.844   1.655   1.466  1.00  0.00     0.174 C 
BRANCH   7   8
ATOM      8  C   UNL     1       0.388   0.190   1.604  1.00  0.00     0.032 C 
ATOM      9  C   UNL     1       1.081  -0.859   0.757  1.00  0.00     0.006 C 
ENDBRANCH   7   8
BRANCH   7  10
ATOM     10  N   UNL     1       0.520   2.464   2.691  1.00  0.00    -0.321 N 
ATOM     11  C   UNL     1       1.150   3.773   2.842  1.00  0.00     0.142 C 
ATOM     12  C   UNL     1      -0.555   2.167   3.550  1.00  0.00     0.312 C 
ATOM     13  C   UNL     1       0.106   4.829   3.227  1.00  0.00     0.142 C 
ATOM     14  C   UNL     1      -0.789   3.136   4.745  1.00  0.00     0.312 C 
ATOM     15  O   UNL     1      -1.327   1.223   3.425  1.00  0.00    -0.263 OA
ATOM     16  N   UNL     1      -0.503   4.476   4.502  1.00  0.00    -0.328 N 
ATOM     17  O   UNL     1      -1.225   2.708   5.809  1.00  0.00    -0.263 OA
BRANCH  16  18
ATOM     18  C   UNL     1      -0.989   5.501   5.418  1.00  0.00     0.155 C 
BRANCH  18  19
ATOM     19  C   UNL     1       0.118   6.217   6.155  1.00  0.00    -0.028 A 
ATOM     20  C   UNL     1       0.436   5.882   7.477  1.00  0.00     0.005 A 
ATOM     21  C   UNL     1       0.864   7.218   5.517  1.00  0.00     0.009 A 
ATOM     22  C   UNL     1       1.482   6.532   8.138  1.00  0.00     0.001 A 
ATOM     23  C   UNL     1       1.961   7.817   6.142  1.00  0.00    -0.051 A 
ATOM     24  C   UNL     1       2.249   7.486   7.469  1.00  0.00     0.003 A 
ATOM     25  C   UNL     1       2.813   8.797   5.393  1.00  0.00     0.044 C 
ENDBRANCH  18  19
ENDBRANCH  16  18
ENDBRANCH   7  10
ENDBRANCH   4   7
ENDBRANCH   2   3
ENDBRANCH   1   2
BRANCH   1  26
ATOM     26  C   UNL     1       0.789   0.904  -3.798  1.00  0.00     0.118 C 
BRANCH  26  27
ATOM     27  N   UNL     1       1.868   1.085  -4.754  1.00  0.00    -0.352 N 
ATOM     28  C   UNL     1       2.145   0.391  -5.910  1.00  0.00     0.251 C 
ATOM     29  H   UNL     1       2.496   1.813  -4.543  1.00  0.00     0.163 HD
ATOM     30  O   UNL     1       3.219   0.580  -6.476  1.00  0.00    -0.269 OA
BRANCH  28  31
ATOM     31  C   UNL     1       1.180  -0.593  -6.460  1.00  0.00     0.039 A 
ATOM     32  C   UNL     1       1.663  -1.788  -7.002  1.00  0.00     0.014 A 
ATOM     33  C   UNL     1      -0.194  -0.339  -6.473  1.00  0.00     0.014 A 
ATOM     34  C   UNL     1       0.769  -2.746  -7.495  1.00  0.00     0.010 A 
ATOM     35  C   UNL     1      -1.086  -1.332  -6.871  1.00  0.00     0.010 A 
ATOM     36  C   UNL     1      -0.617  -2.542  -7.402  1.00  0.00    -0.014 A 
BRANCH  36  37
ATOM     37  C   UNL     1      -1.594  -3.551  -7.897  1.00  0.00     0.031 A 
ATOM     38  C   UNL     1      -2.553  -3.181  -9.002  1.00  0.00     0.074 A 
ATOM     39  C   UNL     1      -1.662  -4.772  -7.327  1.00  0.00     0.049 A 
ATOM     40  N   UNL     1      -3.556  -3.864  -9.491  1.00  0.00    -0.248 NA
ATOM     41  C   UNL     1      -2.376  -1.856  -9.621  1.00  0.00     0.031 C 
ATOM     42  C   UNL     1      -0.812  -5.246  -6.232  1.00  0.00     0.029 A 
ATOM     43  N   UNL     1      -2.494  -5.835  -7.579  1.00  0.00    -0.354 N 
ATOM     44  C   UNL     1      -4.128  -3.053 -10.466  1.00  0.00     0.074 A 
ATOM     45  C   UNL     1      -3.406  -1.801 -10.453  1.00  0.00     0.031 C 
ATOM     46  C   UNL     1      -1.155  -6.507  -5.920  1.00  0.00     0.029 A 
ATOM     47  C   UNL     1      -2.278  -6.918  -6.756  1.00  0.00     0.049 A 
ATOM     48  H   UNL     1      -3.182  -5.824  -8.283  1.00  0.00     0.167 HD
ATOM     49  C   UNL     1      -5.138  -3.337 -11.322  1.00  0.00     0.037 A 
ATOM     50  C   UNL     1      -2.924  -8.099  -6.673  1.00  0.00     0.037 A 
ATOM     51  C   UNL     1      -5.839  -4.593 -11.352  1.00  0.00     0.049 A 
ATOM     52  C   UNL     1      -4.076  -8.371  -7.608  1.00  0.00     0.074 A 
ATOM     53  C   UNL     1      -6.868  -4.984 -12.191  1.00  0.00     0.029 A 
ATOM     54  N   UNL     1      -5.574  -5.668 -10.517  1.00  0.00    -0.354 N 
ATOM     55  N   UNL     1      -4.579  -7.603  -8.546  1.00  0.00    -0.248 NA
ATOM     56  C   UNL     1      -4.746  -9.674  -7.481  1.00  0.00     0.031 C 
ATOM     57  C   UNL     1      -7.251  -6.281 -11.838  1.00  0.00     0.029 A 
ATOM     58  C   UNL     1      -6.424  -6.719 -10.817  1.00  0.00     0.049 A 
ATOM     59  H   UNL     1      -4.885  -5.681  -9.814  1.00  0.00     0.167 HD
ATOM     60  C   UNL     1      -5.588  -8.348  -9.147  1.00  0.00     0.074 A 
ATOM     61  C   UNL     1      -5.621  -9.628  -8.474  1.00  0.00     0.031 C 
ATOM     62  C   UNL     1      -6.414  -8.004 -10.166  1.00  0.00     0.037 A 
BRANCH  49  63
ATOM     63  C   UNL     1      -5.530  -2.284 -12.323  1.00  0.00     0.058 A 
ATOM     64  C   UNL     1      -4.692  -1.954 -13.400  1.00  0.00     0.135 A 
ATOM     65  C   UNL     1      -6.782  -1.652 -12.252  1.00  0.00     0.135 A 
ATOM     66  F   UNL     1      -3.475  -2.513 -13.506  1.00  0.00    -0.206 F 
ATOM     67  C   UNL     1      -5.074  -1.027 -14.363  1.00  0.00     0.059 A 
ATOM     68  C   UNL     1      -7.198  -0.743 -13.221  1.00  0.00     0.059 A 
ATOM     69  F   UNL     1      -7.623  -1.927 -11.242  1.00  0.00    -0.206 F 
ATOM     70  C   UNL     1      -6.333  -0.433 -14.270  1.00  0.00     0.060 A 
BRANCH  70  71
ATOM     71  S   UNL     1      -6.826   0.735 -15.554  1.00  0.00     0.124 S 
ATOM     72  O   UNL     1      -5.950   1.868 -15.270  1.00  0.00    -0.237 OA
ATOM     73  O   UNL     1      -6.527  -0.004 -16.776  1.00  0.00    -0.237 OA
ATOM     74  O   UNL     1      -8.244   0.958 -15.288  1.00  0.00    -0.744 OA
ENDBRANCH  70  71
ENDBRANCH  49  63
BRANCH  50  75
ATOM     75  C   UNL     1      -2.514  -9.123  -5.671  1.00  0.00     0.058 A 
ATOM     76  C   UNL     1      -1.986 -10.360  -6.075  1.00  0.00     0.135 A 
ATOM     77  C   UNL     1      -2.692  -8.912  -4.295  1.00  0.00     0.135 A 
ATOM     78  F   UNL     1      -1.797 -10.615  -7.379  1.00  0.00    -0.206 F 
ATOM     79  C   UNL     1      -1.700 -11.368  -5.159  1.00  0.00     0.059 A 
ATOM     80  C   UNL     1      -2.381  -9.892  -3.356  1.00  0.00     0.059 A 
ATOM     81  F   UNL     1      -3.173  -7.741  -3.850  1.00  0.00    -0.206 F 
ATOM     82  C   UNL     1      -1.910 -11.126  -3.800  1.00  0.00     0.060 A 
BRANCH  82  83
ATOM     83  S   UNL     1      -1.554 -12.446  -2.620  1.00  0.00     0.124 S 
ATOM     84  O   UNL     1      -2.663 -13.361  -2.863  1.00  0.00    -0.237 OA
ATOM     85  O   UNL     1      -0.240 -12.904  -3.058  1.00  0.00    -0.237 OA
ATOM     86  O   UNL     1      -1.574 -11.758  -1.333  1.00  0.00    -0.744 OA
ENDBRANCH  82  83
ENDBRANCH  50  75
BRANCH  62  87
ATOM     87  C   UNL     1      -7.372  -9.045 -10.675  1.00  0.00     0.058 A 
ATOM     88  C   UNL     1      -8.500  -9.443  -9.940  1.00  0.00     0.135 A 
ATOM     89  C   UNL     1      -7.193  -9.600 -11.953  1.00  0.00     0.135 A 
ATOM     90  F   UNL     1      -8.715  -8.947  -8.711  1.00  0.00    -0.206 F 
ATOM     91  C   UNL     1      -9.406 -10.368 -10.447  1.00  0.00     0.059 A 
ATOM     92  C   UNL     1      -8.104 -10.503 -12.492  1.00  0.00     0.059 A 
ATOM     93  F   UNL     1      -6.137  -9.246 -12.702  1.00  0.00    -0.206 F 
ATOM     94  C   UNL     1      -9.203 -10.888 -11.727  1.00  0.00     0.060 A 
BRANCH  94  95
ATOM     95  S   UNL     1     -10.416 -12.047 -12.392  1.00  0.00     0.124 S 
ATOM     96  O   UNL     1     -10.144 -13.244 -11.603  1.00  0.00    -0.237 OA
ATOM     97  O   UNL     1     -11.679 -11.373 -12.107  1.00  0.00    -0.237 OA
ATOM     98  O   UNL     1     -10.065 -12.135 -13.806  1.00  0.00    -0.744 OA
ENDBRANCH  94  95
ENDBRANCH  62  87
ENDBRANCH  36  37
ENDBRANCH  28  31
ENDBRANCH  26  27
ENDBRANCH   1  26
TORSDOF 17
