REMARK SMILES [NH3+]C[C@@H]1CC[C@H](C(=O)N[C@@H](Cc2ccccc2)C(=O)NCCCNC(=O)c2ccc(-c3c4nc(c(-c5c(F)cc(S(=O)(=O)[O-])cc5F)c5ccc([nH]5)c(-c5c(F)cc(S(=O)(=O)[O-])cc5F)c5nc(c(-c6c(F)cc(S(=O)(=O)[O-])cc6F)c6ccc3[nH]6)C=C5)C=C4)cc2)O1
REMARK SMILES IDX 21 1 20 2 18 3 19 4 10 6 9 7 7 8 8 9 6 11 3 12 4 13 93 14
REMARK SMILES IDX 5 15 2 16 1 17 11 21 12 22 13 23 17 24 14 25 16 26 15 27
REMARK SMILES IDX 22 28 23 29 24 30 25 31 26 33 27 34 28 35 92 36 29 37 91 38
REMARK SMILES IDX 30 39 31 40 32 41 85 42 33 43 90 44 84 45 86 46 34 47 89 48
REMARK SMILES IDX 83 49 82 50 35 52 69 53 48 54 68 55 49 56 52 57 67 58 87 59
REMARK SMILES IDX 50 60 51 61 66 63 88 64 53 65 36 66 37 67 46 68 38 69 39 70
REMARK SMILES IDX 45 71 47 72 40 73 41 74 42 75 43 76 44 77 70 78 71 79 80 80
REMARK SMILES IDX 72 81 73 82 79 83 81 84 74 85 75 86 76 87 77 88 78 89 54 90
REMARK SMILES IDX 55 91 64 92 56 93 57 94 63 95 65 96 58 97 59 98 60 99 61 100
REMARK SMILES IDX 62 101
REMARK H PARENT 20 5 9 10 1 18 1 19 1 20 24 32 86 51 52 62
REMARK Flexibility Score: inf
ROOT
ATOM      1  C   UNL     1      -3.693  -1.842   0.439  1.00  0.00     0.117 C 
ENDROOT
BRANCH   1   2
ATOM      2  N   UNL     1      -2.607  -0.892   0.492  1.00  0.00    -0.354 N 
ATOM      3  C   UNL     1      -2.053  -0.227  -0.559  1.00  0.00     0.242 C 
ATOM      4  O   UNL     1      -1.675   0.931  -0.346  1.00  0.00    -0.273 OA
ATOM      5  H   UNL     1      -2.229  -0.705   1.382  1.00  0.00     0.163 HD
BRANCH   3   6
ATOM      6  C   UNL     1      -2.016  -0.803  -1.992  1.00  0.00     0.175 C 
BRANCH   6   7
ATOM      7  N   UNL     1      -1.762  -2.240  -2.135  1.00  0.00    -0.342 N 
ATOM      8  C   UNL     1      -0.664  -2.893  -2.606  1.00  0.00     0.249 C 
ATOM      9  O   UNL     1      -0.719  -4.125  -2.671  1.00  0.00    -0.272 OA
ATOM     10  H   UNL     1      -2.501  -2.823  -1.846  1.00  0.00     0.164 HD
BRANCH   8  11
ATOM     11  C   UNL     1       0.584  -2.138  -3.084  1.00  0.00     0.207 C 
ATOM     12  C   UNL     1       1.620  -0.089  -2.748  1.00  0.00     0.174 C 
ATOM     13  C   UNL     1       0.837   0.066  -4.042  1.00  0.00     0.041 C 
ATOM     14  O   UNL     1       1.065  -1.236  -2.087  1.00  0.00    -0.359 OA
ATOM     15  C   UNL     1       0.396  -1.347  -4.373  1.00  0.00     0.045 C 
BRANCH  12  16
ATOM     16  C   UNL     1       1.533   1.128  -1.814  1.00  0.00     0.291 C 
BRANCH  16  17
ATOM     17  N   UNL     1       1.991   0.809  -0.456  1.00  0.00    -0.355 N 
ATOM     18  H   UNL     1       1.918   1.639   0.131  1.00  0.00     0.344 HD
ATOM     19  H   UNL     1       2.962   0.499  -0.489  1.00  0.00     0.344 HD
ATOM     20  H   UNL     1       1.410   0.065  -0.068  1.00  0.00     0.344 HD
ENDBRANCH  16  17
ENDBRANCH  12  16
ENDBRANCH   8  11
ENDBRANCH   6   7
BRANCH   6  21
ATOM     21  C   UNL     1      -3.166  -0.306  -2.893  1.00  0.00     0.070 C 
BRANCH  21  22
ATOM     22  C   UNL     1      -4.558  -0.690  -2.459  1.00  0.00    -0.045 A 
ATOM     23  C   UNL     1      -5.356   0.235  -1.769  1.00  0.00     0.004 A 
ATOM     24  C   UNL     1      -5.045  -1.990  -2.663  1.00  0.00     0.004 A 
ATOM     25  C   UNL     1      -6.586  -0.152  -1.235  1.00  0.00     0.000 A 
ATOM     26  C   UNL     1      -6.266  -2.380  -2.109  1.00  0.00     0.000 A 
ATOM     27  C   UNL     1      -7.029  -1.464  -1.386  1.00  0.00     0.000 A 
ENDBRANCH  21  22
ENDBRANCH   6  21
ENDBRANCH   3   6
ENDBRANCH   1   2
BRANCH   1  28
ATOM     28  C   UNL     1      -3.736  -2.817   1.588  1.00  0.00     0.042 C 
BRANCH  28  29
ATOM     29  C   UNL     1      -4.044  -2.152   2.916  1.00  0.00     0.118 C 
BRANCH  29  30
ATOM     30  N   UNL     1      -5.328  -1.450   2.934  1.00  0.00    -0.352 N 
ATOM     31  C   UNL     1      -6.515  -1.747   3.569  1.00  0.00     0.251 C 
ATOM     32  H   UNL     1      -5.348  -0.623   2.400  1.00  0.00     0.163 HD
ATOM     33  O   UNL     1      -7.524  -1.109   3.305  1.00  0.00    -0.269 OA
BRANCH  31  34
ATOM     34  C   UNL     1      -6.564  -2.861   4.539  1.00  0.00     0.039 A 
ATOM     35  C   UNL     1      -7.669  -3.716   4.559  1.00  0.00     0.014 A 
ATOM     36  C   UNL     1      -5.495  -3.086   5.401  1.00  0.00     0.014 A 
ATOM     37  C   UNL     1      -7.644  -4.850   5.373  1.00  0.00     0.010 A 
ATOM     38  C   UNL     1      -5.400  -4.291   6.075  1.00  0.00     0.010 A 
ATOM     39  C   UNL     1      -6.484  -5.177   6.096  1.00  0.00    -0.014 A 
BRANCH  39  40
ATOM     40  C   UNL     1      -6.381  -6.416   6.908  1.00  0.00     0.031 A 
ATOM     41  C   UNL     1      -6.037  -6.324   8.373  1.00  0.00     0.074 A 
ATOM     42  C   UNL     1      -6.492  -7.619   6.311  1.00  0.00     0.049 A 
ATOM     43  N   UNL     1      -5.806  -7.284   9.231  1.00  0.00    -0.248 NA
ATOM     44  C   UNL     1      -5.870  -4.972   8.935  1.00  0.00     0.031 C 
ATOM     45  C   UNL     1      -6.713  -7.841   4.880  1.00  0.00     0.029 A 
ATOM     46  N   UNL     1      -6.424  -8.885   6.834  1.00  0.00    -0.354 N 
ATOM     47  C   UNL     1      -5.426  -6.651  10.409  1.00  0.00     0.074 A 
ATOM     48  C   UNL     1      -5.374  -5.235  10.133  1.00  0.00     0.031 C 
ATOM     49  C   UNL     1      -6.803  -9.160   4.647  1.00  0.00     0.029 A 
ATOM     50  C   UNL     1      -6.615  -9.878   5.903  1.00  0.00     0.049 A 
ATOM     51  H   UNL     1      -6.254  -9.066   7.787  1.00  0.00     0.167 HD
ATOM     52  C   UNL     1      -5.186  -7.194  11.626  1.00  0.00     0.037 A 
ATOM     53  C   UNL     1      -6.646 -11.217   6.049  1.00  0.00     0.037 A 
ATOM     54  C   UNL     1      -5.309  -8.598  11.905  1.00  0.00     0.049 A 
ATOM     55  C   UNL     1      -6.476 -11.799   7.423  1.00  0.00     0.074 A 
ATOM     56  C   UNL     1      -5.191  -9.251  13.118  1.00  0.00     0.029 A 
ATOM     57  N   UNL     1      -5.593  -9.566  10.952  1.00  0.00    -0.354 N 
ATOM     58  N   UNL     1      -6.212 -11.181   8.551  1.00  0.00    -0.248 NA
ATOM     59  C   UNL     1      -6.627 -13.254   7.553  1.00  0.00     0.031 C 
ATOM     60  C   UNL     1      -5.374 -10.620  12.892  1.00  0.00     0.029 A 
ATOM     61  C   UNL     1      -5.645 -10.815  11.545  1.00  0.00     0.049 A 
ATOM     62  H   UNL     1      -5.735  -9.390   9.993  1.00  0.00     0.167 HD
ATOM     63  C   UNL     1      -6.179 -12.168   9.528  1.00  0.00     0.074 A 
ATOM     64  C   UNL     1      -6.467 -13.423   8.860  1.00  0.00     0.031 C 
ATOM     65  C   UNL     1      -5.935 -12.049  10.857  1.00  0.00     0.037 A 
BRANCH  52  66
ATOM     66  C   UNL     1      -4.792  -6.252  12.732  1.00  0.00     0.058 A 
ATOM     67  C   UNL     1      -5.687  -5.296  13.244  1.00  0.00     0.135 A 
ATOM     68  C   UNL     1      -3.491  -6.274  13.262  1.00  0.00     0.135 A 
ATOM     69  F   UNL     1      -6.939  -5.219  12.765  1.00  0.00    -0.206 F 
ATOM     70  C   UNL     1      -5.290  -4.356  14.188  1.00  0.00     0.059 A 
ATOM     71  C   UNL     1      -3.083  -5.364  14.234  1.00  0.00     0.059 A 
ATOM     72  F   UNL     1      -2.595  -7.168  12.817  1.00  0.00    -0.206 F 
ATOM     73  C   UNL     1      -3.981  -4.391  14.668  1.00  0.00     0.060 A 
BRANCH  73  74
ATOM     74  S   UNL     1      -3.464  -3.135  15.858  1.00  0.00     0.124 S 
ATOM     75  O   UNL     1      -3.271  -1.977  14.990  1.00  0.00    -0.237 OA
ATOM     76  O   UNL     1      -4.608  -3.066  16.761  1.00  0.00    -0.237 OA
ATOM     77  O   UNL     1      -2.247  -3.698  16.436  1.00  0.00    -0.744 OA
ENDBRANCH  73  74
ENDBRANCH  52  66
BRANCH  53  78
ATOM     78  C   UNL     1      -6.915 -12.072   4.864  1.00  0.00     0.058 A 
ATOM     79  C   UNL     1      -8.174 -12.661   4.674  1.00  0.00     0.135 A 
ATOM     80  C   UNL     1      -5.952 -12.249   3.858  1.00  0.00     0.135 A 
ATOM     81  F   UNL     1      -9.127 -12.521   5.609  1.00  0.00    -0.206 F 
ATOM     82  C   UNL     1      -8.473 -13.391   3.528  1.00  0.00     0.059 A 
ATOM     83  C   UNL     1      -6.233 -12.959   2.694  1.00  0.00     0.059 A 
ATOM     84  F   UNL     1      -4.740 -11.688   3.983  1.00  0.00    -0.206 F 
ATOM     85  C   UNL     1      -7.498 -13.525   2.538  1.00  0.00     0.060 A 
BRANCH  85  86
ATOM     86  S   UNL     1      -7.930 -14.387   1.010  1.00  0.00     0.124 S 
ATOM     87  O   UNL     1      -7.949 -15.777   1.450  1.00  0.00    -0.237 OA
ATOM     88  O   UNL     1      -9.228 -13.803   0.685  1.00  0.00    -0.237 OA
ATOM     89  O   UNL     1      -6.845 -14.026   0.102  1.00  0.00    -0.744 OA
ENDBRANCH  85  86
ENDBRANCH  53  78
BRANCH  65  90
ATOM     90  C   UNL     1      -5.984 -13.302  11.681  1.00  0.00     0.058 A 
ATOM     91  C   UNL     1      -4.952 -14.251  11.636  1.00  0.00     0.135 A 
ATOM     92  C   UNL     1      -7.043 -13.521  12.577  1.00  0.00     0.135 A 
ATOM     93  F   UNL     1      -3.921 -14.088  10.792  1.00  0.00    -0.206 F 
ATOM     94  C   UNL     1      -4.976 -15.386  12.439  1.00  0.00     0.059 A 
ATOM     95  C   UNL     1      -7.076 -14.636  13.406  1.00  0.00     0.059 A 
ATOM     96  F   UNL     1      -8.049 -12.635  12.665  1.00  0.00    -0.206 F 
ATOM     97  C   UNL     1      -6.042 -15.568  13.323  1.00  0.00     0.060 A 
BRANCH  97  98
ATOM     98  S   UNL     1      -6.042 -17.024  14.390  1.00  0.00     0.124 S 
ATOM     99  O   UNL     1      -6.422 -18.075  13.451  1.00  0.00    -0.237 OA
ATOM    100  O   UNL     1      -4.662 -17.066  14.864  1.00  0.00    -0.237 OA
ATOM    101  O   UNL     1      -7.037 -16.699  15.407  1.00  0.00    -0.744 OA
ENDBRANCH  97  98
ENDBRANCH  65  90
ENDBRANCH  39  40
ENDBRANCH  31  34
ENDBRANCH  29  30
ENDBRANCH  28  29
ENDBRANCH   1  28
TORSDOF 19
