REMARK SMILES Cc1noc(C)c1CNc1ccc(Cl)c(C(=O)NCCCNC(=O)c2ccc(-c3c4nc(c(-c5c(F)cc(S(=O)(=O)[O-])cc5F)c5ccc([nH]5)c(-c5c(F)cc(S(=O)(=O)[O-])cc5F)c5nc(c(-c6c(F)cc(S(=O)(=O)[O-])cc6F)c6ccc3[nH]6)C=C5)C=C4)cc2)n1
REMARK SMILES IDX 20 1 19 2 18 3 16 4 17 5 15 7 10 8 11 9 91 10 12 11 13 12
REMARK SMILES IDX 14 13 9 14 8 16 7 17 1 18 2 19 3 20 4 21 5 22 6 23 21 24
REMARK SMILES IDX 22 25 23 26 24 28 25 29 26 30 90 31 27 32 89 33 28 34 29 35
REMARK SMILES IDX 30 36 83 37 31 38 88 39 82 40 84 41 32 42 87 43 81 44 80 45
REMARK SMILES IDX 33 47 67 48 46 49 66 50 47 51 50 52 65 53 85 54 48 55 49 56
REMARK SMILES IDX 64 58 86 59 51 60 34 61 35 62 44 63 36 64 37 65 43 66 45 67
REMARK SMILES IDX 38 68 39 69 40 70 41 71 42 72 68 73 69 74 78 75 70 76 71 77
REMARK SMILES IDX 77 78 79 79 72 80 73 81 74 82 75 83 76 84 52 85 53 86 62 87
REMARK SMILES IDX 54 88 55 89 61 90 63 91 56 92 57 93 58 94 59 95 60 96
REMARK H PARENT 18 6 9 15 22 27 84 46 50 57
REMARK Flexibility Score: inf
ROOT
ATOM      1  C   UNL     1      -7.093   7.181  -2.269  1.00  0.00     0.042 C 
ENDROOT
BRANCH   1   2
ATOM      2  C   UNL     1      -6.701   6.053  -1.334  1.00  0.00     0.118 C 
BRANCH   2   3
ATOM      3  N   UNL     1      -6.250   4.835  -1.975  1.00  0.00    -0.351 N 
ATOM      4  C   UNL     1      -5.127   4.053  -1.802  1.00  0.00     0.271 C 
ATOM      5  O   UNL     1      -5.131   2.974  -2.405  1.00  0.00    -0.267 OA
ATOM      6  H   UNL     1      -6.865   4.501  -2.668  1.00  0.00     0.163 HD
BRANCH   4   7
ATOM      7  C   UNL     1      -3.886   4.447  -1.038  1.00  0.00     0.149 A 
ATOM      8  C   UNL     1      -1.575   4.085  -1.000  1.00  0.00     0.127 A 
ATOM      9  C   UNL     1      -1.403   5.066  -0.039  1.00  0.00     0.048 A 
ATOM     10  N   UNL     1      -2.765   3.872  -1.576  1.00  0.00    -0.224 NA
ATOM     11  C   UNL     1      -2.533   5.624   0.542  1.00  0.00     0.027 A 
ATOM     12  C   UNL     1      -3.799   5.207   0.123  1.00  0.00     0.072 A 
ATOM     13  Cl  UNL     1      -5.063   5.401   1.287  1.00  0.00    -0.082 Cl
BRANCH   8  14
ATOM     14  N   UNL     1      -0.586   3.169  -1.304  1.00  0.00    -0.366 N 
ATOM     15  H   UNL     1      -0.349   2.961  -2.236  1.00  0.00     0.162 HD
BRANCH  14  16
ATOM     16  C   UNL     1       0.089   2.523  -0.185  1.00  0.00     0.156 C 
BRANCH  16  17
ATOM     17  C   UNL     1       0.071   1.033  -0.150  1.00  0.00     0.037 A 
ATOM     18  C   UNL     1      -2.494   0.488  -0.077  1.00  0.00     0.071 C 
ATOM     19  C   UNL     1      -1.048   0.154  -0.085  1.00  0.00     0.086 A 
ATOM     20  N   UNL     1      -0.659  -1.125  -0.001  1.00  0.00    -0.085 NA
ATOM     21  O   UNL     1       0.720  -1.103  -0.006  1.00  0.00    -0.361 OA
ATOM     22  C   UNL     1       1.153   0.181  -0.087  1.00  0.00     0.138 A 
ATOM     23  C   UNL     1       2.613   0.385  -0.062  1.00  0.00     0.091 C 
ENDBRANCH  16  17
ENDBRANCH  14  16
ENDBRANCH   8  14
ENDBRANCH   4   7
ENDBRANCH   2   3
ENDBRANCH   1   2
BRANCH   1  24
ATOM     24  C   UNL     1      -8.428   7.019  -2.975  1.00  0.00     0.118 C 
BRANCH  24  25
ATOM     25  N   UNL     1      -9.560   6.911  -2.058  1.00  0.00    -0.352 N 
ATOM     26  C   UNL     1     -10.550   7.805  -1.725  1.00  0.00     0.251 C 
ATOM     27  H   UNL     1      -9.625   6.044  -1.596  1.00  0.00     0.163 HD
ATOM     28  O   UNL     1     -11.290   7.548  -0.773  1.00  0.00    -0.269 OA
BRANCH  26  29
ATOM     29  C   UNL     1     -10.728   9.070  -2.471  1.00  0.00     0.039 A 
ATOM     30  C   UNL     1     -11.097  10.229  -1.778  1.00  0.00     0.014 A 
ATOM     31  C   UNL     1     -10.560   9.121  -3.855  1.00  0.00     0.014 A 
ATOM     32  C   UNL     1     -11.207  11.444  -2.461  1.00  0.00     0.010 A 
ATOM     33  C   UNL     1     -10.558  10.345  -4.512  1.00  0.00     0.010 A 
ATOM     34  C   UNL     1     -10.889  11.522  -3.826  1.00  0.00    -0.014 A 
BRANCH  34  35
ATOM     35  C   UNL     1     -10.900  12.812  -4.563  1.00  0.00     0.031 A 
ATOM     36  C   UNL     1     -11.809  12.992  -5.752  1.00  0.00     0.074 A 
ATOM     37  C   UNL     1     -10.034  13.785  -4.216  1.00  0.00     0.049 A 
ATOM     38  N   UNL     1     -11.887  13.996  -6.586  1.00  0.00    -0.248 NA
ATOM     39  C   UNL     1     -12.726  11.883  -6.065  1.00  0.00     0.031 C 
ATOM     40  C   UNL     1      -9.065  13.706  -3.119  1.00  0.00     0.029 A 
ATOM     41  N   UNL     1      -9.813  15.027  -4.759  1.00  0.00    -0.354 N 
ATOM     42  C   UNL     1     -12.842  13.632  -7.529  1.00  0.00     0.074 A 
ATOM     43  C   UNL     1     -13.274  12.293  -7.199  1.00  0.00     0.031 C 
ATOM     44  C   UNL     1      -8.371  14.853  -3.058  1.00  0.00     0.029 A 
ATOM     45  C   UNL     1      -8.809  15.732  -4.137  1.00  0.00     0.049 A 
ATOM     46  H   UNL     1     -10.326  15.380  -5.522  1.00  0.00     0.167 HD
ATOM     47  C   UNL     1     -13.331  14.358  -8.562  1.00  0.00     0.037 A 
ATOM     48  C   UNL     1      -8.287  16.943  -4.415  1.00  0.00     0.037 A 
ATOM     49  C   UNL     1     -12.918  15.704  -8.861  1.00  0.00     0.049 A 
ATOM     50  C   UNL     1      -8.852  17.732  -5.566  1.00  0.00     0.074 A 
ATOM     51  C   UNL     1     -13.403  16.553  -9.840  1.00  0.00     0.029 A 
ATOM     52  N   UNL     1     -11.921  16.396  -8.189  1.00  0.00    -0.354 N 
ATOM     53  N   UNL     1      -9.807  17.400  -6.402  1.00  0.00    -0.248 NA
ATOM     54  C   UNL     1      -8.274  19.060  -5.810  1.00  0.00     0.031 C 
ATOM     55  C   UNL     1     -12.662  17.738  -9.795  1.00  0.00     0.029 A 
ATOM     56  C   UNL     1     -11.757  17.652  -8.749  1.00  0.00     0.049 A 
ATOM     57  H   UNL     1     -11.407  16.046  -7.426  1.00  0.00     0.167 HD
ATOM     58  C   UNL     1      -9.964  18.490  -7.252  1.00  0.00     0.074 A 
ATOM     59  C   UNL     1      -9.016  19.495  -6.819  1.00  0.00     0.031 C 
ATOM     60  C   UNL     1     -10.814  18.644  -8.298  1.00  0.00     0.037 A 
BRANCH  47  61
ATOM     61  C   UNL     1     -14.373  13.721  -9.441  1.00  0.00     0.058 A 
ATOM     62  C   UNL     1     -15.674  13.462  -8.980  1.00  0.00     0.135 A 
ATOM     63  C   UNL     1     -14.084  13.416 -10.782  1.00  0.00     0.135 A 
ATOM     64  F   UNL     1     -16.002  13.716  -7.703  1.00  0.00    -0.206 F 
ATOM     65  C   UNL     1     -16.644  12.906  -9.808  1.00  0.00     0.059 A 
ATOM     66  C   UNL     1     -15.047  12.889 -11.637  1.00  0.00     0.059 A 
ATOM     67  F   UNL     1     -12.856  13.639 -11.276  1.00  0.00    -0.206 F 
ATOM     68  C   UNL     1     -16.322  12.628 -11.137  1.00  0.00     0.060 A 
BRANCH  68  69
ATOM     69  S   UNL     1     -17.602  11.935 -12.204  1.00  0.00     0.124 S 
ATOM     70  O   UNL     1     -17.727  10.582 -11.669  1.00  0.00    -0.237 OA
ATOM     71  O   UNL     1     -18.732  12.823 -11.951  1.00  0.00    -0.237 OA
ATOM     72  O   UNL     1     -17.021  12.029 -13.540  1.00  0.00    -0.744 OA
ENDBRANCH  68  69
ENDBRANCH  47  61
BRANCH  48  73
ATOM     73  C   UNL     1      -7.176  17.487  -3.587  1.00  0.00     0.058 A 
ATOM     74  C   UNL     1      -7.371  18.596  -2.749  1.00  0.00     0.135 A 
ATOM     75  C   UNL     1      -5.896  16.911  -3.616  1.00  0.00     0.135 A 
ATOM     76  F   UNL     1      -8.574  19.186  -2.689  1.00  0.00    -0.206 F 
ATOM     77  C   UNL     1      -6.334  19.130  -1.991  1.00  0.00     0.059 A 
ATOM     78  C   UNL     1      -4.850  17.407  -2.844  1.00  0.00     0.059 A 
ATOM     79  F   UNL     1      -5.659  15.836  -4.385  1.00  0.00    -0.206 F 
ATOM     80  C   UNL     1      -5.076  18.527  -2.044  1.00  0.00     0.060 A 
BRANCH  80  81
ATOM     81  S   UNL     1      -3.745  19.206  -1.030  1.00  0.00     0.124 S 
ATOM     82  O   UNL     1      -3.445  20.448  -1.733  1.00  0.00    -0.237 OA
ATOM     83  O   UNL     1      -4.393  19.347   0.270  1.00  0.00    -0.237 OA
ATOM     84  O   UNL     1      -2.712  18.176  -1.098  1.00  0.00    -0.744 OA
ENDBRANCH  80  81
ENDBRANCH  48  73
BRANCH  60  85
ATOM     85  C   UNL     1     -10.787  19.961  -9.024  1.00  0.00     0.058 A 
ATOM     86  C   UNL     1      -9.714  20.327  -9.853  1.00  0.00     0.135 A 
ATOM     87  C   UNL     1     -11.875  20.844  -8.932  1.00  0.00     0.135 A 
ATOM     88  F   UNL     1      -8.646  19.523  -9.972  1.00  0.00    -0.206 F 
ATOM     89  C   UNL     1      -9.710  21.535 -10.543  1.00  0.00     0.059 A 
ATOM     90  C   UNL     1     -11.907  22.041  -9.639  1.00  0.00     0.059 A 
ATOM     91  F   UNL     1     -12.932  20.537  -8.162  1.00  0.00    -0.206 F 
ATOM     92  C   UNL     1     -10.814  22.384 -10.432  1.00  0.00     0.060 A 
BRANCH  92  93
ATOM     93  S   UNL     1     -10.809  23.932 -11.359  1.00  0.00     0.124 S 
ATOM     94  O   UNL     1      -9.830  24.717 -10.615  1.00  0.00    -0.237 OA
ATOM     95  O   UNL     1     -10.393  23.497 -12.689  1.00  0.00    -0.237 OA
ATOM     96  O   UNL     1     -12.190  24.393 -11.260  1.00  0.00    -0.744 OA
ENDBRANCH  92  93
ENDBRANCH  60  85
ENDBRANCH  34  35
ENDBRANCH  26  29
ENDBRANCH  24  25
ENDBRANCH   1  24
TORSDOF 16
