REMARK SMILES Cc1nc(COc2ccc(/C=C3\CCc4oc(C(=O)NCCCNC(=O)c5ccc(-c6c7nc(c(-c8c(F)cc(S(=O)(=O)[O-])cc8F)c8ccc([nH]8)c(-c8c(F)cc(S(=O)(=O)[O-])cc8F)c8nc(c(-c9c(F)cc(S(=O)(=O)[O-])cc9F)c9ccc6[nH]9)C=C8)C=C7)cc5)c(C)c4C3=O)cc2)no1
REMARK SMILES IDX 21 1 20 2 18 3 19 4 17 6 11 7 12 8 13 9 96 10 14 11 95 12
REMARK SMILES IDX 97 13 15 14 93 15 16 16 94 17 10 18 7 19 8 20 99 21 9 22
REMARK SMILES IDX 98 23 6 24 5 25 4 26 1 27 2 28 3 29 101 30 100 31 22 32
REMARK SMILES IDX 23 33 24 34 25 35 26 37 27 38 28 39 92 40 29 41 91 42 30 43
REMARK SMILES IDX 31 44 32 45 85 46 33 47 90 48 84 49 86 50 34 51 89 52 83 53
REMARK SMILES IDX 82 54 35 56 69 57 48 58 68 59 49 60 52 61 67 62 87 63 50 64
REMARK SMILES IDX 51 65 66 67 88 68 53 69 36 70 37 71 46 72 38 73 39 74 45 75
REMARK SMILES IDX 47 76 40 77 41 78 42 79 43 80 44 81 70 82 71 83 80 84 72 85
REMARK SMILES IDX 73 86 79 87 81 88 74 89 75 90 76 91 77 92 78 93 54 94 55 95
REMARK SMILES IDX 64 96 56 97 57 98 63 99 65 100 58 101 59 102 60 103 61 104
REMARK SMILES IDX 62 105
REMARK H PARENT 20 5 24 36 86 55 52 66
REMARK Flexibility Score: inf
ROOT
ATOM      1  C   UNL     1       6.672   0.307  11.459  1.00  0.00     0.118 C 
ENDROOT
BRANCH   1   2
ATOM      2  N   UNL     1       5.845   0.565  12.636  1.00  0.00    -0.349 N 
ATOM      3  C   UNL     1       4.543   1.022  12.733  1.00  0.00     0.287 C 
ATOM      4  O   UNL     1       4.019   0.973  13.845  1.00  0.00    -0.266 OA
ATOM      5  H   UNL     1       6.285   0.384  13.497  1.00  0.00     0.163 HD
BRANCH   3   6
ATOM      6  C   UNL     1       3.849   1.498  11.548  1.00  0.00     0.195 A 
ATOM      7  C   UNL     1       1.324   1.932   6.505  1.00  0.00     0.016 C 
ATOM      8  C   UNL     1       1.906   2.582   7.531  1.00  0.00     0.001 C 
ATOM      9  C   UNL     1       3.175   3.407   7.522  1.00  0.00     0.048 C 
ATOM     10  C   UNL     1       1.349   2.324   8.930  1.00  0.00     0.192 C 
ATOM     11  C   UNL     1       4.284   2.563   8.165  1.00  0.00     0.081 C 
ATOM     12  C   UNL     1       2.439   2.075   9.877  1.00  0.00     0.067 A 
ATOM     13  O   UNL     1       0.166   2.268   9.184  1.00  0.00    -0.289 OA
ATOM     14  C   UNL     1       3.752   2.150   9.477  1.00  0.00     0.116 A 
ATOM     15  C   UNL     1       2.498   1.753  11.272  1.00  0.00     0.012 A 
ATOM     16  O   UNL     1       4.602   1.821  10.452  1.00  0.00    -0.455 OA
ATOM     17  C   UNL     1       1.342   1.697  12.207  1.00  0.00     0.049 C 
BRANCH   7  18
ATOM     18  C   UNL     1       1.790   1.796   5.107  1.00  0.00    -0.025 A 
ATOM     19  C   UNL     1       2.573   1.345   2.413  1.00  0.00     0.120 A 
ATOM     20  C   UNL     1       3.510   1.721   3.364  1.00  0.00     0.047 A 
ATOM     21  C   UNL     1       1.256   1.149   2.817  1.00  0.00     0.047 A 
ATOM     22  C   UNL     1       3.125   1.919   4.695  1.00  0.00     0.012 A 
ATOM     23  C   UNL     1       0.866   1.383   4.144  1.00  0.00     0.012 A 
BRANCH  19  24
ATOM     24  O   UNL     1       3.071   1.079   1.168  1.00  0.00    -0.485 OA
BRANCH  24  25
ATOM     25  C   UNL     1       2.292   1.550   0.052  1.00  0.00     0.310 C 
BRANCH  25  26
ATOM     26  C   UNL     1       1.135   0.682  -0.302  1.00  0.00     0.209 A 
ATOM     27  C   UNL     1      -2.300  -0.169  -0.195  1.00  0.00     0.114 C 
ATOM     28  C   UNL     1      -0.853   0.041  -0.354  1.00  0.00     0.223 A 
ATOM     29  N   UNL     1      -0.158   1.148  -0.237  1.00  0.00    -0.193 NA
ATOM     30  O   UNL     1      -0.083  -1.066  -0.558  1.00  0.00    -0.340 OA
ATOM     31  N   UNL     1       1.245  -0.634  -0.537  1.00  0.00    -0.059 NA
ENDBRANCH  25  26
ENDBRANCH  24  25
ENDBRANCH  19  24
ENDBRANCH   7  18
ENDBRANCH   3   6
ENDBRANCH   1   2
BRANCH   1  32
ATOM     32  C   UNL     1       7.661   1.439  11.149  1.00  0.00     0.042 C 
BRANCH  32  33
ATOM     33  C   UNL     1       8.911   1.347  12.012  1.00  0.00     0.118 C 
BRANCH  33  34
ATOM     34  N   UNL     1       9.759   0.191  11.674  1.00  0.00    -0.352 N 
ATOM     35  C   UNL     1      10.923  -0.250  12.286  1.00  0.00     0.251 C 
ATOM     36  H   UNL     1       9.457  -0.344  10.905  1.00  0.00     0.163 HD
ATOM     37  O   UNL     1      11.680  -1.020  11.705  1.00  0.00    -0.269 OA
BRANCH  35  38
ATOM     38  C   UNL     1      11.233   0.228  13.645  1.00  0.00     0.039 A 
ATOM     39  C   UNL     1      12.531   0.534  14.068  1.00  0.00     0.014 A 
ATOM     40  C   UNL     1      10.155   0.418  14.494  1.00  0.00     0.014 A 
ATOM     41  C   UNL     1      12.705   1.117  15.324  1.00  0.00     0.010 A 
ATOM     42  C   UNL     1      10.298   1.220  15.585  1.00  0.00     0.010 A 
ATOM     43  C   UNL     1      11.572   1.472  16.070  1.00  0.00    -0.014 A 
BRANCH  43  44
ATOM     44  C   UNL     1      11.652   2.160  17.351  1.00  0.00     0.031 A 
ATOM     45  C   UNL     1      12.359   3.468  17.318  1.00  0.00     0.074 A 
ATOM     46  C   UNL     1      10.888   1.782  18.402  1.00  0.00     0.049 A 
ATOM     47  N   UNL     1      13.483   3.778  17.873  1.00  0.00    -0.248 NA
ATOM     48  C   UNL     1      11.826   4.520  16.437  1.00  0.00     0.031 C 
ATOM     49  C   UNL     1       9.866   0.725  18.465  1.00  0.00     0.029 A 
ATOM     50  N   UNL     1      10.765   2.367  19.620  1.00  0.00    -0.354 N 
ATOM     51  C   UNL     1      13.675   5.134  17.616  1.00  0.00     0.074 A 
ATOM     52  C   UNL     1      12.756   5.469  16.560  1.00  0.00     0.031 C 
ATOM     53  C   UNL     1       9.070   0.921  19.538  1.00  0.00     0.029 A 
ATOM     54  C   UNL     1       9.636   1.988  20.338  1.00  0.00     0.049 A 
ATOM     55  H   UNL     1      11.424   3.010  19.968  1.00  0.00     0.167 HD
ATOM     56  C   UNL     1      14.391   5.924  18.466  1.00  0.00     0.037 A 
ATOM     57  C   UNL     1       9.188   2.547  21.491  1.00  0.00     0.037 A 
ATOM     58  C   UNL     1      15.149   5.123  19.398  1.00  0.00     0.049 A 
ATOM     59  C   UNL     1      10.343   3.281  22.079  1.00  0.00     0.074 A 
ATOM     60  C   UNL     1      16.107   4.134  19.270  1.00  0.00     0.029 A 
ATOM     61  N   UNL     1      14.666   5.003  20.681  1.00  0.00    -0.354 N 
ATOM     62  N   UNL     1      11.429   2.697  22.513  1.00  0.00    -0.248 NA
ATOM     63  C   UNL     1      10.492   4.686  21.728  1.00  0.00     0.031 C 
ATOM     64  C   UNL     1      15.777   3.173  20.271  1.00  0.00     0.029 A 
ATOM     65  C   UNL     1      14.695   3.668  21.001  1.00  0.00     0.049 A 
ATOM     66  H   UNL     1      14.358   5.737  21.261  1.00  0.00     0.167 HD
ATOM     67  C   UNL     1      12.470   3.517  22.099  1.00  0.00     0.074 A 
ATOM     68  C   UNL     1      11.825   4.764  21.686  1.00  0.00     0.031 C 
ATOM     69  C   UNL     1      13.718   3.018  21.849  1.00  0.00     0.037 A 
BRANCH  56  70
ATOM     70  C   UNL     1      14.136   7.397  18.705  1.00  0.00     0.058 A 
ATOM     71  C   UNL     1      15.040   8.128  19.504  1.00  0.00     0.135 A 
ATOM     72  C   UNL     1      12.915   8.050  18.423  1.00  0.00     0.135 A 
ATOM     73  F   UNL     1      16.235   7.611  19.834  1.00  0.00    -0.206 F 
ATOM     74  C   UNL     1      14.720   9.369  20.056  1.00  0.00     0.059 A 
ATOM     75  C   UNL     1      12.599   9.312  18.915  1.00  0.00     0.059 A 
ATOM     76  F   UNL     1      11.925   7.464  17.741  1.00  0.00    -0.206 F 
ATOM     77  C   UNL     1      13.486   9.943  19.769  1.00  0.00     0.060 A 
BRANCH  77  78
ATOM     78  S   UNL     1      13.019  11.485  20.573  1.00  0.00     0.124 S 
ATOM     79  O   UNL     1      12.846  11.049  21.954  1.00  0.00    -0.237 OA
ATOM     80  O   UNL     1      14.179  12.328  20.308  1.00  0.00    -0.237 OA
ATOM     81  O   UNL     1      11.797  11.871  19.873  1.00  0.00    -0.744 OA
ENDBRANCH  77  78
ENDBRANCH  56  70
BRANCH  57  82
ATOM     82  C   UNL     1       7.779   2.779  21.908  1.00  0.00     0.058 A 
ATOM     83  C   UNL     1       7.464   3.161  23.225  1.00  0.00     0.135 A 
ATOM     84  C   UNL     1       6.738   2.907  20.963  1.00  0.00     0.135 A 
ATOM     85  F   UNL     1       8.396   3.088  24.187  1.00  0.00    -0.206 F 
ATOM     86  C   UNL     1       6.215   3.689  23.573  1.00  0.00     0.059 A 
ATOM     87  C   UNL     1       5.482   3.421  21.288  1.00  0.00     0.059 A 
ATOM     88  F   UNL     1       6.941   2.622  19.668  1.00  0.00    -0.206 F 
ATOM     89  C   UNL     1       5.236   3.837  22.590  1.00  0.00     0.060 A 
BRANCH  89  90
ATOM     90  S   UNL     1       3.692   4.692  22.992  1.00  0.00     0.124 S 
ATOM     91  O   UNL     1       3.033   3.730  23.868  1.00  0.00    -0.237 OA
ATOM     92  O   UNL     1       4.172   5.912  23.632  1.00  0.00    -0.237 OA
ATOM     93  O   UNL     1       3.061   4.884  21.689  1.00  0.00    -0.744 OA
ENDBRANCH  89  90
ENDBRANCH  57  82
BRANCH  69  94
ATOM     94  C   UNL     1      14.037   1.606  22.279  1.00  0.00     0.058 A 
ATOM     95  C   UNL     1      13.409   0.455  21.769  1.00  0.00     0.135 A 
ATOM     96  C   UNL     1      15.149   1.405  23.110  1.00  0.00     0.135 A 
ATOM     97  F   UNL     1      12.407   0.548  20.885  1.00  0.00    -0.206 F 
ATOM     98  C   UNL     1      13.842  -0.832  22.098  1.00  0.00     0.059 A 
ATOM     99  C   UNL     1      15.619   0.133  23.427  1.00  0.00     0.059 A 
ATOM    100  F   UNL     1      15.835   2.460  23.580  1.00  0.00    -0.206 F 
ATOM    101  C   UNL     1      14.953  -0.983  22.927  1.00  0.00     0.060 A 
BRANCH 101 102
ATOM    102  S   UNL     1      15.562  -2.644  23.290  1.00  0.00     0.124 S 
ATOM    103  O   UNL     1      14.522  -3.168  24.169  1.00  0.00    -0.237 OA
ATOM    104  O   UNL     1      15.638  -3.252  21.964  1.00  0.00    -0.237 OA
ATOM    105  O   UNL     1      16.854  -2.402  23.928  1.00  0.00    -0.744 OA
ENDBRANCH 101 102
ENDBRANCH  69  94
ENDBRANCH  43  44
ENDBRANCH  35  38
ENDBRANCH  33  34
ENDBRANCH  32  33
ENDBRANCH   1  32
TORSDOF 17
