REMARK SMILES C[C@H](NC(=O)[C@@H]1CCCN(S(=O)(=O)c2ccc(Cl)cc2)C1)C(=O)NCCCNC(=O)c1ccc(-c2c3nc(c(-c4c(F)cc(S(=O)(=O)[O-])cc4F)c4ccc([nH]4)c(-c4c(F)cc(S(=O)(=O)[O-])cc4F)c4nc(c(-c5c(F)cc(S(=O)(=O)[O-])cc5F)c5ccc2[nH]5)C=C4)C=C3)cc1
REMARK SMILES IDX 25 1 24 2 22 3 23 4 2 6 1 7 3 8 4 9 5 11 6 12 7 13 21 14
REMARK SMILES IDX 8 15 10 16 9 17 11 18 12 19 13 20 14 21 15 22 20 23 16 24
REMARK SMILES IDX 19 25 17 26 18 27 26 28 27 29 28 30 29 31 30 33 31 34 32 35
REMARK SMILES IDX 96 36 33 37 95 38 34 39 35 40 36 41 89 42 37 43 94 44 88 45
REMARK SMILES IDX 90 46 38 47 93 48 87 49 86 50 39 52 73 53 52 54 72 55 53 56
REMARK SMILES IDX 56 57 71 58 91 59 54 60 55 61 70 63 92 64 57 65 40 66 41 67
REMARK SMILES IDX 50 68 42 69 43 70 49 71 51 72 44 73 45 74 46 75 47 76 48 77
REMARK SMILES IDX 74 78 75 79 84 80 76 81 77 82 83 83 85 84 78 85 79 86 80 87
REMARK SMILES IDX 81 88 82 89 58 90 59 91 68 92 60 93 61 94 67 95 69 96 62 97
REMARK SMILES IDX 63 98 64 99 65 100 66 101
REMARK H PARENT 24 5 3 10 28 32 90 51 56 62
REMARK Flexibility Score: inf
ROOT
ATOM      1  C   UNL     1      -1.373  -1.637  -0.345  1.00  0.00     0.117 C 
ENDROOT
BRANCH   1   2
ATOM      2  N   UNL     1      -1.925  -0.328  -0.060  1.00  0.00    -0.354 N 
ATOM      3  C   UNL     1      -1.345   0.896  -0.233  1.00  0.00     0.242 C 
ATOM      4  O   UNL     1      -2.037   1.901  -0.059  1.00  0.00    -0.273 OA
ATOM      5  H   UNL     1      -2.839  -0.321   0.306  1.00  0.00     0.163 HD
BRANCH   3   6
ATOM      6  C   UNL     1       0.071   0.991  -0.839  1.00  0.00     0.168 C 
ATOM      7  C   UNL     1      -0.095   0.701  -2.311  1.00  0.00     0.041 C 
BRANCH   6   8
ATOM      8  N   UNL     1       1.024   0.205  -0.031  1.00  0.00    -0.344 N 
ATOM      9  C   UNL     1       2.026  -0.686  -0.107  1.00  0.00     0.225 C 
ATOM     10  H   UNL     1       0.865   0.409   0.919  1.00  0.00     0.164 HD
ATOM     11  O   UNL     1       2.438  -1.040   1.012  1.00  0.00    -0.275 OA
BRANCH   9  12
ATOM     12  C   UNL     1       2.683  -1.343  -1.326  1.00  0.00     0.094 C 
ATOM     13  C   UNL     1       3.342  -0.456  -2.372  1.00  0.00     0.016 C 
ATOM     14  C   UNL     1       1.974  -2.583  -1.867  1.00  0.00     0.116 C 
ATOM     15  C   UNL     1       2.670  -0.412  -3.738  1.00  0.00     0.018 C 
ATOM     16  N   UNL     1       1.130  -2.293  -3.069  1.00  0.00    -0.197 NA
ATOM     17  C   UNL     1       1.945  -1.688  -4.169  1.00  0.00     0.102 C 
BRANCH  16  18
ATOM     18  S   UNL     1       0.186  -3.667  -3.577  1.00  0.00     0.243 S 
ATOM     19  O   UNL     1       0.698  -4.131  -4.844  1.00  0.00    -0.207 OA
ATOM     20  O   UNL     1       0.066  -4.545  -2.429  1.00  0.00    -0.207 OA
BRANCH  18  21
ATOM     21  C   UNL     1      -1.460  -3.032  -3.877  1.00  0.00     0.082 A 
ATOM     22  C   UNL     1      -1.675  -1.867  -4.615  1.00  0.00     0.023 A 
ATOM     23  C   UNL     1      -2.555  -3.738  -3.355  1.00  0.00     0.023 A 
ATOM     24  C   UNL     1      -2.981  -1.389  -4.792  1.00  0.00     0.022 A 
ATOM     25  C   UNL     1      -3.857  -3.253  -3.529  1.00  0.00     0.022 A 
ATOM     26  C   UNL     1      -4.064  -2.075  -4.238  1.00  0.00     0.041 A 
ATOM     27  Cl  UNL     1      -5.657  -1.458  -4.430  1.00  0.00    -0.084 Cl
ENDBRANCH  18  21
ENDBRANCH  16  18
ENDBRANCH   9  12
ENDBRANCH   6   8
ENDBRANCH   3   6
ENDBRANCH   1   2
BRANCH   1  28
ATOM     28  C   UNL     1      -1.438  -2.556   0.858  1.00  0.00     0.042 C 
BRANCH  28  29
ATOM     29  C   UNL     1      -2.860  -2.999   1.150  1.00  0.00     0.118 C 
BRANCH  29  30
ATOM     30  N   UNL     1      -3.430  -3.765   0.047  1.00  0.00    -0.352 N 
ATOM     31  C   UNL     1      -4.105  -4.958   0.083  1.00  0.00     0.251 C 
ATOM     32  H   UNL     1      -3.315  -3.370  -0.848  1.00  0.00     0.163 HD
ATOM     33  O   UNL     1      -4.341  -5.577  -0.948  1.00  0.00    -0.269 OA
BRANCH  31  34
ATOM     34  C   UNL     1      -4.538  -5.461   1.393  1.00  0.00     0.039 A 
ATOM     35  C   UNL     1      -4.310  -6.791   1.738  1.00  0.00     0.014 A 
ATOM     36  C   UNL     1      -5.112  -4.566   2.300  1.00  0.00     0.014 A 
ATOM     37  C   UNL     1      -4.616  -7.212   3.029  1.00  0.00     0.010 A 
ATOM     38  C   UNL     1      -5.293  -4.953   3.613  1.00  0.00     0.010 A 
ATOM     39  C   UNL     1      -5.077  -6.286   3.982  1.00  0.00    -0.014 A 
BRANCH  39  40
ATOM     40  C   UNL     1      -5.381  -6.690   5.372  1.00  0.00     0.031 A 
ATOM     41  C   UNL     1      -6.779  -6.515   5.899  1.00  0.00     0.074 A 
ATOM     42  C   UNL     1      -4.387  -7.135   6.163  1.00  0.00     0.049 A 
ATOM     43  N   UNL     1      -7.240  -6.735   7.101  1.00  0.00    -0.248 NA
ATOM     44  C   UNL     1      -7.785  -5.980   4.963  1.00  0.00     0.031 C 
ATOM     45  C   UNL     1      -2.982  -7.271   5.767  1.00  0.00     0.029 A 
ATOM     46  N   UNL     1      -4.404  -7.550   7.468  1.00  0.00    -0.354 N 
ATOM     47  C   UNL     1      -8.575  -6.350   7.068  1.00  0.00     0.074 A 
ATOM     48  C   UNL     1      -8.831  -5.808   5.754  1.00  0.00     0.031 C 
ATOM     49  C   UNL     1      -2.282  -7.774   6.795  1.00  0.00     0.029 A 
ATOM     50  C   UNL     1      -3.176  -7.956   7.933  1.00  0.00     0.049 A 
ATOM     51  H   UNL     1      -5.218  -7.557   8.021  1.00  0.00     0.167 HD
ATOM     52  C   UNL     1      -9.512  -6.473   8.036  1.00  0.00     0.037 A 
ATOM     53  C   UNL     1      -2.818  -8.422   9.144  1.00  0.00     0.037 A 
ATOM     54  C   UNL     1      -9.243  -7.045   9.327  1.00  0.00     0.049 A 
ATOM     55  C   UNL     1      -3.882  -8.568  10.198  1.00  0.00     0.074 A 
ATOM     56  C   UNL     1     -10.123  -7.276  10.368  1.00  0.00     0.029 A 
ATOM     57  N   UNL     1      -7.994  -7.479   9.753  1.00  0.00    -0.354 N 
ATOM     58  N   UNL     1      -5.158  -8.265  10.130  1.00  0.00    -0.248 NA
ATOM     59  C   UNL     1      -3.463  -9.132  11.486  1.00  0.00     0.031 C 
ATOM     60  C   UNL     1      -9.396  -7.801  11.442  1.00  0.00     0.029 A 
ATOM     61  C   UNL     1      -8.076  -7.960  11.048  1.00  0.00     0.049 A 
ATOM     62  H   UNL     1      -7.172  -7.450   9.213  1.00  0.00     0.167 HD
ATOM     63  C   UNL     1      -5.701  -8.632  11.356  1.00  0.00     0.074 A 
ATOM     64  C   UNL     1      -4.616  -9.195  12.136  1.00  0.00     0.031 C 
ATOM     65  C   UNL     1      -6.979  -8.518  11.799  1.00  0.00     0.037 A 
BRANCH  52  66
ATOM     66  C   UNL     1     -10.905  -5.992   7.726  1.00  0.00     0.058 A 
ATOM     67  C   UNL     1     -11.714  -6.628   6.770  1.00  0.00     0.135 A 
ATOM     68  C   UNL     1     -11.447  -4.891   8.409  1.00  0.00     0.135 A 
ATOM     69  F   UNL     1     -11.242  -7.672   6.069  1.00  0.00    -0.206 F 
ATOM     70  C   UNL     1     -12.996  -6.173   6.479  1.00  0.00     0.059 A 
ATOM     71  C   UNL     1     -12.740  -4.440   8.159  1.00  0.00     0.059 A 
ATOM     72  F   UNL     1     -10.718  -4.239   9.328  1.00  0.00    -0.206 F 
ATOM     73  C   UNL     1     -13.502  -5.079   7.183  1.00  0.00     0.060 A 
BRANCH  73  74
ATOM     74  S   UNL     1     -15.174  -4.514   6.806  1.00  0.00     0.124 S 
ATOM     75  O   UNL     1     -14.991  -3.922   5.484  1.00  0.00    -0.237 OA
ATOM     76  O   UNL     1     -15.938  -5.757   6.842  1.00  0.00    -0.237 OA
ATOM     77  O   UNL     1     -15.465  -3.570   7.880  1.00  0.00    -0.744 OA
ENDBRANCH  73  74
ENDBRANCH  52  66
BRANCH  53  78
ATOM     78  C   UNL     1      -1.408  -8.818   9.405  1.00  0.00     0.058 A 
ATOM     79  C   UNL     1      -1.058 -10.163   9.594  1.00  0.00     0.135 A 
ATOM     80  C   UNL     1      -0.379  -7.864   9.453  1.00  0.00     0.135 A 
ATOM     81  F   UNL     1      -2.005 -11.114   9.556  1.00  0.00    -0.206 F 
ATOM     82  C   UNL     1       0.254 -10.548   9.848  1.00  0.00     0.059 A 
ATOM     83  C   UNL     1       0.946  -8.227   9.675  1.00  0.00     0.059 A 
ATOM     84  F   UNL     1      -0.655  -6.566   9.256  1.00  0.00    -0.206 F 
ATOM     85  C   UNL     1       1.251  -9.571   9.885  1.00  0.00     0.060 A 
BRANCH  85  86
ATOM     86  S   UNL     1       2.956 -10.087  10.179  1.00  0.00     0.124 S 
ATOM     87  O   UNL     1       2.910 -10.467  11.586  1.00  0.00    -0.237 OA
ATOM     88  O   UNL     1       3.113 -11.182   9.226  1.00  0.00    -0.237 OA
ATOM     89  O   UNL     1       3.728  -8.886   9.875  1.00  0.00    -0.744 OA
ENDBRANCH  85  86
ENDBRANCH  53  78
BRANCH  65  90
ATOM     90  C   UNL     1      -7.277  -9.055  13.172  1.00  0.00     0.058 A 
ATOM     91  C   UNL     1      -6.795  -8.434  14.334  1.00  0.00     0.135 A 
ATOM     92  C   UNL     1      -8.083 -10.196  13.323  1.00  0.00     0.135 A 
ATOM     93  F   UNL     1      -6.019  -7.342  14.245  1.00  0.00    -0.206 F 
ATOM     94  C   UNL     1      -7.063  -8.951  15.597  1.00  0.00     0.059 A 
ATOM     95  C   UNL     1      -8.394 -10.709  14.577  1.00  0.00     0.059 A 
ATOM     96  F   UNL     1      -8.584 -10.819  12.244  1.00  0.00    -0.206 F 
ATOM     97  C   UNL     1      -7.862 -10.091  15.707  1.00  0.00     0.060 A 
BRANCH  97  98
ATOM     98  S   UNL     1      -8.204 -10.750  17.351  1.00  0.00     0.124 S 
ATOM     99  O   UNL     1      -6.917 -11.338  17.704  1.00  0.00    -0.237 OA
ATOM    100  O   UNL     1      -8.581  -9.552  18.095  1.00  0.00    -0.237 OA
ATOM    101  O   UNL     1      -9.286 -11.702  17.117  1.00  0.00    -0.744 OA
ENDBRANCH  97  98
ENDBRANCH  65  90
ENDBRANCH  39  40
ENDBRANCH  31  34
ENDBRANCH  29  30
ENDBRANCH  28  29
ENDBRANCH   1  28
TORSDOF 17
