REMARK SMILES NC(=O)c1ccccc1N[C@@H]1CCCCC[C@@H]1C(=O)NCCCNC(=O)c1ccc(-c2c3nc(c(-c4c(F)cc(S(=O)(=O)[O-])cc4F)c4ccc([nH]4)c(-c4c(F)cc(S(=O)(=O)[O-])cc4F)c4nc(c(-c5c(F)cc(S(=O)(=O)[O-])cc5F)c5ccc2[nH]5)C=C4)C=C3)cc1
REMARK SMILES IDX 21 1 20 2 18 3 19 4 17 6 11 7 10 9 9 11 4 12 5 13 6 14 8 15
REMARK SMILES IDX 7 16 2 17 1 18 3 21 16 22 15 23 14 24 13 25 12 26 22 28
REMARK SMILES IDX 23 29 24 30 25 31 26 33 27 34 28 35 92 36 29 37 91 38 30 39
REMARK SMILES IDX 31 40 32 41 85 42 33 43 90 44 84 45 86 46 34 47 89 48 83 49
REMARK SMILES IDX 82 50 35 52 69 53 48 54 68 55 49 56 52 57 67 58 87 59 50 60
REMARK SMILES IDX 51 61 66 63 88 64 53 65 36 66 37 67 46 68 38 69 39 70 45 71
REMARK SMILES IDX 47 72 40 73 41 74 42 75 43 76 44 77 70 78 71 79 80 80 72 81
REMARK SMILES IDX 73 82 79 83 81 84 74 85 75 86 76 87 77 88 78 89 54 90 55 91
REMARK SMILES IDX 64 92 56 93 57 94 63 95 65 96 58 97 59 98 60 99 61 100
REMARK SMILES IDX 62 101
REMARK H PARENT 20 5 10 10 1 19 1 20 24 32 86 51 52 62
REMARK Flexibility Score: 90.00
ROOT
ATOM      1  C   UNL     1       2.691   3.980   4.480  1.00  0.00     0.117 C 
ENDROOT
BRANCH   1   2
ATOM      2  N   UNL     1       1.812   2.825   4.535  1.00  0.00    -0.356 N 
ATOM      3  C   UNL     1       2.085   1.501   4.702  1.00  0.00     0.225 C 
ATOM      4  O   UNL     1       1.132   0.756   4.937  1.00  0.00    -0.275 OA
ATOM      5  H   UNL     1       0.856   3.035   4.435  1.00  0.00     0.163 HD
BRANCH   3   6
ATOM      6  C   UNL     1       3.518   0.987   4.615  1.00  0.00     0.101 C 
BRANCH   6   7
ATOM      7  C   UNL     1       3.869   0.489   3.192  1.00  0.00     0.091 CG0
ATOM      8  G   UNL     1       5.218  -0.214   2.971  1.00  0.00     0.000 G0
BRANCH   7   9
ATOM      9  N   UNL     1       2.789  -0.186   2.453  1.00  0.00    -0.381 N 
ATOM     10  H   UNL     1       2.475   0.293   1.652  1.00  0.00     0.160 HD
BRANCH   9  11
ATOM     11  C   UNL     1       2.142  -1.391   2.704  1.00  0.00     0.047 A 
ATOM     12  C   UNL     1       0.915  -1.712   2.065  1.00  0.00     0.062 A 
ATOM     13  C   UNL     1       0.198  -2.877   2.397  1.00  0.00     0.016 A 
ATOM     14  C   UNL     1       0.711  -3.780   3.320  1.00  0.00     0.001 A 
ATOM     15  C   UNL     1       2.658  -2.366   3.565  1.00  0.00     0.026 A 
ATOM     16  C   UNL     1       1.953  -3.535   3.886  1.00  0.00     0.002 A 
BRANCH  12  17
ATOM     17  C   UNL     1       0.297  -0.868   1.003  1.00  0.00     0.250 C 
ATOM     18  N   UNL     1       1.154  -0.261   0.125  1.00  0.00    -0.366 N 
ATOM     19  H   UNL     1       0.799   0.307  -0.596  1.00  0.00     0.159 HD
ATOM     20  H   UNL     1       2.126  -0.394   0.214  1.00  0.00     0.159 HD
ATOM     21  O   UNL     1      -0.915  -0.770   0.868  1.00  0.00    -0.269 OA
ENDBRANCH  12  17
ENDBRANCH   9  11
ENDBRANCH   7   9
ENDBRANCH   6   7
BRANCH   6  22
ATOM     22  C   UNL     1       3.788   0.062   5.808  1.00  0.00     0.015 C 
BRANCH  22  23
ATOM     23  C   UNL     1       5.246   0.067   6.263  1.00  0.00     0.001 C 
BRANCH  23  24
ATOM     24  C   UNL     1       6.234  -0.552   5.284  1.00  0.00     0.000 C 
BRANCH  24  25
ATOM     25  C   UNL     1       6.336   0.163   3.938  1.00  0.00     0.002 C 
BRANCH  25  26
ATOM     26  C   UNL     1       5.218  -0.214   2.971  1.00  0.00     0.025 CG0
ATOM     27  G   UNL     1       3.869   0.489   3.192  1.00  0.00     0.000 G0
ENDBRANCH  25  26
ENDBRANCH  24  25
ENDBRANCH  23  24
ENDBRANCH  22  23
ENDBRANCH   6  22
ENDBRANCH   3   6
ENDBRANCH   1   2
BRANCH   1  28
ATOM     28  C   UNL     1       2.527   4.777   3.195  1.00  0.00     0.042 C 
BRANCH  28  29
ATOM     29  C   UNL     1       1.127   5.339   2.976  1.00  0.00     0.118 C 
BRANCH  29  30
ATOM     30  N   UNL     1       0.708   6.252   4.032  1.00  0.00    -0.352 N 
ATOM     31  C   UNL     1       0.359   7.579   3.974  1.00  0.00     0.251 C 
ATOM     32  H   UNL     1       0.669   5.853   4.931  1.00  0.00     0.163 HD
ATOM     33  O   UNL     1       0.201   8.206   5.018  1.00  0.00    -0.269 OA
BRANCH  31  34
ATOM     34  C   UNL     1       0.200   8.260   2.670  1.00  0.00     0.039 A 
ATOM     35  C   UNL     1       0.714   9.552   2.517  1.00  0.00     0.014 A 
ATOM     36  C   UNL     1      -0.463   7.643   1.607  1.00  0.00     0.014 A 
ATOM     37  C   UNL     1       0.631  10.190   1.276  1.00  0.00     0.010 A 
ATOM     38  C   UNL     1      -0.475   8.246   0.352  1.00  0.00     0.010 A 
ATOM     39  C   UNL     1       0.072   9.525   0.173  1.00  0.00    -0.014 A 
BRANCH  39  40
ATOM     40  C   UNL     1       0.061  10.141  -1.179  1.00  0.00     0.031 A 
ATOM     41  C   UNL     1      -1.243  10.439  -1.866  1.00  0.00     0.074 A 
ATOM     42  C   UNL     1       1.226  10.345  -1.826  1.00  0.00     0.049 A 
ATOM     43  N   UNL     1      -1.456  10.880  -3.079  1.00  0.00    -0.248 NA
ATOM     44  C   UNL     1      -2.471  10.175  -1.100  1.00  0.00     0.031 C 
ATOM     45  C   UNL     1       2.555  10.037  -1.293  1.00  0.00     0.029 A 
ATOM     46  N   UNL     1       1.480  10.839  -3.082  1.00  0.00    -0.354 N 
ATOM     47  C   UNL     1      -2.837  10.920  -3.232  1.00  0.00     0.074 A 
ATOM     48  C   UNL     1      -3.411  10.419  -2.001  1.00  0.00     0.031 C 
ATOM     49  C   UNL     1       3.482  10.354  -2.211  1.00  0.00     0.029 A 
ATOM     50  C   UNL     1       2.816  10.855  -3.409  1.00  0.00     0.049 A 
ATOM     51  H   UNL     1       0.773  11.152  -3.690  1.00  0.00     0.167 HD
ATOM     52  C   UNL     1      -3.560  11.352  -4.293  1.00  0.00     0.037 A 
ATOM     53  C   UNL     1       3.435  11.217  -4.549  1.00  0.00     0.037 A 
ATOM     54  C   UNL     1      -2.983  11.884  -5.499  1.00  0.00     0.049 A 
ATOM     55  C   UNL     1       2.615  11.728  -5.701  1.00  0.00     0.074 A 
ATOM     56  C   UNL     1      -3.630  12.431  -6.594  1.00  0.00     0.029 A 
ATOM     57  N   UNL     1      -1.624  11.933  -5.773  1.00  0.00    -0.354 N 
ATOM     58  N   UNL     1       1.312  11.838  -5.796  1.00  0.00    -0.248 NA
ATOM     59  C   UNL     1       3.347  12.172  -6.894  1.00  0.00     0.031 C 
ATOM     60  C   UNL     1      -2.663  12.773  -7.547  1.00  0.00     0.029 A 
ATOM     61  C   UNL     1      -1.412  12.479  -7.028  1.00  0.00     0.049 A 
ATOM     62  H   UNL     1      -0.914  11.624  -5.164  1.00  0.00     0.167 HD
ATOM     63  C   UNL     1       1.067  12.381  -7.053  1.00  0.00     0.074 A 
ATOM     64  C   UNL     1       2.359  12.589  -7.676  1.00  0.00     0.031 C 
ATOM     65  C   UNL     1      -0.120  12.681  -7.635  1.00  0.00     0.037 A 
BRANCH  52  66
ATOM     66  C   UNL     1      -5.058  11.264  -4.194  1.00  0.00     0.058 A 
ATOM     67  C   UNL     1      -5.793  12.099  -3.337  1.00  0.00     0.135 A 
ATOM     68  C   UNL     1      -5.771  10.344  -4.980  1.00  0.00     0.135 A 
ATOM     69  F   UNL     1      -5.161  12.988  -2.554  1.00  0.00    -0.206 F 
ATOM     70  C   UNL     1      -7.177  11.999  -3.233  1.00  0.00     0.059 A 
ATOM     71  C   UNL     1      -7.158  10.246  -4.913  1.00  0.00     0.059 A 
ATOM     72  F   UNL     1      -5.120   9.523  -5.818  1.00  0.00    -0.206 F 
ATOM     73  C   UNL     1      -7.850  11.066  -4.022  1.00  0.00     0.060 A 
BRANCH  73  74
ATOM     74  S   UNL     1      -9.644  10.939  -3.869  1.00  0.00     0.124 S 
ATOM     75  O   UNL     1      -9.778  10.234  -2.598  1.00  0.00    -0.237 OA
ATOM     76  O   UNL     1     -10.058  12.339  -3.863  1.00  0.00    -0.237 OA
ATOM     77  O   UNL     1     -10.034  10.179  -5.053  1.00  0.00    -0.744 OA
ENDBRANCH  73  74
ENDBRANCH  52  66
BRANCH  53  78
ATOM     78  C   UNL     1       4.915  11.121  -4.641  1.00  0.00     0.058 A 
ATOM     79  C   UNL     1       5.717  12.270  -4.610  1.00  0.00     0.135 A 
ATOM     80  C   UNL     1       5.558   9.875  -4.716  1.00  0.00     0.135 A 
ATOM     81  F   UNL     1       5.148  13.483  -4.545  1.00  0.00    -0.206 F 
ATOM     82  C   UNL     1       7.106  12.191  -4.653  1.00  0.00     0.059 A 
ATOM     83  C   UNL     1       6.945   9.769  -4.738  1.00  0.00     0.059 A 
ATOM     84  F   UNL     1       4.835   8.745  -4.730  1.00  0.00    -0.206 F 
ATOM     85  C   UNL     1       7.711  10.934  -4.711  1.00  0.00     0.060 A 
BRANCH  85  86
ATOM     86  S   UNL     1       9.514  10.837  -4.686  1.00  0.00     0.124 S 
ATOM     87  O   UNL     1       9.850  11.252  -6.042  1.00  0.00    -0.237 OA
ATOM     88  O   UNL     1       9.858  11.778  -3.624  1.00  0.00    -0.237 OA
ATOM     89  O   UNL     1       9.769   9.434  -4.372  1.00  0.00    -0.744 OA
ENDBRANCH  85  86
ENDBRANCH  53  78
BRANCH  65  90
ATOM     90  C   UNL     1      -0.082  13.288  -9.010  1.00  0.00     0.058 A 
ATOM     91  C   UNL     1       0.218  12.519 -10.145  1.00  0.00     0.135 A 
ATOM     92  C   UNL     1      -0.409  14.640  -9.199  1.00  0.00     0.135 A 
ATOM     93  F   UNL     1       0.544  11.224 -10.017  1.00  0.00    -0.206 F 
ATOM     94  C   UNL     1       0.210  13.075 -11.420  1.00  0.00     0.059 A 
ATOM     95  C   UNL     1      -0.447  15.211 -10.467  1.00  0.00     0.059 A 
ATOM     96  F   UNL     1      -0.712  15.416  -8.146  1.00  0.00    -0.206 F 
ATOM     97  C   UNL     1      -0.126  14.422 -11.571  1.00  0.00     0.060 A 
BRANCH  97  98
ATOM     98  S   UNL     1      -0.173  15.123 -13.235  1.00  0.00     0.124 S 
ATOM     99  O   UNL     1       1.248  15.268 -13.532  1.00  0.00    -0.237 OA
ATOM    100  O   UNL     1      -0.877  14.092 -13.990  1.00  0.00    -0.237 OA
ATOM    101  O   UNL     1      -0.909  16.372 -13.056  1.00  0.00    -0.744 OA
ENDBRANCH  97  98
ENDBRANCH  65  90
ENDBRANCH  39  40
ENDBRANCH  31  34
ENDBRANCH  29  30
ENDBRANCH  28  29
ENDBRANCH   1  28
TORSDOF 16
