REMARK SMILES O=C(NCCCNC(=O)c1cc(-c2ccc(Cl)cc2)nc2c3c(C4CC4)cc(C(F)(F)F)nc3nn12)c1ccc(-c2c3nc(c(-c4c(F)cc(S(=O)(=O)[O-])cc4F)c4ccc([nH]4)c(-c4c(F)cc(S(=O)(=O)[O-])cc4F)c4nc(c(-c5c(F)cc(S(=O)(=O)[O-])cc5F)c5ccc2[nH]5)C=C4)C=C3)cc1
REMARK SMILES IDX 4 1 3 2 1 3 2 4 37 6 38 7 102 8 39 9 101 10 40 11 41 12
REMARK SMILES IDX 42 13 95 14 43 15 100 16 94 17 96 18 44 19 99 20 93 21 92 22
REMARK SMILES IDX 45 24 79 25 58 26 78 27 59 28 62 29 77 30 97 31 60 32 61 33
REMARK SMILES IDX 76 35 98 36 63 37 46 38 47 39 56 40 48 41 49 42 55 43 57 44
REMARK SMILES IDX 50 45 51 46 52 47 53 48 54 49 80 50 81 51 90 52 82 53 83 54
REMARK SMILES IDX 89 55 91 56 84 57 85 58 86 59 87 60 88 61 64 62 65 63 74 64
REMARK SMILES IDX 66 65 67 66 73 67 75 68 68 69 69 70 70 71 71 72 72 73 5 74
REMARK SMILES IDX 6 75 7 76 8 77 9 79 10 80 11 81 36 82 12 83 21 84 35 85
REMARK SMILES IDX 20 86 22 87 34 88 23 89 33 90 27 91 28 92 13 93 14 94 19 95
REMARK SMILES IDX 15 96 18 97 16 98 17 99 24 100 25 101 26 102 29 103 30 104
REMARK SMILES IDX 31 105 32 106
REMARK H PARENT 3 5 96 23 62 34 7 78
REMARK Flexibility Score: inf
ROOT
ATOM      1  C   UNL     1       4.674  -1.054  -0.846  1.00  0.00     0.118 C 
ENDROOT
BRANCH   1   2
ATOM      2  N   UNL     1       3.356  -0.487  -0.613  1.00  0.00    -0.352 N 
ATOM      3  O   UNL     1       1.844   0.837   0.427  1.00  0.00    -0.269 OA
ATOM      4  C   UNL     1       3.012   0.532   0.245  1.00  0.00     0.251 C 
ATOM      5  H   UNL     1       2.619  -0.881  -1.134  1.00  0.00     0.163 HD
BRANCH   4   6
ATOM      6  C   UNL     1       4.094   1.233   0.958  1.00  0.00     0.039 A 
ATOM      7  C   UNL     1       5.064   1.935   0.234  1.00  0.00     0.014 A 
ATOM      8  C   UNL     1       4.154   1.147   2.348  1.00  0.00     0.014 A 
ATOM      9  C   UNL     1       6.142   2.502   0.903  1.00  0.00     0.010 A 
ATOM     10  C   UNL     1       5.224   1.736   3.018  1.00  0.00     0.010 A 
ATOM     11  C   UNL     1       6.221   2.413   2.299  1.00  0.00    -0.014 A 
BRANCH  11  12
ATOM     12  C   UNL     1       7.284   3.175   2.974  1.00  0.00     0.031 A 
ATOM     13  C   UNL     1       6.809   4.101   4.036  1.00  0.00     0.074 A 
ATOM     14  C   UNL     1       8.571   2.774   3.006  1.00  0.00     0.049 A 
ATOM     15  N   UNL     1       6.559   3.689   5.243  1.00  0.00    -0.248 NA
ATOM     16  C   UNL     1       6.330   5.453   3.754  1.00  0.00     0.031 C 
ATOM     17  C   UNL     1       8.999   1.376   2.893  1.00  0.00     0.029 A 
ATOM     18  N   UNL     1       9.709   3.453   3.368  1.00  0.00    -0.354 N 
ATOM     19  C   UNL     1       5.834   4.682   5.867  1.00  0.00     0.074 A 
ATOM     20  C   UNL     1       5.739   5.770   4.917  1.00  0.00     0.031 C 
ATOM     21  C   UNL     1      10.261   1.277   3.362  1.00  0.00     0.029 A 
ATOM     22  C   UNL     1      10.784   2.612   3.643  1.00  0.00     0.049 A 
ATOM     23  H   UNL     1       9.759   4.434   3.427  1.00  0.00     0.167 HD
ATOM     24  C   UNL     1       5.324   4.544   7.117  1.00  0.00     0.037 A 
ATOM     25  C   UNL     1      11.770   2.863   4.548  1.00  0.00     0.037 A 
ATOM     26  C   UNL     1       5.595   3.299   7.771  1.00  0.00     0.049 A 
ATOM     27  C   UNL     1      11.000   2.916   5.842  1.00  0.00     0.074 A 
ATOM     28  C   UNL     1       4.963   2.084   7.924  1.00  0.00     0.029 A 
ATOM     29  N   UNL     1       6.830   3.131   8.355  1.00  0.00    -0.354 N 
ATOM     30  N   UNL     1      10.607   1.881   6.536  1.00  0.00    -0.248 NA
ATOM     31  C   UNL     1      10.348   4.176   6.208  1.00  0.00     0.031 C 
ATOM     32  C   UNL     1       6.006   1.138   8.182  1.00  0.00     0.029 A 
ATOM     33  C   UNL     1       7.212   1.833   8.116  1.00  0.00     0.049 A 
ATOM     34  H   UNL     1       7.341   3.811   8.849  1.00  0.00     0.167 HD
ATOM     35  C   UNL     1       9.475   2.307   7.233  1.00  0.00     0.074 A 
ATOM     36  C   UNL     1       9.388   3.736   7.010  1.00  0.00     0.031 C 
ATOM     37  C   UNL     1       8.572   1.454   7.796  1.00  0.00     0.037 A 
BRANCH  24  38
ATOM     38  C   UNL     1       4.655   5.636   7.842  1.00  0.00     0.058 A 
ATOM     39  C   UNL     1       5.411   6.392   8.747  1.00  0.00     0.135 A 
ATOM     40  C   UNL     1       3.274   5.849   7.779  1.00  0.00     0.135 A 
ATOM     41  F   UNL     1       6.738   6.202   8.834  1.00  0.00    -0.206 F 
ATOM     42  C   UNL     1       4.814   7.311   9.595  1.00  0.00     0.059 A 
ATOM     43  C   UNL     1       2.652   6.769   8.619  1.00  0.00     0.059 A 
ATOM     44  F   UNL     1       2.517   5.141   6.926  1.00  0.00    -0.206 F 
ATOM     45  C   UNL     1       3.430   7.480   9.536  1.00  0.00     0.060 A 
BRANCH  45  46
ATOM     46  S   UNL     1       2.671   8.620  10.711  1.00  0.00     0.124 S 
ATOM     47  O   UNL     1       3.011   8.003  11.989  1.00  0.00    -0.237 OA
ATOM     48  O   UNL     1       3.361   9.868  10.403  1.00  0.00    -0.237 OA
ATOM     49  O   UNL     1       1.256   8.584  10.354  1.00  0.00    -0.744 OA
ENDBRANCH  45  46
ENDBRANCH  24  38
BRANCH  25  50
ATOM     50  C   UNL     1      12.772   3.899   4.131  1.00  0.00     0.058 A 
ATOM     51  C   UNL     1      13.367   3.785   2.855  1.00  0.00     0.135 A 
ATOM     52  C   UNL     1      13.196   4.989   4.908  1.00  0.00     0.135 A 
ATOM     53  F   UNL     1      13.122   2.710   2.086  1.00  0.00    -0.206 F 
ATOM     54  C   UNL     1      14.213   4.759   2.331  1.00  0.00     0.059 A 
ATOM     55  C   UNL     1      14.023   5.993   4.397  1.00  0.00     0.059 A 
ATOM     56  F   UNL     1      12.810   5.123   6.184  1.00  0.00    -0.206 F 
ATOM     57  C   UNL     1      14.505   5.882   3.097  1.00  0.00     0.060 A 
BRANCH  57  58
ATOM     58  S   UNL     1      15.478   7.206   2.350  1.00  0.00     0.124 S 
ATOM     59  O   UNL     1      16.776   6.564   2.176  1.00  0.00    -0.237 OA
ATOM     60  O   UNL     1      14.731   7.472   1.125  1.00  0.00    -0.237 OA
ATOM     61  O   UNL     1      15.428   8.268   3.350  1.00  0.00    -0.744 OA
ENDBRANCH  57  58
ENDBRANCH  25  50
BRANCH  37  62
ATOM     62  C   UNL     1       8.966   0.015   7.834  1.00  0.00     0.058 A 
ATOM     63  C   UNL     1       9.910  -0.431   8.769  1.00  0.00     0.135 A 
ATOM     64  C   UNL     1       8.363  -0.941   7.002  1.00  0.00     0.135 A 
ATOM     65  F   UNL     1      10.513   0.443   9.593  1.00  0.00    -0.206 F 
ATOM     66  C   UNL     1      10.213  -1.782   8.906  1.00  0.00     0.059 A 
ATOM     67  C   UNL     1       8.636  -2.300   7.135  1.00  0.00     0.059 A 
ATOM     68  F   UNL     1       7.465  -0.574   6.072  1.00  0.00    -0.206 F 
ATOM     69  C   UNL     1       9.556  -2.712   8.098  1.00  0.00     0.060 A 
BRANCH  69  70
ATOM     70  S   UNL     1       9.856  -4.469   8.380  1.00  0.00     0.124 S 
ATOM     71  O   UNL     1      11.222  -4.628   7.893  1.00  0.00    -0.237 OA
ATOM     72  O   UNL     1       9.679  -4.587   9.825  1.00  0.00    -0.237 OA
ATOM     73  O   UNL     1       8.827  -5.126   7.578  1.00  0.00    -0.744 OA
ENDBRANCH  69  70
ENDBRANCH  37  62
ENDBRANCH  11  12
ENDBRANCH   4   6
ENDBRANCH   1   2
BRANCH   1  74
ATOM     74  C   UNL     1       4.961  -2.249   0.056  1.00  0.00     0.042 C 
BRANCH  74  75
ATOM     75  C   UNL     1       4.312  -3.532  -0.449  1.00  0.00     0.118 C 
BRANCH  75  76
ATOM     76  N   UNL     1       4.853  -3.928  -1.748  1.00  0.00    -0.351 N 
ATOM     77  C   UNL     1       5.655  -4.974  -2.088  1.00  0.00     0.270 C 
ATOM     78  H   UNL     1       4.594  -3.345  -2.498  1.00  0.00     0.163 HD
ATOM     79  O   UNL     1       6.138  -5.033  -3.217  1.00  0.00    -0.268 OA
BRANCH  77  80
ATOM     80  C   UNL     1       5.982  -5.992  -1.076  1.00  0.00     0.134 A 
ATOM     81  C   UNL     1       7.283  -6.195  -0.828  1.00  0.00     0.063 A 
ATOM     82  N   UNL     1       5.006  -6.715  -0.400  1.00  0.00    -0.207 N 
ATOM     83  C   UNL     1       7.580  -7.254   0.183  1.00  0.00     0.075 A 
ATOM     84  C   UNL     1       5.368  -7.605   0.628  1.00  0.00     0.166 A 
ATOM     85  N   UNL     1       3.662  -6.651  -0.574  1.00  0.00    -0.145 NA
ATOM     86  N   UNL     1       6.686  -7.926   0.853  1.00  0.00    -0.228 NA
ATOM     87  C   UNL     1       4.180  -7.891   1.275  1.00  0.00     0.069 A 
ATOM     88  C   UNL     1       3.168  -7.264   0.490  1.00  0.00     0.184 A 
ATOM     89  C   UNL     1       3.984  -8.601   2.468  1.00  0.00    -0.028 A 
ATOM     90  N   UNL     1       1.857  -7.290   0.821  1.00  0.00    -0.222 NA
ATOM     91  C   UNL     1       2.611  -8.574   2.803  1.00  0.00     0.038 A 
ATOM     92  C   UNL     1       1.615  -7.942   2.001  1.00  0.00     0.147 A 
BRANCH  83  93
ATOM     93  C   UNL     1       9.024  -7.551   0.343  1.00  0.00     0.000 A 
ATOM     94  C   UNL     1       9.473  -8.854   0.111  1.00  0.00     0.012 A 
ATOM     95  C   UNL     1       9.934  -6.531   0.648  1.00  0.00     0.012 A 
ATOM     96  C   UNL     1      10.842  -9.130   0.145  1.00  0.00     0.021 A 
ATOM     97  C   UNL     1      11.302  -6.814   0.690  1.00  0.00     0.021 A 
ATOM     98  C   UNL     1      11.751  -8.108   0.427  1.00  0.00     0.041 A 
ATOM     99  Cl  UNL     1      13.438  -8.448   0.431  1.00  0.00    -0.084 Cl
ENDBRANCH  83  93
BRANCH  89 100
ATOM    100  C   UNL     1       5.093  -9.244   3.236  1.00  0.00     0.020 C 
ATOM    101  C   UNL     1       4.862  -9.998   4.525  1.00  0.00     0.009 C 
ATOM    102  C   UNL     1       5.166 -10.754   3.267  1.00  0.00     0.009 C 
ENDBRANCH  89 100
BRANCH  92 103
ATOM    103  C   UNL     1       0.167  -7.967   2.480  1.00  0.00     0.433 C 
ATOM    104  F   UNL     1      -0.300  -6.736   2.834  1.00  0.00    -0.165 F 
ATOM    105  F   UNL     1      -0.699  -8.440   1.537  1.00  0.00    -0.165 F 
ATOM    106  F   UNL     1      -0.032  -8.761   3.575  1.00  0.00    -0.165 F 
ENDBRANCH  92 103
ENDBRANCH  77  80
ENDBRANCH  75  76
ENDBRANCH  74  75
ENDBRANCH   1  74
TORSDOF 16
