REMARK SMILES COc1ccc([N+](=O)[O-])cc1C(=O)N[C@@H](Cc1c[nH]c2ccccc12)C(=O)NCCCNC(=O)c1ccc(-c2c3nc(c(-c4c(F)cc(S(=O)(=O)[O-])cc4F)c4ccc([nH]4)c(-c4c(F)cc(S(=O)(=O)[O-])cc4F)c4nc(c(-c5c(F)cc(S(=O)(=O)[O-])cc5F)c5ccc2[nH]5)C=C4)C=C3)cc1
REMARK SMILES IDX 30 1 29 2 28 3 26 4 27 5 15 7 14 8 12 9 13 10 11 12 3 13
REMARK SMILES IDX 4 14 5 15 10 16 6 17 2 18 1 19 7 20 8 21 9 22 16 23 17 24
REMARK SMILES IDX 18 25 25 26 19 27 20 28 24 29 21 31 23 32 22 33 31 34 32 35
REMARK SMILES IDX 33 36 34 38 35 39 36 40 100 41 37 42 99 43 38 44 39 45 40 46
REMARK SMILES IDX 93 47 41 48 98 49 92 50 94 51 42 52 97 53 91 54 90 55 43 57
REMARK SMILES IDX 77 58 56 59 76 60 57 61 60 62 75 63 95 64 58 65 59 66 74 68
REMARK SMILES IDX 96 69 61 70 44 71 45 72 54 73 46 74 47 75 53 76 55 77 48 78
REMARK SMILES IDX 49 79 50 80 51 81 52 82 78 83 79 84 88 85 80 86 81 87 87 88
REMARK SMILES IDX 89 89 82 90 83 91 84 92 85 93 86 94 62 95 63 96 72 97 64 98
REMARK SMILES IDX 65 99 71 100 73 101 66 102 67 103 68 104 69 105 70 106
REMARK H PARENT 28 6 14 11 19 30 32 37 94 56 60 67
REMARK Flexibility Score: inf
ROOT
ATOM      1  C   UNL     1       2.952   2.288  -3.190  1.00  0.00     0.042 C 
ENDROOT
BRANCH   1   2
ATOM      2  C   UNL     1       2.082   2.862  -2.062  1.00  0.00     0.117 C 
BRANCH   2   3
ATOM      3  N   UNL     1       1.118   1.917  -1.531  1.00  0.00    -0.354 N 
ATOM      4  C   UNL     1       0.949   1.390  -0.283  1.00  0.00     0.242 C 
ATOM      5  O   UNL     1      -0.246   1.272   0.029  1.00  0.00    -0.273 OA
ATOM      6  H   UNL     1       0.464   1.596  -2.193  1.00  0.00     0.163 HD
BRANCH   4   7
ATOM      7  C   UNL     1       2.061   0.788   0.657  1.00  0.00     0.176 C 
BRANCH   7   8
ATOM      8  N   UNL     1       2.568  -0.455   0.035  1.00  0.00    -0.340 N 
ATOM      9  C   UNL     1       2.524  -1.796   0.303  1.00  0.00     0.255 C 
ATOM     10  O   UNL     1       3.157  -2.532  -0.461  1.00  0.00    -0.269 OA
ATOM     11  H   UNL     1       3.071  -0.268  -0.790  1.00  0.00     0.164 HD
BRANCH   9  12
ATOM     12  C   UNL     1       1.795  -2.474   1.409  1.00  0.00     0.088 A 
ATOM     13  C   UNL     1       0.459  -2.242   1.750  1.00  0.00     0.132 A 
ATOM     14  C   UNL     1      -0.209  -3.056   2.682  1.00  0.00     0.054 A 
ATOM     15  C   UNL     1       0.413  -4.183   3.211  1.00  0.00     0.089 A 
ATOM     16  C   UNL     1       2.425  -3.614   1.962  1.00  0.00     0.103 A 
ATOM     17  C   UNL     1       1.728  -4.470   2.833  1.00  0.00     0.270 A 
BRANCH  13  18
ATOM     18  O   UNL     1      -0.290  -1.255   1.181  1.00  0.00    -0.496 OA
ATOM     19  C   UNL     1      -0.937  -1.738   0.001  1.00  0.00     0.278 C 
ENDBRANCH  13  18
BRANCH  17  20
ATOM     20  N   UNL     1       2.350  -5.716   3.305  1.00  0.00     0.062 N 
ATOM     21  O   UNL     1       1.626  -6.529   3.900  1.00  0.00    -0.258 OA
ATOM     22  O   UNL     1       3.555  -5.884   3.081  1.00  0.00    -0.258 OA
ENDBRANCH  17  20
ENDBRANCH   9  12
ENDBRANCH   7   8
BRANCH   7  23
ATOM     23  C   UNL     1       3.189   1.733   1.225  1.00  0.00     0.072 C 
BRANCH  23  24
ATOM     24  C   UNL     1       4.490   1.629   0.486  1.00  0.00    -0.020 A 
ATOM     25  C   UNL     1       4.817   2.098  -0.763  1.00  0.00     0.087 A 
ATOM     26  C   UNL     1       5.756   1.067   0.813  1.00  0.00     0.003 A 
ATOM     27  N   UNL     1       5.373   0.988  -1.347  1.00  0.00    -0.361 N 
ATOM     28  C   UNL     1       6.135   0.416  -0.363  1.00  0.00     0.046 A 
ATOM     29  C   UNL     1       6.661   1.054   1.885  1.00  0.00     0.010 A 
ATOM     30  H   UNL     1       5.251   0.671  -2.271  1.00  0.00     0.166 HD
ATOM     31  C   UNL     1       7.181  -0.485  -0.468  1.00  0.00     0.026 A 
ATOM     32  C   UNL     1       7.871   0.360   1.704  1.00  0.00     0.001 A 
ATOM     33  C   UNL     1       8.088  -0.452   0.585  1.00  0.00     0.002 A 
ENDBRANCH  23  24
ENDBRANCH   7  23
ENDBRANCH   4   7
ENDBRANCH   2   3
ENDBRANCH   1   2
BRANCH   1  34
ATOM     34  C   UNL     1       2.381   2.424  -4.596  1.00  0.00     0.118 C 
BRANCH  34  35
ATOM     35  N   UNL     1       2.389   3.807  -5.056  1.00  0.00    -0.352 N 
ATOM     36  C   UNL     1       3.337   4.554  -5.717  1.00  0.00     0.251 C 
ATOM     37  H   UNL     1       1.560   4.299  -4.856  1.00  0.00     0.163 HD
ATOM     38  O   UNL     1       3.201   5.777  -5.728  1.00  0.00    -0.269 OA
BRANCH  36  39
ATOM     39  C   UNL     1       4.507   3.949  -6.403  1.00  0.00     0.039 A 
ATOM     40  C   UNL     1       5.709   4.671  -6.449  1.00  0.00     0.014 A 
ATOM     41  C   UNL     1       4.417   2.745  -7.103  1.00  0.00     0.014 A 
ATOM     42  C   UNL     1       6.815   4.170  -7.150  1.00  0.00     0.010 A 
ATOM     43  C   UNL     1       5.542   2.208  -7.734  1.00  0.00     0.010 A 
ATOM     44  C   UNL     1       6.750   2.919  -7.781  1.00  0.00    -0.014 A 
BRANCH  44  45
ATOM     45  C   UNL     1       7.913   2.349  -8.518  1.00  0.00     0.031 A 
ATOM     46  C   UNL     1       7.809   2.064  -9.996  1.00  0.00     0.074 A 
ATOM     47  C   UNL     1       9.035   2.012  -7.850  1.00  0.00     0.049 A 
ATOM     48  N   UNL     1       8.654   1.450 -10.784  1.00  0.00    -0.248 NA
ATOM     49  C   UNL     1       6.575   2.500 -10.669  1.00  0.00     0.031 C 
ATOM     50  C   UNL     1       9.252   2.197  -6.413  1.00  0.00     0.029 A 
ATOM     51  N   UNL     1      10.198   1.427  -8.285  1.00  0.00    -0.354 N 
ATOM     52  C   UNL     1       8.042   1.396 -12.033  1.00  0.00     0.074 A 
ATOM     53  C   UNL     1       6.737   2.003 -11.887  1.00  0.00     0.031 C 
ATOM     54  C   UNL     1      10.475   1.748  -6.090  1.00  0.00     0.029 A 
ATOM     55  C   UNL     1      11.116   1.207  -7.284  1.00  0.00     0.049 A 
ATOM     56  H   UNL     1      10.360   1.187  -9.226  1.00  0.00     0.167 HD
ATOM     57  C   UNL     1       8.530   0.905 -13.199  1.00  0.00     0.037 A 
ATOM     58  C   UNL     1      12.331   0.625  -7.319  1.00  0.00     0.037 A 
ATOM     59  C   UNL     1       9.848   0.347 -13.350  1.00  0.00     0.049 A 
ATOM     60  C   UNL     1      12.861   0.107  -8.629  1.00  0.00     0.074 A 
ATOM     61  C   UNL     1      10.463  -0.110 -14.503  1.00  0.00     0.029 A 
ATOM     62  N   UNL     1      10.759   0.176 -12.318  1.00  0.00    -0.354 N 
ATOM     63  N   UNL     1      12.286   0.110  -9.808  1.00  0.00    -0.248 NA
ATOM     64  C   UNL     1      14.203  -0.491  -8.614  1.00  0.00     0.031 C 
ATOM     65  C   UNL     1      11.734  -0.587 -14.162  1.00  0.00     0.029 A 
ATOM     66  C   UNL     1      11.924  -0.393 -12.803  1.00  0.00     0.049 A 
ATOM     67  H   UNL     1      10.600   0.423 -11.378  1.00  0.00     0.167 HD
ATOM     68  C   UNL     1      13.203  -0.469 -10.678  1.00  0.00     0.074 A 
ATOM     69  C   UNL     1      14.376  -0.796  -9.893  1.00  0.00     0.031 C 
ATOM     70  C   UNL     1      13.084  -0.708 -12.007  1.00  0.00     0.037 A 
BRANCH  57  71
ATOM     71  C   UNL     1       7.634   0.957 -14.408  1.00  0.00     0.058 A 
ATOM     72  C   UNL     1       7.325   2.169 -15.045  1.00  0.00     0.135 A 
ATOM     73  C   UNL     1       7.103  -0.222 -14.956  1.00  0.00     0.135 A 
ATOM     74  F   UNL     1       7.796   3.328 -14.557  1.00  0.00    -0.206 F 
ATOM     75  C   UNL     1       6.493   2.216 -16.159  1.00  0.00     0.059 A 
ATOM     76  C   UNL     1       6.289  -0.203 -16.087  1.00  0.00     0.059 A 
ATOM     77  F   UNL     1       7.368  -1.411 -14.391  1.00  0.00    -0.206 F 
ATOM     78  C   UNL     1       5.976   1.025 -16.670  1.00  0.00     0.060 A 
BRANCH  78  79
ATOM     79  S   UNL     1       4.893   1.094 -18.113  1.00  0.00     0.124 S 
ATOM     80  O   UNL     1       3.655   1.605 -17.518  1.00  0.00    -0.237 OA
ATOM     81  O   UNL     1       5.600   2.035 -18.988  1.00  0.00    -0.237 OA
ATOM     82  O   UNL     1       4.848  -0.275 -18.578  1.00  0.00    -0.744 OA
ENDBRANCH  78  79
ENDBRANCH  57  71
BRANCH  58  83
ATOM     83  C   UNL     1      13.138   0.520  -6.075  1.00  0.00     0.058 A 
ATOM     84  C   UNL     1      14.273   1.321  -5.885  1.00  0.00     0.135 A 
ATOM     85  C   UNL     1      12.779  -0.362  -5.043  1.00  0.00     0.135 A 
ATOM     86  F   UNL     1      14.659   2.174  -6.846  1.00  0.00    -0.206 F 
ATOM     87  C   UNL     1      15.031   1.248  -4.721  1.00  0.00     0.059 A 
ATOM     88  C   UNL     1      13.508  -0.437  -3.860  1.00  0.00     0.059 A 
ATOM     89  F   UNL     1      11.691  -1.137  -5.169  1.00  0.00    -0.206 F 
ATOM     90  C   UNL     1      14.638   0.366  -3.712  1.00  0.00     0.060 A 
BRANCH  90  91
ATOM     91  S   UNL     1      15.592   0.323  -2.179  1.00  0.00     0.124 S 
ATOM     92  O   UNL     1      16.779  -0.416  -2.593  1.00  0.00    -0.237 OA
ATOM     93  O   UNL     1      15.789   1.742  -1.898  1.00  0.00    -0.237 OA
ATOM     94  O   UNL     1      14.704  -0.373  -1.252  1.00  0.00    -0.744 OA
ENDBRANCH  90  91
ENDBRANCH  58  83
BRANCH  70  95
ATOM     95  C   UNL     1      14.258  -1.335 -12.704  1.00  0.00     0.058 A 
ATOM     96  C   UNL     1      14.558  -2.697 -12.552  1.00  0.00     0.135 A 
ATOM     97  C   UNL     1      15.055  -0.579 -13.578  1.00  0.00     0.135 A 
ATOM     98  F   UNL     1      13.831  -3.461 -11.722  1.00  0.00    -0.206 F 
ATOM     99  C   UNL     1      15.619  -3.286 -13.232  1.00  0.00     0.059 A 
ATOM    100  C   UNL     1      16.107  -1.152 -14.286  1.00  0.00     0.059 A 
ATOM    101  F   UNL     1      14.803   0.726 -13.764  1.00  0.00    -0.206 F 
ATOM    102  C   UNL     1      16.387  -2.505 -14.098  1.00  0.00     0.060 A 
BRANCH 102 103
ATOM    103  S   UNL     1      17.734  -3.290 -15.009  1.00  0.00     0.124 S 
ATOM    104  O   UNL     1      18.749  -3.428 -13.969  1.00  0.00    -0.237 OA
ATOM    105  O   UNL     1      17.122  -4.534 -15.466  1.00  0.00    -0.237 OA
ATOM    106  O   UNL     1      18.039  -2.326 -16.061  1.00  0.00    -0.744 OA
ENDBRANCH 102 103
ENDBRANCH  70  95
ENDBRANCH  44  45
ENDBRANCH  36  39
ENDBRANCH  34  35
ENDBRANCH   1  34
TORSDOF 19
