REMARK SMILES C[C@H](NC(=O)OCc1ccccc1)C(=O)NCC(=O)N1CCC[C@H]1C(=O)NCCCNC(=O)c1ccc(-c2c3nc(c(-c4c(F)cc(S(=O)(=O)[O-])cc4F)c4ccc([nH]4)c(-c4c(F)cc(S(=O)(=O)[O-])cc4F)c4nc(c(-c5c(F)cc(S(=O)(=O)[O-])cc5F)c5ccc2[nH]5)C=C4)C=C3)cc1
REMARK SMILES IDX 20 1 21 2 22 3 23 4 24 5 18 6 19 7 17 8 16 9 14 10 15 11
REMARK SMILES IDX 2 13 1 14 3 15 4 16 5 18 6 19 7 20 8 21 9 22 13 23 10 24
REMARK SMILES IDX 12 25 11 26 25 27 26 28 27 29 28 31 29 32 30 33 31 34 32 35
REMARK SMILES IDX 33 37 34 38 35 39 99 40 36 41 98 42 37 43 38 44 39 45 92 46
REMARK SMILES IDX 40 47 97 48 91 49 93 50 41 51 96 52 90 53 89 54 42 56 76 57
REMARK SMILES IDX 55 58 75 59 56 60 59 61 74 62 94 63 57 64 58 65 73 67 95 68
REMARK SMILES IDX 60 69 43 70 44 71 53 72 45 73 46 74 52 75 54 76 47 77 48 78
REMARK SMILES IDX 49 79 50 80 51 81 77 82 78 83 87 84 79 85 80 86 86 87 88 88
REMARK SMILES IDX 81 89 82 90 83 91 84 92 85 93 61 94 62 95 71 96 63 97 64 98
REMARK SMILES IDX 70 99 72 100 65 101 66 102 67 103 68 104 69 105
REMARK H PARENT 16 12 3 17 27 30 31 36 93 55 59 66
REMARK Flexibility Score: inf
ROOT
ATOM      1  N   UNL     1      -1.092   2.335  -0.490  1.00  0.00    -0.329 N 
ATOM      2  C   UNL     1      -1.462   1.307  -1.446  1.00  0.00     0.120 C 
ATOM      3  C   UNL     1      -0.505   1.537  -2.600  1.00  0.00     0.024 C 
ATOM      4  C   UNL     1      -0.337   3.050  -2.643  1.00  0.00     0.037 C 
ATOM      5  C   UNL     1      -0.618   3.526  -1.210  1.00  0.00     0.174 C 
ENDROOT
BRANCH   1   6
ATOM      6  C   UNL     1      -1.196   2.380   0.877  1.00  0.00     0.242 C 
ATOM      7  O   UNL     1      -1.020   3.447   1.481  1.00  0.00    -0.273 OA
BRANCH   6   8
ATOM      8  C   UNL     1      -1.293   1.111   1.736  1.00  0.00     0.216 C 
BRANCH   8   9
ATOM      9  N   UNL     1      -1.765  -0.152   1.215  1.00  0.00    -0.345 N 
ATOM     10  C   UNL     1      -1.088  -1.290   0.894  1.00  0.00     0.242 C 
ATOM     11  O   UNL     1      -1.770  -2.292   0.653  1.00  0.00    -0.273 OA
ATOM     12  H   UNL     1      -2.737  -0.198   1.069  1.00  0.00     0.164 HD
BRANCH  10  13
ATOM     13  C   UNL     1       0.452  -1.386   0.925  1.00  0.00     0.171 C 
ATOM     14  C   UNL     1       0.987  -1.500   2.349  1.00  0.00     0.042 C 
BRANCH  13  15
ATOM     15  N   UNL     1       1.129  -0.313   0.204  1.00  0.00    -0.310 N 
ATOM     16  C   UNL     1       2.231  -0.460  -0.588  1.00  0.00     0.408 C 
ATOM     17  H   UNL     1       0.760   0.594   0.297  1.00  0.00     0.167 HD
ATOM     18  O   UNL     1       2.817   0.515  -1.040  1.00  0.00    -0.225 OA
BRANCH  16  19
ATOM     19  O   UNL     1       2.568  -1.753  -0.797  1.00  0.00    -0.445 OA
BRANCH  19  20
ATOM     20  C   UNL     1       3.752  -1.972  -1.577  1.00  0.00     0.270 C 
BRANCH  20  21
ATOM     21  C   UNL     1       3.555  -1.816  -3.067  1.00  0.00    -0.011 A 
ATOM     22  C   UNL     1       2.309  -2.000  -3.682  1.00  0.00     0.007 A 
ATOM     23  C   UNL     1       4.667  -1.520  -3.873  1.00  0.00     0.007 A 
ATOM     24  C   UNL     1       2.172  -1.851  -5.065  1.00  0.00     0.000 A 
ATOM     25  C   UNL     1       4.529  -1.378  -5.254  1.00  0.00     0.000 A 
ATOM     26  C   UNL     1       3.281  -1.539  -5.849  1.00  0.00     0.000 A 
ENDBRANCH  20  21
ENDBRANCH  19  20
ENDBRANCH  16  19
ENDBRANCH  13  15
ENDBRANCH  10  13
ENDBRANCH   8   9
ENDBRANCH   6   8
ENDBRANCH   1   6
BRANCH   5  27
ATOM     27  C   UNL     1      -1.718   4.606  -1.226  1.00  0.00     0.242 C 
ATOM     28  O   UNL     1      -2.817   4.404  -1.752  1.00  0.00    -0.273 OA
ATOM     29  N   UNL     1      -1.514   5.808  -0.616  1.00  0.00    -0.354 N 
ATOM     30  H   UNL     1      -2.229   6.472  -0.750  1.00  0.00     0.163 HD
BRANCH  29  31
ATOM     31  C   UNL     1      -0.401   6.256   0.204  1.00  0.00     0.117 C 
BRANCH  31  32
ATOM     32  C   UNL     1       0.318   7.449  -0.412  1.00  0.00     0.042 C 
BRANCH  32  33
ATOM     33  C   UNL     1      -0.547   8.700  -0.529  1.00  0.00     0.118 C 
BRANCH  33  34
ATOM     34  N   UNL     1      -0.990   9.205   0.763  1.00  0.00    -0.352 N 
ATOM     35  C   UNL     1      -0.835  10.448   1.327  1.00  0.00     0.251 C 
ATOM     36  H   UNL     1      -1.476   8.554   1.320  1.00  0.00     0.163 HD
ATOM     37  O   UNL     1      -1.141  10.620   2.504  1.00  0.00    -0.269 OA
BRANCH  35  38
ATOM     38  C   UNL     1      -0.281  11.568   0.535  1.00  0.00     0.039 A 
ATOM     39  C   UNL     1       0.646  12.423   1.138  1.00  0.00     0.014 A 
ATOM     40  C   UNL     1      -0.675  11.786  -0.787  1.00  0.00     0.014 A 
ATOM     41  C   UNL     1       1.227  13.452   0.393  1.00  0.00     0.010 A 
ATOM     42  C   UNL     1      -0.033  12.758  -1.551  1.00  0.00     0.010 A 
ATOM     43  C   UNL     1       0.923  13.604  -0.970  1.00  0.00    -0.014 A 
BRANCH  43  44
ATOM     44  C   UNL     1       1.605  14.630  -1.802  1.00  0.00     0.031 A 
ATOM     45  C   UNL     1       0.814  15.730  -2.457  1.00  0.00     0.074 A 
ATOM     46  C   UNL     1       2.930  14.527  -2.026  1.00  0.00     0.049 A 
ATOM     47  N   UNL     1       1.225  16.674  -3.264  1.00  0.00    -0.248 NA
ATOM     48  C   UNL     1      -0.633  15.755  -2.193  1.00  0.00     0.031 C 
ATOM     49  C   UNL     1       3.798  13.473  -1.496  1.00  0.00     0.029 A 
ATOM     50  N   UNL     1       3.778  15.309  -2.771  1.00  0.00    -0.354 N 
ATOM     51  C   UNL     1       0.089  17.392  -3.619  1.00  0.00     0.074 A 
ATOM     52  C   UNL     1      -1.035  16.742  -2.980  1.00  0.00     0.031 C 
ATOM     53  C   UNL     1       5.055  13.684  -1.918  1.00  0.00     0.029 A 
ATOM     54  C   UNL     1       5.077  14.859  -2.783  1.00  0.00     0.049 A 
ATOM     55  H   UNL     1       3.483  16.116  -3.252  1.00  0.00     0.167 HD
ATOM     56  C   UNL     1      -0.006  18.500  -4.392  1.00  0.00     0.037 A 
ATOM     57  C   UNL     1       6.164  15.328  -3.428  1.00  0.00     0.037 A 
ATOM     58  C   UNL     1       1.122  19.150  -5.010  1.00  0.00     0.049 A 
ATOM     59  C   UNL     1       6.038  16.564  -4.275  1.00  0.00     0.074 A 
ATOM     60  C   UNL     1       1.141  20.322  -5.747  1.00  0.00     0.029 A 
ATOM     61  N   UNL     1       2.427  18.679  -4.977  1.00  0.00    -0.354 N 
ATOM     62  N   UNL     1       4.970  17.281  -4.531  1.00  0.00    -0.248 NA
ATOM     63  C   UNL     1       7.264  17.061  -4.913  1.00  0.00     0.031 C 
ATOM     64  C   UNL     1       2.444  20.525  -6.211  1.00  0.00     0.029 A 
ATOM     65  C   UNL     1       3.253  19.518  -5.709  1.00  0.00     0.049 A 
ATOM     66  H   UNL     1       2.723  17.869  -4.503  1.00  0.00     0.167 HD
ATOM     67  C   UNL     1       5.398  18.326  -5.342  1.00  0.00     0.074 A 
ATOM     68  C   UNL     1       6.826  18.155  -5.521  1.00  0.00     0.031 C 
ATOM     69  C   UNL     1       4.674  19.337  -5.885  1.00  0.00     0.037 A 
BRANCH  56  70
ATOM     70  C   UNL     1      -1.380  19.073  -4.626  1.00  0.00     0.058 A 
ATOM     71  C   UNL     1      -2.124  19.670  -3.595  1.00  0.00     0.135 A 
ATOM     72  C   UNL     1      -1.952  19.044  -5.909  1.00  0.00     0.135 A 
ATOM     73  F   UNL     1      -1.633  19.718  -2.346  1.00  0.00    -0.206 F 
ATOM     74  C   UNL     1      -3.400  20.177  -3.817  1.00  0.00     0.059 A 
ATOM     75  C   UNL     1      -3.214  19.576  -6.161  1.00  0.00     0.059 A 
ATOM     76  F   UNL     1      -1.287  18.489  -6.934  1.00  0.00    -0.206 F 
ATOM     77  C   UNL     1      -3.938  20.123  -5.103  1.00  0.00     0.060 A 
BRANCH  77  78
ATOM     78  S   UNL     1      -5.601  20.773  -5.371  1.00  0.00     0.124 S 
ATOM     79  O   UNL     1      -6.418  19.760  -4.709  1.00  0.00    -0.237 OA
ATOM     80  O   UNL     1      -5.539  22.070  -4.706  1.00  0.00    -0.237 OA
ATOM     81  O   UNL     1      -5.719  20.821  -6.824  1.00  0.00    -0.744 OA
ENDBRANCH  77  78
ENDBRANCH  56  70
BRANCH  57  82
ATOM     82  C   UNL     1       7.466  14.623  -3.278  1.00  0.00     0.058 A 
ATOM     83  C   UNL     1       8.518  15.188  -2.544  1.00  0.00     0.135 A 
ATOM     84  C   UNL     1       7.665  13.346  -3.829  1.00  0.00     0.135 A 
ATOM     85  F   UNL     1       8.380  16.409  -2.006  1.00  0.00    -0.206 F 
ATOM     86  C   UNL     1       9.723  14.517  -2.362  1.00  0.00     0.059 A 
ATOM     87  C   UNL     1       8.851  12.644  -3.638  1.00  0.00     0.059 A 
ATOM     88  F   UNL     1       6.684  12.754  -4.527  1.00  0.00    -0.206 F 
ATOM     89  C   UNL     1       9.876  13.240  -2.905  1.00  0.00     0.060 A 
BRANCH  89  90
ATOM     90  S   UNL     1      11.415  12.346  -2.595  1.00  0.00     0.124 S 
ATOM     91  O   UNL     1      12.358  13.085  -3.424  1.00  0.00    -0.237 OA
ATOM     92  O   UNL     1      11.572  12.503  -1.152  1.00  0.00    -0.237 OA
ATOM     93  O   UNL     1      11.110  10.989  -3.040  1.00  0.00    -0.744 OA
ENDBRANCH  89  90
ENDBRANCH  57  82
BRANCH  69  94
ATOM     94  C   UNL     1       5.413  20.360  -6.706  1.00  0.00     0.058 A 
ATOM     95  C   UNL     1       5.932  20.059  -7.975  1.00  0.00     0.135 A 
ATOM     96  C   UNL     1       5.555  21.677  -6.237  1.00  0.00     0.135 A 
ATOM     97  F   UNL     1       5.831  18.815  -8.469  1.00  0.00    -0.206 F 
ATOM     98  C   UNL     1       6.586  21.021  -8.740  1.00  0.00     0.059 A 
ATOM     99  C   UNL     1       6.177  22.662  -6.997  1.00  0.00     0.059 A 
ATOM    100  F   UNL     1       5.069  22.023  -5.034  1.00  0.00    -0.206 F 
ATOM    101  C   UNL     1       6.700  22.321  -8.243  1.00  0.00     0.060 A 
BRANCH 101 102
ATOM    102  S   UNL     1       7.520  23.567  -9.261  1.00  0.00     0.124 S 
ATOM    103  O   UNL     1       8.915  23.150  -9.168  1.00  0.00    -0.237 OA
ATOM    104  O   UNL     1       6.886  23.374 -10.561  1.00  0.00    -0.237 OA
ATOM    105  O   UNL     1       7.194  24.822  -8.591  1.00  0.00    -0.744 OA
ENDBRANCH 101 102
ENDBRANCH  69  94
ENDBRANCH  43  44
ENDBRANCH  35  38
ENDBRANCH  33  34
ENDBRANCH  32  33
ENDBRANCH  31  32
ENDBRANCH  29  31
ENDBRANCH   5  27
TORSDOF 21
