REMARK SMILES C[N@@H+](CC(=O)NCCCNC(=O)c1ccc(-c2c3nc(c(-c4c(F)cc(S(=O)(=O)[O-])cc4F)c4ccc([nH]4)c(-c4c(F)cc(S(=O)(=O)[O-])cc4F)c4nc(c(-c5c(F)cc(S(=O)(=O)[O-])cc5F)c5ccc2[nH]5)C=C4)C=C3)cc1)Cc1nccs1
REMARK SMILES IDX 8 1 7 2 6 3 4 4 5 5 3 7 2 8 1 9 79 11 80 12 81 13 84 14
REMARK SMILES IDX 82 15 83 16 9 17 10 18 11 19 12 21 13 22 14 23 78 24 15 25
REMARK SMILES IDX 77 26 16 27 17 28 18 29 71 30 19 31 76 32 70 33 72 34 20 35
REMARK SMILES IDX 75 36 69 37 68 38 21 40 55 41 34 42 54 43 35 44 38 45 53 46
REMARK SMILES IDX 73 47 36 48 37 49 52 51 74 52 39 53 22 54 23 55 32 56 24 57
REMARK SMILES IDX 25 58 31 59 33 60 26 61 27 62 28 63 29 64 30 65 56 66 57 67
REMARK SMILES IDX 66 68 58 69 59 70 65 71 67 72 60 73 61 74 62 75 63 76 64 77
REMARK SMILES IDX 40 78 41 79 50 80 42 81 43 82 49 83 51 84 44 85 45 86 46 87
REMARK SMILES IDX 47 88 48 89
REMARK H PARENT 6 6 2 10 10 20 72 39 38 50
REMARK Flexibility Score: inf
ROOT
ATOM      1  C   UNL     1       0.476  -2.555  -0.294  1.00  0.00     0.042 C 
ENDROOT
BRANCH   1   2
ATOM      2  C   UNL     1      -0.765  -1.736  -0.637  1.00  0.00     0.118 C 
BRANCH   2   3
ATOM      3  N   UNL     1      -1.486  -1.271   0.531  1.00  0.00    -0.351 N 
ATOM      4  C   UNL     1      -1.621  -0.020   1.052  1.00  0.00     0.275 C 
ATOM      5  O   UNL     1      -2.369   0.111   2.027  1.00  0.00    -0.269 OA
ATOM      6  H   UNL     1      -1.957  -1.977   1.031  1.00  0.00     0.163 HD
BRANCH   4   7
ATOM      7  C   UNL     1      -0.948   1.197   0.421  1.00  0.00     0.363 C 
BRANCH   7   8
ATOM      8  N   UNL     1       0.425   1.500   0.840  1.00  0.00    -0.324 N 
ATOM      9  C   UNL     1       1.493   0.924   0.053  1.00  0.00     0.333 C 
ATOM     10  H   UNL     1       0.439   2.484   0.569  1.00  0.00     0.348 HD
BRANCH   8  11
ATOM     11  C   UNL     1       0.703   1.585   2.281  1.00  0.00     0.331 C 
BRANCH  11  12
ATOM     12  C   UNL     1       0.561   0.325   3.107  1.00  0.00     0.147 A 
ATOM     13  N   UNL     1       1.008  -0.876   2.783  1.00  0.00    -0.244 NA
ATOM     14  S   UNL     1      -0.234   0.414   4.641  1.00  0.00    -0.122 S 
ATOM     15  C   UNL     1       0.650  -1.787   3.759  1.00  0.00     0.123 A 
ATOM     16  C   UNL     1      -0.053  -1.277   4.826  1.00  0.00     0.087 A 
ENDBRANCH  11  12
ENDBRANCH   8  11
ENDBRANCH   7   8
ENDBRANCH   4   7
ENDBRANCH   2   3
ENDBRANCH   1   2
BRANCH   1  17
ATOM     17  C   UNL     1       0.218  -3.826   0.505  1.00  0.00     0.118 C 
BRANCH  17  18
ATOM     18  N   UNL     1      -0.361  -4.888  -0.301  1.00  0.00    -0.352 N 
ATOM     19  C   UNL     1       0.168  -6.089  -0.709  1.00  0.00     0.251 C 
ATOM     20  H   UNL     1      -1.282  -4.719  -0.604  1.00  0.00     0.163 HD
ATOM     21  O   UNL     1      -0.441  -6.746  -1.551  1.00  0.00    -0.269 OA
BRANCH  19  22
ATOM     22  C   UNL     1       1.457  -6.597  -0.174  1.00  0.00     0.039 A 
ATOM     23  C   UNL     1       2.323  -7.265  -1.047  1.00  0.00     0.014 A 
ATOM     24  C   UNL     1       1.797  -6.489   1.177  1.00  0.00     0.014 A 
ATOM     25  C   UNL     1       3.540  -7.774  -0.581  1.00  0.00     0.010 A 
ATOM     26  C   UNL     1       3.045  -6.929   1.626  1.00  0.00     0.010 A 
ATOM     27  C   UNL     1       3.926  -7.588   0.756  1.00  0.00    -0.014 A 
BRANCH  27  28
ATOM     28  C   UNL     1       5.237  -8.085   1.254  1.00  0.00     0.031 A 
ATOM     29  C   UNL     1       5.301  -9.153   2.314  1.00  0.00     0.074 A 
ATOM     30  C   UNL     1       6.379  -7.534   0.795  1.00  0.00     0.049 A 
ATOM     31  N   UNL     1       6.349  -9.681   2.894  1.00  0.00    -0.248 NA
ATOM     32  C   UNL     1       4.018  -9.675   2.808  1.00  0.00     0.031 C 
ATOM     33  C   UNL     1       6.458  -6.446  -0.180  1.00  0.00     0.029 A 
ATOM     34  N   UNL     1       7.691  -7.802   1.101  1.00  0.00    -0.354 N 
ATOM     35  C   UNL     1       5.854 -10.574   3.838  1.00  0.00     0.074 A 
ATOM     36  C   UNL     1       4.410 -10.486   3.780  1.00  0.00     0.031 C 
ATOM     37  C   UNL     1       7.748  -6.146  -0.401  1.00  0.00     0.029 A 
ATOM     38  C   UNL     1       8.587  -7.001   0.435  1.00  0.00     0.049 A 
ATOM     39  H   UNL     1       7.963  -8.501   1.738  1.00  0.00     0.167 HD
ATOM     40  C   UNL     1       6.535 -11.405   4.664  1.00  0.00     0.037 A 
ATOM     41  C   UNL     1       9.933  -6.952   0.491  1.00  0.00     0.037 A 
ATOM     42  C   UNL     1       7.971 -11.520   4.693  1.00  0.00     0.049 A 
ATOM     43  C   UNL     1      10.672  -7.916   1.374  1.00  0.00     0.074 A 
ATOM     44  C   UNL     1       8.749 -12.402   5.423  1.00  0.00     0.029 A 
ATOM     45  N   UNL     1       8.845 -10.723   3.968  1.00  0.00    -0.354 N 
ATOM     46  N   UNL     1      10.187  -8.820   2.192  1.00  0.00    -0.248 NA
ATOM     47  C   UNL     1      12.140  -7.865   1.335  1.00  0.00     0.031 C 
ATOM     48  C   UNL     1      10.095 -12.112   5.168  1.00  0.00     0.029 A 
ATOM     49  C   UNL     1      10.155 -11.077   4.250  1.00  0.00     0.049 A 
ATOM     50  H   UNL     1       8.574 -10.012   3.344  1.00  0.00     0.167 HD
ATOM     51  C   UNL     1      11.289  -9.453   2.756  1.00  0.00     0.074 A 
ATOM     52  C   UNL     1      12.466  -8.840   2.174  1.00  0.00     0.031 C 
ATOM     53  C   UNL     1      11.320 -10.453   3.672  1.00  0.00     0.037 A 
BRANCH  40  54
ATOM     54  C   UNL     1       5.729 -12.253   5.610  1.00  0.00     0.058 A 
ATOM     55  C   UNL     1       4.944 -13.326   5.157  1.00  0.00     0.135 A 
ATOM     56  C   UNL     1       5.741 -11.989   6.989  1.00  0.00     0.135 A 
ATOM     57  F   UNL     1       4.887 -13.616   3.847  1.00  0.00    -0.206 F 
ATOM     58  C   UNL     1       4.162 -14.076   6.030  1.00  0.00     0.059 A 
ATOM     59  C   UNL     1       4.988 -12.744   7.884  1.00  0.00     0.059 A 
ATOM     60  F   UNL     1       6.478 -10.979   7.478  1.00  0.00    -0.206 F 
ATOM     61  C   UNL     1       4.184 -13.770   7.391  1.00  0.00     0.060 A 
BRANCH  61  62
ATOM     62  S   UNL     1       3.138 -14.726   8.510  1.00  0.00     0.124 S 
ATOM     63  O   UNL     1       1.825 -14.147   8.245  1.00  0.00    -0.237 OA
ATOM     64  O   UNL     1       3.334 -16.092   8.036  1.00  0.00    -0.237 OA
ATOM     65  O   UNL     1       3.698 -14.437   9.827  1.00  0.00    -0.744 OA
ENDBRANCH  61  62
ENDBRANCH  40  54
BRANCH  41  66
ATOM     66  C   UNL     1      10.658  -5.962  -0.347  1.00  0.00     0.058 A 
ATOM     67  C   UNL     1      11.332  -6.357  -1.511  1.00  0.00     0.135 A 
ATOM     68  C   UNL     1      10.631  -4.594  -0.035  1.00  0.00     0.135 A 
ATOM     69  F   UNL     1      11.390  -7.655  -1.844  1.00  0.00    -0.206 F 
ATOM     70  C   UNL     1      11.949  -5.429  -2.344  1.00  0.00     0.059 A 
ATOM     71  C   UNL     1      11.224  -3.645  -0.863  1.00  0.00     0.059 A 
ATOM     72  F   UNL     1       9.985  -4.166   1.061  1.00  0.00    -0.206 F 
ATOM     73  C   UNL     1      11.881  -4.074  -2.016  1.00  0.00     0.060 A 
BRANCH  73  74
ATOM     74  S   UNL     1      12.595  -2.868  -3.157  1.00  0.00     0.124 S 
ATOM     75  O   UNL     1      14.021  -3.024  -2.894  1.00  0.00    -0.237 OA
ATOM     76  O   UNL     1      12.127  -3.355  -4.451  1.00  0.00    -0.237 OA
ATOM     77  O   UNL     1      12.005  -1.606  -2.721  1.00  0.00    -0.744 OA
ENDBRANCH  73  74
ENDBRANCH  41  66
BRANCH  53  78
ATOM     78  C   UNL     1      12.671 -10.955   4.100  1.00  0.00     0.058 A 
ATOM     79  C   UNL     1      13.492 -10.210   4.961  1.00  0.00     0.135 A 
ATOM     80  C   UNL     1      13.129 -12.215   3.684  1.00  0.00     0.135 A 
ATOM     81  F   UNL     1      13.103  -8.996   5.383  1.00  0.00    -0.206 F 
ATOM     82  C   UNL     1      14.731 -10.687   5.377  1.00  0.00     0.059 A 
ATOM     83  C   UNL     1      14.354 -12.722   4.106  1.00  0.00     0.059 A 
ATOM     84  F   UNL     1      12.378 -12.972   2.868  1.00  0.00    -0.206 F 
ATOM     85  C   UNL     1      15.154 -11.945   4.944  1.00  0.00     0.060 A 
BRANCH  85  86
ATOM     86  S   UNL     1      16.749 -12.569   5.513  1.00  0.00     0.124 S 
ATOM     87  O   UNL     1      17.676 -11.809   4.682  1.00  0.00    -0.237 OA
ATOM     88  O   UNL     1      16.737 -12.220   6.931  1.00  0.00    -0.237 OA
ATOM     89  O   UNL     1      16.676 -13.999   5.227  1.00  0.00    -0.744 OA
ENDBRANCH  85  86
ENDBRANCH  53  78
ENDBRANCH  27  28
ENDBRANCH  19  22
ENDBRANCH  17  18
ENDBRANCH   1  17
TORSDOF 16
