REMARK SMILES Cc1ccc(F)c(C(=O)Nc2cccc(C(=O)NCCCNC(=O)c3ccc(-c4c5nc(c(-c6c(F)cc(S(=O)(=O)[O-])cc6F)c6ccc([nH]6)c(-c6c(F)cc(S(=O)(=O)[O-])cc6F)c6nc(c(-c7c(F)cc(S(=O)(=O)[O-])cc7F)c7ccc4[nH]7)C=C6)C=C5)cc3)c2)c1
REMARK SMILES IDX 20 1 19 2 18 3 16 4 17 5 15 7 11 8 12 9 91 10 13 11 14 12
REMARK SMILES IDX 10 13 8 14 9 15 7 17 1 18 2 19 3 20 92 21 4 22 5 23 6 24
REMARK SMILES IDX 21 25 22 26 23 27 24 29 25 30 26 31 90 32 27 33 89 34 28 35
REMARK SMILES IDX 29 36 30 37 83 38 31 39 88 40 82 41 84 42 32 43 87 44 81 45
REMARK SMILES IDX 80 46 33 48 67 49 46 50 66 51 47 52 50 53 65 54 85 55 48 56
REMARK SMILES IDX 49 57 64 59 86 60 51 61 34 62 35 63 44 64 36 65 37 66 43 67
REMARK SMILES IDX 45 68 38 69 39 70 40 71 41 72 42 73 68 74 69 75 78 76 70 77
REMARK SMILES IDX 71 78 77 79 79 80 72 81 73 82 74 83 75 84 76 85 52 86 53 87
REMARK SMILES IDX 62 88 54 89 55 90 61 91 63 92 56 93 57 94 58 95 59 96 60 97
REMARK H PARENT 18 6 10 16 22 28 84 47 50 58
REMARK Flexibility Score: inf
ROOT
ATOM      1  C   UNL     1       0.875  -1.232   3.808  1.00  0.00     0.042 C 
ENDROOT
BRANCH   1   2
ATOM      2  C   UNL     1       1.883  -0.868   2.726  1.00  0.00     0.118 C 
BRANCH   2   3
ATOM      3  N   UNL     1       3.109  -1.626   2.850  1.00  0.00    -0.352 N 
ATOM      4  C   UNL     1       3.574  -2.750   2.219  1.00  0.00     0.251 C 
ATOM      5  O   UNL     1       4.719  -3.111   2.499  1.00  0.00    -0.269 OA
ATOM      6  H   UNL     1       3.732  -1.263   3.521  1.00  0.00     0.163 HD
BRANCH   4   7
ATOM      7  C   UNL     1       2.815  -3.509   1.179  1.00  0.00     0.041 A 
ATOM      8  C   UNL     1       0.847  -4.082  -0.122  1.00  0.00     0.042 A 
ATOM      9  C   UNL     1       1.598  -4.953  -0.910  1.00  0.00     0.026 A 
ATOM     10  C   UNL     1       1.433  -3.452   0.980  1.00  0.00     0.040 A 
ATOM     11  C   UNL     1       2.967  -5.069  -0.692  1.00  0.00     0.003 A 
ATOM     12  C   UNL     1       3.574  -4.329   0.325  1.00  0.00     0.014 A 
BRANCH   8  13
ATOM     13  N   UNL     1      -0.468  -3.815  -0.528  1.00  0.00    -0.322 N 
ATOM     14  C   UNL     1      -1.169  -2.622  -0.591  1.00  0.00     0.258 C 
ATOM     15  O   UNL     1      -2.364  -2.675  -0.880  1.00  0.00    -0.269 OA
ATOM     16  H   UNL     1      -0.977  -4.607  -0.816  1.00  0.00     0.170 HD
BRANCH  14  17
ATOM     17  C   UNL     1      -0.511  -1.287  -0.466  1.00  0.00     0.076 A 
ATOM     18  C   UNL     1       2.924   0.340  -0.800  1.00  0.00     0.044 C 
ATOM     19  C   UNL     1       1.440   0.182  -0.620  1.00  0.00    -0.050 A 
ATOM     20  C   UNL     1       0.674   1.250  -0.143  1.00  0.00     0.006 A 
ATOM     21  C   UNL     1       0.819  -1.056  -0.858  1.00  0.00     0.020 A 
ATOM     22  C   UNL     1      -0.676   1.060   0.151  1.00  0.00     0.040 A 
ATOM     23  C   UNL     1      -1.253  -0.204   0.011  1.00  0.00     0.135 A 
ATOM     24  F   UNL     1      -2.537  -0.342   0.371  1.00  0.00    -0.206 F 
ENDBRANCH  14  17
ENDBRANCH   8  13
ENDBRANCH   4   7
ENDBRANCH   2   3
ENDBRANCH   1   2
BRANCH   1  25
ATOM     25  C   UNL     1       1.135  -0.486   5.106  1.00  0.00     0.118 C 
BRANCH  25  26
ATOM     26  N   UNL     1       0.855   0.938   4.971  1.00  0.00    -0.352 N 
ATOM     27  C   UNL     1       0.069   1.757   5.741  1.00  0.00     0.251 C 
ATOM     28  H   UNL     1       1.298   1.379   4.211  1.00  0.00     0.163 HD
ATOM     29  O   UNL     1      -0.202   2.881   5.331  1.00  0.00    -0.269 OA
BRANCH  27  30
ATOM     30  C   UNL     1      -0.452   1.288   7.044  1.00  0.00     0.039 A 
ATOM     31  C   UNL     1      -1.735   1.681   7.435  1.00  0.00     0.014 A 
ATOM     32  C   UNL     1       0.329   0.502   7.896  1.00  0.00     0.014 A 
ATOM     33  C   UNL     1      -2.242   1.260   8.665  1.00  0.00     0.010 A 
ATOM     34  C   UNL     1      -0.212   0.009   9.078  1.00  0.00     0.010 A 
ATOM     35  C   UNL     1      -1.491   0.406   9.488  1.00  0.00    -0.014 A 
BRANCH  35  36
ATOM     36  C   UNL     1      -2.009  -0.041  10.804  1.00  0.00     0.031 A 
ATOM     37  C   UNL     1      -1.293   0.359  12.067  1.00  0.00     0.074 A 
ATOM     38  C   UNL     1      -3.087  -0.847  10.857  1.00  0.00     0.049 A 
ATOM     39  N   UNL     1      -1.562   0.039  13.306  1.00  0.00    -0.248 NA
ATOM     40  C   UNL     1      -0.095   1.201  11.915  1.00  0.00     0.031 C 
ATOM     41  C   UNL     1      -3.821  -1.355   9.695  1.00  0.00     0.029 A 
ATOM     42  N   UNL     1      -3.749  -1.386  11.930  1.00  0.00    -0.354 N 
ATOM     43  C   UNL     1      -0.558   0.617  14.074  1.00  0.00     0.074 A 
ATOM     44  C   UNL     1       0.358   1.259  13.158  1.00  0.00     0.031 C 
ATOM     45  C   UNL     1      -4.847  -2.110  10.120  1.00  0.00     0.029 A 
ATOM     46  C   UNL     1      -4.827  -2.162  11.579  1.00  0.00     0.049 A 
ATOM     47  H   UNL     1      -3.478  -1.231  12.863  1.00  0.00     0.167 HD
ATOM     48  C   UNL     1      -0.426   0.635  15.422  1.00  0.00     0.037 A 
ATOM     49  C   UNL     1      -5.703  -2.837  12.348  1.00  0.00     0.037 A 
ATOM     50  C   UNL     1      -1.368   0.031  16.326  1.00  0.00     0.049 A 
ATOM     51  C   UNL     1      -5.569  -2.758  13.843  1.00  0.00     0.074 A 
ATOM     52  C   UNL     1      -1.373   0.055  17.709  1.00  0.00     0.029 A 
ATOM     53  N   UNL     1      -2.477  -0.705  15.934  1.00  0.00    -0.354 N 
ATOM     54  N   UNL     1      -4.655  -2.143  14.557  1.00  0.00    -0.248 NA
ATOM     55  C   UNL     1      -6.592  -3.449  14.639  1.00  0.00     0.031 C 
ATOM     56  C   UNL     1      -2.466  -0.698  18.154  1.00  0.00     0.029 A 
ATOM     57  C   UNL     1      -3.167  -1.152  17.048  1.00  0.00     0.049 A 
ATOM     58  H   UNL     1      -2.736  -0.883  15.001  1.00  0.00     0.167 HD
ATOM     59  C   UNL     1      -5.006  -2.353  15.886  1.00  0.00     0.074 A 
ATOM     60  C   UNL     1      -6.224  -3.139  15.875  1.00  0.00     0.031 C 
ATOM     61  C   UNL     1      -4.380  -1.932  17.013  1.00  0.00     0.037 A 
BRANCH  48  62
ATOM     62  C   UNL     1       0.776   1.338  15.994  1.00  0.00     0.058 A 
ATOM     63  C   UNL     1       0.918   2.734  15.929  1.00  0.00     0.135 A 
ATOM     64  C   UNL     1       1.796   0.607  16.626  1.00  0.00     0.135 A 
ATOM     65  F   UNL     1      -0.018   3.481  15.322  1.00  0.00    -0.206 F 
ATOM     66  C   UNL     1       2.044   3.377  16.434  1.00  0.00     0.059 A 
ATOM     67  C   UNL     1       2.917   1.233  17.165  1.00  0.00     0.059 A 
ATOM     68  F   UNL     1       1.714  -0.729  16.717  1.00  0.00    -0.206 F 
ATOM     69  C   UNL     1       3.041   2.616  17.047  1.00  0.00     0.060 A 
BRANCH  69  70
ATOM     70  S   UNL     1       4.499   3.463  17.690  1.00  0.00     0.124 S 
ATOM     71  O   UNL     1       5.220   3.774  16.459  1.00  0.00    -0.237 OA
ATOM     72  O   UNL     1       3.917   4.605  18.388  1.00  0.00    -0.237 OA
ATOM     73  O   UNL     1       5.124   2.461  18.547  1.00  0.00    -0.744 OA
ENDBRANCH  69  70
ENDBRANCH  48  62
BRANCH  49  74
ATOM     74  C   UNL     1      -6.804  -3.606  11.711  1.00  0.00     0.058 A 
ATOM     75  C   UNL     1      -8.129  -3.149  11.766  1.00  0.00     0.135 A 
ATOM     76  C   UNL     1      -6.550  -4.791  11.003  1.00  0.00     0.135 A 
ATOM     77  F   UNL     1      -8.422  -2.022  12.433  1.00  0.00    -0.206 F 
ATOM     78  C   UNL     1      -9.166  -3.845  11.154  1.00  0.00     0.059 A 
ATOM     79  C   UNL     1      -7.566  -5.492  10.363  1.00  0.00     0.059 A 
ATOM     80  F   UNL     1      -5.295  -5.259  10.904  1.00  0.00    -0.206 F 
ATOM     81  C   UNL     1      -8.874  -5.015  10.451  1.00  0.00     0.060 A 
BRANCH  81  82
ATOM     82  S   UNL     1     -10.219  -5.880   9.611  1.00  0.00     0.124 S 
ATOM     83  O   UNL     1     -10.918  -6.496  10.732  1.00  0.00    -0.237 OA
ATOM     84  O   UNL     1     -10.918  -4.785   8.945  1.00  0.00    -0.237 OA
ATOM     85  O   UNL     1      -9.519  -6.800   8.719  1.00  0.00    -0.744 OA
ENDBRANCH  81  82
ENDBRANCH  49  74
BRANCH  61  86
ATOM     86  C   UNL     1      -5.017  -2.289  18.326  1.00  0.00     0.058 A 
ATOM     87  C   UNL     1      -4.983  -3.599  18.831  1.00  0.00     0.135 A 
ATOM     88  C   UNL     1      -5.634  -1.299  19.108  1.00  0.00     0.135 A 
ATOM     89  F   UNL     1      -4.408  -4.582  18.120  1.00  0.00    -0.206 F 
ATOM     90  C   UNL     1      -5.566  -3.921  20.051  1.00  0.00     0.059 A 
ATOM     91  C   UNL     1      -6.199  -1.594  20.344  1.00  0.00     0.059 A 
ATOM     92  F   UNL     1      -5.681  -0.029  18.677  1.00  0.00    -0.206 F 
ATOM     93  C   UNL     1      -6.174  -2.911  20.800  1.00  0.00     0.060 A 
BRANCH  93  94
ATOM     94  S   UNL     1      -6.911  -3.336  22.392  1.00  0.00     0.124 S 
ATOM     95  O   UNL     1      -8.144  -3.997  21.976  1.00  0.00    -0.237 OA
ATOM     96  O   UNL     1      -5.898  -4.202  22.987  1.00  0.00    -0.237 OA
ATOM     97  O   UNL     1      -7.081  -2.041  23.044  1.00  0.00    -0.744 OA
ENDBRANCH  93  94
ENDBRANCH  61  86
ENDBRANCH  35  36
ENDBRANCH  27  30
ENDBRANCH  25  26
ENDBRANCH   1  25
TORSDOF 15
