REMARK SMILES O=C(NCCCNC(=O)[C@@H]1Cc2ccccc2CN1C(=O)COc1ccccc1)c1ccc(-c2c3nc(c(-c4c(F)cc(S(=O)(=O)[O-])cc4F)c4ccc([nH]4)c(-c4c(F)cc(S(=O)(=O)[O-])cc4F)c4nc(c(-c5c(F)cc(S(=O)(=O)[O-])cc5F)c5ccc2[nH]5)C=C4)C=C3)cc1
REMARK SMILES IDX 5 1 4 2 3 3 1 4 2 5 30 7 31 8 95 9 32 10 94 11 33 12 34 13
REMARK SMILES IDX 35 14 88 15 36 16 93 17 87 18 89 19 37 20 92 21 86 22 85 23
REMARK SMILES IDX 38 25 72 26 51 27 71 28 52 29 55 30 70 31 90 32 53 33 54 34
REMARK SMILES IDX 69 36 91 37 56 38 39 39 40 40 49 41 41 42 42 43 48 44 50 45
REMARK SMILES IDX 43 46 44 47 45 48 46 49 47 50 73 51 74 52 83 53 75 54 76 55
REMARK SMILES IDX 82 56 84 57 77 58 78 59 79 60 80 61 81 62 57 63 58 64 67 65
REMARK SMILES IDX 59 66 60 67 66 68 68 69 61 70 62 71 63 72 64 73 65 74 6 75
REMARK SMILES IDX 7 76 8 77 9 79 10 80 11 81 19 82 12 83 18 84 13 85 17 86
REMARK SMILES IDX 14 87 16 88 15 89 20 90 21 91 22 92 23 93 24 94 25 95 29 96
REMARK SMILES IDX 26 97 28 98 27 99
REMARK H PARENT 3 6 89 24 55 35 7 78
REMARK Flexibility Score: inf
ROOT
ATOM      1  C   UNL     1       3.761  -0.732   6.392  1.00  0.00     0.042 C 
ENDROOT
BRANCH   1   2
ATOM      2  C   UNL     1       2.378  -0.788   7.037  1.00  0.00     0.118 C 
BRANCH   2   3
ATOM      3  N   UNL     1       2.259   0.147   8.140  1.00  0.00    -0.352 N 
ATOM      4  O   UNL     1       1.960   2.119   9.148  1.00  0.00    -0.269 OA
ATOM      5  C   UNL     1       1.691   1.397   8.189  1.00  0.00     0.251 C 
ATOM      6  H   UNL     1       2.646  -0.165   8.989  1.00  0.00     0.163 HD
BRANCH   5   7
ATOM      7  C   UNL     1       0.769   1.896   7.135  1.00  0.00     0.039 A 
ATOM      8  C   UNL     1      -0.204   1.083   6.545  1.00  0.00     0.014 A 
ATOM      9  C   UNL     1       0.791   3.263   6.828  1.00  0.00     0.014 A 
ATOM     10  C   UNL     1      -1.099   1.614   5.610  1.00  0.00     0.010 A 
ATOM     11  C   UNL     1      -0.148   3.807   5.944  1.00  0.00     0.010 A 
ATOM     12  C   UNL     1      -1.105   2.988   5.326  1.00  0.00    -0.014 A 
BRANCH  12  13
ATOM     13  C   UNL     1      -2.170   3.591   4.476  1.00  0.00     0.031 A 
ATOM     14  C   UNL     1      -1.835   4.274   3.179  1.00  0.00     0.074 A 
ATOM     15  C   UNL     1      -3.445   3.582   4.914  1.00  0.00     0.049 A 
ATOM     16  N   UNL     1      -2.615   4.953   2.378  1.00  0.00    -0.248 NA
ATOM     17  C   UNL     1      -0.437   4.192   2.731  1.00  0.00     0.031 C 
ATOM     18  C   UNL     1      -3.901   2.971   6.164  1.00  0.00     0.029 A 
ATOM     19  N   UNL     1      -4.588   4.116   4.371  1.00  0.00    -0.354 N 
ATOM     20  C   UNL     1      -1.803   5.406   1.345  1.00  0.00     0.074 A 
ATOM     21  C   UNL     1      -0.463   4.934   1.631  1.00  0.00     0.031 C 
ATOM     22  C   UNL     1      -5.224   3.157   6.289  1.00  0.00     0.029 A 
ATOM     23  C   UNL     1      -5.701   3.950   5.161  1.00  0.00     0.049 A 
ATOM     24  H   UNL     1      -4.608   4.574   3.500  1.00  0.00     0.167 HD
ATOM     25  C   UNL     1      -2.142   6.147   0.261  1.00  0.00     0.037 A 
ATOM     26  C   UNL     1      -6.961   4.408   5.019  1.00  0.00     0.037 A 
ATOM     27  C   UNL     1      -3.478   6.607  -0.024  1.00  0.00     0.049 A 
ATOM     28  C   UNL     1      -7.315   5.234   3.817  1.00  0.00     0.074 A 
ATOM     29  C   UNL     1      -3.925   7.332  -1.115  1.00  0.00     0.029 A 
ATOM     30  N   UNL     1      -4.581   6.395   0.791  1.00  0.00    -0.354 N 
ATOM     31  N   UNL     1      -6.540   5.627   2.835  1.00  0.00    -0.248 NA
ATOM     32  C   UNL     1      -8.709   5.682   3.701  1.00  0.00     0.031 C 
ATOM     33  C   UNL     1      -5.290   7.590  -0.943  1.00  0.00     0.029 A 
ATOM     34  C   UNL     1      -5.704   6.988   0.235  1.00  0.00     0.049 A 
ATOM     35  H   UNL     1      -4.569   5.897   1.640  1.00  0.00     0.167 HD
ATOM     36  C   UNL     1      -7.355   6.350   1.973  1.00  0.00     0.074 A 
ATOM     37  C   UNL     1      -8.685   6.339   2.548  1.00  0.00     0.031 C 
ATOM     38  C   UNL     1      -7.027   6.962   0.809  1.00  0.00     0.037 A 
BRANCH  25  39
ATOM     39  C   UNL     1      -1.037   6.531  -0.686  1.00  0.00     0.058 A 
ATOM     40  C   UNL     1      -0.430   5.592  -1.535  1.00  0.00     0.135 A 
ATOM     41  C   UNL     1      -0.582   7.858  -0.747  1.00  0.00     0.135 A 
ATOM     42  F   UNL     1      -0.821   4.308  -1.512  1.00  0.00    -0.206 F 
ATOM     43  C   UNL     1       0.620   5.945  -2.377  1.00  0.00     0.059 A 
ATOM     44  C   UNL     1       0.450   8.239  -1.601  1.00  0.00     0.059 A 
ATOM     45  F   UNL     1      -1.133   8.799   0.036  1.00  0.00    -0.206 F 
ATOM     46  C   UNL     1       1.060   7.270  -2.394  1.00  0.00     0.060 A 
BRANCH  46  47
ATOM     47  S   UNL     1       2.451   7.708  -3.460  1.00  0.00     0.124 S 
ATOM     48  O   UNL     1       3.578   7.182  -2.695  1.00  0.00    -0.237 OA
ATOM     49  O   UNL     1       2.139   6.996  -4.696  1.00  0.00    -0.237 OA
ATOM     50  O   UNL     1       2.371   9.163  -3.542  1.00  0.00    -0.744 OA
ENDBRANCH  46  47
ENDBRANCH  25  39
BRANCH  26  51
ATOM     51  C   UNL     1      -7.969   4.083   6.061  1.00  0.00     0.058 A 
ATOM     52  C   UNL     1      -8.960   3.120   5.830  1.00  0.00     0.135 A 
ATOM     53  C   UNL     1      -7.907   4.669   7.336  1.00  0.00     0.135 A 
ATOM     54  F   UNL     1      -9.062   2.539   4.625  1.00  0.00    -0.206 F 
ATOM     55  C   UNL     1      -9.848   2.736   6.830  1.00  0.00     0.059 A 
ATOM     56  C   UNL     1      -8.769   4.286   8.358  1.00  0.00     0.059 A 
ATOM     57  F   UNL     1      -6.965   5.585   7.609  1.00  0.00    -0.206 F 
ATOM     58  C   UNL     1      -9.736   3.317   8.095  1.00  0.00     0.060 A 
BRANCH  58  59
ATOM     59  S   UNL     1     -10.823   2.735   9.415  1.00  0.00     0.124 S 
ATOM     60  O   UNL     1     -12.087   3.365   9.055  1.00  0.00    -0.237 OA
ATOM     61  O   UNL     1     -10.762   1.286   9.247  1.00  0.00    -0.237 OA
ATOM     62  O   UNL     1     -10.183   3.243  10.625  1.00  0.00    -0.744 OA
ENDBRANCH  58  59
ENDBRANCH  26  51
BRANCH  38  63
ATOM     63  C   UNL     1      -8.128   7.642   0.045  1.00  0.00     0.058 A 
ATOM     64  C   UNL     1      -8.631   8.892   0.432  1.00  0.00     0.135 A 
ATOM     65  C   UNL     1      -8.625   7.069  -1.137  1.00  0.00     0.135 A 
ATOM     66  F   UNL     1      -8.196   9.476   1.560  1.00  0.00    -0.206 F 
ATOM     67  C   UNL     1      -9.592   9.554  -0.327  1.00  0.00     0.059 A 
ATOM     68  C   UNL     1      -9.571   7.721  -1.921  1.00  0.00     0.059 A 
ATOM     69  F   UNL     1      -8.172   5.875  -1.552  1.00  0.00    -0.206 F 
ATOM     70  C   UNL     1     -10.051   8.963  -1.506  1.00  0.00     0.060 A 
BRANCH  70  71
ATOM     71  S   UNL     1     -11.246   9.861  -2.521  1.00  0.00     0.124 S 
ATOM     72  O   UNL     1     -12.477   9.671  -1.762  1.00  0.00    -0.237 OA
ATOM     73  O   UNL     1     -10.703  11.216  -2.519  1.00  0.00    -0.237 OA
ATOM     74  O   UNL     1     -11.186   9.171  -3.806  1.00  0.00    -0.744 OA
ENDBRANCH  70  71
ENDBRANCH  38  63
ENDBRANCH  12  13
ENDBRANCH   5   7
ENDBRANCH   2   3
ENDBRANCH   1   2
BRANCH   1  75
ATOM     75  C   UNL     1       4.822  -1.586   7.086  1.00  0.00     0.117 C 
BRANCH  75  76
ATOM     76  N   UNL     1       4.574  -3.017   6.961  1.00  0.00    -0.354 N 
ATOM     77  C   UNL     1       5.104  -4.014   6.204  1.00  0.00     0.243 C 
ATOM     78  H   UNL     1       3.861  -3.334   7.561  1.00  0.00     0.163 HD
ATOM     79  O   UNL     1       4.710  -5.155   6.485  1.00  0.00    -0.273 OA
BRANCH  77  80
ATOM     80  C   UNL     1       6.140  -3.838   5.060  1.00  0.00     0.179 C 
ATOM     81  C   UNL     1       7.352  -4.749   5.406  1.00  0.00     0.071 C 
ATOM     82  N   UNL     1       6.523  -2.469   4.665  1.00  0.00    -0.323 N 
ATOM     83  C   UNL     1       8.549  -4.438   4.543  1.00  0.00    -0.040 A 
ATOM     84  C   UNL     1       7.905  -2.061   4.920  1.00  0.00     0.156 C 
ATOM     85  C   UNL     1       9.367  -5.430   4.002  1.00  0.00     0.004 A 
ATOM     86  C   UNL     1       8.834  -3.081   4.308  1.00  0.00    -0.025 A 
ATOM     87  C   UNL     1      10.456  -5.071   3.207  1.00  0.00     0.000 A 
ATOM     88  C   UNL     1       9.931  -2.728   3.519  1.00  0.00     0.006 A 
ATOM     89  C   UNL     1      10.736  -3.724   2.965  1.00  0.00     0.000 A 
BRANCH  82  90
ATOM     90  C   UNL     1       5.739  -1.641   3.874  1.00  0.00     0.261 C 
ATOM     91  O   UNL     1       6.040  -0.459   3.694  1.00  0.00    -0.271 OA
BRANCH  90  92
ATOM     92  C   UNL     1       4.471  -2.223   3.231  1.00  0.00     0.329 C 
BRANCH  92  93
ATOM     93  O   UNL     1       4.761  -3.029   2.090  1.00  0.00    -0.484 OA
BRANCH  93  94
ATOM     94  C   UNL     1       4.748  -2.242   0.969  1.00  0.00     0.120 A 
ATOM     95  C   UNL     1       3.577  -2.151   0.221  1.00  0.00     0.046 A 
ATOM     96  C   UNL     1       5.892  -1.536   0.601  1.00  0.00     0.046 A 
ATOM     97  C   UNL     1       3.533  -1.293  -0.877  1.00  0.00     0.004 A 
ATOM     98  C   UNL     1       5.842  -0.675  -0.493  1.00  0.00     0.004 A 
ATOM     99  C   UNL     1       4.661  -0.548  -1.226  1.00  0.00     0.000 A 
ENDBRANCH  93  94
ENDBRANCH  92  93
ENDBRANCH  90  92
ENDBRANCH  82  90
ENDBRANCH  77  80
ENDBRANCH  75  76
ENDBRANCH   1  75
TORSDOF 17
