REMARK SMILES CC(C)CCc1cc2c(cc1Cl)C=C(C(=O)NCCCNC(=O)c1ccc(-c3c4nc(c(-c5c(F)cc(S(=O)(=O)[O-])cc5F)c5ccc([nH]5)c(-c5c(F)cc(S(=O)(=O)[O-])cc5F)c5nc(c(-c6c(F)cc(S(=O)(=O)[O-])cc6F)c6ccc3[nH]6)C=C5)C=C4)cc1)[C@H](C(F)(F)F)O2
REMARK SMILES IDX 19 1 18 2 17 3 15 4 16 5 14 7 6 8 7 9 11 10 8 11 10 12 12 13
REMARK SMILES IDX 9 14 95 15 13 16 90 17 5 18 4 19 2 20 1 21 3 22 91 23 92 24
REMARK SMILES IDX 93 25 94 26 20 27 21 28 22 29 23 31 24 32 25 33 89 34 26 35
REMARK SMILES IDX 88 36 27 37 28 38 29 39 82 40 30 41 87 42 81 43 83 44 31 45
REMARK SMILES IDX 86 46 80 47 79 48 32 50 66 51 45 52 65 53 46 54 49 55 64 56
REMARK SMILES IDX 84 57 47 58 48 59 63 61 85 62 50 63 33 64 34 65 43 66 35 67
REMARK SMILES IDX 36 68 42 69 44 70 37 71 38 72 39 73 40 74 41 75 67 76 68 77
REMARK SMILES IDX 77 78 69 79 70 80 76 81 78 82 71 83 72 84 73 85 74 86 75 87
REMARK SMILES IDX 51 88 52 89 61 90 53 91 54 92 60 93 62 94 55 95 56 96 57 97
REMARK SMILES IDX 58 98 59 99
REMARK H PARENT 17 6 21 30 83 49 49 60
REMARK Flexibility Score: inf
ROOT
ATOM      1  C   UNL     1      -0.808   7.326   8.077  1.00  0.00     0.042 C 
ENDROOT
BRANCH   1   2
ATOM      2  C   UNL     1       0.501   6.633   7.719  1.00  0.00     0.118 C 
BRANCH   2   3
ATOM      3  N   UNL     1       0.617   5.330   8.357  1.00  0.00    -0.352 N 
ATOM      4  C   UNL     1       0.487   4.035   7.987  1.00  0.00     0.251 C 
ATOM      5  O   UNL     1       0.801   3.206   8.847  1.00  0.00    -0.270 OA
ATOM      6  H   UNL     1       0.853   5.412   9.310  1.00  0.00     0.163 HD
BRANCH   4   7
ATOM      7  C   UNL     1       0.011   3.567   6.654  1.00  0.00     0.067 C 
ATOM      8  C   UNL     1      -1.067   0.749   2.597  1.00  0.00    -0.026 A 
ATOM      9  C   UNL     1      -1.166   2.112   2.921  1.00  0.00     0.052 A 
ATOM     10  C   UNL     1      -0.579  -0.127   3.583  1.00  0.00     0.045 A 
ATOM     11  C   UNL     1      -0.735   2.590   4.154  1.00  0.00     0.128 A 
ATOM     12  C   UNL     1      -0.153   0.360   4.828  1.00  0.00     0.032 A 
ATOM     13  Cl  UNL     1      -0.458  -1.832   3.324  1.00  0.00    -0.084 Cl
ATOM     14  C   UNL     1      -0.216   1.726   5.111  1.00  0.00     0.019 A 
ATOM     15  O   UNL     1      -0.798   3.942   4.330  1.00  0.00    -0.475 OA
ATOM     16  C   UNL     1       0.277   2.278   6.366  1.00  0.00     0.025 C 
ATOM     17  C   UNL     1      -0.815   4.398   5.709  1.00  0.00     0.314 C 
BRANCH   8  18
ATOM     18  C   UNL     1      -1.489   0.305   1.213  1.00  0.00     0.037 C 
BRANCH  18  19
ATOM     19  C   UNL     1      -0.907   1.156   0.066  1.00  0.00     0.008 C 
BRANCH  19  20
ATOM     20  C   UNL     1       0.633   1.256   0.047  1.00  0.00    -0.017 C 
ATOM     21  C   UNL     1       1.291  -0.097  -0.216  1.00  0.00     0.007 C 
ATOM     22  C   UNL     1       1.078   2.272  -1.007  1.00  0.00     0.007 C 
ENDBRANCH  19  20
ENDBRANCH  18  19
ENDBRANCH   8  18
BRANCH  17  23
ATOM     23  C   UNL     1      -2.265   4.611   6.172  1.00  0.00     0.429 C 
ATOM     24  F   UNL     1      -3.123   3.717   5.634  1.00  0.00    -0.167 F 
ATOM     25  F   UNL     1      -2.394   4.529   7.516  1.00  0.00    -0.167 F 
ATOM     26  F   UNL     1      -2.687   5.849   5.811  1.00  0.00    -0.167 F 
ENDBRANCH  17  23
ENDBRANCH   4   7
ENDBRANCH   2   3
ENDBRANCH   1   2
BRANCH   1  27
ATOM     27  C   UNL     1      -0.798   7.912   9.485  1.00  0.00     0.118 C 
BRANCH  27  28
ATOM     28  N   UNL     1       0.037   9.105   9.574  1.00  0.00    -0.352 N 
ATOM     29  C   UNL     1      -0.316  10.420   9.762  1.00  0.00     0.251 C 
ATOM     30  H   UNL     1       1.004   8.943   9.484  1.00  0.00     0.163 HD
ATOM     31  O   UNL     1       0.518  11.302   9.563  1.00  0.00    -0.269 OA
BRANCH  29  32
ATOM     32  C   UNL     1      -1.689  10.775  10.182  1.00  0.00     0.039 A 
ATOM     33  C   UNL     1      -2.359  10.010  11.137  1.00  0.00     0.014 A 
ATOM     34  C   UNL     1      -2.314  11.893   9.622  1.00  0.00     0.014 A 
ATOM     35  C   UNL     1      -3.706  10.243  11.387  1.00  0.00     0.010 A 
ATOM     36  C   UNL     1      -3.639  12.192   9.960  1.00  0.00     0.010 A 
ATOM     37  C   UNL     1      -4.363  11.340  10.808  1.00  0.00    -0.014 A 
BRANCH  37  38
ATOM     38  C   UNL     1      -5.801  11.571  11.112  1.00  0.00     0.031 A 
ATOM     39  C   UNL     1      -6.837  11.529  10.019  1.00  0.00     0.074 A 
ATOM     40  C   UNL     1      -6.180  11.757  12.393  1.00  0.00     0.049 A 
ATOM     41  N   UNL     1      -8.132  11.702  10.104  1.00  0.00    -0.248 NA
ATOM     42  C   UNL     1      -6.361  11.264   8.651  1.00  0.00     0.031 C 
ATOM     43  C   UNL     1      -5.271  11.802  13.542  1.00  0.00     0.029 A 
ATOM     44  N   UNL     1      -7.423  11.911  12.952  1.00  0.00    -0.354 N 
ATOM     45  C   UNL     1      -8.621  11.585   8.807  1.00  0.00     0.074 A 
ATOM     46  C   UNL     1      -7.480  11.360   7.947  1.00  0.00     0.031 C 
ATOM     47  C   UNL     1      -5.989  11.906  14.669  1.00  0.00     0.029 A 
ATOM     48  C   UNL     1      -7.401  12.016  14.323  1.00  0.00     0.049 A 
ATOM     49  H   UNL     1      -8.252  11.944  12.422  1.00  0.00     0.167 HD
ATOM     50  C   UNL     1      -9.905  11.642   8.377  1.00  0.00     0.037 A 
ATOM     51  C   UNL     1      -8.401  12.197  15.207  1.00  0.00     0.037 A 
ATOM     52  C   UNL     1     -11.038  11.842   9.245  1.00  0.00     0.049 A 
ATOM     53  C   UNL     1      -9.809  12.311  14.699  1.00  0.00     0.074 A 
ATOM     54  C   UNL     1     -12.379  11.903   8.907  1.00  0.00     0.029 A 
ATOM     55  N   UNL     1     -10.966  12.007  10.621  1.00  0.00    -0.354 N 
ATOM     56  N   UNL     1     -10.250  12.207  13.468  1.00  0.00    -0.248 NA
ATOM     57  C   UNL     1     -10.855  12.582  15.694  1.00  0.00     0.031 C 
ATOM     58  C   UNL     1     -13.113  12.151  10.071  1.00  0.00     0.029 A 
ATOM     59  C   UNL     1     -12.236  12.193  11.143  1.00  0.00     0.049 A 
ATOM     60  H   UNL     1     -10.135  11.995  11.149  1.00  0.00     0.167 HD
ATOM     61  C   UNL     1     -11.625  12.389  13.541  1.00  0.00     0.074 A 
ATOM     62  C   UNL     1     -11.946  12.588  14.940  1.00  0.00     0.031 C 
ATOM     63  C   UNL     1     -12.538  12.395  12.539  1.00  0.00     0.037 A 
BRANCH  50  64
ATOM     64  C   UNL     1     -10.160  11.496   6.901  1.00  0.00     0.058 A 
ATOM     65  C   UNL     1     -10.015  10.264   6.244  1.00  0.00     0.135 A 
ATOM     66  C   UNL     1     -10.609  12.591   6.143  1.00  0.00     0.135 A 
ATOM     67  F   UNL     1      -9.574   9.188   6.915  1.00  0.00    -0.206 F 
ATOM     68  C   UNL     1     -10.285  10.126   4.886  1.00  0.00     0.059 A 
ATOM     69  C   UNL     1     -10.911  12.470   4.788  1.00  0.00     0.059 A 
ATOM     70  F   UNL     1     -10.766  13.793   6.719  1.00  0.00    -0.206 F 
ATOM     71  C   UNL     1     -10.735  11.235   4.167  1.00  0.00     0.060 A 
BRANCH  71  72
ATOM     72  S   UNL     1     -11.088  11.034   2.407  1.00  0.00     0.124 S 
ATOM     73  O   UNL     1      -9.747  10.846   1.861  1.00  0.00    -0.237 OA
ATOM     74  O   UNL     1     -11.947   9.854   2.396  1.00  0.00    -0.237 OA
ATOM     75  O   UNL     1     -11.742  12.287   2.044  1.00  0.00    -0.744 OA
ENDBRANCH  71  72
ENDBRANCH  50  64
BRANCH  51  76
ATOM     76  C   UNL     1      -8.093  12.288  16.659  1.00  0.00     0.058 A 
ATOM     77  C   UNL     1      -8.475  11.269  17.543  1.00  0.00     0.135 A 
ATOM     78  C   UNL     1      -7.370  13.372  17.184  1.00  0.00     0.135 A 
ATOM     79  F   UNL     1      -9.174  10.216  17.091  1.00  0.00    -0.206 F 
ATOM     80  C   UNL     1      -8.154  11.320  18.895  1.00  0.00     0.059 A 
ATOM     81  C   UNL     1      -7.012  13.431  18.526  1.00  0.00     0.059 A 
ATOM     82  F   UNL     1      -6.969  14.366  16.377  1.00  0.00    -0.206 F 
ATOM     83  C   UNL     1      -7.413  12.402  19.376  1.00  0.00     0.060 A 
BRANCH  83  84
ATOM     84  S   UNL     1      -6.943  12.422  21.119  1.00  0.00     0.124 S 
ATOM     85  O   UNL     1      -8.227  12.662  21.767  1.00  0.00    -0.237 OA
ATOM     86  O   UNL     1      -6.377  11.088  21.296  1.00  0.00    -0.237 OA
ATOM     87  O   UNL     1      -5.982  13.518  21.196  1.00  0.00    -0.744 OA
ENDBRANCH  83  84
ENDBRANCH  51  76
BRANCH  63  88
ATOM     88  C   UNL     1     -13.977  12.614  12.915  1.00  0.00     0.058 A 
ATOM     89  C   UNL     1     -14.449  13.877  13.302  1.00  0.00     0.135 A 
ATOM     90  C   UNL     1     -14.906  11.565  12.822  1.00  0.00     0.135 A 
ATOM     91  F   UNL     1     -13.599  14.911  13.415  1.00  0.00    -0.206 F 
ATOM     92  C   UNL     1     -15.791  14.091  13.597  1.00  0.00     0.059 A 
ATOM     93  C   UNL     1     -16.258  11.763  13.086  1.00  0.00     0.059 A 
ATOM     94  F   UNL     1     -14.508  10.339  12.449  1.00  0.00    -0.206 F 
ATOM     95  C   UNL     1     -16.689  13.029  13.480  1.00  0.00     0.060 A 
BRANCH  95  96
ATOM     96  S   UNL     1     -18.435  13.336  13.822  1.00  0.00     0.124 S 
ATOM     97  O   UNL     1     -18.424  13.520  15.269  1.00  0.00    -0.237 OA
ATOM     98  O   UNL     1     -18.699  14.534  13.032  1.00  0.00    -0.237 OA
ATOM     99  O   UNL     1     -19.094  12.122  13.349  1.00  0.00    -0.744 OA
ENDBRANCH  95  96
ENDBRANCH  63  88
ENDBRANCH  37  38
ENDBRANCH  29  32
ENDBRANCH  27  28
ENDBRANCH   1  27
TORSDOF 17
