REMARK SMILES Cc1c(Cl)cc2c(c1C)O[C@H](C(F)(F)F)C(C(=O)NCCCNC(=O)c1ccc(-c3c4nc(c(-c5c(F)cc(S(=O)(=O)[O-])cc5F)c5ccc([nH]5)c(-c5c(F)cc(S(=O)(=O)[O-])cc5F)c5nc(c(-c6c(F)cc(S(=O)(=O)[O-])cc6F)c6ccc3[nH]6)C=C5)C=C4)cc1)=C2
REMARK SMILES IDX 22 1 21 2 20 3 19 4 17 5 18 6 16 8 1 9 2 10 3 11 8 12 4 13
REMARK SMILES IDX 5 14 7 15 9 16 6 17 10 18 92 19 11 20 12 21 13 22 14 23
REMARK SMILES IDX 15 24 23 25 24 26 25 28 26 29 27 30 91 31 28 32 90 33 29 34
REMARK SMILES IDX 30 35 31 36 84 37 32 38 89 39 83 40 85 41 33 42 88 43 82 44
REMARK SMILES IDX 81 45 34 47 68 48 47 49 67 50 48 51 51 52 66 53 86 54 49 55
REMARK SMILES IDX 50 56 65 58 87 59 52 60 35 61 36 62 45 63 37 64 38 65 44 66
REMARK SMILES IDX 46 67 39 68 40 69 41 70 42 71 43 72 69 73 70 74 79 75 71 76
REMARK SMILES IDX 72 77 78 78 80 79 73 80 74 81 75 82 76 83 77 84 53 85 54 86
REMARK SMILES IDX 63 87 55 88 56 89 62 90 64 91 57 92 58 93 59 94 60 95 61 96
REMARK H PARENT 19 7 23 27 85 46 51 57
REMARK Flexibility Score: inf
ROOT
ATOM      1  C   UNL     1       2.175 -10.969   1.063  1.00  0.00     0.118 C 
ENDROOT
BRANCH   1   2
ATOM      2  C   UNL     1       2.496  -9.509   0.763  1.00  0.00     0.042 C 
BRANCH   2   3
ATOM      3  C   UNL     1       1.720  -8.984  -0.437  1.00  0.00     0.118 C 
BRANCH   3   4
ATOM      4  N   UNL     1       0.338  -8.673  -0.099  1.00  0.00    -0.352 N 
ATOM      5  C   UNL     1      -0.410  -7.564   0.100  1.00  0.00     0.251 C 
ATOM      6  O   UNL     1      -1.596  -7.774   0.377  1.00  0.00    -0.270 OA
ATOM      7  H   UNL     1      -0.196  -9.492   0.015  1.00  0.00     0.163 HD
BRANCH   5   8
ATOM      8  C   UNL     1       0.087  -6.162   0.002  1.00  0.00     0.067 C 
ATOM      9  C   UNL     1       0.883   0.340   0.008  1.00  0.00     0.046 C 
ATOM     10  C   UNL     1       0.472  -1.109   0.067  1.00  0.00    -0.026 A 
ATOM     11  C   UNL     1      -0.894  -1.442   0.210  1.00  0.00     0.045 A 
ATOM     12  C   UNL     1       1.411  -2.160  -0.059  1.00  0.00    -0.004 A 
ATOM     13  Cl  UNL     1      -2.126  -0.226   0.288  1.00  0.00    -0.084 Cl
ATOM     14  C   UNL     1      -1.319  -2.772   0.286  1.00  0.00     0.032 A 
ATOM     15  C   UNL     1       0.959  -3.493   0.031  1.00  0.00     0.131 A 
ATOM     16  C   UNL     1       2.889  -1.942  -0.275  1.00  0.00     0.049 C 
ATOM     17  C   UNL     1      -0.391  -3.805   0.205  1.00  0.00     0.019 A 
ATOM     18  O   UNL     1       1.911  -4.477  -0.012  1.00  0.00    -0.475 OA
ATOM     19  C   UNL     1      -0.800  -5.200   0.319  1.00  0.00     0.025 C 
ATOM     20  C   UNL     1       1.466  -5.785  -0.454  1.00  0.00     0.314 C 
BRANCH  20  21
ATOM     21  C   UNL     1       1.638  -5.893  -1.981  1.00  0.00     0.429 C 
ATOM     22  F   UNL     1       2.953  -5.892  -2.313  1.00  0.00    -0.167 F 
ATOM     23  F   UNL     1       1.115  -7.036  -2.485  1.00  0.00    -0.167 F 
ATOM     24  F   UNL     1       1.052  -4.872  -2.647  1.00  0.00    -0.167 F 
ENDBRANCH  20  21
ENDBRANCH   5   8
ENDBRANCH   3   4
ENDBRANCH   2   3
ENDBRANCH   1   2
BRANCH   1  25
ATOM     25  N   UNL     1       2.621 -11.852  -0.011  1.00  0.00    -0.352 N 
ATOM     26  C   UNL     1       3.702 -12.696  -0.070  1.00  0.00     0.251 C 
ATOM     27  H   UNL     1       2.058 -11.841  -0.819  1.00  0.00     0.163 HD
ATOM     28  O   UNL     1       4.069 -13.137  -1.157  1.00  0.00    -0.269 OA
BRANCH  26  29
ATOM     29  C   UNL     1       4.420 -13.067   1.165  1.00  0.00     0.039 A 
ATOM     30  C   UNL     1       5.814 -13.140   1.155  1.00  0.00     0.014 A 
ATOM     31  C   UNL     1       3.708 -13.367   2.329  1.00  0.00     0.014 A 
ATOM     32  C   UNL     1       6.496 -13.448   2.334  1.00  0.00     0.010 A 
ATOM     33  C   UNL     1       4.389 -13.579   3.521  1.00  0.00     0.010 A 
ATOM     34  C   UNL     1       5.789 -13.634   3.533  1.00  0.00    -0.014 A 
BRANCH  34  35
ATOM     35  C   UNL     1       6.489 -13.914   4.810  1.00  0.00     0.031 A 
ATOM     36  C   UNL     1       6.257 -15.220   5.520  1.00  0.00     0.074 A 
ATOM     37  C   UNL     1       7.281 -12.970   5.356  1.00  0.00     0.049 A 
ATOM     38  N   UNL     1       6.717 -15.623   6.676  1.00  0.00    -0.248 NA
ATOM     39  C   UNL     1       5.365 -16.189   4.860  1.00  0.00     0.031 C 
ATOM     40  C   UNL     1       7.540 -11.647   4.782  1.00  0.00     0.029 A 
ATOM     41  N   UNL     1       8.014 -12.976   6.515  1.00  0.00    -0.354 N 
ATOM     42  C   UNL     1       6.164 -16.881   6.883  1.00  0.00     0.074 A 
ATOM     43  C   UNL     1       5.283 -17.148   5.769  1.00  0.00     0.031 C 
ATOM     44  C   UNL     1       8.402 -10.986   5.571  1.00  0.00     0.029 A 
ATOM     45  C   UNL     1       8.730 -11.821   6.722  1.00  0.00     0.049 A 
ATOM     46  H   UNL     1       8.027 -13.737   7.140  1.00  0.00     0.167 HD
ATOM     47  C   UNL     1       6.398 -17.751   7.894  1.00  0.00     0.037 A 
ATOM     48  C   UNL     1       9.560 -11.477   7.726  1.00  0.00     0.037 A 
ATOM     49  C   UNL     1       7.306 -17.493   8.978  1.00  0.00     0.049 A 
ATOM     50  C   UNL     1       9.805 -12.459   8.838  1.00  0.00     0.074 A 
ATOM     51  C   UNL     1       7.654 -18.326  10.025  1.00  0.00     0.029 A 
ATOM     52  N   UNL     1       8.018 -16.314   9.148  1.00  0.00    -0.354 N 
ATOM     53  N   UNL     1       9.310 -13.664   8.994  1.00  0.00    -0.248 NA
ATOM     54  C   UNL     1      10.718 -12.039   9.910  1.00  0.00     0.031 C 
ATOM     55  C   UNL     1       8.553 -17.639  10.847  1.00  0.00     0.029 A 
ATOM     56  C   UNL     1       8.795 -16.392  10.290  1.00  0.00     0.049 A 
ATOM     57  H   UNL     1       7.977 -15.537   8.544  1.00  0.00     0.167 HD
ATOM     58  C   UNL     1       9.866 -14.154  10.170  1.00  0.00     0.074 A 
ATOM     59  C   UNL     1      10.744 -13.120  10.679  1.00  0.00     0.031 C 
ATOM     60  C   UNL     1       9.667 -15.351  10.774  1.00  0.00     0.037 A 
BRANCH  47  61
ATOM     61  C   UNL     1       5.682 -19.072   7.856  1.00  0.00     0.058 A 
ATOM     62  C   UNL     1       6.019 -20.058   6.914  1.00  0.00     0.135 A 
ATOM     63  C   UNL     1       4.675 -19.372   8.787  1.00  0.00     0.135 A 
ATOM     64  F   UNL     1       6.962 -19.816   5.990  1.00  0.00    -0.206 F 
ATOM     65  C   UNL     1       5.366 -21.285   6.880  1.00  0.00     0.059 A 
ATOM     66  C   UNL     1       4.026 -20.604   8.788  1.00  0.00     0.059 A 
ATOM     67  F   UNL     1       4.311 -18.464   9.706  1.00  0.00    -0.206 F 
ATOM     68  C   UNL     1       4.370 -21.549   7.822  1.00  0.00     0.060 A 
BRANCH  68  69
ATOM     69  S   UNL     1       3.541 -23.151   7.766  1.00  0.00     0.124 S 
ATOM     70  O   UNL     1       2.724 -23.014   6.564  1.00  0.00    -0.237 OA
ATOM     71  O   UNL     1       4.663 -24.079   7.668  1.00  0.00    -0.237 OA
ATOM     72  O   UNL     1       2.801 -23.196   9.024  1.00  0.00    -0.744 OA
ENDBRANCH  68  69
ENDBRANCH  47  61
BRANCH  48  73
ATOM     73  C   UNL     1      10.254 -10.163   7.694  1.00  0.00     0.058 A 
ATOM     74  C   UNL     1      11.627 -10.086   7.419  1.00  0.00     0.135 A 
ATOM     75  C   UNL     1       9.560  -8.960   7.899  1.00  0.00     0.135 A 
ATOM     76  F   UNL     1      12.334 -11.209   7.221  1.00  0.00    -0.206 F 
ATOM     77  C   UNL     1      12.291  -8.866   7.353  1.00  0.00     0.059 A 
ATOM     78  C   UNL     1      10.198  -7.726   7.817  1.00  0.00     0.059 A 
ATOM     79  F   UNL     1       8.242  -8.979   8.148  1.00  0.00    -0.206 F 
ATOM     80  C   UNL     1      11.565  -7.689   7.548  1.00  0.00     0.060 A 
BRANCH  80  81
ATOM     81  S   UNL     1      12.427  -6.109   7.396  1.00  0.00     0.124 S 
ATOM     82  O   UNL     1      13.243  -6.102   8.605  1.00  0.00    -0.237 OA
ATOM     83  O   UNL     1      13.148  -6.274   6.138  1.00  0.00    -0.237 OA
ATOM     84  O   UNL     1      11.339  -5.136   7.363  1.00  0.00    -0.744 OA
ENDBRANCH  80  81
ENDBRANCH  48  73
BRANCH  60  85
ATOM     85  C   UNL     1      10.417 -15.623  12.045  1.00  0.00     0.058 A 
ATOM     86  C   UNL     1      10.025 -15.042  13.260  1.00  0.00     0.135 A 
ATOM     87  C   UNL     1      11.472 -16.549  12.065  1.00  0.00     0.135 A 
ATOM     88  F   UNL     1       9.027 -14.145  13.290  1.00  0.00    -0.206 F 
ATOM     89  C   UNL     1      10.656 -15.370  14.455  1.00  0.00     0.059 A 
ATOM     90  C   UNL     1      12.102 -16.909  13.252  1.00  0.00     0.059 A 
ATOM     91  F   UNL     1      11.877 -17.138  10.929  1.00  0.00    -0.206 F 
ATOM     92  C   UNL     1      11.687 -16.312  14.442  1.00  0.00     0.060 A 
BRANCH  92  93
ATOM     93  S   UNL     1      12.447 -16.779  16.011  1.00  0.00     0.124 S 
ATOM     94  O   UNL     1      13.223 -15.585  16.330  1.00  0.00    -0.237 OA
ATOM     95  O   UNL     1      11.284 -17.024  16.859  1.00  0.00    -0.237 OA
ATOM     96  O   UNL     1      13.228 -17.964  15.672  1.00  0.00    -0.744 OA
ENDBRANCH  92  93
ENDBRANCH  60  85
ENDBRANCH  34  35
ENDBRANCH  26  29
ENDBRANCH   1  25
TORSDOF 14
