REMARK SMILES COc1cc(C)c(S(=O)(=O)Nc2cc(C(=O)NCCCNC(=O)c3ccc(-c4c5nc(c(-c6c(F)cc(S(=O)(=O)[O-])cc6F)c6ccc([nH]6)c(-c6c(F)cc(S(=O)(=O)[O-])cc6F)c6nc(c(-c7c(F)cc(S(=O)(=O)[O-])cc7F)c7ccc4[nH]7)C=C6)C=C5)cc3)ccc2F)cc1OC
REMARK SMILES IDX 18 1 17 2 15 3 16 4 14 6 12 7 13 8 92 9 91 10 93 11 90 12
REMARK SMILES IDX 11 13 8 15 9 16 10 17 7 18 3 19 4 20 95 21 5 22 94 23 6 24
REMARK SMILES IDX 2 25 1 26 96 27 97 28 19 29 20 30 21 31 22 32 23 34 24 35
REMARK SMILES IDX 25 36 89 37 26 38 88 39 27 40 28 41 29 42 82 43 30 44 87 45
REMARK SMILES IDX 81 46 83 47 31 48 86 49 80 50 79 51 32 53 66 54 45 55 65 56
REMARK SMILES IDX 46 57 49 58 64 59 84 60 47 61 48 62 63 64 85 65 50 66 33 67
REMARK SMILES IDX 34 68 43 69 35 70 36 71 42 72 44 73 37 74 38 75 39 76 40 77
REMARK SMILES IDX 41 78 67 79 68 80 77 81 69 82 70 83 76 84 78 85 71 86 72 87
REMARK SMILES IDX 73 88 74 89 75 90 51 91 52 92 61 93 53 94 54 95 60 96 62 97
REMARK SMILES IDX 55 98 56 99 57 100 58 101 59 102
REMARK H PARENT 17 5 11 14 21 33 83 52 49 63
REMARK Flexibility Score: inf
ROOT
ATOM      1  C   UNL     1       3.482   4.083   1.006  1.00  0.00     0.118 C 
ENDROOT
BRANCH   1   2
ATOM      2  N   UNL     1       4.744   3.449   0.642  1.00  0.00    -0.352 N 
ATOM      3  C   UNL     1       5.696   2.775   1.368  1.00  0.00     0.251 C 
ATOM      4  O   UNL     1       6.604   2.218   0.749  1.00  0.00    -0.269 OA
ATOM      5  H   UNL     1       4.957   3.518  -0.317  1.00  0.00     0.163 HD
BRANCH   3   6
ATOM      6  C   UNL     1       5.681   2.638   2.857  1.00  0.00     0.042 A 
ATOM      7  C   UNL     1       4.808   3.129   5.070  1.00  0.00     0.085 A 
ATOM      8  C   UNL     1       4.869   3.387   3.706  1.00  0.00     0.043 A 
ATOM      9  C   UNL     1       5.666   2.186   5.632  1.00  0.00     0.147 A 
ATOM     10  C   UNL     1       6.543   1.468   4.827  1.00  0.00     0.042 A 
ATOM     11  F   UNL     1       5.635   1.952   6.951  1.00  0.00    -0.205 F 
ATOM     12  C   UNL     1       6.536   1.682   3.442  1.00  0.00     0.017 A 
BRANCH   7  13
ATOM     13  N   UNL     1       3.845   3.849   5.848  1.00  0.00    -0.277 N 
ATOM     14  H   UNL     1       4.133   4.619   6.389  1.00  0.00     0.180 HD
BRANCH  13  15
ATOM     15  S   UNL     1       2.199   3.383   5.845  1.00  0.00     0.262 S 
ATOM     16  O   UNL     1       1.474   4.626   6.018  1.00  0.00    -0.201 OA
ATOM     17  O   UNL     1       2.072   2.352   6.856  1.00  0.00    -0.201 OA
BRANCH  15  18
ATOM     18  C   UNL     1       1.705   2.663   4.277  1.00  0.00     0.094 A 
ATOM     19  C   UNL     1       0.665   1.612   1.841  1.00  0.00     0.161 A 
ATOM     20  C   UNL     1       1.661   0.944   2.560  1.00  0.00     0.055 A 
ATOM     21  C   UNL     1       0.118   2.772   2.402  1.00  0.00     0.162 A 
ATOM     22  C   UNL     1       2.130   1.405   3.815  1.00  0.00    -0.027 A 
ATOM     23  C   UNL     1       0.687   3.323   3.565  1.00  0.00     0.073 A 
ATOM     24  C   UNL     1       3.032   0.456   4.545  1.00  0.00     0.046 C 
BRANCH  19  25
ATOM     25  O   UNL     1       0.185   1.184   0.635  1.00  0.00    -0.493 OA
ATOM     26  C   UNL     1       0.846   0.113  -0.023  1.00  0.00     0.278 C 
ENDBRANCH  19  25
BRANCH  21  27
ATOM     27  O   UNL     1      -0.959   3.481   1.942  1.00  0.00    -0.493 OA
ATOM     28  C   UNL     1      -1.933   2.781   1.173  1.00  0.00     0.278 C 
ENDBRANCH  21  27
ENDBRANCH  15  18
ENDBRANCH  13  15
ENDBRANCH   7  13
ENDBRANCH   3   6
ENDBRANCH   1   2
BRANCH   1  29
ATOM     29  C   UNL     1       3.644   5.538   1.454  1.00  0.00     0.042 C 
BRANCH  29  30
ATOM     30  C   UNL     1       3.509   6.519   0.307  1.00  0.00     0.118 C 
BRANCH  30  31
ATOM     31  N   UNL     1       2.703   7.690   0.649  1.00  0.00    -0.352 N 
ATOM     32  C   UNL     1       2.494   8.811  -0.140  1.00  0.00     0.251 C 
ATOM     33  H   UNL     1       2.264   7.683   1.530  1.00  0.00     0.163 HD
ATOM     34  O   UNL     1       1.837   9.768   0.221  1.00  0.00    -0.269 OA
BRANCH  32  35
ATOM     35  C   UNL     1       3.078   8.751  -1.494  1.00  0.00     0.039 A 
ATOM     36  C   UNL     1       2.222   8.418  -2.549  1.00  0.00     0.014 A 
ATOM     37  C   UNL     1       4.459   8.611  -1.597  1.00  0.00     0.014 A 
ATOM     38  C   UNL     1       2.744   7.765  -3.662  1.00  0.00     0.010 A 
ATOM     39  C   UNL     1       4.952   7.868  -2.651  1.00  0.00     0.010 A 
ATOM     40  C   UNL     1       4.093   7.410  -3.664  1.00  0.00    -0.014 A 
BRANCH  40  41
ATOM     41  C   UNL     1       4.689   6.503  -4.639  1.00  0.00     0.031 A 
ATOM     42  C   UNL     1       5.666   7.022  -5.623  1.00  0.00     0.074 A 
ATOM     43  C   UNL     1       4.434   5.175  -4.608  1.00  0.00     0.049 A 
ATOM     44  N   UNL     1       5.968   6.425  -6.727  1.00  0.00    -0.248 NA
ATOM     45  C   UNL     1       6.368   8.289  -5.442  1.00  0.00     0.031 C 
ATOM     46  C   UNL     1       5.183   4.121  -5.289  1.00  0.00     0.029 A 
ATOM     47  N   UNL     1       3.304   4.526  -4.108  1.00  0.00    -0.354 N 
ATOM     48  C   UNL     1       7.073   7.053  -7.245  1.00  0.00     0.074 A 
ATOM     49  C   UNL     1       7.258   8.236  -6.436  1.00  0.00     0.031 C 
ATOM     50  C   UNL     1       4.404   3.036  -5.402  1.00  0.00     0.029 A 
ATOM     51  C   UNL     1       3.083   3.395  -4.925  1.00  0.00     0.049 A 
ATOM     52  H   UNL     1       2.764   4.803  -3.333  1.00  0.00     0.167 HD
ATOM     53  C   UNL     1       7.803   6.453  -8.226  1.00  0.00     0.037 A 
ATOM     54  C   UNL     1       1.930   3.279  -5.650  1.00  0.00     0.037 A 
ATOM     55  C   UNL     1       7.215   5.192  -8.664  1.00  0.00     0.049 A 
ATOM     56  C   UNL     1       2.121   3.316  -7.154  1.00  0.00     0.074 A 
ATOM     57  C   UNL     1       7.459   3.855  -8.393  1.00  0.00     0.029 A 
ATOM     58  N   UNL     1       5.986   5.226  -9.297  1.00  0.00    -0.354 N 
ATOM     59  N   UNL     1       3.277   3.400  -7.753  1.00  0.00    -0.248 NA
ATOM     60  C   UNL     1       1.006   3.340  -8.104  1.00  0.00     0.031 C 
ATOM     61  C   UNL     1       6.347   3.093  -8.855  1.00  0.00     0.029 A 
ATOM     62  C   UNL     1       5.430   3.966  -9.407  1.00  0.00     0.049 A 
ATOM     63  H   UNL     1       5.559   6.049  -9.630  1.00  0.00     0.167 HD
ATOM     64  C   UNL     1       3.081   3.582  -9.098  1.00  0.00     0.074 A 
ATOM     65  C   UNL     1       1.644   3.505  -9.275  1.00  0.00     0.031 C 
ATOM     66  C   UNL     1       4.097   3.836  -9.971  1.00  0.00     0.037 A 
BRANCH  53  67
ATOM     67  C   UNL     1       9.186   6.935  -8.572  1.00  0.00     0.058 A 
ATOM     68  C   UNL     1      10.240   6.024  -8.774  1.00  0.00     0.135 A 
ATOM     69  C   UNL     1       9.543   8.297  -8.637  1.00  0.00     0.135 A 
ATOM     70  F   UNL     1      10.027   4.702  -8.808  1.00  0.00    -0.206 F 
ATOM     71  C   UNL     1      11.566   6.430  -8.915  1.00  0.00     0.059 A 
ATOM     72  C   UNL     1      10.870   8.727  -8.716  1.00  0.00     0.059 A 
ATOM     73  F   UNL     1       8.603   9.255  -8.624  1.00  0.00    -0.206 F 
ATOM     74  C   UNL     1      11.879   7.781  -8.844  1.00  0.00     0.060 A 
BRANCH  74  75
ATOM     75  S   UNL     1      13.614   8.271  -8.877  1.00  0.00     0.124 S 
ATOM     76  O   UNL     1      14.224   7.323  -7.948  1.00  0.00    -0.237 OA
ATOM     77  O   UNL     1      13.950   8.086 -10.284  1.00  0.00    -0.237 OA
ATOM     78  O   UNL     1      13.582   9.655  -8.411  1.00  0.00    -0.744 OA
ENDBRANCH  74  75
ENDBRANCH  53  67
BRANCH  54  79
ATOM     79  C   UNL     1       0.750   3.795  -4.904  1.00  0.00     0.058 A 
ATOM     80  C   UNL     1       0.394   3.123  -3.717  1.00  0.00     0.135 A 
ATOM     81  C   UNL     1       0.302   5.113  -5.067  1.00  0.00     0.135 A 
ATOM     82  F   UNL     1       0.789   1.854  -3.517  1.00  0.00    -0.206 F 
ATOM     83  C   UNL     1      -0.215   3.787  -2.663  1.00  0.00     0.059 A 
ATOM     84  C   UNL     1      -0.332   5.792  -4.027  1.00  0.00     0.059 A 
ATOM     85  F   UNL     1       0.612   5.801  -6.176  1.00  0.00    -0.206 F 
ATOM     86  C   UNL     1      -0.517   5.139  -2.807  1.00  0.00     0.060 A 
BRANCH  86  87
ATOM     87  S   UNL     1      -0.959   6.062  -1.317  1.00  0.00     0.124 S 
ATOM     88  O   UNL     1      -2.200   5.406  -0.921  1.00  0.00    -0.237 OA
ATOM     89  O   UNL     1       0.204   5.810  -0.468  1.00  0.00    -0.237 OA
ATOM     90  O   UNL     1      -1.094   7.430  -1.803  1.00  0.00    -0.744 OA
ENDBRANCH  86  87
ENDBRANCH  54  79
BRANCH  66  91
ATOM     91  C   UNL     1       3.897   3.991 -11.451  1.00  0.00     0.058 A 
ATOM     92  C   UNL     1       3.174   3.052 -12.205  1.00  0.00     0.135 A 
ATOM     93  C   UNL     1       4.547   5.010 -12.179  1.00  0.00     0.135 A 
ATOM     94  F   UNL     1       2.559   2.021 -11.605  1.00  0.00    -0.206 F 
ATOM     95  C   UNL     1       3.077   3.135 -13.595  1.00  0.00     0.059 A 
ATOM     96  C   UNL     1       4.503   5.085 -13.568  1.00  0.00     0.059 A 
ATOM     97  F   UNL     1       5.227   5.985 -11.557  1.00  0.00    -0.206 F 
ATOM     98  C   UNL     1       3.749   4.153 -14.268  1.00  0.00     0.060 A 
BRANCH  98  99
ATOM     99  S   UNL     1       3.661   4.242 -16.067  1.00  0.00     0.124 S 
ATOM    100  O   UNL     1       3.616   2.835 -16.456  1.00  0.00    -0.237 OA
ATOM    101  O   UNL     1       2.422   4.989 -16.259  1.00  0.00    -0.237 OA
ATOM    102  O   UNL     1       4.886   4.946 -16.430  1.00  0.00    -0.744 OA
ENDBRANCH  98  99
ENDBRANCH  66  91
ENDBRANCH  40  41
ENDBRANCH  32  35
ENDBRANCH  30  31
ENDBRANCH  29  30
ENDBRANCH   1  29
TORSDOF 18
