REMARK SMILES COc1cc2c(CC(=O)NCCCNC(=O)c3ccc(-c4c5nc(c(-c6c(F)cc(S(=O)(=O)[O-])cc6F)c6ccc([nH]6)c(-c6c(F)cc(S(=O)(=O)[O-])cc6F)c6nc(c(-c7c(F)cc(S(=O)(=O)[O-])cc7F)c7ccc4[nH]7)C=C6)C=C5)cc3)c(C)n(C(=O)c3ccc(Cl)cc3)c2cc1Cl
REMARK SMILES IDX 12 1 11 2 10 3 8 4 9 5 7 7 6 8 3 9 4 10 97 11 5 12 96 13
REMARK SMILES IDX 98 14 95 15 83 16 85 17 84 18 2 19 1 20 86 21 87 22 88 23
REMARK SMILES IDX 89 24 94 25 90 26 93 27 91 28 92 29 13 30 14 31 15 32 16 34
REMARK SMILES IDX 17 35 18 36 82 37 19 38 81 39 20 40 21 41 22 42 75 43 23 44
REMARK SMILES IDX 80 45 74 46 76 47 24 48 79 49 73 50 72 51 25 53 59 54 38 55
REMARK SMILES IDX 58 56 39 57 42 58 57 59 77 60 40 61 41 62 56 64 78 65 43 66
REMARK SMILES IDX 26 67 27 68 36 69 28 70 29 71 35 72 37 73 30 74 31 75 32 76
REMARK SMILES IDX 33 77 34 78 60 79 61 80 70 81 62 82 63 83 69 84 71 85 64 86
REMARK SMILES IDX 65 87 66 88 67 89 68 90 44 91 45 92 54 93 46 94 47 95 53 96
REMARK SMILES IDX 55 97 48 98 49 99 50 100 51 101 52 102
REMARK H PARENT 10 6 14 33 76 52 42 63
REMARK Flexibility Score: inf
ROOT
ATOM      1  C   UNL     1       1.127   7.902   0.770  1.00  0.00     0.042 C 
ENDROOT
BRANCH   1   2
ATOM      2  C   UNL     1      -0.263   8.097   1.378  1.00  0.00     0.117 C 
BRANCH   2   3
ATOM      3  N   UNL     1      -1.237   7.154   0.856  1.00  0.00    -0.356 N 
ATOM      4  C   UNL     1      -1.800   6.068   1.459  1.00  0.00     0.224 C 
ATOM      5  O   UNL     1      -2.616   5.404   0.814  1.00  0.00    -0.275 OA
ATOM      6  H   UNL     1      -1.534   7.324  -0.068  1.00  0.00     0.163 HD
BRANCH   4   7
ATOM      7  C   UNL     1      -1.469   5.728   2.901  1.00  0.00     0.138 C 
BRANCH   7   8
ATOM      8  C   UNL     1      -0.065   5.238   3.101  1.00  0.00    -0.009 A 
ATOM      9  C   UNL     1       0.985   2.217   0.976  1.00  0.00     0.138 A 
ATOM     10  C   UNL     1       0.144   3.248   1.426  1.00  0.00     0.058 A 
ATOM     11  C   UNL     1       2.240   2.063   1.558  1.00  0.00     0.085 A 
ATOM     12  C   UNL     1       0.564   4.148   2.433  1.00  0.00     0.008 A 
ATOM     13  C   UNL     1       2.656   2.917   2.589  1.00  0.00     0.051 A 
ATOM     14  Cl  UNL     1       3.420   0.917   1.019  1.00  0.00    -0.080 Cl
ATOM     15  C   UNL     1       1.845   4.004   2.973  1.00  0.00     0.058 A 
ATOM     16  C   UNL     1       0.848   5.726   4.029  1.00  0.00     0.028 A 
ATOM     17  N   UNL     1       2.086   5.114   3.797  1.00  0.00    -0.280 N 
ATOM     18  C   UNL     1       0.625   6.772   5.078  1.00  0.00     0.065 C 
BRANCH   9  19
ATOM     19  O   UNL     1       0.473   1.509  -0.080  1.00  0.00    -0.495 OA
ATOM     20  C   UNL     1       0.619   0.096  -0.013  1.00  0.00     0.278 C 
ENDBRANCH   9  19
BRANCH  17  21
ATOM     21  C   UNL     1       3.349   5.579   4.266  1.00  0.00     0.262 C 
ATOM     22  O   UNL     1       3.387   6.649   4.865  1.00  0.00    -0.268 OA
BRANCH  21  23
ATOM     23  C   UNL     1       4.633   4.895   4.038  1.00  0.00     0.040 A 
ATOM     24  C   UNL     1       5.199   4.865   2.758  1.00  0.00     0.015 A 
ATOM     25  C   UNL     1       5.232   4.219   5.105  1.00  0.00     0.015 A 
ATOM     26  C   UNL     1       6.324   4.070   2.527  1.00  0.00     0.021 A 
ATOM     27  C   UNL     1       6.362   3.433   4.869  1.00  0.00     0.021 A 
ATOM     28  C   UNL     1       6.888   3.343   3.578  1.00  0.00     0.041 A 
ATOM     29  Cl  UNL     1       8.222   2.299   3.272  1.00  0.00    -0.084 Cl
ENDBRANCH  21  23
ENDBRANCH  17  21
ENDBRANCH   7   8
ENDBRANCH   4   7
ENDBRANCH   2   3
ENDBRANCH   1   2
BRANCH   1  30
ATOM     30  C   UNL     1       1.183   8.147  -0.740  1.00  0.00     0.118 C 
BRANCH  30  31
ATOM     31  N   UNL     1       0.698   9.451  -1.147  1.00  0.00    -0.352 N 
ATOM     32  C   UNL     1       1.239  10.703  -1.252  1.00  0.00     0.251 C 
ATOM     33  H   UNL     1      -0.250   9.431  -1.413  1.00  0.00     0.163 HD
ATOM     34  O   UNL     1       0.495  11.561  -1.737  1.00  0.00    -0.269 OA
BRANCH  32  35
ATOM     35  C   UNL     1       2.602  11.104  -0.803  1.00  0.00     0.039 A 
ATOM     36  C   UNL     1       3.565  10.255  -0.259  1.00  0.00     0.014 A 
ATOM     37  C   UNL     1       2.908  12.476  -0.912  1.00  0.00     0.014 A 
ATOM     38  C   UNL     1       4.765  10.769   0.232  1.00  0.00     0.010 A 
ATOM     39  C   UNL     1       4.113  12.991  -0.440  1.00  0.00     0.010 A 
ATOM     40  C   UNL     1       5.029  12.140   0.171  1.00  0.00    -0.014 A 
BRANCH  40  41
ATOM     41  C   UNL     1       6.298  12.618   0.722  1.00  0.00     0.031 A 
ATOM     42  C   UNL     1       7.539  12.095   0.077  1.00  0.00     0.074 A 
ATOM     43  C   UNL     1       6.390  13.555   1.686  1.00  0.00     0.049 A 
ATOM     44  N   UNL     1       8.482  11.376   0.599  1.00  0.00    -0.248 NA
ATOM     45  C   UNL     1       7.713  12.355  -1.359  1.00  0.00     0.031 C 
ATOM     46  C   UNL     1       5.326  14.398   2.237  1.00  0.00     0.029 A 
ATOM     47  N   UNL     1       7.507  14.010   2.324  1.00  0.00    -0.354 N 
ATOM     48  C   UNL     1       9.459  11.240  -0.388  1.00  0.00     0.074 A 
ATOM     49  C   UNL     1       8.883  11.762  -1.601  1.00  0.00     0.031 C 
ATOM     50  C   UNL     1       5.879  15.393   2.967  1.00  0.00     0.029 A 
ATOM     51  C   UNL     1       7.313  15.174   3.052  1.00  0.00     0.049 A 
ATOM     52  H   UNL     1       8.377  13.551   2.271  1.00  0.00     0.167 HD
ATOM     53  C   UNL     1      10.738  10.858  -0.110  1.00  0.00     0.037 A 
ATOM     54  C   UNL     1       8.269  15.935   3.639  1.00  0.00     0.037 A 
ATOM     55  C   UNL     1      10.847  10.245   1.186  1.00  0.00     0.049 A 
ATOM     56  C   UNL     1       9.465  15.078   3.834  1.00  0.00     0.074 A 
ATOM     57  C   UNL     1      10.322   9.112   1.776  1.00  0.00     0.029 A 
ATOM     58  N   UNL     1      11.374  10.987   2.213  1.00  0.00    -0.354 N 
ATOM     59  N   UNL     1       9.519  14.064   4.655  1.00  0.00    -0.248 NA
ATOM     60  C   UNL     1      10.508  15.112   2.821  1.00  0.00     0.031 C 
ATOM     61  C   UNL     1      10.134   9.460   3.145  1.00  0.00     0.029 A 
ATOM     62  C   UNL     1      10.578  10.773   3.308  1.00  0.00     0.049 A 
ATOM     63  H   UNL     1      12.171  11.563   2.171  1.00  0.00     0.167 HD
ATOM     64  C   UNL     1      10.341  13.139   4.029  1.00  0.00     0.074 A 
ATOM     65  C   UNL     1      11.004  13.881   2.963  1.00  0.00     0.031 C 
ATOM     66  C   UNL     1      10.211  11.799   4.261  1.00  0.00     0.037 A 
BRANCH  53  67
ATOM     67  C   UNL     1      11.957  11.301  -0.886  1.00  0.00     0.058 A 
ATOM     68  C   UNL     1      13.202  10.675  -0.661  1.00  0.00     0.135 A 
ATOM     69  C   UNL     1      12.005  12.500  -1.631  1.00  0.00     0.135 A 
ATOM     70  F   UNL     1      13.277   9.533   0.041  1.00  0.00    -0.206 F 
ATOM     71  C   UNL     1      14.409  11.237  -1.080  1.00  0.00     0.059 A 
ATOM     72  C   UNL     1      13.192  13.050  -2.103  1.00  0.00     0.059 A 
ATOM     73  F   UNL     1      10.912  13.243  -1.846  1.00  0.00    -0.206 F 
ATOM     74  C   UNL     1      14.393  12.438  -1.783  1.00  0.00     0.060 A 
BRANCH  74  75
ATOM     75  S   UNL     1      15.953  13.241  -2.199  1.00  0.00     0.124 S 
ATOM     76  O   UNL     1      16.425  13.654  -0.882  1.00  0.00    -0.237 OA
ATOM     77  O   UNL     1      16.695  12.156  -2.833  1.00  0.00    -0.237 OA
ATOM     78  O   UNL     1      15.546  14.321  -3.092  1.00  0.00    -0.744 OA
ENDBRANCH  74  75
ENDBRANCH  53  67
BRANCH  54  79
ATOM     79  C   UNL     1       8.305  17.415   3.759  1.00  0.00     0.058 A 
ATOM     80  C   UNL     1       9.205  18.062   4.624  1.00  0.00     0.135 A 
ATOM     81  C   UNL     1       7.636  18.240   2.831  1.00  0.00     0.135 A 
ATOM     82  F   UNL     1       9.909  17.353   5.519  1.00  0.00    -0.206 F 
ATOM     83  C   UNL     1       9.453  19.438   4.549  1.00  0.00     0.059 A 
ATOM     84  C   UNL     1       7.856  19.613   2.746  1.00  0.00     0.059 A 
ATOM     85  F   UNL     1       6.810  17.718   1.911  1.00  0.00    -0.206 F 
ATOM     86  C   UNL     1       8.785  20.202   3.593  1.00  0.00     0.060 A 
BRANCH  86  87
ATOM     87  S   UNL     1       9.216  21.946   3.389  1.00  0.00     0.124 S 
ATOM     88  O   UNL     1       8.759  22.520   4.650  1.00  0.00    -0.237 OA
ATOM     89  O   UNL     1      10.661  21.884   3.201  1.00  0.00    -0.237 OA
ATOM     90  O   UNL     1       8.454  22.349   2.209  1.00  0.00    -0.744 OA
ENDBRANCH  86  87
ENDBRANCH  54  79
BRANCH  66  91
ATOM     91  C   UNL     1       9.384  11.348   5.436  1.00  0.00     0.058 A 
ATOM     92  C   UNL     1       7.991  11.512   5.520  1.00  0.00     0.135 A 
ATOM     93  C   UNL     1       9.996  10.543   6.410  1.00  0.00     0.135 A 
ATOM     94  F   UNL     1       7.320  12.187   4.576  1.00  0.00    -0.206 F 
ATOM     95  C   UNL     1       7.241  10.913   6.535  1.00  0.00     0.059 A 
ATOM     96  C   UNL     1       9.265   9.915   7.415  1.00  0.00     0.059 A 
ATOM     97  F   UNL     1      11.316  10.300   6.349  1.00  0.00    -0.206 F 
ATOM     98  C   UNL     1       7.886  10.105   7.472  1.00  0.00     0.060 A 
BRANCH  98  99
ATOM     99  S   UNL     1       6.898   9.229   8.706  1.00  0.00     0.124 S 
ATOM    100  O   UNL     1       6.465  10.312   9.582  1.00  0.00    -0.237 OA
ATOM    101  O   UNL     1       5.853   8.610   7.898  1.00  0.00    -0.237 OA
ATOM    102  O   UNL     1       7.847   8.288   9.300  1.00  0.00    -0.744 OA
ENDBRANCH  98  99
ENDBRANCH  66  91
ENDBRANCH  40  41
ENDBRANCH  32  35
ENDBRANCH  30  31
ENDBRANCH   1  30
TORSDOF 17
