REMARK SMILES CC(=O)c1c[nH]c(C(=O)N[C@H]2C=C[C@H](C(=O)NCCCNC(=O)c3ccc(-c4c5nc(c(-c6c(F)cc(S(=O)(=O)[O-])cc6F)c6ccc([nH]6)c(-c6c(F)cc(S(=O)(=O)[O-])cc6F)c6nc(c(-c7c(F)cc(S(=O)(=O)[O-])cc7F)c7ccc4[nH]7)C=C6)C=C5)cc3)C2)c1
REMARK SMILES IDX 19 1 18 2 17 3 15 4 16 5 14 7 11 8 12 9 90 10 13 11 10 12
REMARK SMILES IDX 8 13 9 14 7 16 4 17 5 18 91 19 6 20 2 22 1 23 3 24 20 25
REMARK SMILES IDX 21 26 22 27 23 29 24 30 25 31 89 32 26 33 88 34 27 35 28 36
REMARK SMILES IDX 29 37 82 38 30 39 87 40 81 41 83 42 31 43 86 44 80 45 79 46
REMARK SMILES IDX 32 48 66 49 45 50 65 51 46 52 49 53 64 54 84 55 47 56 48 57
REMARK SMILES IDX 63 59 85 60 50 61 33 62 34 63 43 64 35 65 36 66 42 67 44 68
REMARK SMILES IDX 37 69 38 70 39 71 40 72 41 73 67 74 68 75 77 76 69 77 70 78
REMARK SMILES IDX 76 79 78 80 71 81 72 82 73 83 74 84 75 85 51 86 52 87 61 88
REMARK SMILES IDX 53 89 54 90 60 91 62 92 55 93 56 94 57 95 58 96 59 97
REMARK H PARENT 17 6 10 15 6 21 21 28 83 47 49 58
REMARK Flexibility Score: inf
ROOT
ATOM      1  C   UNL     1      -7.640   0.606   4.391  1.00  0.00     0.042 C 
ENDROOT
BRANCH   1   2
ATOM      2  C   UNL     1      -6.252   0.120   3.969  1.00  0.00     0.117 C 
BRANCH   2   3
ATOM      3  N   UNL     1      -5.327   1.220   3.781  1.00  0.00    -0.356 N 
ATOM      4  C   UNL     1      -4.356   1.766   4.550  1.00  0.00     0.227 C 
ATOM      5  O   UNL     1      -3.784   2.752   4.072  1.00  0.00    -0.274 OA
ATOM      6  H   UNL     1      -5.425   1.664   2.908  1.00  0.00     0.163 HD
BRANCH   4   7
ATOM      7  C   UNL     1      -3.932   1.257   5.941  1.00  0.00     0.103 C 
ATOM      8  C   UNL     1      -2.248  -0.485   5.671  1.00  0.00     0.106 C 
ATOM      9  C   UNL     1      -3.483  -1.022   6.324  1.00  0.00    -0.006 C 
ATOM     10  C   UNL     1      -2.409   1.018   5.925  1.00  0.00     0.047 C 
ATOM     11  C   UNL     1      -4.404  -0.061   6.472  1.00  0.00    -0.016 C 
BRANCH   8  12
ATOM     12  N   UNL     1      -1.084  -1.025   6.320  1.00  0.00    -0.345 N 
ATOM     13  C   UNL     1       0.221  -1.079   5.903  1.00  0.00     0.268 C 
ATOM     14  O   UNL     1       1.030  -1.580   6.679  1.00  0.00    -0.268 OA
ATOM     15  H   UNL     1      -1.251  -1.419   7.206  1.00  0.00     0.164 HD
BRANCH  13  16
ATOM     16  C   UNL     1       0.637  -0.618   4.592  1.00  0.00     0.105 A 
ATOM     17  C   UNL     1       0.922   0.106   2.437  1.00  0.00     0.035 A 
ATOM     18  C   UNL     1       2.105  -0.458   2.868  1.00  0.00     0.094 A 
ATOM     19  C   UNL     1       0.032   0.060   3.549  1.00  0.00     0.045 A 
ATOM     20  N   UNL     1       1.937  -0.844   4.172  1.00  0.00    -0.356 N 
ATOM     21  H   UNL     1       2.646  -1.230   4.735  1.00  0.00     0.166 HD
BRANCH  17  22
ATOM     22  C   UNL     1       0.609   0.635   1.112  1.00  0.00     0.161 C 
ATOM     23  C   UNL     1       1.281   0.007  -0.080  1.00  0.00     0.093 C 
ATOM     24  O   UNL     1      -0.248   1.503   0.963  1.00  0.00    -0.294 OA
ENDBRANCH  17  22
ENDBRANCH  13  16
ENDBRANCH   8  12
ENDBRANCH   4   7
ENDBRANCH   2   3
ENDBRANCH   1   2
BRANCH   1  25
ATOM     25  C   UNL     1      -8.445   1.131   3.202  1.00  0.00     0.118 C 
BRANCH  25  26
ATOM     26  N   UNL     1      -8.788   0.047   2.290  1.00  0.00    -0.352 N 
ATOM     27  C   UNL     1      -9.542   0.045   1.147  1.00  0.00     0.251 C 
ATOM     28  H   UNL     1      -8.416  -0.831   2.538  1.00  0.00     0.163 HD
ATOM     29  O   UNL     1      -9.928  -1.035   0.703  1.00  0.00    -0.269 OA
BRANCH  27  30
ATOM     30  C   UNL     1      -9.923   1.297   0.460  1.00  0.00     0.039 A 
ATOM     31  C   UNL     1     -11.194   1.353  -0.127  1.00  0.00     0.014 A 
ATOM     32  C   UNL     1      -9.037   2.370   0.317  1.00  0.00     0.014 A 
ATOM     33  C   UNL     1     -11.600   2.504  -0.793  1.00  0.00     0.010 A 
ATOM     34  C   UNL     1      -9.449   3.535  -0.323  1.00  0.00     0.010 A 
ATOM     35  C   UNL     1     -10.737   3.605  -0.863  1.00  0.00    -0.014 A 
BRANCH  35  36
ATOM     36  C   UNL     1     -11.279   4.897  -1.342  1.00  0.00     0.031 A 
ATOM     37  C   UNL     1     -12.173   5.553  -0.258  1.00  0.00     0.074 A 
ATOM     38  C   UNL     1     -10.952   5.270  -2.619  1.00  0.00     0.049 A 
ATOM     39  N   UNL     1     -13.226   6.302  -0.375  1.00  0.00    -0.248 NA
ATOM     40  C   UNL     1     -11.913   5.238   1.178  1.00  0.00     0.031 C 
ATOM     41  C   UNL     1     -10.020   4.531  -3.502  1.00  0.00     0.029 A 
ATOM     42  N   UNL     1     -11.310   6.323  -3.439  1.00  0.00    -0.354 N 
ATOM     43  C   UNL     1     -13.616   6.712   0.926  1.00  0.00     0.074 A 
ATOM     44  C   UNL     1     -12.856   5.916   1.838  1.00  0.00     0.031 C 
ATOM     45  C   UNL     1      -9.955   5.097  -4.728  1.00  0.00     0.029 A 
ATOM     46  C   UNL     1     -10.820   6.259  -4.777  1.00  0.00     0.049 A 
ATOM     47  H   UNL     1     -11.867   7.069  -3.120  1.00  0.00     0.167 HD
ATOM     48  C   UNL     1     -14.441   7.779   1.162  1.00  0.00     0.037 A 
ATOM     49  C   UNL     1     -11.133   7.053  -5.853  1.00  0.00     0.037 A 
ATOM     50  C   UNL     1     -14.828   8.353  -0.082  1.00  0.00     0.049 A 
ATOM     51  C   UNL     1     -11.988   8.110  -5.295  1.00  0.00     0.074 A 
ATOM     52  C   UNL     1     -15.666   7.923  -1.076  1.00  0.00     0.029 A 
ATOM     53  N   UNL     1     -14.016   9.350  -0.568  1.00  0.00    -0.354 N 
ATOM     54  N   UNL     1     -11.572   9.093  -4.555  1.00  0.00    -0.248 NA
ATOM     55  C   UNL     1     -13.439   8.006  -5.500  1.00  0.00     0.031 C 
ATOM     56  C   UNL     1     -14.991   8.314  -2.249  1.00  0.00     0.029 A 
ATOM     57  C   UNL     1     -13.928   9.165  -1.923  1.00  0.00     0.049 A 
ATOM     58  H   UNL     1     -13.581  10.060  -0.043  1.00  0.00     0.167 HD
ATOM     59  C   UNL     1     -12.732   9.506  -3.949  1.00  0.00     0.074 A 
ATOM     60  C   UNL     1     -13.826   9.053  -4.779  1.00  0.00     0.031 C 
ATOM     61  C   UNL     1     -12.760   9.671  -2.603  1.00  0.00     0.037 A 
BRANCH  48  62
ATOM     62  C   UNL     1     -14.782   8.580   2.397  1.00  0.00     0.058 A 
ATOM     63  C   UNL     1     -15.908   9.445   2.335  1.00  0.00     0.135 A 
ATOM     64  C   UNL     1     -13.898   8.806   3.460  1.00  0.00     0.135 A 
ATOM     65  F   UNL     1     -16.861   9.271   1.403  1.00  0.00    -0.206 F 
ATOM     66  C   UNL     1     -16.057  10.552   3.164  1.00  0.00     0.059 A 
ATOM     67  C   UNL     1     -14.055   9.888   4.337  1.00  0.00     0.059 A 
ATOM     68  F   UNL     1     -12.817   8.035   3.636  1.00  0.00    -0.206 F 
ATOM     69  C   UNL     1     -15.102  10.787   4.143  1.00  0.00     0.060 A 
BRANCH  69  70
ATOM     70  S   UNL     1     -15.242  12.297   5.123  1.00  0.00     0.124 S 
ATOM     71  O   UNL     1     -14.876  13.320   4.149  1.00  0.00    -0.237 OA
ATOM     72  O   UNL     1     -16.647  12.278   5.520  1.00  0.00    -0.237 OA
ATOM     73  O   UNL     1     -14.291  12.082   6.209  1.00  0.00    -0.744 OA
ENDBRANCH  69  70
ENDBRANCH  48  62
BRANCH  49  74
ATOM     74  C   UNL     1     -10.978   7.067  -7.368  1.00  0.00     0.058 A 
ATOM     75  C   UNL     1     -10.225   6.176  -8.143  1.00  0.00     0.135 A 
ATOM     76  C   UNL     1     -11.763   7.975  -8.144  1.00  0.00     0.135 A 
ATOM     77  F   UNL     1      -9.320   5.367  -7.580  1.00  0.00    -0.206 F 
ATOM     78  C   UNL     1     -10.378   6.075  -9.544  1.00  0.00     0.059 A 
ATOM     79  C   UNL     1     -11.976   7.859  -9.514  1.00  0.00     0.059 A 
ATOM     80  F   UNL     1     -12.400   9.015  -7.588  1.00  0.00    -0.206 F 
ATOM     81  C   UNL     1     -11.306   6.876 -10.210  1.00  0.00     0.060 A 
BRANCH  81  82
ATOM     82  S   UNL     1     -11.751   6.565 -11.934  1.00  0.00     0.124 S 
ATOM     83  O   UNL     1     -10.718   7.299 -12.655  1.00  0.00    -0.237 OA
ATOM     84  O   UNL     1     -11.679   5.110 -12.020  1.00  0.00    -0.237 OA
ATOM     85  O   UNL     1     -13.101   7.117 -12.034  1.00  0.00    -0.744 OA
ENDBRANCH  81  82
ENDBRANCH  49  74
BRANCH  61  86
ATOM     86  C   UNL     1     -11.433  10.033  -1.967  1.00  0.00     0.058 A 
ATOM     87  C   UNL     1     -10.838  11.267  -2.274  1.00  0.00     0.135 A 
ATOM     88  C   UNL     1     -10.695   9.189  -1.118  1.00  0.00     0.135 A 
ATOM     89  F   UNL     1     -11.471  12.130  -3.085  1.00  0.00    -0.206 F 
ATOM     90  C   UNL     1      -9.600  11.651  -1.752  1.00  0.00     0.059 A 
ATOM     91  C   UNL     1      -9.457   9.550  -0.573  1.00  0.00     0.059 A 
ATOM     92  F   UNL     1     -11.159   7.980  -0.795  1.00  0.00    -0.206 F 
ATOM     93  C   UNL     1      -8.919  10.791  -0.892  1.00  0.00     0.060 A 
BRANCH  93  94
ATOM     94  S   UNL     1      -7.350  11.337  -0.179  1.00  0.00     0.124 S 
ATOM     95  O   UNL     1      -6.523  11.545  -1.364  1.00  0.00    -0.237 OA
ATOM     96  O   UNL     1      -7.746  12.548   0.533  1.00  0.00    -0.237 OA
ATOM     97  O   UNL     1      -6.947  10.219   0.670  1.00  0.00    -0.744 OA
ENDBRANCH  93  94
ENDBRANCH  61  86
ENDBRANCH  35  36
ENDBRANCH  27  30
ENDBRANCH  25  26
ENDBRANCH   1  25
TORSDOF 16
