REMARK SMILES Cc1cccc(C(=O)Nc2ccc(C(=O)NNC(=O)c3ccccc3C(=O)NCCCNC(=O)c3ccc(-c4c5nc(c(-c6c(F)cc(S(=O)(=O)[O-])cc6F)c6ccc([nH]6)c(-c6c(F)cc(S(=O)(=O)[O-])cc6F)c6nc(c(-c7c(F)cc(S(=O)(=O)[O-])cc7F)c7ccc4[nH]7)C=C6)C=C5)cc3)cc2)c1
REMARK SMILES IDX 29 1 28 2 26 3 27 4 25 6 20 7 21 8 22 9 24 10 23 11 18 12
REMARK SMILES IDX 17 13 19 15 16 16 14 17 15 18 13 20 10 21 11 22 102 23 12 24
REMARK SMILES IDX 101 25 9 26 7 27 8 28 6 30 1 31 2 32 3 33 103 34 4 35 5 36
REMARK SMILES IDX 30 37 31 38 32 39 33 40 34 42 35 43 36 44 100 45 37 46 99 47
REMARK SMILES IDX 38 48 39 49 40 50 93 51 41 52 98 53 92 54 94 55 42 56 97 57
REMARK SMILES IDX 91 58 90 59 43 61 77 62 56 63 76 64 57 65 60 66 75 67 95 68
REMARK SMILES IDX 58 69 59 70 74 72 96 73 61 74 44 75 45 76 54 77 46 78 47 79
REMARK SMILES IDX 53 80 55 81 48 82 49 83 50 84 51 85 52 86 78 87 79 88 88 89
REMARK SMILES IDX 80 90 81 91 87 92 89 93 82 94 83 95 84 96 85 97 86 98 62 99
REMARK SMILES IDX 63 100 72 101 64 102 65 103 71 104 73 105 66 106 67 107
REMARK SMILES IDX 68 108 69 109 70 110
REMARK H PARENT 28 5 17 14 16 19 9 29 32 41 94 60 60 71
REMARK Flexibility Score: inf
ROOT
ATOM      1  C   UNL     1       3.951   0.982  -2.807  1.00  0.00     0.118 C 
ENDROOT
BRANCH   1   2
ATOM      2  N   UNL     1       3.936   0.554  -1.402  1.00  0.00    -0.352 N 
ATOM      3  C   UNL     1       4.982   0.282  -0.535  1.00  0.00     0.252 C 
ATOM      4  O   UNL     1       4.813   0.289   0.682  1.00  0.00    -0.269 OA
ATOM      5  H   UNL     1       3.038   0.443  -1.014  1.00  0.00     0.163 HD
BRANCH   3   6
ATOM      6  C   UNL     1       6.334  -0.090  -1.010  1.00  0.00     0.052 A 
ATOM      7  C   UNL     1       7.078   0.694  -1.889  1.00  0.00     0.054 A 
ATOM      8  C   UNL     1       8.216   0.162  -2.505  1.00  0.00     0.015 A 
ATOM      9  C   UNL     1       8.710  -1.077  -2.084  1.00  0.00     0.001 A 
ATOM     10  C   UNL     1       6.902  -1.264  -0.496  1.00  0.00     0.014 A 
ATOM     11  C   UNL     1       8.098  -1.750  -1.026  1.00  0.00     0.001 A 
BRANCH   7  12
ATOM     12  C   UNL     1       6.714   2.121  -2.088  1.00  0.00     0.270 C 
ATOM     13  N   UNL     1       6.390   2.757  -0.897  1.00  0.00    -0.263 N 
ATOM     14  H   UNL     1       6.739   2.401  -0.048  1.00  0.00     0.191 HD
ATOM     15  O   UNL     1       6.707   2.604  -3.197  1.00  0.00    -0.267 OA
BRANCH  13  16
ATOM     16  N   UNL     1       5.569   3.905  -0.883  1.00  0.00    -0.263 N 
ATOM     17  C   UNL     1       5.049   4.220   0.368  1.00  0.00     0.269 C 
ATOM     18  O   UNL     1       5.665   4.934   1.152  1.00  0.00    -0.267 OA
ATOM     19  H   UNL     1       5.381   4.437  -1.690  1.00  0.00     0.191 HD
BRANCH  17  20
ATOM     20  C   UNL     1       3.725   3.631   0.746  1.00  0.00     0.041 A 
ATOM     21  C   UNL     1       1.110   2.804   1.461  1.00  0.00     0.041 A 
ATOM     22  C   UNL     1       1.537   2.740   0.138  1.00  0.00     0.027 A 
ATOM     23  C   UNL     1       1.998   3.272   2.428  1.00  0.00     0.027 A 
ATOM     24  C   UNL     1       2.828   3.167  -0.215  1.00  0.00     0.016 A 
ATOM     25  C   UNL     1       3.301   3.669   2.078  1.00  0.00     0.016 A 
BRANCH  21  26
ATOM     26  N   UNL     1      -0.212   2.503   1.839  1.00  0.00    -0.322 N 
ATOM     27  C   UNL     1      -1.134   1.662   1.245  1.00  0.00     0.255 C 
ATOM     28  O   UNL     1      -2.339   1.901   1.299  1.00  0.00    -0.269 OA
ATOM     29  H   UNL     1      -0.528   2.961   2.651  1.00  0.00     0.170 HD
BRANCH  27  30
ATOM     30  C   UNL     1      -0.701   0.355   0.672  1.00  0.00     0.040 A 
ATOM     31  C   UNL     1       2.348  -1.899   0.650  1.00  0.00     0.044 C 
ATOM     32  C   UNL     1       0.952  -1.414   0.415  1.00  0.00    -0.050 A 
ATOM     33  C   UNL     1       0.028  -2.168  -0.309  1.00  0.00     0.003 A 
ATOM     34  C   UNL     1       0.558  -0.185   0.946  1.00  0.00     0.017 A 
ATOM     35  C   UNL     1      -1.261  -1.679  -0.524  1.00  0.00     0.001 A 
ATOM     36  C   UNL     1      -1.620  -0.414  -0.052  1.00  0.00     0.014 A 
ENDBRANCH  27  30
ENDBRANCH  21  26
ENDBRANCH  17  20
ENDBRANCH  13  16
ENDBRANCH   7  12
ENDBRANCH   3   6
ENDBRANCH   1   2
BRANCH   1  37
ATOM     37  C   UNL     1       2.728   0.629  -3.668  1.00  0.00     0.042 C 
BRANCH  37  38
ATOM     38  C   UNL     1       1.375   1.325  -3.446  1.00  0.00     0.118 C 
BRANCH  38  39
ATOM     39  N   UNL     1       1.285   2.741  -3.756  1.00  0.00    -0.352 N 
ATOM     40  C   UNL     1       0.033   3.383  -3.715  1.00  0.00     0.251 C 
ATOM     41  H   UNL     1       2.094   3.249  -3.994  1.00  0.00     0.163 HD
ATOM     42  O   UNL     1      -1.000   2.838  -4.095  1.00  0.00    -0.269 OA
BRANCH  40  43
ATOM     43  C   UNL     1      -0.038   4.654  -2.915  1.00  0.00     0.039 A 
ATOM     44  C   UNL     1      -1.253   5.128  -2.398  1.00  0.00     0.014 A 
ATOM     45  C   UNL     1       1.117   5.134  -2.352  1.00  0.00     0.014 A 
ATOM     46  C   UNL     1      -1.287   5.816  -1.160  1.00  0.00     0.010 A 
ATOM     47  C   UNL     1       1.062   5.732  -1.105  1.00  0.00     0.010 A 
ATOM     48  C   UNL     1      -0.126   5.945  -0.395  1.00  0.00    -0.014 A 
BRANCH  48  49
ATOM     49  C   UNL     1      -0.077   6.067   1.111  1.00  0.00     0.031 A 
ATOM     50  C   UNL     1      -1.219   5.673   2.030  1.00  0.00     0.074 A 
ATOM     51  C   UNL     1       1.099   6.385   1.733  1.00  0.00     0.049 A 
ATOM     52  N   UNL     1      -1.243   5.936   3.301  1.00  0.00    -0.248 NA
ATOM     53  C   UNL     1      -2.406   4.909   1.650  1.00  0.00     0.031 C 
ATOM     54  C   UNL     1       1.472   6.348   3.153  1.00  0.00     0.029 A 
ATOM     55  N   UNL     1       2.251   6.957   1.167  1.00  0.00    -0.354 N 
ATOM     56  C   UNL     1      -2.236   5.204   3.928  1.00  0.00     0.074 A 
ATOM     57  C   UNL     1      -2.983   4.648   2.834  1.00  0.00     0.031 C 
ATOM     58  C   UNL     1       2.521   7.166   3.361  1.00  0.00     0.029 A 
ATOM     59  C   UNL     1       2.750   7.858   2.108  1.00  0.00     0.049 A 
ATOM     60  H   UNL     1       2.632   6.760   0.281  1.00  0.00     0.167 HD
ATOM     61  C   UNL     1      -2.213   5.088   5.296  1.00  0.00     0.037 A 
ATOM     62  C   UNL     1       2.635   9.195   1.867  1.00  0.00     0.037 A 
ATOM     63  C   UNL     1      -1.249   6.043   5.854  1.00  0.00     0.049 A 
ATOM     64  C   UNL     1       1.848   9.848   2.965  1.00  0.00     0.074 A 
ATOM     65  C   UNL     1      -0.001   5.924   6.441  1.00  0.00     0.029 A 
ATOM     66  N   UNL     1      -1.449   7.402   5.622  1.00  0.00    -0.354 N 
ATOM     67  N   UNL     1       0.934   9.227   3.661  1.00  0.00    -0.248 NA
ATOM     68  C   UNL     1       2.122  11.190   3.462  1.00  0.00     0.031 C 
ATOM     69  C   UNL     1       0.593   7.217   6.454  1.00  0.00     0.029 A 
ATOM     70  C   UNL     1      -0.306   8.119   5.904  1.00  0.00     0.049 A 
ATOM     71  H   UNL     1      -2.291   7.796   5.300  1.00  0.00     0.167 HD
ATOM     72  C   UNL     1       0.573  10.003   4.723  1.00  0.00     0.074 A 
ATOM     73  C   UNL     1       1.314  11.239   4.536  1.00  0.00     0.031 C 
ATOM     74  C   UNL     1      -0.261   9.562   5.709  1.00  0.00     0.037 A 
BRANCH  61  75
ATOM     75  C   UNL     1      -2.920   4.049   6.187  1.00  0.00     0.058 A 
ATOM     76  C   UNL     1      -2.607   3.951   7.572  1.00  0.00     0.135 A 
ATOM     77  C   UNL     1      -3.843   3.074   5.757  1.00  0.00     0.135 A 
ATOM     78  F   UNL     1      -1.766   4.810   8.165  1.00  0.00    -0.206 F 
ATOM     79  C   UNL     1      -3.120   2.959   8.424  1.00  0.00     0.059 A 
ATOM     80  C   UNL     1      -4.379   2.078   6.593  1.00  0.00     0.059 A 
ATOM     81  F   UNL     1      -4.280   3.020   4.499  1.00  0.00    -0.206 F 
ATOM     82  C   UNL     1      -4.000   2.014   7.923  1.00  0.00     0.060 A 
BRANCH  82  83
ATOM     83  S   UNL     1      -4.627   0.722   9.017  1.00  0.00     0.124 S 
ATOM     84  O   UNL     1      -3.411  -0.017   9.344  1.00  0.00    -0.237 OA
ATOM     85  O   UNL     1      -5.213   1.492  10.109  1.00  0.00    -0.237 OA
ATOM     86  O   UNL     1      -5.585   0.001   8.183  1.00  0.00    -0.744 OA
ENDBRANCH  82  83
ENDBRANCH  61  75
BRANCH  62  87
ATOM     87  C   UNL     1       2.651   9.500   0.395  1.00  0.00     0.058 A 
ATOM     88  C   UNL     1       3.851   9.208  -0.293  1.00  0.00     0.135 A 
ATOM     89  C   UNL     1       1.476   9.537  -0.377  1.00  0.00     0.135 A 
ATOM     90  F   UNL     1       5.009   9.137   0.385  1.00  0.00    -0.206 F 
ATOM     91  C   UNL     1       3.868   8.823  -1.634  1.00  0.00     0.059 A 
ATOM     92  C   UNL     1       1.473   9.162  -1.733  1.00  0.00     0.059 A 
ATOM     93  F   UNL     1       0.297   9.803   0.206  1.00  0.00    -0.206 F 
ATOM     94  C   UNL     1       2.667   8.758  -2.336  1.00  0.00     0.060 A 
BRANCH  94  95
ATOM     95  S   UNL     1       2.697   7.968  -3.970  1.00  0.00     0.124 S 
ATOM     96  O   UNL     1       3.413   8.954  -4.771  1.00  0.00    -0.237 OA
ATOM     97  O   UNL     1       3.432   6.730  -3.702  1.00  0.00    -0.237 OA
ATOM     98  O   UNL     1       1.288   7.789  -4.302  1.00  0.00    -0.744 OA
ENDBRANCH  94  95
ENDBRANCH  62  87
BRANCH  74  99
ATOM     99  C   UNL     1      -1.022  10.467   6.644  1.00  0.00     0.058 A 
ATOM    100  C   UNL     1      -1.342  11.799   6.327  1.00  0.00     0.135 A 
ATOM    101  C   UNL     1      -1.611   9.963   7.827  1.00  0.00     0.135 A 
ATOM    102  F   UNL     1      -0.967  12.356   5.166  1.00  0.00    -0.206 F 
ATOM    103  C   UNL     1      -2.109  12.604   7.164  1.00  0.00     0.059 A 
ATOM    104  C   UNL     1      -2.432  10.733   8.648  1.00  0.00     0.059 A 
ATOM    105  F   UNL     1      -1.434   8.691   8.216  1.00  0.00    -0.206 F 
ATOM    106  C   UNL     1      -2.648  12.064   8.324  1.00  0.00     0.060 A 
BRANCH 106 107
ATOM    107  S   UNL     1      -3.684  13.096   9.372  1.00  0.00     0.124 S 
ATOM    108  O   UNL     1      -2.685  13.735  10.223  1.00  0.00    -0.237 OA
ATOM    109  O   UNL     1      -4.343  13.973   8.408  1.00  0.00    -0.237 OA
ATOM    110  O   UNL     1      -4.559  12.133  10.032  1.00  0.00    -0.744 OA
ENDBRANCH 106 107
ENDBRANCH  74  99
ENDBRANCH  48  49
ENDBRANCH  40  43
ENDBRANCH  38  39
ENDBRANCH  37  38
ENDBRANCH   1  37
TORSDOF 18
