REMARK SMILES Cc1c(CC(=O)N[C@H](CO)C(=O)NCCCNC(=O)c2ccc(-c3c4nc(c(-c5c(F)cc(S(=O)(=O)[O-])cc5F)c5ccc([nH]5)c(-c5c(F)cc(S(=O)(=O)[O-])cc5F)c5nc(c(-c6c(F)cc(S(=O)(=O)[O-])cc6F)c6ccc3[nH]6)C=C5)C=C4)cc2)cc(-c2ccc(S(C)(=O)=O)cc2)n1-c1ccc(F)cc1
REMARK SMILES IDX 14 1 13 2 11 3 12 4 8 6 7 7 5 8 6 9 4 11 3 12 1 13 2 14
REMARK SMILES IDX 98 15 86 16 87 17 99 18 100 19 105 20 101 21 104 22 102 23
REMARK SMILES IDX 103 24 88 25 89 26 97 27 90 28 96 29 91 30 92 31 93 32 94 33
REMARK SMILES IDX 95 34 9 35 10 36 15 38 16 39 17 40 18 41 19 43 20 44 21 45
REMARK SMILES IDX 85 46 22 47 84 48 23 49 24 50 25 51 78 52 26 53 83 54 77 55
REMARK SMILES IDX 79 56 27 57 82 58 76 59 75 60 28 62 62 63 41 64 61 65 42 66
REMARK SMILES IDX 45 67 60 68 80 69 43 70 44 71 59 73 81 74 46 75 29 76 30 77
REMARK SMILES IDX 39 78 31 79 32 80 38 81 40 82 33 83 34 84 35 85 36 86 37 87
REMARK SMILES IDX 63 88 64 89 73 90 65 91 66 92 72 93 74 94 67 95 68 96 69 97
REMARK SMILES IDX 70 98 71 99 47 100 48 101 57 102 49 103 50 104 56 105 58 106
REMARK SMILES IDX 51 107 52 108 53 109 54 110 55 111
REMARK H PARENT 13 5 7 10 10 37 17 42 79 61 45 72
REMARK Flexibility Score: inf
ROOT
ATOM      1  C   UNL     1      -4.112   0.930  -4.834  1.00  0.00     0.117 C 
ENDROOT
BRANCH   1   2
ATOM      2  N   UNL     1      -4.526   1.880  -3.817  1.00  0.00    -0.354 N 
ATOM      3  C   UNL     1      -3.998   2.289  -2.632  1.00  0.00     0.244 C 
ATOM      4  O   UNL     1      -4.667   3.106  -1.989  1.00  0.00    -0.273 OA
ATOM      5  H   UNL     1      -5.377   2.326  -4.032  1.00  0.00     0.163 HD
BRANCH   3   6
ATOM      6  C   UNL     1      -2.621   1.839  -2.111  1.00  0.00     0.197 C 
BRANCH   6   7
ATOM      7  N   UNL     1      -1.532   2.387  -2.930  1.00  0.00    -0.342 N 
ATOM      8  C   UNL     1      -0.383   3.011  -2.533  1.00  0.00     0.225 C 
ATOM      9  O   UNL     1       0.391   3.392  -3.416  1.00  0.00    -0.275 OA
ATOM     10  H   UNL     1      -1.645   2.291  -3.903  1.00  0.00     0.164 HD
BRANCH   8  11
ATOM     11  C   UNL     1      -0.030   3.175  -1.057  1.00  0.00     0.137 C 
BRANCH  11  12
ATOM     12  C   UNL     1      -0.956   4.094  -0.322  1.00  0.00    -0.017 A 
ATOM     13  C   UNL     1      -0.716   6.248  -1.734  1.00  0.00     0.065 C 
ATOM     14  C   UNL     1      -1.297   5.399  -0.650  1.00  0.00     0.024 A 
ATOM     15  N   UNL     1      -2.271   5.833   0.244  1.00  0.00    -0.314 N 
ATOM     16  C   UNL     1      -1.663   3.773   0.867  1.00  0.00     0.033 A 
ATOM     17  C   UNL     1      -2.510   4.822   1.175  1.00  0.00     0.053 A 
BRANCH  15  18
ATOM     18  C   UNL     1      -2.905   7.105   0.227  1.00  0.00     0.046 A 
ATOM     19  C   UNL     1      -2.967   7.862   1.405  1.00  0.00     0.029 A 
ATOM     20  C   UNL     1      -3.501   7.570  -0.953  1.00  0.00     0.029 A 
ATOM     21  C   UNL     1      -3.621   9.093   1.398  1.00  0.00     0.041 A 
ATOM     22  C   UNL     1      -4.167   8.795  -0.946  1.00  0.00     0.041 A 
ATOM     23  C   UNL     1      -4.218   9.545   0.225  1.00  0.00     0.123 A 
ATOM     24  F   UNL     1      -4.855  10.723   0.227  1.00  0.00    -0.207 F 
ENDBRANCH  15  18
BRANCH  17  25
ATOM     25  C   UNL     1      -3.565   4.841   2.197  1.00  0.00    -0.001 A 
ATOM     26  C   UNL     1      -4.903   5.091   1.849  1.00  0.00     0.011 A 
ATOM     27  C   UNL     1      -3.247   4.589   3.538  1.00  0.00     0.011 A 
ATOM     28  C   UNL     1      -5.897   5.150   2.829  1.00  0.00     0.021 A 
ATOM     29  C   UNL     1      -4.236   4.643   4.524  1.00  0.00     0.021 A 
ATOM     30  C   UNL     1      -5.551   4.945   4.167  1.00  0.00     0.067 A 
BRANCH  30  31
ATOM     31  S   UNL     1      -6.816   5.035   5.412  1.00  0.00     0.175 S 
ATOM     32  C   UNL     1      -7.348   6.727   5.371  1.00  0.00     0.163 C 
ATOM     33  O   UNL     1      -7.902   4.197   4.989  1.00  0.00    -0.224 OA
ATOM     34  O   UNL     1      -6.164   4.830   6.707  1.00  0.00    -0.224 OA
ENDBRANCH  30  31
ENDBRANCH  17  25
ENDBRANCH  11  12
ENDBRANCH   8  11
ENDBRANCH   6   7
BRANCH   6  35
ATOM     35  C   UNL     1      -2.496   0.331  -1.909  1.00  0.00     0.191 C 
BRANCH  35  36
ATOM     36  O   UNL     1      -1.324   0.014  -1.151  1.00  0.00    -0.394 OA
ATOM     37  H   UNL     1      -0.537   0.323  -1.628  1.00  0.00     0.210 HD
ENDBRANCH  35  36
ENDBRANCH   6  35
ENDBRANCH   3   6
ENDBRANCH   1   2
BRANCH   1  38
ATOM     38  C   UNL     1      -4.765  -0.457  -4.691  1.00  0.00     0.042 C 
BRANCH  38  39
ATOM     39  C   UNL     1      -6.288  -0.502  -4.436  1.00  0.00     0.118 C 
BRANCH  39  40
ATOM     40  N   UNL     1      -7.087  -0.784  -5.608  1.00  0.00    -0.352 N 
ATOM     41  C   UNL     1      -8.322  -1.410  -5.694  1.00  0.00     0.251 C 
ATOM     42  H   UNL     1      -6.700  -0.491  -6.465  1.00  0.00     0.163 HD
ATOM     43  O   UNL     1      -8.777  -1.577  -6.825  1.00  0.00    -0.269 OA
BRANCH  41  44
ATOM     44  C   UNL     1      -9.034  -2.005  -4.497  1.00  0.00     0.039 A 
ATOM     45  C   UNL     1      -8.952  -3.377  -4.332  1.00  0.00     0.014 A 
ATOM     46  C   UNL     1      -9.963  -1.346  -3.669  1.00  0.00     0.014 A 
ATOM     47  C   UNL     1      -9.719  -4.045  -3.329  1.00  0.00     0.010 A 
ATOM     48  C   UNL     1     -10.820  -2.056  -2.705  1.00  0.00     0.010 A 
ATOM     49  C   UNL     1     -10.743  -3.449  -2.499  1.00  0.00    -0.014 A 
BRANCH  49  50
ATOM     50  C   UNL     1     -11.900  -4.478  -1.943  1.00  0.00     0.031 A 
ATOM     51  C   UNL     1     -12.147  -5.316  -3.157  1.00  0.00     0.074 A 
ATOM     52  C   UNL     1     -12.748  -4.790  -0.867  1.00  0.00     0.049 A 
ATOM     53  N   UNL     1     -12.475  -4.743  -4.283  1.00  0.00    -0.248 NA
ATOM     54  C   UNL     1     -11.611  -6.674  -3.299  1.00  0.00     0.031 C 
ATOM     55  C   UNL     1     -12.943  -4.048   0.392  1.00  0.00     0.029 A 
ATOM     56  N   UNL     1     -13.670  -5.878  -0.625  1.00  0.00    -0.354 N 
ATOM     57  C   UNL     1     -12.492  -5.734  -5.229  1.00  0.00     0.074 A 
ATOM     58  C   UNL     1     -11.714  -6.811  -4.627  1.00  0.00     0.031 C 
ATOM     59  C   UNL     1     -13.742  -4.722   1.278  1.00  0.00     0.029 A 
ATOM     60  C   UNL     1     -14.246  -5.977   0.712  1.00  0.00     0.049 A 
ATOM     61  H   UNL     1     -13.899  -6.523  -1.332  1.00  0.00     0.167 HD
ATOM     62  C   UNL     1     -13.648  -5.838  -5.945  1.00  0.00     0.037 A 
ATOM     63  C   UNL     1     -15.113  -6.921   1.295  1.00  0.00     0.037 A 
ATOM     64  C   UNL     1     -14.491  -6.892  -5.445  1.00  0.00     0.049 A 
ATOM     65  C   UNL     1     -15.840  -7.527   0.174  1.00  0.00     0.074 A 
ATOM     66  C   UNL     1     -14.232  -8.184  -5.030  1.00  0.00     0.029 A 
ATOM     67  N   UNL     1     -15.676  -6.511  -4.848  1.00  0.00    -0.354 N 
ATOM     68  N   UNL     1     -16.802  -6.906  -0.435  1.00  0.00    -0.248 NA
ATOM     69  C   UNL     1     -15.597  -8.900  -0.258  1.00  0.00     0.031 C 
ATOM     70  C   UNL     1     -14.925  -8.297  -3.806  1.00  0.00     0.029 A 
ATOM     71  C   UNL     1     -15.883  -7.294  -3.736  1.00  0.00     0.049 A 
ATOM     72  H   UNL     1     -16.274  -5.796  -5.167  1.00  0.00     0.167 HD
ATOM     73  C   UNL     1     -16.905  -7.583  -1.607  1.00  0.00     0.074 A 
ATOM     74  C   UNL     1     -16.378  -8.909  -1.339  1.00  0.00     0.031 C 
ATOM     75  C   UNL     1     -16.808  -6.836  -2.732  1.00  0.00     0.037 A 
BRANCH  62  76
ATOM     76  C   UNL     1     -14.180  -4.540  -6.485  1.00  0.00     0.058 A 
ATOM     77  C   UNL     1     -14.175  -4.332  -7.867  1.00  0.00     0.135 A 
ATOM     78  C   UNL     1     -14.638  -3.479  -5.671  1.00  0.00     0.135 A 
ATOM     79  F   UNL     1     -13.794  -5.319  -8.695  1.00  0.00    -0.206 F 
ATOM     80  C   UNL     1     -14.565  -3.115  -8.419  1.00  0.00     0.059 A 
ATOM     81  C   UNL     1     -14.980  -2.239  -6.196  1.00  0.00     0.059 A 
ATOM     82  F   UNL     1     -14.790  -3.649  -4.347  1.00  0.00    -0.206 F 
ATOM     83  C   UNL     1     -14.944  -2.068  -7.575  1.00  0.00     0.060 A 
BRANCH  83  84
ATOM     84  S   UNL     1     -15.382  -0.481  -8.314  1.00  0.00     0.124 S 
ATOM     85  O   UNL     1     -14.303  -0.278  -9.279  1.00  0.00    -0.237 OA
ATOM     86  O   UNL     1     -16.688  -0.777  -8.894  1.00  0.00    -0.237 OA
ATOM     87  O   UNL     1     -15.374   0.442  -7.185  1.00  0.00    -0.744 OA
ENDBRANCH  83  84
ENDBRANCH  62  76
BRANCH  63  88
ATOM     88  C   UNL     1     -15.755  -7.483   2.630  1.00  0.00     0.058 A 
ATOM     89  C   UNL     1     -17.069  -8.088   2.638  1.00  0.00     0.135 A 
ATOM     90  C   UNL     1     -14.998  -7.850   3.756  1.00  0.00     0.135 A 
ATOM     91  F   UNL     1     -17.957  -7.827   1.668  1.00  0.00    -0.206 F 
ATOM     92  C   UNL     1     -17.522  -9.046   3.573  1.00  0.00     0.059 A 
ATOM     93  C   UNL     1     -15.450  -8.794   4.733  1.00  0.00     0.059 A 
ATOM     94  F   UNL     1     -13.751  -7.380   3.897  1.00  0.00    -0.206 F 
ATOM     95  C   UNL     1     -16.690  -9.426   4.609  1.00  0.00     0.060 A 
BRANCH  95  96
ATOM     96  S   UNL     1     -17.192 -10.824   5.675  1.00  0.00     0.124 S 
ATOM     97  O   UNL     1     -18.353 -10.293   6.381  1.00  0.00    -0.237 OA
ATOM     98  O   UNL     1     -17.476 -11.877   4.702  1.00  0.00    -0.237 OA
ATOM     99  O   UNL     1     -16.012 -11.060   6.502  1.00  0.00    -0.744 OA
ENDBRANCH  95  96
ENDBRANCH  63  88
BRANCH  75 100
ATOM    100  C   UNL     1     -17.555  -5.515  -2.744  1.00  0.00     0.058 A 
ATOM    101  C   UNL     1     -17.450  -4.472  -1.794  1.00  0.00     0.135 A 
ATOM    102  C   UNL     1     -18.518  -5.338  -3.749  1.00  0.00     0.135 A 
ATOM    103  F   UNL     1     -16.497  -4.470  -0.850  1.00  0.00    -0.206 F 
ATOM    104  C   UNL     1     -18.323  -3.381  -1.787  1.00  0.00     0.059 A 
ATOM    105  C   UNL     1     -19.365  -4.232  -3.792  1.00  0.00     0.059 A 
ATOM    106  F   UNL     1     -18.649  -6.263  -4.714  1.00  0.00    -0.206 F 
ATOM    107  C   UNL     1     -19.292  -3.280  -2.780  1.00  0.00     0.060 A 
BRANCH 107 108
ATOM    108  S   UNL     1     -20.454  -1.897  -2.743  1.00  0.00     0.124 S 
ATOM    109  O   UNL     1     -21.349  -2.285  -1.656  1.00  0.00    -0.237 OA
ATOM    110  O   UNL     1     -19.589  -0.755  -2.465  1.00  0.00    -0.237 OA
ATOM    111  O   UNL     1     -21.054  -1.923  -4.073  1.00  0.00    -0.744 OA
ENDBRANCH 107 108
ENDBRANCH  75 100
ENDBRANCH  49  50
ENDBRANCH  41  44
ENDBRANCH  39  40
ENDBRANCH  38  39
ENDBRANCH   1  38
TORSDOF 21
