REMARK SMILES COCC[C@@]1(C(=O)NCCCNC(=O)c2ccc(-c3c4nc(c(-c5c(F)cc(S(=O)(=O)[O-])cc5F)c5ccc([nH]5)c(-c5c(F)cc(S(=O)(=O)[O-])cc5F)c5nc(c(-c6c(F)cc(S(=O)(=O)[O-])cc6F)c6ccc3[nH]6)C=C5)C=C4)cc2)CCC[N@@H+](Cc2cccc3c2OC(C)(C)C3)C1
REMARK SMILES IDX 10 1 9 2 8 3 6 4 7 5 5 7 81 8 97 9 82 10 84 11 83 12 4 14
REMARK SMILES IDX 3 15 2 16 1 17 85 18 86 19 87 20 91 21 88 22 90 23 92 24
REMARK SMILES IDX 89 25 96 26 93 27 94 28 95 29 11 30 12 31 13 32 14 34 15 35
REMARK SMILES IDX 16 36 80 37 17 38 79 39 18 40 19 41 20 42 73 43 21 44 78 45
REMARK SMILES IDX 72 46 74 47 22 48 77 49 71 50 70 51 23 53 57 54 36 55 56 56
REMARK SMILES IDX 37 57 40 58 55 59 75 60 38 61 39 62 54 64 76 65 41 66 24 67
REMARK SMILES IDX 25 68 34 69 26 70 27 71 33 72 35 73 28 74 29 75 30 76 31 77
REMARK SMILES IDX 32 78 58 79 59 80 68 81 60 82 61 83 67 84 69 85 62 86 63 87
REMARK SMILES IDX 64 88 65 89 66 90 42 91 43 92 52 93 44 94 45 95 51 96 53 97
REMARK SMILES IDX 46 98 47 99 48 100 49 101 50 102
REMARK H PARENT 8 6 84 13 12 33 74 52 40 63
REMARK Flexibility Score: inf
ROOT
ATOM      1  C   UNL     1       0.524   2.085   6.013  1.00  0.00     0.042 C 
ENDROOT
BRANCH   1   2
ATOM      2  C   UNL     1      -0.523   1.161   5.399  1.00  0.00     0.117 C 
BRANCH   2   3
ATOM      3  N   UNL     1      -0.812   1.420   4.003  1.00  0.00    -0.355 N 
ATOM      4  C   UNL     1      -0.381   0.952   2.812  1.00  0.00     0.232 C 
ATOM      5  O   UNL     1      -1.048   1.403   1.864  1.00  0.00    -0.274 OA
ATOM      6  H   UNL     1      -1.499   2.117   3.895  1.00  0.00     0.163 HD
BRANCH   4   7
ATOM      7  C   UNL     1       0.872   0.066   2.514  1.00  0.00     0.100 C 
ATOM      8  C   UNL     1       1.298  -0.956   3.593  1.00  0.00     0.029 C 
ATOM      9  C   UNL     1       2.008   1.086   2.177  1.00  0.00     0.279 C 
ATOM     10  C   UNL     1       2.306  -0.494   4.635  1.00  0.00     0.063 C 
ATOM     11  N   UNL     1       2.581   1.666   3.399  1.00  0.00    -0.330 N 
ATOM     12  C   UNL     1       3.245   0.611   4.177  1.00  0.00     0.262 C 
ATOM     13  H   UNL     1       1.812   2.027   3.962  1.00  0.00     0.348 HD
BRANCH   7  14
ATOM     14  C   UNL     1       0.439  -0.809   1.255  1.00  0.00     0.051 C 
BRANCH  14  15
ATOM     15  C   UNL     1       1.502  -1.254   0.249  1.00  0.00     0.161 C 
BRANCH  15  16
ATOM     16  O   UNL     1       2.338  -2.283   0.762  1.00  0.00    -0.385 OA
ATOM     17  C   UNL     1       3.709  -1.922   0.827  1.00  0.00     0.194 C 
ENDBRANCH  15  16
ENDBRANCH  14  15
ENDBRANCH   7  14
BRANCH  11  18
ATOM     18  C   UNL     1       3.390   2.913   3.192  1.00  0.00     0.303 C 
BRANCH  18  19
ATOM     19  C   UNL     1       4.893   2.713   3.195  1.00  0.00     0.049 A 
ATOM     20  C   UNL     1       5.580   2.502   4.401  1.00  0.00     0.013 A 
ATOM     21  C   UNL     1       5.540   2.336   2.043  1.00  0.00     0.132 A 
ATOM     22  C   UNL     1       6.694   1.651   4.433  1.00  0.00     0.001 A 
ATOM     23  C   UNL     1       6.523   1.366   2.075  1.00  0.00    -0.001 A 
ATOM     24  O   UNL     1       5.256   2.781   0.782  1.00  0.00    -0.487 OA
ATOM     25  C   UNL     1       7.110   0.995   3.270  1.00  0.00     0.008 A 
ATOM     26  C   UNL     1       6.636   0.817   0.698  1.00  0.00     0.087 C 
ATOM     27  C   UNL     1       6.208   2.081  -0.072  1.00  0.00     0.108 C 
ATOM     28  C   UNL     1       7.473   2.906  -0.387  1.00  0.00     0.057 C 
ATOM     29  C   UNL     1       5.432   1.824  -1.361  1.00  0.00     0.057 C 
ENDBRANCH  18  19
ENDBRANCH  11  18
ENDBRANCH   4   7
ENDBRANCH   2   3
ENDBRANCH   1   2
BRANCH   1  30
ATOM     30  C   UNL     1       0.141   3.557   6.048  1.00  0.00     0.118 C 
BRANCH  30  31
ATOM     31  N   UNL     1      -0.740   3.823   7.169  1.00  0.00    -0.352 N 
ATOM     32  C   UNL     1      -0.453   4.404   8.379  1.00  0.00     0.251 C 
ATOM     33  H   UNL     1      -1.677   3.547   7.045  1.00  0.00     0.163 HD
ATOM     34  O   UNL     1      -1.176   4.137   9.337  1.00  0.00    -0.269 OA
BRANCH  32  35
ATOM     35  C   UNL     1       0.668   5.368   8.546  1.00  0.00     0.039 A 
ATOM     36  C   UNL     1       1.219   5.524   9.825  1.00  0.00     0.014 A 
ATOM     37  C   UNL     1       1.072   6.231   7.522  1.00  0.00     0.014 A 
ATOM     38  C   UNL     1       2.122   6.559  10.085  1.00  0.00     0.010 A 
ATOM     39  C   UNL     1       2.034   7.216   7.763  1.00  0.00     0.010 A 
ATOM     40  C   UNL     1       2.519   7.431   9.061  1.00  0.00    -0.014 A 
BRANCH  40  41
ATOM     41  C   UNL     1       3.326   8.645   9.366  1.00  0.00     0.031 A 
ATOM     42  C   UNL     1       2.706  10.014   9.197  1.00  0.00     0.074 A 
ATOM     43  C   UNL     1       4.599   8.530   9.791  1.00  0.00     0.049 A 
ATOM     44  N   UNL     1       3.240  11.195   9.382  1.00  0.00    -0.248 NA
ATOM     45  C   UNL     1       1.309  10.062   8.731  1.00  0.00     0.031 C 
ATOM     46  C   UNL     1       5.327   7.271   9.957  1.00  0.00     0.029 A 
ATOM     47  N   UNL     1       5.509   9.490  10.159  1.00  0.00    -0.354 N 
ATOM     48  C   UNL     1       2.259  12.117   9.028  1.00  0.00     0.074 A 
ATOM     49  C   UNL     1       1.113  11.363   8.576  1.00  0.00     0.031 C 
ATOM     50  C   UNL     1       6.565   7.534  10.408  1.00  0.00     0.029 A 
ATOM     51  C   UNL     1       6.726   8.979  10.545  1.00  0.00     0.049 A 
ATOM     52  H   UNL     1       5.309  10.454  10.148  1.00  0.00     0.167 HD
ATOM     53  C   UNL     1       2.299  13.470   9.096  1.00  0.00     0.037 A 
ATOM     54  C   UNL     1       7.843   9.606  10.966  1.00  0.00     0.037 A 
ATOM     55  C   UNL     1       3.417  14.217   9.610  1.00  0.00     0.049 A 
ATOM     56  C   UNL     1       7.835  11.106  11.102  1.00  0.00     0.074 A 
ATOM     57  C   UNL     1       3.533  15.586   9.781  1.00  0.00     0.029 A 
ATOM     58  N   UNL     1       4.605  13.656  10.053  1.00  0.00    -0.354 N 
ATOM     59  N   UNL     1       6.879  11.957  10.809  1.00  0.00    -0.248 NA
ATOM     60  C   UNL     1       9.048  11.731  11.647  1.00  0.00     0.031 C 
ATOM     61  C   UNL     1       4.802  15.854  10.307  1.00  0.00     0.029 A 
ATOM     62  C   UNL     1       5.459  14.650  10.498  1.00  0.00     0.049 A 
ATOM     63  H   UNL     1       4.810  12.693  10.050  1.00  0.00     0.167 HD
ATOM     64  C   UNL     1       7.364  13.211  11.166  1.00  0.00     0.074 A 
ATOM     65  C   UNL     1       8.691  13.006  11.707  1.00  0.00     0.031 C 
ATOM     66  C   UNL     1       6.766  14.423  11.056  1.00  0.00     0.037 A 
BRANCH  53  67
ATOM     67  C   UNL     1       1.093  14.237   8.623  1.00  0.00     0.058 A 
ATOM     68  C   UNL     1      -0.103  14.259   9.358  1.00  0.00     0.135 A 
ATOM     69  C   UNL     1       1.155  15.009   7.451  1.00  0.00     0.135 A 
ATOM     70  F   UNL     1      -0.223  13.527  10.476  1.00  0.00    -0.206 F 
ATOM     71  C   UNL     1      -1.200  15.006   8.940  1.00  0.00     0.059 A 
ATOM     72  C   UNL     1       0.078  15.783   7.027  1.00  0.00     0.059 A 
ATOM     73  F   UNL     1       2.273  15.023   6.709  1.00  0.00    -0.206 F 
ATOM     74  C   UNL     1      -1.099  15.768   7.774  1.00  0.00     0.060 A 
BRANCH  74  75
ATOM     75  S   UNL     1      -2.520  16.759   7.265  1.00  0.00     0.124 S 
ATOM     76  O   UNL     1      -3.419  15.733   6.745  1.00  0.00    -0.237 OA
ATOM     77  O   UNL     1      -2.930  17.386   8.516  1.00  0.00    -0.237 OA
ATOM     78  O   UNL     1      -1.960  17.666   6.266  1.00  0.00    -0.744 OA
ENDBRANCH  74  75
ENDBRANCH  53  67
BRANCH  54  79
ATOM     79  C   UNL     1       9.055   8.821  11.320  1.00  0.00     0.058 A 
ATOM     80  C   UNL     1       9.478   8.700  12.653  1.00  0.00     0.135 A 
ATOM     81  C   UNL     1       9.825   8.190  10.332  1.00  0.00     0.135 A 
ATOM     82  F   UNL     1       8.776   9.289  13.634  1.00  0.00    -0.206 F 
ATOM     83  C   UNL     1      10.638   8.012  12.991  1.00  0.00     0.059 A 
ATOM     84  C   UNL     1      10.976   7.474  10.648  1.00  0.00     0.059 A 
ATOM     85  F   UNL     1       9.453   8.257   9.044  1.00  0.00    -0.206 F 
ATOM     86  C   UNL     1      11.384   7.406  11.979  1.00  0.00     0.060 A 
BRANCH  86  87
ATOM     87  S   UNL     1      12.879   6.495  12.426  1.00  0.00     0.124 S 
ATOM     88  O   UNL     1      13.824   7.580  12.660  1.00  0.00    -0.237 OA
ATOM     89  O   UNL     1      12.449   5.755  13.609  1.00  0.00    -0.237 OA
ATOM     90  O   UNL     1      13.135   5.676  11.245  1.00  0.00    -0.744 OA
ENDBRANCH  86  87
ENDBRANCH  54  79
BRANCH  66  91
ATOM     91  C   UNL     1       7.519  15.611  11.584  1.00  0.00     0.058 A 
ATOM     92  C   UNL     1       8.632  16.140  10.913  1.00  0.00     0.135 A 
ATOM     93  C   UNL     1       7.103  16.242  12.768  1.00  0.00     0.135 A 
ATOM     94  F   UNL     1       9.070  15.572   9.778  1.00  0.00    -0.206 F 
ATOM     95  C   UNL     1       9.333  17.230  11.418  1.00  0.00     0.059 A 
ATOM     96  C   UNL     1       7.773  17.349  13.277  1.00  0.00     0.059 A 
ATOM     97  F   UNL     1       6.035  15.784  13.439  1.00  0.00    -0.206 F 
ATOM     98  C   UNL     1       8.899  17.824  12.605  1.00  0.00     0.060 A 
BRANCH  98  99
ATOM     99  S   UNL     1       9.813  19.238  13.256  1.00  0.00     0.124 S 
ATOM    100  O   UNL     1      10.968  18.585  13.864  1.00  0.00    -0.237 OA
ATOM    101  O   UNL     1      10.087  20.018  12.053  1.00  0.00    -0.237 OA
ATOM    102  O   UNL     1       8.872  19.849  14.190  1.00  0.00    -0.744 OA
ENDBRANCH  98  99
ENDBRANCH  66  91
ENDBRANCH  40  41
ENDBRANCH  32  35
ENDBRANCH  30  31
ENDBRANCH   1  30
TORSDOF 18
