REMARK SMILES CC/C=C/C/C=C/C/C=C/C/C=C/CCSCCCC(=O)NCCCNC(=O)c1ccc(-c2c3nc(c(-c4c(F)cc(S(=O)(=O)[O-])cc4F)c4ccc([nH]4)c(-c4c(F)cc(S(=O)(=O)[O-])cc4F)c4nc(c(-c5c(F)cc(S(=O)(=O)[O-])cc5F)c5ccc2[nH]5)C=C4)C=C3)cc1
REMARK SMILES IDX 17 1 16 2 15 3 14 4 13 5 12 6 11 7 10 8 9 9 8 10 7 11 6 12
REMARK SMILES IDX 5 13 4 14 3 15 2 16 1 17 18 18 19 19 20 20 21 21 22 22 23 24
REMARK SMILES IDX 24 25 25 26 26 27 27 28 28 30 29 31 30 32 94 33 31 34 93 35
REMARK SMILES IDX 32 36 33 37 34 38 87 39 35 40 92 41 86 42 88 43 36 44 91 45
REMARK SMILES IDX 85 46 84 47 37 49 71 50 50 51 70 52 51 53 54 54 69 55 89 56
REMARK SMILES IDX 52 57 53 58 68 60 90 61 55 62 38 63 39 64 48 65 40 66 41 67
REMARK SMILES IDX 47 68 49 69 42 70 43 71 44 72 45 73 46 74 72 75 73 76 82 77
REMARK SMILES IDX 74 78 75 79 81 80 83 81 76 82 77 83 78 84 79 85 80 86 56 87
REMARK SMILES IDX 57 88 66 89 58 90 59 91 65 92 67 93 60 94 61 95 62 96 63 97
REMARK SMILES IDX 64 98
REMARK H PARENT 22 23 26 29 88 48 54 59
REMARK Flexibility Score: inf
ROOT
ATOM      1  C   UNL     1      -6.189   9.934  -9.639  1.00  0.00     0.070 C 
ENDROOT
BRANCH   1   2
ATOM      2  S   UNL     1      -6.526  11.089  -8.237  1.00  0.00    -0.162 SA
BRANCH   2   3
ATOM      3  C   UNL     1      -5.474  10.648  -6.793  1.00  0.00     0.073 C 
BRANCH   3   4
ATOM      4  C   UNL     1      -6.053   9.671  -5.737  1.00  0.00     0.038 C 
BRANCH   4   5
ATOM      5  C   UNL     1      -5.304   8.366  -5.602  1.00  0.00    -0.030 C 
ATOM      6  C   UNL     1      -5.572   7.377  -4.731  1.00  0.00    -0.027 C 
BRANCH   6   7
ATOM      7  C   UNL     1      -5.022   5.965  -4.817  1.00  0.00     0.054 C 
BRANCH   7   8
ATOM      8  C   UNL     1      -3.591   5.826  -5.260  1.00  0.00    -0.027 C 
ATOM      9  C   UNL     1      -2.809   4.803  -4.875  1.00  0.00    -0.027 C 
BRANCH   9  10
ATOM     10  C   UNL     1      -1.357   4.659  -5.233  1.00  0.00     0.054 C 
BRANCH  10  11
ATOM     11  C   UNL     1      -0.535   4.925  -4.005  1.00  0.00    -0.027 C 
ATOM     12  C   UNL     1       0.242   4.017  -3.396  1.00  0.00    -0.027 C 
BRANCH  12  13
ATOM     13  C   UNL     1       0.895   4.248  -2.064  1.00  0.00     0.054 C 
BRANCH  13  14
ATOM     14  C   UNL     1       0.375   3.247  -1.071  1.00  0.00    -0.027 C 
ATOM     15  C   UNL     1       1.142   2.361  -0.418  1.00  0.00    -0.031 C 
BRANCH  15  16
ATOM     16  C   UNL     1       0.594   1.302   0.493  1.00  0.00     0.023 C 
ATOM     17  C   UNL     1       0.985  -0.083   0.001  1.00  0.00     0.008 C 
ENDBRANCH  15  16
ENDBRANCH  13  14
ENDBRANCH  12  13
ENDBRANCH  10  11
ENDBRANCH   9  10
ENDBRANCH   7   8
ENDBRANCH   6   7
ENDBRANCH   4   5
ENDBRANCH   3   4
ENDBRANCH   2   3
ENDBRANCH   1   2
BRANCH   1  18
ATOM     18  C   UNL     1      -4.818   9.383 -10.030  1.00  0.00     0.021 C 
BRANCH  18  19
ATOM     19  C   UNL     1      -4.091   8.428  -9.100  1.00  0.00     0.101 C 
BRANCH  19  20
ATOM     20  C   UNL     1      -4.415   6.944  -9.152  1.00  0.00     0.220 C 
ATOM     21  O   UNL     1      -3.550   6.142  -9.517  1.00  0.00    -0.275 OA
ATOM     22  N   UNL     1      -5.596   6.428  -8.732  1.00  0.00    -0.356 N 
ATOM     23  H   UNL     1      -5.694   5.463  -8.896  1.00  0.00     0.163 HD
BRANCH  22  24
ATOM     24  C   UNL     1      -6.738   7.038  -8.086  1.00  0.00     0.117 C 
BRANCH  24  25
ATOM     25  C   UNL     1      -8.032   6.788  -8.842  1.00  0.00     0.042 C 
BRANCH  25  26
ATOM     26  C   UNL     1      -8.961   5.883  -8.052  1.00  0.00     0.118 C 
BRANCH  26  27
ATOM     27  N   UNL     1      -9.705   6.595  -7.013  1.00  0.00    -0.352 N 
ATOM     28  C   UNL     1     -11.062   6.515  -6.747  1.00  0.00     0.251 C 
ATOM     29  H   UNL     1      -9.182   7.199  -6.438  1.00  0.00     0.163 HD
ATOM     30  O   UNL     1     -11.597   7.240  -5.932  1.00  0.00    -0.269 OA
BRANCH  28  31
ATOM     31  C   UNL     1     -11.844   5.534  -7.532  1.00  0.00     0.039 A 
ATOM     32  C   UNL     1     -12.890   5.980  -8.344  1.00  0.00     0.014 A 
ATOM     33  C   UNL     1     -11.394   4.216  -7.598  1.00  0.00     0.014 A 
ATOM     34  C   UNL     1     -13.415   5.119  -9.311  1.00  0.00     0.010 A 
ATOM     35  C   UNL     1     -11.840   3.406  -8.632  1.00  0.00     0.010 A 
ATOM     36  C   UNL     1     -12.849   3.848  -9.506  1.00  0.00    -0.014 A 
BRANCH  36  37
ATOM     37  C   UNL     1     -13.270   2.936 -10.603  1.00  0.00     0.031 A 
ATOM     38  C   UNL     1     -13.729   1.547 -10.254  1.00  0.00     0.074 A 
ATOM     39  C   UNL     1     -13.094   3.285 -11.893  1.00  0.00     0.049 A 
ATOM     40  N   UNL     1     -13.882   0.504 -11.025  1.00  0.00    -0.248 NA
ATOM     41  C   UNL     1     -13.984   1.285  -8.827  1.00  0.00     0.031 C 
ATOM     42  C   UNL     1     -12.600   4.579 -12.368  1.00  0.00     0.029 A 
ATOM     43  N   UNL     1     -13.281   2.562 -13.046  1.00  0.00    -0.354 N 
ATOM     44  C   UNL     1     -14.187  -0.549 -10.171  1.00  0.00     0.074 A 
ATOM     45  C   UNL     1     -14.144  -0.028  -8.823  1.00  0.00     0.031 C 
ATOM     46  C   UNL     1     -12.530   4.560 -13.709  1.00  0.00     0.029 A 
ATOM     47  C   UNL     1     -12.926   3.240 -14.190  1.00  0.00     0.049 A 
ATOM     48  H   UNL     1     -13.636   1.643 -13.054  1.00  0.00     0.167 HD
ATOM     49  C   UNL     1     -14.494  -1.831 -10.483  1.00  0.00     0.037 A 
ATOM     50  C   UNL     1     -12.899   2.837 -15.476  1.00  0.00     0.037 A 
ATOM     51  C   UNL     1     -14.602  -2.319 -11.830  1.00  0.00     0.049 A 
ATOM     52  C   UNL     1     -13.318   1.433 -15.814  1.00  0.00     0.074 A 
ATOM     53  C   UNL     1     -14.992  -3.573 -12.263  1.00  0.00     0.029 A 
ATOM     54  N   UNL     1     -14.332  -1.567 -12.965  1.00  0.00    -0.354 N 
ATOM     55  N   UNL     1     -13.653   0.459 -15.001  1.00  0.00    -0.248 NA
ATOM     56  C   UNL     1     -13.364   1.070 -17.237  1.00  0.00     0.031 C 
ATOM     57  C   UNL     1     -14.934  -3.587 -13.661  1.00  0.00     0.029 A 
ATOM     58  C   UNL     1     -14.545  -2.330 -14.099  1.00  0.00     0.049 A 
ATOM     59  H   UNL     1     -14.033  -0.629 -12.963  1.00  0.00     0.167 HD
ATOM     60  C   UNL     1     -13.974  -0.623 -15.813  1.00  0.00     0.074 A 
ATOM     61  C   UNL     1     -13.793  -0.185 -17.182  1.00  0.00     0.031 C 
ATOM     62  C   UNL     1     -14.383  -1.865 -15.455  1.00  0.00     0.037 A 
BRANCH  49  63
ATOM     63  C   UNL     1     -14.732  -2.776  -9.338  1.00  0.00     0.058 A 
ATOM     64  C   UNL     1     -15.844  -2.645  -8.489  1.00  0.00     0.135 A 
ATOM     65  C   UNL     1     -13.815  -3.802  -9.059  1.00  0.00     0.135 A 
ATOM     66  F   UNL     1     -16.746  -1.673  -8.701  1.00  0.00    -0.206 F 
ATOM     67  C   UNL     1     -16.002  -3.451  -7.367  1.00  0.00     0.059 A 
ATOM     68  C   UNL     1     -13.972  -4.643  -7.961  1.00  0.00     0.059 A 
ATOM     69  F   UNL     1     -12.738  -3.978  -9.840  1.00  0.00    -0.206 F 
ATOM     70  C   UNL     1     -15.052  -4.438  -7.104  1.00  0.00     0.060 A 
BRANCH  70  71
ATOM     71  S   UNL     1     -15.235  -5.440  -5.614  1.00  0.00     0.124 S 
ATOM     72  O   UNL     1     -14.754  -4.520  -4.588  1.00  0.00    -0.237 OA
ATOM     73  O   UNL     1     -16.668  -5.717  -5.593  1.00  0.00    -0.237 OA
ATOM     74  O   UNL     1     -14.380  -6.594  -5.875  1.00  0.00    -0.744 OA
ENDBRANCH  70  71
ENDBRANCH  49  63
BRANCH  50  75
ATOM     75  C   UNL     1     -12.486   3.797 -16.534  1.00  0.00     0.058 A 
ATOM     76  C   UNL     1     -13.437   4.390 -17.377  1.00  0.00     0.135 A 
ATOM     77  C   UNL     1     -11.147   4.195 -16.678  1.00  0.00     0.135 A 
ATOM     78  F   UNL     1     -14.728   4.037 -17.283  1.00  0.00    -0.206 F 
ATOM     79  C   UNL     1     -13.079   5.349 -18.320  1.00  0.00     0.059 A 
ATOM     80  C   UNL     1     -10.767   5.166 -17.601  1.00  0.00     0.059 A 
ATOM     81  F   UNL     1     -10.201   3.669 -15.883  1.00  0.00    -0.206 F 
ATOM     82  C   UNL     1     -11.742   5.738 -18.417  1.00  0.00     0.060 A 
BRANCH  82  83
ATOM     83  S   UNL     1     -11.306   7.056 -19.574  1.00  0.00     0.124 S 
ATOM     84  O   UNL     1     -11.401   6.367 -20.855  1.00  0.00    -0.237 OA
ATOM     85  O   UNL     1     -12.339   8.052 -19.306  1.00  0.00    -0.237 OA
ATOM     86  O   UNL     1      -9.960   7.435 -19.157  1.00  0.00    -0.744 OA
ENDBRANCH  82  83
ENDBRANCH  50  75
BRANCH  62  87
ATOM     87  C   UNL     1     -14.716  -2.838 -16.549  1.00  0.00     0.058 A 
ATOM     88  C   UNL     1     -13.715  -3.512 -17.264  1.00  0.00     0.135 A 
ATOM     89  C   UNL     1     -16.054  -3.184 -16.799  1.00  0.00     0.135 A 
ATOM     90  F   UNL     1     -12.422  -3.210 -17.065  1.00  0.00    -0.206 F 
ATOM     91  C   UNL     1     -14.030  -4.505 -18.186  1.00  0.00     0.059 A 
ATOM     92  C   UNL     1     -16.390  -4.188 -17.701  1.00  0.00     0.059 A 
ATOM     93  F   UNL     1     -17.046  -2.572 -16.134  1.00  0.00    -0.206 F 
ATOM     94  C   UNL     1     -15.370  -4.843 -18.390  1.00  0.00     0.060 A 
BRANCH  94  95
ATOM     95  S   UNL     1     -15.760  -6.195 -19.522  1.00  0.00     0.124 S 
ATOM     96  O   UNL     1     -15.540  -5.565 -20.819  1.00  0.00    -0.237 OA
ATOM     97  O   UNL     1     -14.789  -7.215 -19.138  1.00  0.00    -0.237 OA
ATOM     98  O   UNL     1     -17.149  -6.512 -19.205  1.00  0.00    -0.744 OA
ENDBRANCH  94  95
ENDBRANCH  62  87
ENDBRANCH  36  37
ENDBRANCH  28  31
ENDBRANCH  26  27
ENDBRANCH  25  26
ENDBRANCH  24  25
ENDBRANCH  22  24
ENDBRANCH  19  20
ENDBRANCH  18  19
ENDBRANCH   1  18
TORSDOF 26
