REMARK SMILES Cc1nn(CC(=O)NCCCNC(=O)c2ccc(-c3c4nc(c(-c5c(F)cc(S(=O)(=O)[O-])cc5F)c5ccc([nH]5)c(-c5c(F)cc(S(=O)(=O)[O-])cc5F)c5nc(c(-c6c(F)cc(S(=O)(=O)[O-])cc6F)c6ccc3[nH]6)C=C5)C=C4)cc2)c(C)c1NS(=O)(=O)c1cccc2cccnc12
REMARK SMILES IDX 9 1 8 2 6 3 7 4 5 6 4 7 1 8 2 9 3 10 83 11 81 12 82 13 84 14
REMARK SMILES IDX 85 16 86 17 87 18 88 19 89 20 97 21 90 22 92 23 96 24 91 25
REMARK SMILES IDX 93 26 95 27 94 28 10 29 11 30 12 31 13 32 14 34 15 35 16 36
REMARK SMILES IDX 80 37 17 38 79 39 18 40 19 41 20 42 73 43 21 44 78 45 72 46
REMARK SMILES IDX 74 47 22 48 77 49 71 50 70 51 23 53 57 54 36 55 56 56 37 57
REMARK SMILES IDX 40 58 55 59 75 60 38 61 39 62 54 64 76 65 41 66 24 67 25 68
REMARK SMILES IDX 34 69 26 70 27 71 33 72 35 73 28 74 29 75 30 76 31 77 32 78
REMARK SMILES IDX 58 79 59 80 68 81 60 82 61 83 67 84 69 85 62 86 63 87 64 88
REMARK SMILES IDX 65 89 66 90 42 91 43 92 52 93 44 94 45 95 51 96 53 97 46 98
REMARK SMILES IDX 47 99 48 100 49 101 50 102
REMARK H PARENT 8 5 84 15 12 33 74 52 40 63
REMARK Flexibility Score: inf
ROOT
ATOM      1  C   UNL     1       1.800   0.631  -4.856  1.00  0.00     0.117 C 
ENDROOT
BRANCH   1   2
ATOM      2  N   UNL     1       1.280  -0.700  -5.144  1.00  0.00    -0.354 N 
ATOM      3  C   UNL     1       0.065  -1.287  -4.931  1.00  0.00     0.241 C 
ATOM      4  O   UNL     1      -0.175  -2.236  -5.697  1.00  0.00    -0.273 OA
ATOM      5  H   UNL     1       1.933  -1.293  -5.580  1.00  0.00     0.163 HD
BRANCH   3   6
ATOM      6  C   UNL     1      -1.061  -0.851  -3.989  1.00  0.00     0.244 C 
BRANCH   6   7
ATOM      7  N   UNL     1      -0.700  -0.093  -2.816  1.00  0.00    -0.258 N 
ATOM      8  C   UNL     1       1.478   0.125  -0.085  1.00  0.00     0.071 C 
ATOM      9  C   UNL     1       0.615   0.365  -1.264  1.00  0.00     0.084 A 
ATOM     10  N   UNL     1       0.008  -0.680  -1.838  1.00  0.00    -0.175 NA
ATOM     11  C   UNL     1       0.268   1.569  -1.954  1.00  0.00     0.093 A 
ATOM     12  C   UNL     1      -0.934   1.234  -2.527  1.00  0.00     0.060 A 
ATOM     13  C   UNL     1      -2.127   2.023  -2.896  1.00  0.00     0.069 C 
BRANCH  11  14
ATOM     14  N   UNL     1       1.007   2.732  -2.044  1.00  0.00    -0.276 N 
ATOM     15  H   UNL     1       1.905   2.666  -1.645  1.00  0.00     0.180 HD
BRANCH  14  16
ATOM     16  S   UNL     1       0.669   4.217  -2.697  1.00  0.00     0.264 S 
ATOM     17  O   UNL     1      -0.366   4.822  -1.880  1.00  0.00    -0.201 OA
ATOM     18  O   UNL     1       1.996   4.821  -2.689  1.00  0.00    -0.201 OA
BRANCH  16  19
ATOM     19  C   UNL     1       0.159   4.447  -4.402  1.00  0.00     0.114 A 
ATOM     20  C   UNL     1       0.056   5.833  -4.679  1.00  0.00     0.024 A 
ATOM     21  C   UNL     1      -0.134   3.536  -5.442  1.00  0.00     0.091 A 
ATOM     22  C   UNL     1      -0.161   6.314  -5.959  1.00  0.00     0.002 A 
ATOM     23  C   UNL     1      -0.091   4.058  -6.765  1.00  0.00     0.002 A 
ATOM     24  N   UNL     1      -0.582   2.261  -5.336  1.00  0.00    -0.255 NA
ATOM     25  C   UNL     1      -0.118   5.427  -7.011  1.00  0.00     0.010 A 
ATOM     26  C   UNL     1      -0.155   3.218  -7.884  1.00  0.00     0.012 A 
ATOM     27  C   UNL     1      -0.892   1.544  -6.458  1.00  0.00     0.112 A 
ATOM     28  C   UNL     1      -0.595   1.927  -7.736  1.00  0.00     0.021 A 
ENDBRANCH  16  19
ENDBRANCH  14  16
ENDBRANCH  11  14
ENDBRANCH   6   7
ENDBRANCH   3   6
ENDBRANCH   1   2
BRANCH   1  29
ATOM     29  C   UNL     1       3.085   0.714  -4.035  1.00  0.00     0.042 C 
BRANCH  29  30
ATOM     30  C   UNL     1       4.318   0.310  -4.812  1.00  0.00     0.118 C 
BRANCH  30  31
ATOM     31  N   UNL     1       4.903   1.352  -5.677  1.00  0.00    -0.352 N 
ATOM     32  C   UNL     1       6.144   1.297  -6.333  1.00  0.00     0.251 C 
ATOM     33  H   UNL     1       4.369   2.169  -5.808  1.00  0.00     0.163 HD
ATOM     34  O   UNL     1       6.675   2.277  -6.798  1.00  0.00    -0.269 OA
BRANCH  32  35
ATOM     35  C   UNL     1       6.759  -0.045  -6.455  1.00  0.00     0.039 A 
ATOM     36  C   UNL     1       8.082  -0.342  -6.113  1.00  0.00     0.014 A 
ATOM     37  C   UNL     1       5.860  -1.050  -6.757  1.00  0.00     0.014 A 
ATOM     38  C   UNL     1       8.442  -1.687  -5.974  1.00  0.00     0.010 A 
ATOM     39  C   UNL     1       6.122  -2.295  -6.280  1.00  0.00     0.010 A 
ATOM     40  C   UNL     1       7.435  -2.660  -6.035  1.00  0.00    -0.014 A 
BRANCH  40  41
ATOM     41  C   UNL     1       7.644  -4.082  -5.792  1.00  0.00     0.031 A 
ATOM     42  C   UNL     1       8.226  -4.414  -4.464  1.00  0.00     0.074 A 
ATOM     43  C   UNL     1       7.041  -5.006  -6.581  1.00  0.00     0.049 A 
ATOM     44  N   UNL     1       9.399  -4.889  -4.208  1.00  0.00    -0.248 NA
ATOM     45  C   UNL     1       7.479  -4.016  -3.258  1.00  0.00     0.031 C 
ATOM     46  C   UNL     1       6.137  -4.790  -7.727  1.00  0.00     0.029 A 
ATOM     47  N   UNL     1       6.990  -6.355  -6.438  1.00  0.00    -0.354 N 
ATOM     48  C   UNL     1       9.429  -5.105  -2.831  1.00  0.00     0.074 A 
ATOM     49  C   UNL     1       8.347  -4.327  -2.292  1.00  0.00     0.031 C 
ATOM     50  C   UNL     1       5.442  -5.917  -7.987  1.00  0.00     0.029 A 
ATOM     51  C   UNL     1       5.992  -6.985  -7.181  1.00  0.00     0.049 A 
ATOM     52  H   UNL     1       7.610  -6.850  -5.856  1.00  0.00     0.167 HD
ATOM     53  C   UNL     1      10.158  -6.126  -2.293  1.00  0.00     0.037 A 
ATOM     54  C   UNL     1       5.640  -8.294  -7.118  1.00  0.00     0.037 A 
ATOM     55  C   UNL     1      11.071  -6.667  -3.275  1.00  0.00     0.049 A 
ATOM     56  C   UNL     1       6.790  -9.006  -6.499  1.00  0.00     0.074 A 
ATOM     57  C   UNL     1      12.099  -6.148  -4.040  1.00  0.00     0.029 A 
ATOM     58  N   UNL     1      10.717  -7.849  -3.883  1.00  0.00    -0.354 N 
ATOM     59  N   UNL     1       7.971  -9.089  -7.056  1.00  0.00    -0.248 NA
ATOM     60  C   UNL     1       6.773  -9.172  -5.054  1.00  0.00     0.031 C 
ATOM     61  C   UNL     1      11.958  -6.774  -5.315  1.00  0.00     0.029 A 
ATOM     62  C   UNL     1      10.916  -7.699  -5.232  1.00  0.00     0.049 A 
ATOM     63  H   UNL     1      10.382  -8.658  -3.432  1.00  0.00     0.167 HD
ATOM     64  C   UNL     1       8.874  -8.893  -6.019  1.00  0.00     0.074 A 
ATOM     65  C   UNL     1       8.076  -9.021  -4.798  1.00  0.00     0.031 C 
ATOM     66  C   UNL     1      10.109  -8.349  -6.245  1.00  0.00     0.037 A 
BRANCH  53  67
ATOM     67  C   UNL     1       9.788  -6.909  -1.046  1.00  0.00     0.058 A 
ATOM     68  C   UNL     1      10.681  -7.902  -0.582  1.00  0.00     0.135 A 
ATOM     69  C   UNL     1       8.501  -6.945  -0.465  1.00  0.00     0.135 A 
ATOM     70  F   UNL     1      11.944  -7.953  -1.036  1.00  0.00    -0.206 F 
ATOM     71  C   UNL     1      10.288  -8.921   0.287  1.00  0.00     0.059 A 
ATOM     72  C   UNL     1       8.104  -7.921   0.444  1.00  0.00     0.059 A 
ATOM     73  F   UNL     1       7.526  -6.098  -0.810  1.00  0.00    -0.206 F 
ATOM     74  C   UNL     1       8.986  -8.935   0.772  1.00  0.00     0.060 A 
BRANCH  74  75
ATOM     75  S   UNL     1       8.433 -10.321   1.779  1.00  0.00     0.124 S 
ATOM     76  O   UNL     1       8.435 -11.404   0.803  1.00  0.00    -0.237 OA
ATOM     77  O   UNL     1       9.468 -10.380   2.805  1.00  0.00    -0.237 OA
ATOM     78  O   UNL     1       7.118  -9.892   2.246  1.00  0.00    -0.744 OA
ENDBRANCH  74  75
ENDBRANCH  53  67
BRANCH  54  79
ATOM     79  C   UNL     1       4.270  -8.872  -7.206  1.00  0.00     0.058 A 
ATOM     80  C   UNL     1       4.065 -10.250  -7.390  1.00  0.00     0.135 A 
ATOM     81  C   UNL     1       3.134  -8.123  -6.834  1.00  0.00     0.135 A 
ATOM     82  F   UNL     1       5.093 -11.044  -7.726  1.00  0.00    -0.206 F 
ATOM     83  C   UNL     1       2.820 -10.858  -7.174  1.00  0.00     0.059 A 
ATOM     84  C   UNL     1       1.883  -8.704  -6.619  1.00  0.00     0.059 A 
ATOM     85  F   UNL     1       3.227  -6.808  -6.581  1.00  0.00    -0.206 F 
ATOM     86  C   UNL     1       1.738 -10.077  -6.768  1.00  0.00     0.060 A 
BRANCH  86  87
ATOM     87  S   UNL     1       0.175 -10.878  -6.325  1.00  0.00     0.124 S 
ATOM     88  O   UNL     1      -0.302 -11.349  -7.621  1.00  0.00    -0.237 OA
ATOM     89  O   UNL     1       0.610 -11.913  -5.393  1.00  0.00    -0.237 OA
ATOM     90  O   UNL     1      -0.605  -9.796  -5.730  1.00  0.00    -0.744 OA
ENDBRANCH  86  87
ENDBRANCH  54  79
BRANCH  66  91
ATOM     91  C   UNL     1      10.588  -8.215  -7.671  1.00  0.00     0.058 A 
ATOM     92  C   UNL     1      10.004  -7.377  -8.639  1.00  0.00     0.135 A 
ATOM     93  C   UNL     1      11.797  -8.836  -8.019  1.00  0.00     0.135 A 
ATOM     94  F   UNL     1       8.907  -6.663  -8.361  1.00  0.00    -0.206 F 
ATOM     95  C   UNL     1      10.573  -7.195  -9.903  1.00  0.00     0.059 A 
ATOM     96  C   UNL     1      12.398  -8.646  -9.261  1.00  0.00     0.059 A 
ATOM     97  F   UNL     1      12.443  -9.597  -7.120  1.00  0.00    -0.206 F 
ATOM     98  C   UNL     1      11.774  -7.835 -10.204  1.00  0.00     0.060 A 
BRANCH  98  99
ATOM     99  S   UNL     1      12.545  -7.551 -11.813  1.00  0.00     0.124 S 
ATOM    100  O   UNL     1      11.640  -8.254 -12.716  1.00  0.00    -0.237 OA
ATOM    101  O   UNL     1      12.539  -6.094 -11.916  1.00  0.00    -0.237 OA
ATOM    102  O   UNL     1      13.869  -8.150 -11.667  1.00  0.00    -0.744 OA
ENDBRANCH  98  99
ENDBRANCH  66  91
ENDBRANCH  40  41
ENDBRANCH  32  35
ENDBRANCH  30  31
ENDBRANCH  29  30
ENDBRANCH   1  29
TORSDOF 17
