REMARK SMILES C[C@@H]1CCCCN1C(=O)Cn1cc(C(=O)NCCCNC(=O)c2ccc(-c3c4nc(c(-c5c(F)cc(S(=O)(=O)[O-])cc5F)c5ccc([nH]5)c(-c5c(F)cc(S(=O)(=O)[O-])cc5F)c5nc(c(-c6c(F)cc(S(=O)(=O)[O-])cc6F)c6ccc3[nH]6)C=C5)C=C4)cc2)cn1
REMARK SMILES IDX 18 1 17 2 16 3 14 4 15 5 13 7 11 8 12 9 90 10 89 11 10 12
REMARK SMILES IDX 8 13 9 14 7 15 1 16 2 17 3 18 4 19 6 20 5 21 19 22 20 23
REMARK SMILES IDX 21 24 22 26 23 27 24 28 88 29 25 30 87 31 26 32 27 33 28 34
REMARK SMILES IDX 81 35 29 36 86 37 80 38 82 39 30 40 85 41 79 42 78 43 31 45
REMARK SMILES IDX 65 46 44 47 64 48 45 49 48 50 63 51 83 52 46 53 47 54 62 56
REMARK SMILES IDX 84 57 49 58 32 59 33 60 42 61 34 62 35 63 41 64 43 65 36 66
REMARK SMILES IDX 37 67 38 68 39 69 40 70 66 71 67 72 76 73 68 74 69 75 75 76
REMARK SMILES IDX 77 77 70 78 71 79 72 80 73 81 74 82 50 83 51 84 60 85 52 86
REMARK SMILES IDX 53 87 59 88 61 89 54 90 55 91 56 92 57 93 58 94
REMARK H PARENT 16 6 20 25 82 44 48 55
REMARK Flexibility Score: inf
ROOT
ATOM      1  C   UNL     1      -1.132  -1.006  -7.070  1.00  0.00     0.042 C 
ENDROOT
BRANCH   1   2
ATOM      2  C   UNL     1       0.202  -0.286  -7.294  1.00  0.00     0.118 C 
BRANCH   2   3
ATOM      3  N   UNL     1       0.110   1.138  -7.010  1.00  0.00    -0.352 N 
ATOM      4  C   UNL     1       0.552   1.844  -5.925  1.00  0.00     0.254 C 
ATOM      5  O   UNL     1       0.509   3.080  -5.966  1.00  0.00    -0.269 OA
ATOM      6  H   UNL     1      -0.339   1.674  -7.703  1.00  0.00     0.163 HD
BRANCH   4   7
ATOM      7  C   UNL     1       1.132   1.157  -4.793  1.00  0.00     0.077 A 
ATOM      8  N   UNL     1       1.735  -0.275  -3.234  1.00  0.00    -0.262 N 
ATOM      9  C   UNL     1       0.844  -0.082  -4.248  1.00  0.00     0.123 A 
ATOM     10  N   UNL     1       2.579   0.764  -3.064  1.00  0.00    -0.180 NA
ATOM     11  C   UNL     1       2.150   1.662  -3.954  1.00  0.00     0.149 A 
BRANCH   8  12
ATOM     12  C   UNL     1       1.881  -1.457  -2.409  1.00  0.00     0.244 C 
BRANCH  12  13
ATOM     13  C   UNL     1       0.654  -1.763  -1.574  1.00  0.00     0.244 C 
ATOM     14  O   UNL     1      -0.041  -2.740  -1.878  1.00  0.00    -0.273 OA
BRANCH  13  15
ATOM     15  N   UNL     1       0.365  -0.982  -0.459  1.00  0.00    -0.338 N 
ATOM     16  C   UNL     1       2.254   0.044   0.790  1.00  0.00     0.031 C 
ATOM     17  C   UNL     1       1.041   0.282  -0.104  1.00  0.00     0.082 C 
ATOM     18  C   UNL     1       0.066   1.295   0.527  1.00  0.00     0.025 C 
ATOM     19  C   UNL     1      -1.331   1.127  -0.063  1.00  0.00     0.004 C 
ATOM     20  C   UNL     1      -0.786  -1.325   0.370  1.00  0.00     0.120 C 
ATOM     21  C   UNL     1      -1.885  -0.266   0.249  1.00  0.00     0.022 C 
ENDBRANCH  13  15
ENDBRANCH  12  13
ENDBRANCH   8  12
ENDBRANCH   4   7
ENDBRANCH   2   3
ENDBRANCH   1   2
BRANCH   1  22
ATOM     22  C   UNL     1      -2.040  -0.873  -8.279  1.00  0.00     0.118 C 
BRANCH  22  23
ATOM     23  N   UNL     1      -1.538  -1.624  -9.443  1.00  0.00    -0.352 N 
ATOM     24  C   UNL     1      -2.058  -1.694 -10.726  1.00  0.00     0.251 C 
ATOM     25  H   UNL     1      -0.720  -2.149  -9.288  1.00  0.00     0.163 HD
ATOM     26  O   UNL     1      -1.738  -2.602 -11.484  1.00  0.00    -0.269 OA
BRANCH  24  27
ATOM     27  C   UNL     1      -2.989  -0.638 -11.157  1.00  0.00     0.039 A 
ATOM     28  C   UNL     1      -4.116  -0.875 -11.950  1.00  0.00     0.014 A 
ATOM     29  C   UNL     1      -2.723   0.631 -10.668  1.00  0.00     0.014 A 
ATOM     30  C   UNL     1      -4.995   0.184 -12.183  1.00  0.00     0.010 A 
ATOM     31  C   UNL     1      -3.722   1.550 -10.634  1.00  0.00     0.010 A 
ATOM     32  C   UNL     1      -4.784   1.395 -11.507  1.00  0.00    -0.014 A 
BRANCH  32  33
ATOM     33  C   UNL     1      -5.662   2.549 -11.606  1.00  0.00     0.031 A 
ATOM     34  C   UNL     1      -7.032   2.295 -11.096  1.00  0.00     0.074 A 
ATOM     35  C   UNL     1      -5.162   3.786 -11.839  1.00  0.00     0.049 A 
ATOM     36  N   UNL     1      -8.114   2.144 -11.782  1.00  0.00    -0.248 NA
ATOM     37  C   UNL     1      -7.190   1.963  -9.669  1.00  0.00     0.031 C 
ATOM     38  C   UNL     1      -3.751   4.185 -12.007  1.00  0.00     0.029 A 
ATOM     39  N   UNL     1      -5.801   4.985 -11.875  1.00  0.00    -0.354 N 
ATOM     40  C   UNL     1      -9.131   1.977 -10.845  1.00  0.00     0.074 A 
ATOM     41  C   UNL     1      -8.478   1.615  -9.618  1.00  0.00     0.031 C 
ATOM     42  C   UNL     1      -3.632   5.528 -11.907  1.00  0.00     0.029 A 
ATOM     43  C   UNL     1      -4.962   6.100 -11.861  1.00  0.00     0.049 A 
ATOM     44  H   UNL     1      -6.782   5.061 -11.908  1.00  0.00     0.167 HD
ATOM     45  C   UNL     1     -10.387   2.452 -11.087  1.00  0.00     0.037 A 
ATOM     46  C   UNL     1      -5.346   7.402 -11.835  1.00  0.00     0.037 A 
ATOM     47  C   UNL     1     -10.493   2.878 -12.464  1.00  0.00     0.049 A 
ATOM     48  C   UNL     1      -6.752   7.428 -12.306  1.00  0.00     0.074 A 
ATOM     49  C   UNL     1     -10.524   2.260 -13.695  1.00  0.00     0.029 A 
ATOM     50  N   UNL     1     -10.157   4.193 -12.677  1.00  0.00    -0.354 N 
ATOM     51  N   UNL     1      -7.109   7.098 -13.517  1.00  0.00    -0.248 NA
ATOM     52  C   UNL     1      -7.820   7.409 -11.317  1.00  0.00     0.031 C 
ATOM     53  C   UNL     1      -9.902   3.173 -14.598  1.00  0.00     0.029 A 
ATOM     54  C   UNL     1      -9.571   4.340 -13.906  1.00  0.00     0.049 A 
ATOM     55  H   UNL     1     -10.314   4.925 -12.037  1.00  0.00     0.167 HD
ATOM     56  C   UNL     1      -8.315   6.434 -13.363  1.00  0.00     0.074 A 
ATOM     57  C   UNL     1      -8.772   6.791 -12.023  1.00  0.00     0.031 C 
ATOM     58  C   UNL     1      -8.665   5.428 -14.217  1.00  0.00     0.037 A 
BRANCH  45  59
ATOM     59  C   UNL     1     -11.361   2.972 -10.044  1.00  0.00     0.058 A 
ATOM     60  C   UNL     1     -12.651   3.371 -10.462  1.00  0.00     0.135 A 
ATOM     61  C   UNL     1     -11.010   3.365  -8.733  1.00  0.00     0.135 A 
ATOM     62  F   UNL     1     -13.106   3.043 -11.682  1.00  0.00    -0.206 F 
ATOM     63  C   UNL     1     -13.483   4.174  -9.680  1.00  0.00     0.059 A 
ATOM     64  C   UNL     1     -11.845   4.123  -7.918  1.00  0.00     0.059 A 
ATOM     65  F   UNL     1      -9.808   3.119  -8.202  1.00  0.00    -0.206 F 
ATOM     66  C   UNL     1     -13.060   4.562  -8.414  1.00  0.00     0.060 A 
BRANCH  66  67
ATOM     67  S   UNL     1     -14.079   5.683  -7.441  1.00  0.00     0.124 S 
ATOM     68  O   UNL     1     -13.980   6.915  -8.216  1.00  0.00    -0.237 OA
ATOM     69  O   UNL     1     -15.375   5.012  -7.467  1.00  0.00    -0.237 OA
ATOM     70  O   UNL     1     -13.414   5.700  -6.142  1.00  0.00    -0.744 OA
ENDBRANCH  66  67
ENDBRANCH  45  59
BRANCH  46  71
ATOM     71  C   UNL     1      -4.700   8.583 -11.207  1.00  0.00     0.058 A 
ATOM     72  C   UNL     1      -5.006   9.896 -11.611  1.00  0.00     0.135 A 
ATOM     73  C   UNL     1      -4.007   8.452  -9.989  1.00  0.00     0.135 A 
ATOM     74  F   UNL     1      -5.681  10.110 -12.750  1.00  0.00    -0.206 F 
ATOM     75  C   UNL     1      -4.689  11.012 -10.826  1.00  0.00     0.059 A 
ATOM     76  C   UNL     1      -3.682   9.550  -9.188  1.00  0.00     0.059 A 
ATOM     77  F   UNL     1      -3.715   7.237  -9.499  1.00  0.00    -0.206 F 
ATOM     78  C   UNL     1      -4.047  10.828  -9.602  1.00  0.00     0.060 A 
BRANCH  78  79
ATOM     79  S   UNL     1      -3.797  12.250  -8.507  1.00  0.00     0.124 S 
ATOM     80  O   UNL     1      -2.791  13.019  -9.233  1.00  0.00    -0.237 OA
ATOM     81  O   UNL     1      -5.131  12.839  -8.454  1.00  0.00    -0.237 OA
ATOM     82  O   UNL     1      -3.338  11.643  -7.261  1.00  0.00    -0.744 OA
ENDBRANCH  78  79
ENDBRANCH  46  71
BRANCH  58  83
ATOM     83  C   UNL     1      -7.939   5.363 -15.536  1.00  0.00     0.058 A 
ATOM     84  C   UNL     1      -6.590   5.003 -15.701  1.00  0.00     0.135 A 
ATOM     85  C   UNL     1      -8.689   5.579 -16.700  1.00  0.00     0.135 A 
ATOM     86  F   UNL     1      -5.825   4.694 -14.647  1.00  0.00    -0.206 F 
ATOM     87  C   UNL     1      -6.004   4.903 -16.965  1.00  0.00     0.059 A 
ATOM     88  C   UNL     1      -8.136   5.455 -17.970  1.00  0.00     0.059 A 
ATOM     89  F   UNL     1      -9.998   5.870 -16.609  1.00  0.00    -0.206 F 
ATOM     90  C   UNL     1      -6.787   5.133 -18.096  1.00  0.00     0.060 A 
BRANCH  90  91
ATOM     91  S   UNL     1      -6.052   4.949 -19.735  1.00  0.00     0.124 S 
ATOM     92  O   UNL     1      -5.188   6.122 -19.816  1.00  0.00    -0.237 OA
ATOM     93  O   UNL     1      -5.367   3.663 -19.635  1.00  0.00    -0.237 OA
ATOM     94  O   UNL     1      -7.207   4.962 -20.630  1.00  0.00    -0.744 OA
ENDBRANCH  90  91
ENDBRANCH  58  83
ENDBRANCH  32  33
ENDBRANCH  24  27
ENDBRANCH  22  23
ENDBRANCH   1  22
TORSDOF 16
