REMARK SMILES C[NH2+]CC(=O)NC[C@H]1CC[C@H](C(=O)NCCCNC(=O)c2ccc(-c3c4nc(c(-c5c(F)cc(S(=O)(=O)[O-])cc5F)c5ccc([nH]5)c(-c5c(F)cc(S(=O)(=O)[O-])cc5F)c5nc(c(-c6c(F)cc(S(=O)(=O)[O-])cc6F)c6ccc3[nH]6)C=C5)C=C4)cc2)O1
REMARK SMILES IDX 15 1 14 2 12 3 13 4 11 6 8 7 9 8 87 9 10 10 7 11 6 12 4 13
REMARK SMILES IDX 5 14 3 16 2 17 1 18 16 21 17 22 18 23 19 24 20 26 21 27
REMARK SMILES IDX 22 28 86 29 23 30 85 31 24 32 25 33 26 34 79 35 27 36 84 37
REMARK SMILES IDX 78 38 80 39 28 40 83 41 77 42 76 43 29 45 63 46 42 47 62 48
REMARK SMILES IDX 43 49 46 50 61 51 81 52 44 53 45 54 60 56 82 57 47 58 30 59
REMARK SMILES IDX 31 60 40 61 32 62 33 63 39 64 41 65 34 66 35 67 36 68 37 69
REMARK SMILES IDX 38 70 64 71 65 72 74 73 66 74 67 75 73 76 75 77 68 78 69 79
REMARK SMILES IDX 70 80 71 81 72 82 48 83 49 84 58 85 50 86 51 87 57 88 59 89
REMARK SMILES IDX 52 90 53 91 54 92 55 93 56 94
REMARK H PARENT 14 5 6 15 2 19 2 20 18 25 80 44 46 55
REMARK Flexibility Score: inf
ROOT
ATOM      1  C   UNL     1       1.054   0.726  -0.882  1.00  0.00     0.117 C 
ENDROOT
BRANCH   1   2
ATOM      2  N   UNL     1       2.475   0.508  -1.056  1.00  0.00    -0.354 N 
ATOM      3  C   UNL     1       3.491   0.491  -0.149  1.00  0.00     0.249 C 
ATOM      4  O   UNL     1       4.618   0.219  -0.579  1.00  0.00    -0.272 OA
ATOM      5  H   UNL     1       2.753   0.344  -1.986  1.00  0.00     0.163 HD
BRANCH   3   6
ATOM      6  C   UNL     1       3.300   0.868   1.342  1.00  0.00     0.207 C 
ATOM      7  C   UNL     1       1.371   1.347   2.583  1.00  0.00     0.138 C 
ATOM      8  C   UNL     1       1.907   2.677   2.084  1.00  0.00     0.037 C 
ATOM      9  O   UNL     1       2.202   0.305   2.054  1.00  0.00    -0.363 OA
ATOM     10  C   UNL     1       3.281   2.371   1.554  1.00  0.00     0.045 C 
BRANCH   7  11
ATOM     11  C   UNL     1       1.256   1.250   4.112  1.00  0.00     0.148 C 
BRANCH  11  12
ATOM     12  N   UNL     1       0.256   2.187   4.607  1.00  0.00    -0.349 N 
ATOM     13  C   UNL     1      -1.052   1.975   4.923  1.00  0.00     0.275 C 
ATOM     14  O   UNL     1      -1.807   2.950   4.941  1.00  0.00    -0.269 OA
ATOM     15  H   UNL     1       0.573   3.111   4.732  1.00  0.00     0.163 HD
BRANCH  13  16
ATOM     16  C   UNL     1      -1.558   0.576   5.272  1.00  0.00     0.361 C 
BRANCH  16  17
ATOM     17  N   UNL     1      -2.515   0.056   4.285  1.00  0.00    -0.341 N 
ATOM     18  C   UNL     1      -1.880  -0.468   3.090  1.00  0.00     0.331 C 
ATOM     19  H   UNL     1      -3.054  -0.692   4.720  1.00  0.00     0.346 HD
ATOM     20  H   UNL     1      -3.104   0.837   3.996  1.00  0.00     0.346 HD
ENDBRANCH  16  17
ENDBRANCH  13  16
ENDBRANCH  11  12
ENDBRANCH   7  11
ENDBRANCH   3   6
ENDBRANCH   1   2
BRANCH   1  21
ATOM     21  C   UNL     1       0.621   2.129  -1.297  1.00  0.00     0.042 C 
BRANCH  21  22
ATOM     22  C   UNL     1       0.514   2.328  -2.807  1.00  0.00     0.118 C 
BRANCH  22  23
ATOM     23  N   UNL     1      -0.569   1.552  -3.395  1.00  0.00    -0.352 N 
ATOM     24  C   UNL     1      -1.674   1.954  -4.106  1.00  0.00     0.251 C 
ATOM     25  H   UNL     1      -0.498   0.580  -3.261  1.00  0.00     0.163 HD
ATOM     26  O   UNL     1      -2.558   1.133  -4.338  1.00  0.00    -0.269 OA
BRANCH  24  27
ATOM     27  C   UNL     1      -1.821   3.350  -4.579  1.00  0.00     0.039 A 
ATOM     28  C   UNL     1      -3.089   3.942  -4.537  1.00  0.00     0.014 A 
ATOM     29  C   UNL     1      -0.743   4.063  -5.108  1.00  0.00     0.014 A 
ATOM     30  C   UNL     1      -3.260   5.263  -4.963  1.00  0.00     0.010 A 
ATOM     31  C   UNL     1      -0.900   5.402  -5.469  1.00  0.00     0.010 A 
ATOM     32  C   UNL     1      -2.159   6.016  -5.400  1.00  0.00    -0.014 A 
BRANCH  32  33
ATOM     33  C   UNL     1      -2.299   7.448  -5.776  1.00  0.00     0.031 A 
ATOM     34  C   UNL     1      -2.023   7.892  -7.188  1.00  0.00     0.074 A 
ATOM     35  C   UNL     1      -2.604   8.357  -4.829  1.00  0.00     0.049 A 
ATOM     36  N   UNL     1      -1.980   9.104  -7.679  1.00  0.00    -0.248 NA
ATOM     37  C   UNL     1      -1.736   6.836  -8.173  1.00  0.00     0.031 C 
ATOM     38  C   UNL     1      -2.859   8.057  -3.418  1.00  0.00     0.029 A 
ATOM     39  N   UNL     1      -2.734   9.722  -4.905  1.00  0.00    -0.354 N 
ATOM     40  C   UNL     1      -1.648   8.959  -9.022  1.00  0.00     0.074 A 
ATOM     41  C   UNL     1      -1.459   7.544  -9.259  1.00  0.00     0.031 C 
ATOM     42  C   UNL     1      -3.124   9.200  -2.765  1.00  0.00     0.029 A 
ATOM     43  C   UNL     1      -3.017  10.318  -3.697  1.00  0.00     0.049 A 
ATOM     44  H   UNL     1      -2.634  10.227  -5.744  1.00  0.00     0.167 HD
ATOM     45  C   UNL     1      -1.531   9.916  -9.973  1.00  0.00     0.037 A 
ATOM     46  C   UNL     1      -3.157  11.618  -3.373  1.00  0.00     0.037 A 
ATOM     47  C   UNL     1      -1.746  11.321  -9.738  1.00  0.00     0.049 A 
ATOM     48  C   UNL     1      -3.012  12.662  -4.447  1.00  0.00     0.074 A 
ATOM     49  C   UNL     1      -1.698  12.363 -10.648  1.00  0.00     0.029 A 
ATOM     50  N   UNL     1      -2.054  11.881  -8.507  1.00  0.00    -0.354 N 
ATOM     51  N   UNL     1      -2.741  12.502  -5.721  1.00  0.00    -0.248 NA
ATOM     52  C   UNL     1      -3.193  14.063  -4.042  1.00  0.00     0.031 C 
ATOM     53  C   UNL     1      -1.941  13.557  -9.961  1.00  0.00     0.029 A 
ATOM     54  C   UNL     1      -2.183  13.255  -8.631  1.00  0.00     0.049 A 
ATOM     55  H   UNL     1      -2.165  11.377  -7.669  1.00  0.00     0.167 HD
ATOM     56  C   UNL     1      -2.743  13.778  -6.272  1.00  0.00     0.074 A 
ATOM     57  C   UNL     1      -3.057  14.697  -5.198  1.00  0.00     0.031 C 
ATOM     58  C   UNL     1      -2.505  14.155  -7.553  1.00  0.00     0.037 A 
BRANCH  45  59
ATOM     59  C   UNL     1      -1.164   9.481 -11.365  1.00  0.00     0.058 A 
ATOM     60  C   UNL     1      -2.077   8.800 -12.186  1.00  0.00     0.135 A 
ATOM     61  C   UNL     1       0.093   9.799 -11.907  1.00  0.00     0.135 A 
ATOM     62  F   UNL     1      -3.286   8.458 -11.713  1.00  0.00    -0.206 F 
ATOM     63  C   UNL     1      -1.752   8.433 -13.488  1.00  0.00     0.059 A 
ATOM     64  C   UNL     1       0.430   9.463 -13.216  1.00  0.00     0.059 A 
ATOM     65  F   UNL     1       1.004  10.448 -11.166  1.00  0.00    -0.206 F 
ATOM     66  C   UNL     1      -0.496   8.771 -13.995  1.00  0.00     0.060 A 
BRANCH  66  67
ATOM     67  S   UNL     1      -0.100   8.306 -15.694  1.00  0.00     0.124 S 
ATOM     68  O   UNL     1       0.092   6.865 -15.564  1.00  0.00    -0.237 OA
ATOM     69  O   UNL     1      -1.295   8.723 -16.419  1.00  0.00    -0.237 OA
ATOM     70  O   UNL     1       1.106   9.075 -15.984  1.00  0.00    -0.744 OA
ENDBRANCH  66  67
ENDBRANCH  45  59
BRANCH  46  71
ATOM     71  C   UNL     1      -3.452  12.011  -1.969  1.00  0.00     0.058 A 
ATOM     72  C   UNL     1      -4.702  12.538  -1.615  1.00  0.00     0.135 A 
ATOM     73  C   UNL     1      -2.488  11.878  -0.958  1.00  0.00     0.135 A 
ATOM     74  F   UNL     1      -5.654  12.690  -2.549  1.00  0.00    -0.206 F 
ATOM     75  C   UNL     1      -4.981  12.944  -0.314  1.00  0.00     0.059 A 
ATOM     76  C   UNL     1      -2.751  12.252   0.356  1.00  0.00     0.059 A 
ATOM     77  F   UNL     1      -1.282  11.362  -1.241  1.00  0.00    -0.206 F 
ATOM     78  C   UNL     1      -3.996  12.799   0.665  1.00  0.00     0.060 A 
BRANCH  78  79
ATOM     79  S   UNL     1      -4.373  13.306   2.357  1.00  0.00     0.124 S 
ATOM     80  O   UNL     1      -4.301  14.758   2.250  1.00  0.00    -0.237 OA
ATOM     81  O   UNL     1      -5.705  12.745   2.557  1.00  0.00    -0.237 OA
ATOM     82  O   UNL     1      -3.312  12.676   3.137  1.00  0.00    -0.744 OA
ENDBRANCH  78  79
ENDBRANCH  46  71
BRANCH  58  83
ATOM     83  C   UNL     1      -2.605  15.621  -7.870  1.00  0.00     0.058 A 
ATOM     84  C   UNL     1      -1.618  16.532  -7.463  1.00  0.00     0.135 A 
ATOM     85  C   UNL     1      -3.680  16.112  -8.629  1.00  0.00     0.135 A 
ATOM     86  F   UNL     1      -0.575  16.113  -6.729  1.00  0.00    -0.206 F 
ATOM     87  C   UNL     1      -1.704  17.884  -7.778  1.00  0.00     0.059 A 
ATOM     88  C   UNL     1      -3.772  17.456  -8.978  1.00  0.00     0.059 A 
ATOM     89  F   UNL     1      -4.646  15.281  -9.051  1.00  0.00    -0.206 F 
ATOM     90  C   UNL     1      -2.785  18.336  -8.537  1.00  0.00     0.060 A 
BRANCH  90  91
ATOM     91  S   UNL     1      -2.868  20.088  -8.968  1.00  0.00     0.124 S 
ATOM     92  O   UNL     1      -3.281  20.682  -7.701  1.00  0.00    -0.237 OA
ATOM     93  O   UNL     1      -1.499  20.373  -9.385  1.00  0.00    -0.237 OA
ATOM     94  O   UNL     1      -3.863  20.128 -10.035  1.00  0.00    -0.744 OA
ENDBRANCH  90  91
ENDBRANCH  58  83
ENDBRANCH  32  33
ENDBRANCH  24  27
ENDBRANCH  22  23
ENDBRANCH  21  22
ENDBRANCH   1  21
TORSDOF 17
