REMARK SMILES C[C@H]1CC[C@@H]([N@@H+](CC(=O)NCCCNC(=O)c2ccc(-c3c4nc(c(-c5c(F)cc(S(=O)(=O)[O-])cc5F)c5ccc([nH]5)c(-c5c(F)cc(S(=O)(=O)[O-])cc5F)c5nc(c(-c6c(F)cc(S(=O)(=O)[O-])cc6F)c6ccc3[nH]6)C=C5)C=C4)cc2)C(C)(C)C)C[C@@H]1C
REMARK SMILES IDX 12 1 11 2 10 3 8 4 9 5 7 7 6 8 5 10 1 11 2 12 3 13 88 14
REMARK SMILES IDX 4 15 87 16 89 17 83 18 84 19 85 20 86 21 13 22 14 23 15 24
REMARK SMILES IDX 16 26 17 27 18 28 82 29 19 30 81 31 20 32 21 33 22 34 75 35
REMARK SMILES IDX 23 36 80 37 74 38 76 39 24 40 79 41 73 42 72 43 25 45 59 46
REMARK SMILES IDX 38 47 58 48 39 49 42 50 57 51 77 52 40 53 41 54 56 56 78 57
REMARK SMILES IDX 43 58 26 59 27 60 36 61 28 62 29 63 35 64 37 65 30 66 31 67
REMARK SMILES IDX 32 68 33 69 34 70 60 71 61 72 70 73 62 74 63 75 69 76 71 77
REMARK SMILES IDX 64 78 65 79 66 80 67 81 68 82 44 83 45 84 54 85 46 86 47 87
REMARK SMILES IDX 53 88 55 89 48 90 49 91 50 92 51 93 52 94
REMARK H PARENT 10 6 6 9 14 25 76 44 42 55
REMARK Flexibility Score: inf
ROOT
ATOM      1  C   UNL     1       1.081  -2.140  -0.272  1.00  0.00     0.042 C 
ENDROOT
BRANCH   1   2
ATOM      2  C   UNL     1       0.230  -4.007   0.211  1.00  0.00     0.118 C 
BRANCH   2   3
ATOM      3  N   UNL     1       1.009  -5.519   0.292  1.00  0.00    -0.351 N 
ATOM      4  C   UNL     1       2.054  -6.090   1.023  1.00  0.00     0.275 C 
ATOM      5  O   UNL     1       2.567  -7.112   0.545  1.00  0.00    -0.269 OA
ATOM      6  H   UNL     1       0.619  -6.161  -0.345  1.00  0.00     0.163 HD
BRANCH   4   7
ATOM      7  C   UNL     1       2.609  -5.513   2.377  1.00  0.00     0.364 C 
BRANCH   7   8
ATOM      8  N   UNL     1       2.747  -4.028   2.446  1.00  0.00    -0.321 N 
ATOM      9  H   UNL     1       2.465  -3.803   3.400  1.00  0.00     0.349 HD
BRANCH   8  10
ATOM     10  C   UNL     1       1.853  -3.388   1.506  1.00  0.00     0.185 C 
ATOM     11  C   UNL     1      -1.974  -2.497  -2.117  1.00  0.00     0.008 C 
ATOM     12  C   UNL     1      -0.687  -2.649  -1.280  1.00  0.00    -0.011 C 
ATOM     13  C   UNL     1      -1.064  -2.241   0.568  1.00  0.00     0.010 C 
ATOM     14  C   UNL     1       0.964  -3.753  -1.707  1.00  0.00    -0.006 C 
ATOM     15  C   UNL     1       0.328  -2.340   1.867  1.00  0.00     0.065 C 
ATOM     16  C   UNL     1       2.364  -3.767  -0.336  1.00  0.00     0.068 C 
ATOM     17  C   UNL     1       1.855  -4.074  -2.999  1.00  0.00     0.008 C 
ENDBRANCH   8  10
BRANCH   8  18
ATOM     18  C   UNL     1       3.929  -3.350   2.935  1.00  0.00     0.090 C 
ATOM     19  C   UNL     1       4.908  -3.082   1.787  1.00  0.00     0.078 C 
ATOM     20  C   UNL     1       3.486  -2.009   3.557  1.00  0.00     0.078 C 
ATOM     21  C   UNL     1       4.642  -4.155   4.040  1.00  0.00     0.078 C 
ENDBRANCH   8  18
ENDBRANCH   7   8
ENDBRANCH   4   7
ENDBRANCH   2   3
ENDBRANCH   1   2
BRANCH   1  22
ATOM     22  C   UNL     1       1.502  -1.364  -1.907  1.00  0.00     0.118 C 
BRANCH  22  23
ATOM     23  N   UNL     1       0.735  -1.770  -3.196  1.00  0.00    -0.352 N 
ATOM     24  C   UNL     1       0.369  -1.391  -4.435  1.00  0.00     0.251 C 
ATOM     25  H   UNL     1       0.368  -2.671  -3.046  1.00  0.00     0.163 HD
ATOM     26  O   UNL     1      -0.167  -2.198  -5.194  1.00  0.00    -0.269 OA
BRANCH  24  27
ATOM     27  C   UNL     1       0.373   0.002  -4.707  1.00  0.00     0.039 A 
ATOM     28  C   UNL     1      -0.884   0.563  -4.963  1.00  0.00     0.014 A 
ATOM     29  C   UNL     1       1.506   0.689  -4.311  1.00  0.00     0.014 A 
ATOM     30  C   UNL     1      -1.028   1.902  -4.731  1.00  0.00     0.010 A 
ATOM     31  C   UNL     1       1.328   1.992  -3.972  1.00  0.00     0.010 A 
ATOM     32  C   UNL     1       0.073   2.586  -4.208  1.00  0.00    -0.014 A 
BRANCH  32  33
ATOM     33  C   UNL     1       0.013   4.022  -4.044  1.00  0.00     0.031 A 
ATOM     34  C   UNL     1       0.830   4.810  -5.004  1.00  0.00     0.074 A 
ATOM     35  C   UNL     1      -0.673   4.517  -3.009  1.00  0.00     0.049 A 
ATOM     36  N   UNL     1       1.096   6.079  -4.988  1.00  0.00    -0.248 NA
ATOM     37  C   UNL     1       1.496   4.057  -6.090  1.00  0.00     0.031 C 
ATOM     38  C   UNL     1      -1.448   3.735  -2.038  1.00  0.00     0.029 A 
ATOM     39  N   UNL     1      -0.813   5.804  -2.598  1.00  0.00    -0.354 N 
ATOM     40  C   UNL     1       1.970   6.270  -6.045  1.00  0.00     0.074 A 
ATOM     41  C   UNL     1       2.275   4.983  -6.616  1.00  0.00     0.031 C 
ATOM     42  C   UNL     1      -2.001   4.576  -1.149  1.00  0.00     0.029 A 
ATOM     43  C   UNL     1      -1.582   5.935  -1.472  1.00  0.00     0.049 A 
ATOM     44  H   UNL     1      -0.401   6.568  -3.064  1.00  0.00     0.167 HD
ATOM     45  C   UNL     1       2.430   7.444  -6.514  1.00  0.00     0.037 A 
ATOM     46  C   UNL     1      -1.890   7.053  -0.797  1.00  0.00     0.037 A 
ATOM     47  C   UNL     1       2.061   8.693  -5.920  1.00  0.00     0.049 A 
ATOM     48  C   UNL     1      -1.353   8.351  -1.339  1.00  0.00     0.074 A 
ATOM     49  C   UNL     1       2.411   9.968  -6.309  1.00  0.00     0.029 A 
ATOM     50  N   UNL     1       1.246   8.813  -4.798  1.00  0.00    -0.354 N 
ATOM     51  N   UNL     1      -0.575   8.550  -2.381  1.00  0.00    -0.248 NA
ATOM     52  C   UNL     1      -1.740   9.572  -0.630  1.00  0.00     0.031 C 
ATOM     53  C   UNL     1       1.855  10.857  -5.385  1.00  0.00     0.029 A 
ATOM     54  C   UNL     1       1.100  10.142  -4.464  1.00  0.00     0.049 A 
ATOM     55  H   UNL     1       0.836   8.059  -4.316  1.00  0.00     0.167 HD
ATOM     56  C   UNL     1      -0.409   9.925  -2.476  1.00  0.00     0.074 A 
ATOM     57  C   UNL     1      -1.177  10.503  -1.388  1.00  0.00     0.031 C 
ATOM     58  C   UNL     1       0.305  10.653  -3.372  1.00  0.00     0.037 A 
BRANCH  45  59
ATOM     59  C   UNL     1       3.352   7.399  -7.692  1.00  0.00     0.058 A 
ATOM     60  C   UNL     1       2.921   6.958  -8.956  1.00  0.00     0.135 A 
ATOM     61  C   UNL     1       4.694   7.779  -7.552  1.00  0.00     0.135 A 
ATOM     62  F   UNL     1       1.658   6.538  -9.135  1.00  0.00    -0.206 F 
ATOM     63  C   UNL     1       3.794   6.880 -10.034  1.00  0.00     0.059 A 
ATOM     64  C   UNL     1       5.576   7.745  -8.625  1.00  0.00     0.059 A 
ATOM     65  F   UNL     1       5.163   8.176  -6.358  1.00  0.00    -0.206 F 
ATOM     66  C   UNL     1       5.118   7.285  -9.860  1.00  0.00     0.060 A 
BRANCH  66  67
ATOM     67  S   UNL     1       6.226   7.218 -11.280  1.00  0.00     0.124 S 
ATOM     68  O   UNL     1       6.392   5.779 -11.454  1.00  0.00    -0.237 OA
ATOM     69  O   UNL     1       5.447   7.896 -12.310  1.00  0.00    -0.237 OA
ATOM     70  O   UNL     1       7.412   7.935 -10.820  1.00  0.00    -0.744 OA
ENDBRANCH  66  67
ENDBRANCH  45  59
BRANCH  46  71
ATOM     71  C   UNL     1      -2.759   6.986   0.402  1.00  0.00     0.058 A 
ATOM     72  C   UNL     1      -4.053   7.525   0.382  1.00  0.00     0.135 A 
ATOM     73  C   UNL     1      -2.330   6.357   1.581  1.00  0.00     0.135 A 
ATOM     74  F   UNL     1      -4.514   8.122  -0.728  1.00  0.00    -0.206 F 
ATOM     75  C   UNL     1      -4.880   7.476   1.498  1.00  0.00     0.059 A 
ATOM     76  C   UNL     1      -3.149   6.271   2.703  1.00  0.00     0.059 A 
ATOM     77  F   UNL     1      -1.113   5.795   1.642  1.00  0.00    -0.206 F 
ATOM     78  C   UNL     1      -4.417   6.847   2.655  1.00  0.00     0.060 A 
BRANCH  78  79
ATOM     79  S   UNL     1      -5.508   6.774   4.091  1.00  0.00     0.124 S 
ATOM     80  O   UNL     1      -5.542   8.171   4.506  1.00  0.00    -0.237 OA
ATOM     81  O   UNL     1      -6.740   6.249   3.510  1.00  0.00    -0.237 OA
ATOM     82  O   UNL     1      -4.812   5.863   4.996  1.00  0.00    -0.744 OA
ENDBRANCH  78  79
ENDBRANCH  46  71
BRANCH  58  83
ATOM     83  C   UNL     1       0.245  12.145  -3.237  1.00  0.00     0.058 A 
ATOM     84  C   UNL     1       0.895  12.816  -2.192  1.00  0.00     0.135 A 
ATOM     85  C   UNL     1      -0.397  12.911  -4.223  1.00  0.00     0.135 A 
ATOM     86  F   UNL     1       1.518  12.124  -1.225  1.00  0.00    -0.206 F 
ATOM     87  C   UNL     1       0.890  14.202  -2.116  1.00  0.00     0.059 A 
ATOM     88  C   UNL     1      -0.380  14.298  -4.188  1.00  0.00     0.059 A 
ATOM     89  F   UNL     1      -1.017  12.311  -5.252  1.00  0.00    -0.206 F 
ATOM     90  C   UNL     1       0.258  14.934  -3.124  1.00  0.00     0.060 A 
BRANCH  90  91
ATOM     91  S   UNL     1       0.306  16.733  -3.038  1.00  0.00     0.124 S 
ATOM     92  O   UNL     1      -0.590  16.997  -1.917  1.00  0.00    -0.237 OA
ATOM     93  O   UNL     1       1.722  16.993  -2.794  1.00  0.00    -0.237 OA
ATOM     94  O   UNL     1      -0.186  17.151  -4.347  1.00  0.00    -0.744 OA
ENDBRANCH  90  91
ENDBRANCH  58  83
ENDBRANCH  32  33
ENDBRANCH  24  27
ENDBRANCH  22  23
ENDBRANCH   1  22
TORSDOF 16
