REMARK SMILES CC(C)n1ccc(C[C@@H](C(=O)NCCCNC(=O)c2ccc(-c3c4nc(c(-c5c(F)cc(S(=O)(=O)[O-])cc5F)c5ccc([nH]5)c(-c5c(F)cc(S(=O)(=O)[O-])cc5F)c5nc(c(-c6c(F)cc(S(=O)(=O)[O-])cc6F)c6ccc3[nH]6)C=C5)C=C4)cc2)c2cccc(Cl)c2)n1
REMARK SMILES IDX 14 1 13 2 12 3 10 4 11 5 9 7 8 8 7 9 4 10 5 11 92 12 6 13
REMARK SMILES IDX 2 14 1 15 3 16 85 17 86 18 91 19 87 20 89 21 88 22 90 23
REMARK SMILES IDX 15 24 16 25 17 26 18 28 19 29 20 30 84 31 21 32 83 33 22 34
REMARK SMILES IDX 23 35 24 36 77 37 25 38 82 39 76 40 78 41 26 42 81 43 75 44
REMARK SMILES IDX 74 45 27 47 61 48 40 49 60 50 41 51 44 52 59 53 79 54 42 55
REMARK SMILES IDX 43 56 58 58 80 59 45 60 28 61 29 62 38 63 30 64 31 65 37 66
REMARK SMILES IDX 39 67 32 68 33 69 34 70 35 71 36 72 62 73 63 74 72 75 64 76
REMARK SMILES IDX 65 77 71 78 73 79 66 80 67 81 68 82 69 83 70 84 46 85 47 86
REMARK SMILES IDX 56 87 48 88 49 89 55 90 57 91 50 92 51 93 52 94 53 95 54 96
REMARK H PARENT 12 6 16 27 78 46 44 57
REMARK Flexibility Score: inf
ROOT
ATOM      1  C   UNL     1      -2.581  -1.164  -0.188  1.00  0.00     0.042 C 
ENDROOT
BRANCH   1   2
ATOM      2  C   UNL     1      -3.568  -0.581  -1.184  1.00  0.00     0.117 C 
BRANCH   2   3
ATOM      3  N   UNL     1      -4.910  -0.590  -0.622  1.00  0.00    -0.355 N 
ATOM      4  C   UNL     1      -5.383   0.252   0.352  1.00  0.00     0.227 C 
ATOM      5  O   UNL     1      -6.121  -0.243   1.206  1.00  0.00    -0.274 OA
ATOM      6  H   UNL     1      -5.537  -1.262  -0.974  1.00  0.00     0.163 HD
BRANCH   4   7
ATOM      7  C   UNL     1      -5.040   1.751   0.319  1.00  0.00     0.114 C 
BRANCH   7   8
ATOM      8  C   UNL     1      -4.289   2.181   1.601  1.00  0.00     0.076 C 
BRANCH   8   9
ATOM      9  C   UNL     1      -3.030   1.457   1.965  1.00  0.00     0.064 A 
ATOM     10  N   UNL     1      -0.989   0.839   1.976  1.00  0.00    -0.270 N 
ATOM     11  C   UNL     1      -1.557   0.204   3.048  1.00  0.00     0.109 A 
ATOM     12  N   UNL     1      -1.870   1.625   1.300  1.00  0.00    -0.178 NA
ATOM     13  C   UNL     1      -2.874   0.589   3.073  1.00  0.00     0.045 A 
BRANCH  10  14
ATOM     14  C   UNL     1       0.426   0.759   1.616  1.00  0.00     0.101 C 
ATOM     15  C   UNL     1       0.701   0.352   0.168  1.00  0.00     0.033 C 
ATOM     16  C   UNL     1       1.154   2.055   1.955  1.00  0.00     0.033 C 
ENDBRANCH  10  14
ENDBRANCH   8   9
ENDBRANCH   7   8
BRANCH   7  17
ATOM     17  C   UNL     1      -6.297   2.657   0.193  1.00  0.00    -0.034 A 
ATOM     18  C   UNL     1      -6.116   4.044   0.017  1.00  0.00     0.004 A 
ATOM     19  C   UNL     1      -7.617   2.193   0.350  1.00  0.00     0.025 A 
ATOM     20  C   UNL     1      -7.193   4.934   0.077  1.00  0.00     0.002 A 
ATOM     21  C   UNL     1      -8.694   3.086   0.397  1.00  0.00     0.041 A 
ATOM     22  C   UNL     1      -8.484   4.455   0.281  1.00  0.00     0.020 A 
ATOM     23  Cl  UNL     1     -10.294   2.495   0.627  1.00  0.00    -0.084 Cl
ENDBRANCH   7  17
ENDBRANCH   4   7
ENDBRANCH   2   3
ENDBRANCH   1   2
BRANCH   1  24
ATOM     24  C   UNL     1      -2.667  -2.649   0.033  1.00  0.00     0.118 C 
BRANCH  24  25
ATOM     25  N   UNL     1      -1.633  -3.450  -0.613  1.00  0.00    -0.352 N 
ATOM     26  C   UNL     1      -1.126  -4.695  -0.234  1.00  0.00     0.251 C 
ATOM     27  H   UNL     1      -1.240  -3.061  -1.427  1.00  0.00     0.163 HD
ATOM     28  O   UNL     1      -0.173  -5.167  -0.824  1.00  0.00    -0.269 OA
BRANCH  26  29
ATOM     29  C   UNL     1      -1.742  -5.426   0.906  1.00  0.00     0.039 A 
ATOM     30  C   UNL     1      -1.212  -6.581   1.489  1.00  0.00     0.014 A 
ATOM     31  C   UNL     1      -2.982  -5.018   1.347  1.00  0.00     0.014 A 
ATOM     32  C   UNL     1      -2.014  -7.288   2.399  1.00  0.00     0.010 A 
ATOM     33  C   UNL     1      -3.410  -5.360   2.580  1.00  0.00     0.010 A 
ATOM     34  C   UNL     1      -3.192  -6.684   2.843  1.00  0.00    -0.014 A 
BRANCH  34  35
ATOM     35  C   UNL     1      -4.244  -7.273   3.640  1.00  0.00     0.031 A 
ATOM     36  C   UNL     1      -3.917  -7.381   5.076  1.00  0.00     0.074 A 
ATOM     37  C   UNL     1      -5.522  -7.315   3.197  1.00  0.00     0.049 A 
ATOM     38  N   UNL     1      -3.590  -8.444   5.728  1.00  0.00    -0.248 NA
ATOM     39  C   UNL     1      -3.723  -6.132   5.832  1.00  0.00     0.031 C 
ATOM     40  C   UNL     1      -6.101  -6.806   1.944  1.00  0.00     0.029 A 
ATOM     41  N   UNL     1      -6.617  -7.766   3.859  1.00  0.00    -0.354 N 
ATOM     42  C   UNL     1      -3.377  -8.020   7.034  1.00  0.00     0.074 A 
ATOM     43  C   UNL     1      -3.193  -6.597   6.964  1.00  0.00     0.031 C 
ATOM     44  C   UNL     1      -7.453  -6.810   2.030  1.00  0.00     0.029 A 
ATOM     45  C   UNL     1      -7.837  -7.459   3.269  1.00  0.00     0.049 A 
ATOM     46  H   UNL     1      -6.552  -8.276   4.699  1.00  0.00     0.167 HD
ATOM     47  C   UNL     1      -3.632  -8.830   8.098  1.00  0.00     0.037 A 
ATOM     48  C   UNL     1      -9.061  -7.702   3.806  1.00  0.00     0.037 A 
ATOM     49  C   UNL     1      -3.895 -10.181   7.659  1.00  0.00     0.049 A 
ATOM     50  C   UNL     1      -8.862  -8.725   4.873  1.00  0.00     0.074 A 
ATOM     51  C   UNL     1      -3.164 -11.130   6.970  1.00  0.00     0.029 A 
ATOM     52  N   UNL     1      -5.213 -10.562   7.535  1.00  0.00    -0.354 N 
ATOM     53  N   UNL     1      -8.460  -9.948   4.644  1.00  0.00    -0.248 NA
ATOM     54  C   UNL     1      -8.633  -8.245   6.229  1.00  0.00     0.031 C 
ATOM     55  C   UNL     1      -4.097 -11.745   6.082  1.00  0.00     0.029 A 
ATOM     56  C   UNL     1      -5.357 -11.193   6.322  1.00  0.00     0.049 A 
ATOM     57  H   UNL     1      -5.925 -10.410   8.198  1.00  0.00     0.167 HD
ATOM     58  C   UNL     1      -7.577 -10.244   5.677  1.00  0.00     0.074 A 
ATOM     59  C   UNL     1      -7.788  -9.186   6.664  1.00  0.00     0.031 C 
ATOM     60  C   UNL     1      -6.559 -11.143   5.510  1.00  0.00     0.037 A 
BRANCH  47  61
ATOM     61  C   UNL     1      -3.975  -8.350   9.489  1.00  0.00     0.058 A 
ATOM     62  C   UNL     1      -3.991  -9.281  10.547  1.00  0.00     0.135 A 
ATOM     63  C   UNL     1      -4.503  -7.076   9.796  1.00  0.00     0.135 A 
ATOM     64  F   UNL     1      -3.516 -10.524  10.371  1.00  0.00    -0.206 F 
ATOM     65  C   UNL     1      -4.551  -8.990  11.791  1.00  0.00     0.059 A 
ATOM     66  C   UNL     1      -5.008  -6.744  11.048  1.00  0.00     0.059 A 
ATOM     67  F   UNL     1      -4.652  -6.115   8.877  1.00  0.00    -0.206 F 
ATOM     68  C   UNL     1      -5.071  -7.721  12.026  1.00  0.00     0.060 A 
BRANCH  68  69
ATOM     69  S   UNL     1      -5.898  -7.376  13.586  1.00  0.00     0.124 S 
ATOM     70  O   UNL     1      -7.103  -8.187  13.459  1.00  0.00    -0.237 OA
ATOM     71  O   UNL     1      -4.914  -7.837  14.560  1.00  0.00    -0.237 OA
ATOM     72  O   UNL     1      -6.102  -5.930  13.546  1.00  0.00    -0.744 OA
ENDBRANCH  68  69
ENDBRANCH  47  61
BRANCH  48  73
ATOM     73  C   UNL     1     -10.292  -6.873   3.700  1.00  0.00     0.058 A 
ATOM     74  C   UNL     1     -11.556  -7.385   4.045  1.00  0.00     0.135 A 
ATOM     75  C   UNL     1     -10.218  -5.476   3.523  1.00  0.00     0.135 A 
ATOM     76  F   UNL     1     -11.714  -8.700   4.256  1.00  0.00    -0.206 F 
ATOM     77  C   UNL     1     -12.668  -6.558   4.245  1.00  0.00     0.059 A 
ATOM     78  C   UNL     1     -11.313  -4.632   3.711  1.00  0.00     0.059 A 
ATOM     79  F   UNL     1      -9.048  -4.880   3.250  1.00  0.00    -0.206 F 
ATOM     80  C   UNL     1     -12.532  -5.178   4.095  1.00  0.00     0.060 A 
BRANCH  80  81
ATOM     81  S   UNL     1     -13.920  -4.096   4.520  1.00  0.00     0.124 S 
ATOM     82  O   UNL     1     -14.868  -4.387   3.451  1.00  0.00    -0.237 OA
ATOM     83  O   UNL     1     -14.290  -4.575   5.848  1.00  0.00    -0.237 OA
ATOM     84  O   UNL     1     -13.332  -2.759   4.487  1.00  0.00    -0.744 OA
ENDBRANCH  80  81
ENDBRANCH  48  73
BRANCH  60  85
ATOM     85  C   UNL     1      -6.566 -12.000   4.260  1.00  0.00     0.058 A 
ATOM     86  C   UNL     1      -6.417 -11.500   2.953  1.00  0.00     0.135 A 
ATOM     87  C   UNL     1      -6.556 -13.395   4.404  1.00  0.00     0.135 A 
ATOM     88  F   UNL     1      -6.310 -10.186   2.727  1.00  0.00    -0.206 F 
ATOM     89  C   UNL     1      -6.305 -12.339   1.842  1.00  0.00     0.059 A 
ATOM     90  C   UNL     1      -6.413 -14.253   3.314  1.00  0.00     0.059 A 
ATOM     91  F   UNL     1      -6.629 -13.944   5.628  1.00  0.00    -0.206 F 
ATOM     92  C   UNL     1      -6.301 -13.718   2.032  1.00  0.00     0.060 A 
BRANCH  92  93
ATOM     93  S   UNL     1      -6.072 -14.802   0.605  1.00  0.00     0.124 S 
ATOM     94  O   UNL     1      -7.349 -14.671  -0.088  1.00  0.00    -0.237 OA
ATOM     95  O   UNL     1      -4.922 -14.204  -0.069  1.00  0.00    -0.237 OA
ATOM     96  O   UNL     1      -5.819 -16.109   1.206  1.00  0.00    -0.744 OA
ENDBRANCH  92  93
ENDBRANCH  60  85
ENDBRANCH  34  35
ENDBRANCH  26  29
ENDBRANCH  24  25
ENDBRANCH   1  24
TORSDOF 17
