REMARK SMILES CC(/C=C1\SC(=S)N(CC(=O)NCC(=O)NCCCNC(=O)c2ccc(-c3c4nc(c(-c5c(F)cc(S(=O)(=O)[O-])cc5F)c5ccc([nH]5)c(-c5c(F)cc(S(=O)(=O)[O-])cc5F)c5nc(c(-c6c(F)cc(S(=O)(=O)[O-])cc6F)c6ccc3[nH]6)C=C5)C=C4)cc2)C1=O)=C\c1ccccc1
REMARK SMILES IDX 17 1 16 2 14 3 15 4 13 6 12 7 10 8 11 9 9 11 8 12 3 13 4 14
REMARK SMILES IDX 5 15 89 16 6 17 90 18 7 19 2 20 1 21 91 22 92 23 93 24 97 25
REMARK SMILES IDX 94 26 96 27 95 28 18 29 19 30 20 31 21 32 22 34 23 35 24 36
REMARK SMILES IDX 88 37 25 38 87 39 26 40 27 41 28 42 81 43 29 44 86 45 80 46
REMARK SMILES IDX 82 47 30 48 85 49 79 50 78 51 31 53 65 54 44 55 64 56 45 57
REMARK SMILES IDX 48 58 63 59 83 60 46 61 47 62 62 64 84 65 49 66 32 67 33 68
REMARK SMILES IDX 42 69 34 70 35 71 41 72 43 73 36 74 37 75 38 76 39 77 40 78
REMARK SMILES IDX 66 79 67 80 76 81 68 82 69 83 75 84 77 85 70 86 71 87 72 88
REMARK SMILES IDX 73 89 74 90 50 91 51 92 60 93 52 94 53 95 59 96 61 97 54 98
REMARK SMILES IDX 55 99 56 100 57 101 58 102
REMARK H PARENT 16 5 12 10 20 33 82 52 48 63
REMARK Flexibility Score: inf
ROOT
ATOM      1  C   UNL     1      -3.593   0.295  -2.709  1.00  0.00     0.117 C 
ENDROOT
BRANCH   1   2
ATOM      2  N   UNL     1      -4.858   0.909  -2.389  1.00  0.00    -0.355 N 
ATOM      3  C   UNL     1      -5.954   0.308  -1.835  1.00  0.00     0.239 C 
ATOM      4  O   UNL     1      -6.814   1.026  -1.321  1.00  0.00    -0.273 OA
ATOM      5  H   UNL     1      -4.941   1.869  -2.592  1.00  0.00     0.163 HD
BRANCH   3   6
ATOM      6  C   UNL     1      -6.008  -1.223  -1.701  1.00  0.00     0.216 C 
BRANCH   6   7
ATOM      7  N   UNL     1      -5.643  -1.930  -2.919  1.00  0.00    -0.345 N 
ATOM      8  C   UNL     1      -4.878  -3.027  -3.158  1.00  0.00     0.240 C 
ATOM      9  O   UNL     1      -4.941  -3.480  -4.306  1.00  0.00    -0.273 OA
ATOM     10  H   UNL     1      -6.027  -1.533  -3.734  1.00  0.00     0.164 HD
BRANCH   8  11
ATOM     11  C   UNL     1      -4.116  -3.807  -2.069  1.00  0.00     0.227 C 
BRANCH  11  12
ATOM     12  N   UNL     1      -3.207  -3.054  -1.195  1.00  0.00    -0.283 N 
ATOM     13  C   UNL     1      -0.172  -1.076  -1.074  1.00  0.00     0.024 C 
ATOM     14  C   UNL     1      -1.266  -1.773  -0.732  1.00  0.00     0.080 C 
ATOM     15  S   UNL     1      -2.095  -1.799   0.766  1.00  0.00    -0.054 SA
ATOM     16  C   UNL     1      -2.020  -2.584  -1.736  1.00  0.00     0.266 C 
ATOM     17  C   UNL     1      -3.355  -2.874   0.162  1.00  0.00     0.148 C 
ATOM     18  O   UNL     1      -1.660  -2.736  -2.894  1.00  0.00    -0.268 OA
ATOM     19  S   UNL     1      -4.513  -3.526   1.171  1.00  0.00    -0.052 S 
BRANCH  13  20
ATOM     20  C   UNL     1       0.635  -0.132  -0.297  1.00  0.00    -0.049 C 
ATOM     21  C   UNL     1       1.340  -0.667   0.914  1.00  0.00     0.044 C 
ATOM     22  C   UNL     1       0.796   1.123  -0.773  1.00  0.00     0.011 C 
BRANCH  22  23
ATOM     23  C   UNL     1       1.752   2.181  -0.387  1.00  0.00    -0.025 A 
ATOM     24  C   UNL     1       1.367   3.525  -0.508  1.00  0.00     0.008 A 
ATOM     25  C   UNL     1       3.094   1.900  -0.105  1.00  0.00     0.008 A 
ATOM     26  C   UNL     1       2.290   4.558  -0.306  1.00  0.00     0.001 A 
ATOM     27  C   UNL     1       4.015   2.930   0.107  1.00  0.00     0.001 A 
ATOM     28  C   UNL     1       3.613   4.260   0.009  1.00  0.00     0.000 A 
ENDBRANCH  22  23
ENDBRANCH  13  20
ENDBRANCH  11  12
ENDBRANCH   8  11
ENDBRANCH   6   7
ENDBRANCH   3   6
ENDBRANCH   1   2
BRANCH   1  29
ATOM     29  C   UNL     1      -3.320   0.177  -4.204  1.00  0.00     0.042 C 
BRANCH  29  30
ATOM     30  C   UNL     1      -2.204   1.111  -4.653  1.00  0.00     0.118 C 
BRANCH  30  31
ATOM     31  N   UNL     1      -0.946   0.805  -3.985  1.00  0.00    -0.352 N 
ATOM     32  C   UNL     1       0.355   0.914  -4.395  1.00  0.00     0.251 C 
ATOM     33  H   UNL     1      -1.052   0.455  -3.070  1.00  0.00     0.163 HD
ATOM     34  O   UNL     1       1.248   0.440  -3.698  1.00  0.00    -0.269 OA
BRANCH  32  35
ATOM     35  C   UNL     1       0.703   1.524  -5.681  1.00  0.00     0.039 A 
ATOM     36  C   UNL     1       1.825   1.014  -6.344  1.00  0.00     0.014 A 
ATOM     37  C   UNL     1      -0.064   2.537  -6.253  1.00  0.00     0.014 A 
ATOM     38  C   UNL     1       2.109   1.439  -7.631  1.00  0.00     0.010 A 
ATOM     39  C   UNL     1       0.153   2.882  -7.573  1.00  0.00     0.010 A 
ATOM     40  C   UNL     1       1.229   2.319  -8.271  1.00  0.00    -0.014 A 
BRANCH  40  41
ATOM     41  C   UNL     1       1.391   2.635  -9.699  1.00  0.00     0.031 A 
ATOM     42  C   UNL     1       1.675   4.046 -10.104  1.00  0.00     0.074 A 
ATOM     43  C   UNL     1       1.193   1.649 -10.593  1.00  0.00     0.049 A 
ATOM     44  N   UNL     1       1.730   4.560 -11.301  1.00  0.00    -0.248 NA
ATOM     45  C   UNL     1       1.881   5.021  -9.018  1.00  0.00     0.031 C 
ATOM     46  C   UNL     1       0.852   0.259 -10.262  1.00  0.00     0.029 A 
ATOM     47  N   UNL     1       1.241   1.657 -11.959  1.00  0.00    -0.354 N 
ATOM     48  C   UNL     1       1.960   5.916 -11.113  1.00  0.00     0.074 A 
ATOM     49  C   UNL     1       1.971   6.159  -9.689  1.00  0.00     0.031 C 
ATOM     50  C   UNL     1       0.759  -0.456 -11.394  1.00  0.00     0.029 A 
ATOM     51  C   UNL     1       0.986   0.430 -12.526  1.00  0.00     0.049 A 
ATOM     52  H   UNL     1       1.439   2.464 -12.487  1.00  0.00     0.167 HD
ATOM     53  C   UNL     1       2.170   6.862 -12.056  1.00  0.00     0.037 A 
ATOM     54  C   UNL     1       0.940   0.075 -13.822  1.00  0.00     0.037 A 
ATOM     55  C   UNL     1       2.182   6.570 -13.465  1.00  0.00     0.049 A 
ATOM     56  C   UNL     1       1.210   1.142 -14.846  1.00  0.00     0.074 A 
ATOM     57  C   UNL     1       2.409   7.428 -14.524  1.00  0.00     0.029 A 
ATOM     58  N   UNL     1       1.972   5.307 -14.006  1.00  0.00    -0.354 N 
ATOM     59  N   UNL     1       1.456   2.419 -14.657  1.00  0.00    -0.248 NA
ATOM     60  C   UNL     1       1.203   0.728 -16.253  1.00  0.00     0.031 C 
ATOM     61  C   UNL     1       2.312   6.688 -15.707  1.00  0.00     0.029 A 
ATOM     62  C   UNL     1       2.066   5.361 -15.384  1.00  0.00     0.049 A 
ATOM     63  H   UNL     1       1.783   4.494 -13.484  1.00  0.00     0.167 HD
ATOM     64  C   UNL     1       1.663   2.956 -15.919  1.00  0.00     0.074 A 
ATOM     65  C   UNL     1       1.526   1.861 -16.861  1.00  0.00     0.031 C 
ATOM     66  C   UNL     1       1.939   4.235 -16.276  1.00  0.00     0.037 A 
BRANCH  53  67
ATOM     67  C   UNL     1       2.416   8.268 -11.590  1.00  0.00     0.058 A 
ATOM     68  C   UNL     1       3.597   8.622 -10.916  1.00  0.00     0.135 A 
ATOM     69  C   UNL     1       1.470   9.279 -11.823  1.00  0.00     0.135 A 
ATOM     70  F   UNL     1       4.524   7.690 -10.642  1.00  0.00    -0.206 F 
ATOM     71  C   UNL     1       3.821   9.920 -10.469  1.00  0.00     0.059 A 
ATOM     72  C   UNL     1       1.686  10.592 -11.409  1.00  0.00     0.059 A 
ATOM     73  F   UNL     1       0.319   8.996 -12.452  1.00  0.00    -0.206 F 
ATOM     74  C   UNL     1       2.860  10.899 -10.722  1.00  0.00     0.060 A 
BRANCH  74  75
ATOM     75  S   UNL     1       3.174  12.581 -10.148  1.00  0.00     0.124 S 
ATOM     76  O   UNL     1       2.978  12.439  -8.708  1.00  0.00    -0.237 OA
ATOM     77  O   UNL     1       4.549  12.807 -10.581  1.00  0.00    -0.237 OA
ATOM     78  O   UNL     1       2.163  13.372 -10.843  1.00  0.00    -0.744 OA
ENDBRANCH  74  75
ENDBRANCH  53  67
BRANCH  54  79
ATOM     79  C   UNL     1       0.668  -1.334 -14.211  1.00  0.00     0.058 A 
ATOM     80  C   UNL     1       1.673  -2.129 -14.782  1.00  0.00     0.135 A 
ATOM     81  C   UNL     1      -0.592  -1.921 -14.012  1.00  0.00     0.135 A 
ATOM     82  F   UNL     1       2.897  -1.618 -14.985  1.00  0.00    -0.206 F 
ATOM     83  C   UNL     1       1.431  -3.441 -15.176  1.00  0.00     0.059 A 
ATOM     84  C   UNL     1      -0.851  -3.240 -14.373  1.00  0.00     0.059 A 
ATOM     85  F   UNL     1      -1.581  -1.214 -13.443  1.00  0.00    -0.206 F 
ATOM     86  C   UNL     1       0.163  -3.987 -14.972  1.00  0.00     0.060 A 
BRANCH  86  87
ATOM     87  S   UNL     1      -0.138  -5.693 -15.480  1.00  0.00     0.124 S 
ATOM     88  O   UNL     1      -0.209  -5.558 -16.931  1.00  0.00    -0.237 OA
ATOM     89  O   UNL     1       1.038  -6.383 -14.960  1.00  0.00    -0.237 OA
ATOM     90  O   UNL     1      -1.395  -6.024 -14.816  1.00  0.00    -0.744 OA
ENDBRANCH  86  87
ENDBRANCH  54  79
BRANCH  66  91
ATOM     91  C   UNL     1       2.153   4.495 -17.737  1.00  0.00     0.058 A 
ATOM     92  C   UNL     1       1.082   4.519 -18.643  1.00  0.00     0.135 A 
ATOM     93  C   UNL     1       3.441   4.769 -18.222  1.00  0.00     0.135 A 
ATOM     94  F   UNL     1      -0.165   4.255 -18.223  1.00  0.00    -0.206 F 
ATOM     95  C   UNL     1       1.286   4.782 -19.991  1.00  0.00     0.059 A 
ATOM     96  C   UNL     1       3.663   5.062 -19.561  1.00  0.00     0.059 A 
ATOM     97  F   UNL     1       4.493   4.768 -17.388  1.00  0.00    -0.206 F 
ATOM     98  C   UNL     1       2.580   5.053 -20.440  1.00  0.00     0.060 A 
BRANCH  98  99
ATOM     99  S   UNL     1       2.827   5.427 -22.187  1.00  0.00     0.124 S 
ATOM    100  O   UNL     1       2.716   4.103 -22.788  1.00  0.00    -0.237 OA
ATOM    101  O   UNL     1       1.728   6.346 -22.469  1.00  0.00    -0.237 OA
ATOM    102  O   UNL     1       4.158   6.024 -22.221  1.00  0.00    -0.744 OA
ENDBRANCH  98  99
ENDBRANCH  66  91
ENDBRANCH  40  41
ENDBRANCH  32  35
ENDBRANCH  30  31
ENDBRANCH  29  30
ENDBRANCH   1  29
TORSDOF 18
