REMARK SMILES C[C@H]1[C@H](C(=O)NCCCNC(=O)c2ccc(-c3c4nc(c(-c5c(F)cc(S(=O)(=O)[O-])cc5F)c5ccc([nH]5)c(-c5c(F)cc(S(=O)(=O)[O-])cc5F)c5nc(c(-c6c(F)cc(S(=O)(=O)[O-])cc6F)c6ccc3[nH]6)C=C5)C=C4)cc2)CC[N@@H+]1CC(=O)N1CCCC1
REMARK SMILES IDX 8 1 7 2 6 3 4 4 5 5 3 7 1 8 2 9 81 10 79 11 80 12 82 14
REMARK SMILES IDX 83 15 84 16 85 17 86 18 89 19 87 20 88 21 9 22 10 23 11 24
REMARK SMILES IDX 12 26 13 27 14 28 78 29 15 30 77 31 16 32 17 33 18 34 71 35
REMARK SMILES IDX 19 36 76 37 70 38 72 39 20 40 75 41 69 42 68 43 21 45 55 46
REMARK SMILES IDX 34 47 54 48 35 49 38 50 53 51 73 52 36 53 37 54 52 56 74 57
REMARK SMILES IDX 39 58 22 59 23 60 32 61 24 62 25 63 31 64 33 65 26 66 27 67
REMARK SMILES IDX 28 68 29 69 30 70 56 71 57 72 66 73 58 74 59 75 65 76 67 77
REMARK SMILES IDX 60 78 61 79 62 80 63 81 64 82 40 83 41 84 50 85 42 86 43 87
REMARK SMILES IDX 49 88 51 89 44 90 45 91 46 92 47 93 48 94
REMARK H PARENT 6 6 81 13 10 25 72 44 38 55
REMARK Flexibility Score: inf
ROOT
ATOM      1  C   UNL     1      -2.315   0.071   4.352  1.00  0.00     0.042 C 
ENDROOT
BRANCH   1   2
ATOM      2  C   UNL     1      -2.665   0.723   2.976  1.00  0.00     0.117 C 
BRANCH   2   3
ATOM      3  N   UNL     1      -1.769   1.709   2.364  1.00  0.00    -0.356 N 
ATOM      4  C   UNL     1      -1.313   2.006   1.115  1.00  0.00     0.229 C 
ATOM      5  O   UNL     1      -0.884   3.172   1.016  1.00  0.00    -0.275 OA
ATOM      6  H   UNL     1      -1.395   2.322   3.037  1.00  0.00     0.163 HD
BRANCH   4   7
ATOM      7  C   UNL     1      -1.162   1.128  -0.149  1.00  0.00     0.142 C 
ATOM      8  C   UNL     1       0.902   0.981  -1.738  1.00  0.00     0.076 C 
ATOM      9  C   UNL     1       0.293   0.664  -0.367  1.00  0.00     0.194 C 
ATOM     10  N   UNL     1       0.309  -0.804  -0.268  1.00  0.00    -0.324 N 
ATOM     11  C   UNL     1      -2.002  -0.103  -0.375  1.00  0.00     0.081 C 
ATOM     12  C   UNL     1      -1.070  -1.292  -0.182  1.00  0.00     0.263 C 
ATOM     13  H   UNL     1       0.722  -1.190  -1.117  1.00  0.00     0.348 HD
BRANCH  10  14
ATOM     14  C   UNL     1       1.208  -1.311   0.798  1.00  0.00     0.364 C 
BRANCH  14  15
ATOM     15  C   UNL     1       0.899  -0.636   2.144  1.00  0.00     0.277 C 
ATOM     16  O   UNL     1      -0.096  -0.957   2.751  1.00  0.00    -0.268 OA
ATOM     17  N   UNL     1       1.690   0.432   2.531  1.00  0.00    -0.338 N 
ATOM     18  C   UNL     1       3.052   0.729   2.145  1.00  0.00     0.119 C 
ATOM     19  C   UNL     1       1.179   1.464   3.399  1.00  0.00     0.119 C 
ATOM     20  C   UNL     1       3.482   1.887   3.051  1.00  0.00     0.023 C 
ATOM     21  C   UNL     1       2.388   2.016   4.105  1.00  0.00     0.023 C 
ENDBRANCH  14  15
ENDBRANCH  10  14
ENDBRANCH   4   7
ENDBRANCH   2   3
ENDBRANCH   1   2
BRANCH   1  22
ATOM     22  C   UNL     1      -1.663   0.877   5.491  1.00  0.00     0.118 C 
BRANCH  22  23
ATOM     23  N   UNL     1      -2.537   1.007   6.651  1.00  0.00    -0.352 N 
ATOM     24  C   UNL     1      -2.449   0.517   7.934  1.00  0.00     0.251 C 
ATOM     25  H   UNL     1      -3.343   1.548   6.485  1.00  0.00     0.163 HD
ATOM     26  O   UNL     1      -3.449   0.603   8.649  1.00  0.00    -0.269 OA
BRANCH  24  27
ATOM     27  C   UNL     1      -1.220  -0.101   8.507  1.00  0.00     0.039 A 
ATOM     28  C   UNL     1      -1.376  -1.213   9.347  1.00  0.00     0.014 A 
ATOM     29  C   UNL     1       0.047   0.478   8.388  1.00  0.00     0.014 A 
ATOM     30  C   UNL     1      -0.284  -1.744  10.049  1.00  0.00     0.010 A 
ATOM     31  C   UNL     1       1.150  -0.078   9.068  1.00  0.00     0.010 A 
ATOM     32  C   UNL     1       0.997  -1.183   9.923  1.00  0.00    -0.014 A 
BRANCH  32  33
ATOM     33  C   UNL     1       2.135  -1.738  10.723  1.00  0.00     0.031 A 
ATOM     34  C   UNL     1       2.754  -0.943  11.849  1.00  0.00     0.074 A 
ATOM     35  C   UNL     1       2.600  -2.980  10.469  1.00  0.00     0.049 A 
ATOM     36  N   UNL     1       3.687  -1.296  12.701  1.00  0.00    -0.248 NA
ATOM     37  C   UNL     1       2.274   0.435  12.031  1.00  0.00     0.031 C 
ATOM     38  C   UNL     1       2.129  -3.848   9.389  1.00  0.00     0.029 A 
ATOM     39  N   UNL     1       3.562  -3.733  11.101  1.00  0.00    -0.354 N 
ATOM     40  C   UNL     1       3.899  -0.191  13.521  1.00  0.00     0.074 A 
ATOM     41  C   UNL     1       3.042   0.864  13.024  1.00  0.00     0.031 C 
ATOM     42  C   UNL     1       2.783  -5.020   9.449  1.00  0.00     0.029 A 
ATOM     43  C   UNL     1       3.733  -4.986  10.559  1.00  0.00     0.049 A 
ATOM     44  H   UNL     1       4.082  -3.405  11.871  1.00  0.00     0.167 HD
ATOM     45  C   UNL     1       4.710  -0.069  14.602  1.00  0.00     0.037 A 
ATOM     46  C   UNL     1       4.550  -6.000  10.915  1.00  0.00     0.037 A 
ATOM     47  C   UNL     1       5.559  -1.120  15.106  1.00  0.00     0.049 A 
ATOM     48  C   UNL     1       5.436  -5.848  12.124  1.00  0.00     0.074 A 
ATOM     49  C   UNL     1       6.385  -1.104  16.218  1.00  0.00     0.029 A 
ATOM     50  N   UNL     1       5.696  -2.375  14.530  1.00  0.00    -0.354 N 
ATOM     51  N   UNL     1       5.569  -4.818  12.925  1.00  0.00    -0.248 NA
ATOM     52  C   UNL     1       6.270  -7.003  12.488  1.00  0.00     0.031 C 
ATOM     53  C   UNL     1       7.052  -2.333  16.290  1.00  0.00     0.029 A 
ATOM     54  C   UNL     1       6.606  -3.134  15.251  1.00  0.00     0.049 A 
ATOM     55  H   UNL     1       5.217  -2.682  13.726  1.00  0.00     0.167 HD
ATOM     56  C   UNL     1       6.487  -5.205  13.896  1.00  0.00     0.074 A 
ATOM     57  C   UNL     1       6.859  -6.572  13.596  1.00  0.00     0.031 C 
ATOM     58  C   UNL     1       6.977  -4.492  14.941  1.00  0.00     0.037 A 
BRANCH  45  59
ATOM     59  C   UNL     1       4.714   1.255  15.325  1.00  0.00     0.058 A 
ATOM     60  C   UNL     1       3.605   1.690  16.070  1.00  0.00     0.135 A 
ATOM     61  C   UNL     1       5.846   2.087  15.300  1.00  0.00     0.135 A 
ATOM     62  F   UNL     1       2.492   0.940  16.126  1.00  0.00    -0.206 F 
ATOM     63  C   UNL     1       3.602   2.917  16.728  1.00  0.00     0.059 A 
ATOM     64  C   UNL     1       5.876   3.306  15.975  1.00  0.00     0.059 A 
ATOM     65  F   UNL     1       6.939   1.722  14.612  1.00  0.00    -0.206 F 
ATOM     66  C   UNL     1       4.741   3.720  16.671  1.00  0.00     0.060 A 
BRANCH  66  67
ATOM     67  S   UNL     1       4.715   5.315  17.517  1.00  0.00     0.124 S 
ATOM     68  O   UNL     1       3.839   6.092  16.646  1.00  0.00    -0.237 OA
ATOM     69  O   UNL     1       4.163   4.968  18.823  1.00  0.00    -0.237 OA
ATOM     70  O   UNL     1       6.117   5.722  17.520  1.00  0.00    -0.744 OA
ENDBRANCH  66  67
ENDBRANCH  45  59
BRANCH  46  71
ATOM     71  C   UNL     1       4.548  -7.264  10.127  1.00  0.00     0.058 A 
ATOM     72  C   UNL     1       4.021  -8.453  10.654  1.00  0.00     0.135 A 
ATOM     73  C   UNL     1       5.063  -7.304   8.821  1.00  0.00     0.135 A 
ATOM     74  F   UNL     1       3.528  -8.473  11.902  1.00  0.00    -0.206 F 
ATOM     75  C   UNL     1       4.011  -9.637   9.921  1.00  0.00     0.059 A 
ATOM     76  C   UNL     1       5.041  -8.468   8.059  1.00  0.00     0.059 A 
ATOM     77  F   UNL     1       5.571  -6.192   8.265  1.00  0.00    -0.206 F 
ATOM     78  C   UNL     1       4.519  -9.632   8.620  1.00  0.00     0.060 A 
BRANCH  78  79
ATOM     79  S   UNL     1       4.445 -11.156   7.653  1.00  0.00     0.124 S 
ATOM     80  O   UNL     1       5.491 -11.955   8.281  1.00  0.00    -0.237 OA
ATOM     81  O   UNL     1       3.075 -11.601   7.886  1.00  0.00    -0.237 OA
ATOM     82  O   UNL     1       4.726 -10.704   6.293  1.00  0.00    -0.744 OA
ENDBRANCH  78  79
ENDBRANCH  46  71
BRANCH  58  83
ATOM     83  C   UNL     1       7.960  -5.182  15.850  1.00  0.00     0.058 A 
ATOM     84  C   UNL     1       9.271  -5.469  15.437  1.00  0.00     0.135 A 
ATOM     85  C   UNL     1       7.597  -5.533  17.161  1.00  0.00     0.135 A 
ATOM     86  F   UNL     1       9.670  -5.159  14.193  1.00  0.00    -0.206 F 
ATOM     87  C   UNL     1      10.177  -6.108  16.278  1.00  0.00     0.059 A 
ATOM     88  C   UNL     1       8.495  -6.147  18.029  1.00  0.00     0.059 A 
ATOM     89  F   UNL     1       6.361  -5.271  17.613  1.00  0.00    -0.206 F 
ATOM     90  C   UNL     1       9.778  -6.446  17.573  1.00  0.00     0.060 A 
BRANCH  90  91
ATOM     91  S   UNL     1      10.966  -7.263  18.660  1.00  0.00     0.124 S 
ATOM     92  O   UNL     1      10.989  -8.613  18.107  1.00  0.00    -0.237 OA
ATOM     93  O   UNL     1      12.176  -6.473  18.453  1.00  0.00    -0.237 OA
ATOM     94  O   UNL     1      10.361  -7.136  19.982  1.00  0.00    -0.744 OA
ENDBRANCH  90  91
ENDBRANCH  58  83
ENDBRANCH  32  33
ENDBRANCH  24  27
ENDBRANCH  22  23
ENDBRANCH   1  22
TORSDOF 15
