REMARK SMILES C[C@H](NC(=O)N1CC[C@@H](C(=O)NCCCNC(=O)c2ccc(-c3c4nc(c(-c5c(F)cc(S(=O)(=O)[O-])cc5F)c5ccc([nH]5)c(-c5c(F)cc(S(=O)(=O)[O-])cc5F)c5nc(c(-c6c(F)cc(S(=O)(=O)[O-])cc6F)c6ccc3[nH]6)C=C5)C=C4)cc2)[C@H]1C)c1ccc(Cl)cc1
REMARK SMILES IDX 14 1 13 2 12 3 10 4 11 5 9 7 6 8 7 9 85 10 8 11 86 12 4 13
REMARK SMILES IDX 3 14 5 16 2 17 1 18 87 19 88 20 93 21 89 22 92 23 90 24
REMARK SMILES IDX 91 25 15 26 16 27 17 28 18 30 19 31 20 32 84 33 21 34 83 35
REMARK SMILES IDX 22 36 23 37 24 38 77 39 25 40 82 41 76 42 78 43 26 44 81 45
REMARK SMILES IDX 75 46 74 47 27 49 61 50 40 51 60 52 41 53 44 54 59 55 79 56
REMARK SMILES IDX 42 57 43 58 58 60 80 61 45 62 28 63 29 64 38 65 30 66 31 67
REMARK SMILES IDX 37 68 39 69 32 70 33 71 34 72 35 73 36 74 62 75 63 76 72 77
REMARK SMILES IDX 64 78 65 79 71 80 73 81 66 82 67 83 68 84 69 85 70 86 46 87
REMARK SMILES IDX 47 88 56 89 48 90 49 91 55 92 57 93 50 94 51 95 52 96 53 97
REMARK SMILES IDX 54 98
REMARK H PARENT 12 6 3 15 16 29 78 48 44 59
REMARK Flexibility Score: inf
ROOT
ATOM      1  C   UNL     1      -1.249   3.907   4.053  1.00  0.00     0.042 C 
ENDROOT
BRANCH   1   2
ATOM      2  C   UNL     1      -0.904   5.014   3.048  1.00  0.00     0.117 C 
BRANCH   2   3
ATOM      3  N   UNL     1       0.478   5.486   3.130  1.00  0.00    -0.356 N 
ATOM      4  C   UNL     1       1.573   5.408   2.327  1.00  0.00     0.225 C 
ATOM      5  O   UNL     1       2.581   5.990   2.752  1.00  0.00    -0.275 OA
ATOM      6  H   UNL     1       0.658   5.976   3.964  1.00  0.00     0.163 HD
BRANCH   4   7
ATOM      7  C   UNL     1       1.676   4.662   0.993  1.00  0.00     0.102 C 
ATOM      8  N   UNL     1       1.114   2.705  -0.278  1.00  0.00    -0.321 N 
ATOM      9  C   UNL     1       0.803   3.894  -1.064  1.00  0.00     0.122 C 
ATOM     10  C   UNL     1       1.738   3.110   1.000  1.00  0.00     0.096 C 
ATOM     11  C   UNL     1       0.649   5.024  -0.069  1.00  0.00     0.037 C 
ATOM     12  C   UNL     1       1.081   2.539   2.221  1.00  0.00     0.032 C 
BRANCH   8  13
ATOM     13  C   UNL     1       1.303   1.565  -0.997  1.00  0.00     0.318 C 
ATOM     14  N   UNL     1       1.142   0.322  -0.537  1.00  0.00    -0.331 N 
ATOM     15  H   UNL     1       1.509  -0.308  -1.198  1.00  0.00     0.165 HD
ATOM     16  O   UNL     1       1.547   1.626  -2.209  1.00  0.00    -0.249 OA
BRANCH  14  17
ATOM     17  C   UNL     1       0.616  -0.447   0.597  1.00  0.00     0.111 C 
ATOM     18  C   UNL     1       1.626  -0.689   1.727  1.00  0.00     0.036 C 
BRANCH  17  19
ATOM     19  C   UNL     1      -0.846  -0.241   0.983  1.00  0.00    -0.026 A 
ATOM     20  C   UNL     1      -1.549   0.956   0.795  1.00  0.00     0.007 A 
ATOM     21  C   UNL     1      -1.565  -1.331   1.518  1.00  0.00     0.007 A 
ATOM     22  C   UNL     1      -2.899   1.077   1.145  1.00  0.00     0.021 A 
ATOM     23  C   UNL     1      -2.925  -1.227   1.838  1.00  0.00     0.021 A 
ATOM     24  C   UNL     1      -3.585  -0.018   1.655  1.00  0.00     0.041 A 
ATOM     25  Cl  UNL     1      -5.255   0.124   2.039  1.00  0.00    -0.084 Cl
ENDBRANCH  17  19
ENDBRANCH  14  17
ENDBRANCH   8  13
ENDBRANCH   4   7
ENDBRANCH   2   3
ENDBRANCH   1   2
BRANCH   1  26
ATOM     26  C   UNL     1      -1.357   4.345   5.503  1.00  0.00     0.118 C 
BRANCH  26  27
ATOM     27  N   UNL     1      -2.691   4.814   5.824  1.00  0.00    -0.352 N 
ATOM     28  C   UNL     1      -3.747   4.170   6.426  1.00  0.00     0.251 C 
ATOM     29  H   UNL     1      -2.870   5.748   5.570  1.00  0.00     0.163 HD
ATOM     30  O   UNL     1      -4.862   4.681   6.331  1.00  0.00    -0.269 OA
BRANCH  28  31
ATOM     31  C   UNL     1      -3.589   2.892   7.173  1.00  0.00     0.039 A 
ATOM     32  C   UNL     1      -4.662   1.992   7.189  1.00  0.00     0.014 A 
ATOM     33  C   UNL     1      -2.461   2.607   7.948  1.00  0.00     0.014 A 
ATOM     34  C   UNL     1      -4.596   0.818   7.950  1.00  0.00     0.010 A 
ATOM     35  C   UNL     1      -2.358   1.393   8.634  1.00  0.00     0.010 A 
ATOM     36  C   UNL     1      -3.436   0.496   8.671  1.00  0.00    -0.014 A 
BRANCH  36  37
ATOM     37  C   UNL     1      -3.353  -0.735   9.507  1.00  0.00     0.031 A 
ATOM     38  C   UNL     1      -3.161  -0.627  11.001  1.00  0.00     0.074 A 
ATOM     39  C   UNL     1      -3.408  -1.952   8.930  1.00  0.00     0.049 A 
ATOM     40  N   UNL     1      -2.993  -1.577  11.887  1.00  0.00    -0.248 NA
ATOM     41  C   UNL     1      -3.125   0.730  11.571  1.00  0.00     0.031 C 
ATOM     42  C   UNL     1      -3.555  -2.201   7.494  1.00  0.00     0.029 A 
ATOM     43  N   UNL     1      -3.338  -3.209   9.478  1.00  0.00    -0.354 N 
ATOM     44  C   UNL     1      -2.810  -0.934  13.108  1.00  0.00     0.074 A 
ATOM     45  C   UNL     1      -2.838   0.487  12.841  1.00  0.00     0.031 C 
ATOM     46  C   UNL     1      -3.586  -3.527   7.279  1.00  0.00     0.029 A 
ATOM     47  C   UNL     1      -3.423  -4.223   8.552  1.00  0.00     0.049 A 
ATOM     48  H   UNL     1      -3.236  -3.370  10.444  1.00  0.00     0.167 HD
ATOM     49  C   UNL     1      -2.658  -1.474  14.342  1.00  0.00     0.037 A 
ATOM     50  C   UNL     1      -3.370  -5.561   8.707  1.00  0.00     0.037 A 
ATOM     51  C   UNL     1      -2.672  -2.888  14.612  1.00  0.00     0.049 A 
ATOM     52  C   UNL     1      -3.213  -6.140  10.087  1.00  0.00     0.074 A 
ATOM     53  C   UNL     1      -2.585  -3.532  15.835  1.00  0.00     0.029 A 
ATOM     54  N   UNL     1      -2.787  -3.879  13.648  1.00  0.00    -0.354 N 
ATOM     55  N   UNL     1      -3.090  -5.514  11.233  1.00  0.00    -0.248 NA
ATOM     56  C   UNL     1      -3.194  -7.605  10.197  1.00  0.00     0.031 C 
ATOM     57  C   UNL     1      -2.609  -4.912  15.607  1.00  0.00     0.029 A 
ATOM     58  C   UNL     1      -2.757  -5.128  14.246  1.00  0.00     0.049 A 
ATOM     59  H   UNL     1      -2.876  -3.717  12.681  1.00  0.00     0.167 HD
ATOM     60  C   UNL     1      -3.006  -6.509  12.202  1.00  0.00     0.074 A 
ATOM     61  C   UNL     1      -3.102  -7.777  11.509  1.00  0.00     0.031 C 
ATOM     62  C   UNL     1      -2.863  -6.383  13.544  1.00  0.00     0.037 A 
BRANCH  49  63
ATOM     63  C   UNL     1      -2.469  -0.530  15.500  1.00  0.00     0.058 A 
ATOM     64  C   UNL     1      -3.517   0.276  15.973  1.00  0.00     0.135 A 
ATOM     65  C   UNL     1      -1.236  -0.456  16.168  1.00  0.00     0.135 A 
ATOM     66  F   UNL     1      -4.714   0.254  15.365  1.00  0.00    -0.206 F 
ATOM     67  C   UNL     1      -3.340   1.146  17.044  1.00  0.00     0.059 A 
ATOM     68  C   UNL     1      -1.044   0.388  17.260  1.00  0.00     0.059 A 
ATOM     69  F   UNL     1      -0.200  -1.206  15.761  1.00  0.00    -0.206 F 
ATOM     70  C   UNL     1      -2.099   1.197  17.679  1.00  0.00     0.060 A 
BRANCH  70  71
ATOM     71  S   UNL     1      -1.882   2.333  19.066  1.00  0.00     0.124 S 
ATOM     72  O   UNL     1      -1.817   3.621  18.378  1.00  0.00    -0.237 OA
ATOM     73  O   UNL     1      -3.091   2.100  19.853  1.00  0.00    -0.237 OA
ATOM     74  O   UNL     1      -0.641   1.887  19.682  1.00  0.00    -0.744 OA
ENDBRANCH  70  71
ENDBRANCH  49  63
BRANCH  50  75
ATOM     75  C   UNL     1      -3.488  -6.449   7.519  1.00  0.00     0.058 A 
ATOM     76  C   UNL     1      -4.642  -7.216   7.303  1.00  0.00     0.135 A 
ATOM     77  C   UNL     1      -2.459  -6.534   6.568  1.00  0.00     0.135 A 
ATOM     78  F   UNL     1      -5.650  -7.174   8.188  1.00  0.00    -0.206 F 
ATOM     79  C   UNL     1      -4.770  -8.046   6.194  1.00  0.00     0.059 A 
ATOM     80  C   UNL     1      -2.573  -7.339   5.439  1.00  0.00     0.059 A 
ATOM     81  F   UNL     1      -1.341  -5.807   6.719  1.00  0.00    -0.206 F 
ATOM     82  C   UNL     1      -3.729  -8.098   5.265  1.00  0.00     0.060 A 
BRANCH  82  83
ATOM     83  S   UNL     1      -3.925  -9.131   3.797  1.00  0.00     0.124 S 
ATOM     84  O   UNL     1      -3.733 -10.466   4.350  1.00  0.00    -0.237 OA
ATOM     85  O   UNL     1      -5.282  -8.805   3.370  1.00  0.00    -0.237 OA
ATOM     86  O   UNL     1      -2.868  -8.654   2.910  1.00  0.00    -0.744 OA
ENDBRANCH  82  83
ENDBRANCH  50  75
BRANCH  62  87
ATOM     87  C   UNL     1      -2.837  -7.644  14.361  1.00  0.00     0.058 A 
ATOM     88  C   UNL     1      -1.720  -8.493  14.372  1.00  0.00     0.135 A 
ATOM     89  C   UNL     1      -3.924  -7.979  15.186  1.00  0.00     0.135 A 
ATOM     90  F   UNL     1      -0.658  -8.222  13.597  1.00  0.00    -0.206 F 
ATOM     91  C   UNL     1      -1.688  -9.642  15.157  1.00  0.00     0.059 A 
ATOM     92  C   UNL     1      -3.904  -9.108  15.998  1.00  0.00     0.059 A 
ATOM     93  F   UNL     1      -5.013  -7.194  15.221  1.00  0.00    -0.206 F 
ATOM     94  C   UNL     1      -2.785  -9.940  15.968  1.00  0.00     0.060 A 
BRANCH  94  95
ATOM     95  S   UNL     1      -2.718 -11.414  17.009  1.00  0.00     0.124 S 
ATOM     96  O   UNL     1      -2.926 -12.475  16.030  1.00  0.00    -0.237 OA
ATOM     97  O   UNL     1      -1.377 -11.332  17.581  1.00  0.00    -0.237 OA
ATOM     98  O   UNL     1      -3.809 -11.210  17.957  1.00  0.00    -0.744 OA
ENDBRANCH  94  95
ENDBRANCH  62  87
ENDBRANCH  36  37
ENDBRANCH  28  31
ENDBRANCH  26  27
ENDBRANCH   1  26
TORSDOF 16
