REMARK SMILES O=C(NCCCNC(=O)[C@@H]1CCCC[C@@H]1NS(=O)(=O)c1ccc2ccccc2c1)c1ccc(-c2c3nc(c(-c4c(F)cc(S(=O)(=O)[O-])cc4F)c4ccc([nH]4)c(-c4c(F)cc(S(=O)(=O)[O-])cc4F)c4nc(c(-c5c(F)cc(S(=O)(=O)[O-])cc5F)c5ccc2[nH]5)C=C4)C=C3)cc1
REMARK SMILES IDX 5 1 4 2 3 3 1 4 2 5 30 7 31 8 95 9 32 10 94 11 33 12 34 13
REMARK SMILES IDX 35 14 88 15 36 16 93 17 87 18 89 19 37 20 92 21 86 22 85 23
REMARK SMILES IDX 38 25 72 26 51 27 71 28 52 29 55 30 70 31 90 32 53 33 54 34
REMARK SMILES IDX 69 36 91 37 56 38 39 39 40 40 49 41 41 42 42 43 48 44 50 45
REMARK SMILES IDX 43 46 44 47 45 48 46 49 47 50 73 51 74 52 83 53 75 54 76 55
REMARK SMILES IDX 82 56 84 57 77 58 78 59 79 60 80 61 81 62 57 63 58 64 67 65
REMARK SMILES IDX 59 66 60 67 66 68 68 69 61 70 62 71 63 72 64 73 65 74 6 75
REMARK SMILES IDX 7 76 8 77 9 79 10 80 11 81 15 82 12 83 14 84 13 85 16 86
REMARK SMILES IDX 17 88 18 89 19 90 20 91 21 92 29 93 22 94 28 95 23 96 27 97
REMARK SMILES IDX 24 98 26 99 25 100
REMARK H PARENT 3 6 89 24 55 35 7 78 16 87
REMARK Flexibility Score: inf
ROOT
ATOM      1  C   UNL     1       4.466  -0.424  -3.137  1.00  0.00     0.042 C 
ENDROOT
BRANCH   1   2
ATOM      2  C   UNL     1       4.158  -0.266  -1.647  1.00  0.00     0.118 C 
BRANCH   2   3
ATOM      3  N   UNL     1       2.791   0.042  -1.264  1.00  0.00    -0.352 N 
ATOM      4  O   UNL     1       0.998   0.057   0.114  1.00  0.00    -0.269 OA
ATOM      5  C   UNL     1       2.180  -0.220  -0.057  1.00  0.00     0.251 C 
ATOM      6  H   UNL     1       2.238   0.489  -1.945  1.00  0.00     0.163 HD
BRANCH   5   7
ATOM      7  C   UNL     1       2.970  -0.849   1.022  1.00  0.00     0.039 A 
ATOM      8  C   UNL     1       4.179  -0.278   1.422  1.00  0.00     0.014 A 
ATOM      9  C   UNL     1       2.514  -2.030   1.615  1.00  0.00     0.014 A 
ATOM     10  C   UNL     1       4.998  -0.956   2.315  1.00  0.00     0.010 A 
ATOM     11  C   UNL     1       3.310  -2.675   2.568  1.00  0.00     0.010 A 
ATOM     12  C   UNL     1       4.572  -2.160   2.901  1.00  0.00    -0.014 A 
BRANCH  12  13
ATOM     13  C   UNL     1       5.454  -2.827   3.894  1.00  0.00     0.031 A 
ATOM     14  C   UNL     1       6.084  -4.161   3.604  1.00  0.00     0.074 A 
ATOM     15  C   UNL     1       5.724  -2.182   5.045  1.00  0.00     0.049 A 
ATOM     16  N   UNL     1       6.908  -4.860   4.343  1.00  0.00    -0.248 NA
ATOM     17  C   UNL     1       5.744  -4.800   2.322  1.00  0.00     0.031 C 
ATOM     18  C   UNL     1       5.152  -0.890   5.438  1.00  0.00     0.029 A 
ATOM     19  N   UNL     1       6.555  -2.505   6.086  1.00  0.00    -0.354 N 
ATOM     20  C   UNL     1       7.183  -6.017   3.624  1.00  0.00     0.074 A 
ATOM     21  C   UNL     1       6.410  -5.944   2.402  1.00  0.00     0.031 C 
ATOM     22  C   UNL     1       5.677  -0.515   6.613  1.00  0.00     0.029 A 
ATOM     23  C   UNL     1       6.579  -1.560   7.083  1.00  0.00     0.049 A 
ATOM     24  H   UNL     1       7.084  -3.335   6.116  1.00  0.00     0.167 HD
ATOM     25  C   UNL     1       8.014  -7.038   3.950  1.00  0.00     0.037 A 
ATOM     26  C   UNL     1       7.240  -1.541   8.256  1.00  0.00     0.037 A 
ATOM     27  C   UNL     1       8.779  -7.098   5.171  1.00  0.00     0.049 A 
ATOM     28  C   UNL     1       8.148  -2.688   8.594  1.00  0.00     0.074 A 
ATOM     29  C   UNL     1       9.648  -8.088   5.598  1.00  0.00     0.029 A 
ATOM     30  N   UNL     1       8.770  -6.126   6.162  1.00  0.00    -0.354 N 
ATOM     31  N   UNL     1       8.403  -3.769   7.894  1.00  0.00    -0.248 NA
ATOM     32  C   UNL     1       8.862  -2.614   9.874  1.00  0.00     0.031 C 
ATOM     33  C   UNL     1      10.137  -7.732   6.860  1.00  0.00     0.029 A 
ATOM     34  C   UNL     1       9.610  -6.497   7.201  1.00  0.00     0.049 A 
ATOM     35  H   UNL     1       8.244  -5.294   6.132  1.00  0.00     0.167 HD
ATOM     36  C   UNL     1       9.310  -4.502   8.649  1.00  0.00     0.074 A 
ATOM     37  C   UNL     1       9.584  -3.724   9.841  1.00  0.00     0.031 C 
ATOM     38  C   UNL     1       9.861  -5.713   8.384  1.00  0.00     0.037 A 
BRANCH  25  39
ATOM     39  C   UNL     1       8.143  -8.179   2.975  1.00  0.00     0.058 A 
ATOM     40  C   UNL     1       8.831  -8.034   1.760  1.00  0.00     0.135 A 
ATOM     41  C   UNL     1       7.625  -9.449   3.283  1.00  0.00     0.135 A 
ATOM     42  F   UNL     1       9.332  -6.840   1.406  1.00  0.00    -0.206 F 
ATOM     43  C   UNL     1       8.988  -9.100   0.879  1.00  0.00     0.059 A 
ATOM     44  C   UNL     1       7.790 -10.535   2.427  1.00  0.00     0.059 A 
ATOM     45  F   UNL     1       6.957  -9.646   4.431  1.00  0.00    -0.206 F 
ATOM     46  C   UNL     1       8.465 -10.348   1.222  1.00  0.00     0.060 A 
BRANCH  46  47
ATOM     47  S   UNL     1       8.690 -11.722   0.072  1.00  0.00     0.124 S 
ATOM     48  O   UNL     1       7.771 -11.355  -1.002  1.00  0.00    -0.237 OA
ATOM     49  O   UNL     1      10.110 -11.629  -0.252  1.00  0.00    -0.237 OA
ATOM     50  O   UNL     1       8.303 -12.890   0.856  1.00  0.00    -0.744 OA
ENDBRANCH  46  47
ENDBRANCH  25  39
BRANCH  26  51
ATOM     51  C   UNL     1       7.043  -0.406   9.196  1.00  0.00     0.058 A 
ATOM     52  C   UNL     1       8.069   0.513   9.458  1.00  0.00     0.135 A 
ATOM     53  C   UNL     1       5.809  -0.210   9.836  1.00  0.00     0.135 A 
ATOM     54  F   UNL     1       9.267   0.367   8.871  1.00  0.00    -0.206 F 
ATOM     55  C   UNL     1       7.886   1.576  10.337  1.00  0.00     0.059 A 
ATOM     56  C   UNL     1       5.593   0.861  10.695  1.00  0.00     0.059 A 
ATOM     57  F   UNL     1       4.789  -1.050   9.603  1.00  0.00    -0.206 F 
ATOM     58  C   UNL     1       6.643   1.741  10.950  1.00  0.00     0.060 A 
BRANCH  58  59
ATOM     59  S   UNL     1       6.397   3.145  12.059  1.00  0.00     0.124 S 
ATOM     60  O   UNL     1       7.099   2.697  13.256  1.00  0.00    -0.237 OA
ATOM     61  O   UNL     1       7.025   4.236  11.320  1.00  0.00    -0.237 OA
ATOM     62  O   UNL     1       4.944   3.231  12.172  1.00  0.00    -0.744 OA
ENDBRANCH  58  59
ENDBRANCH  26  51
BRANCH  38  63
ATOM     63  C   UNL     1      10.822  -6.256   9.404  1.00  0.00     0.058 A 
ATOM     64  C   UNL     1      10.382  -6.730  10.650  1.00  0.00     0.135 A 
ATOM     65  C   UNL     1      12.198  -6.306   9.131  1.00  0.00     0.135 A 
ATOM     66  F   UNL     1       9.076  -6.698  10.962  1.00  0.00    -0.206 F 
ATOM     67  C   UNL     1      11.276  -7.197  11.606  1.00  0.00     0.059 A 
ATOM     68  C   UNL     1      13.108  -6.795  10.063  1.00  0.00     0.059 A 
ATOM     69  F   UNL     1      12.670  -5.875   7.950  1.00  0.00    -0.206 F 
ATOM     70  C   UNL     1      12.639  -7.220  11.305  1.00  0.00     0.060 A 
BRANCH  70  71
ATOM     71  S   UNL     1      13.792  -7.826  12.555  1.00  0.00     0.124 S 
ATOM     72  O   UNL     1      13.843  -6.698  13.478  1.00  0.00    -0.237 OA
ATOM     73  O   UNL     1      13.118  -9.022  13.050  1.00  0.00    -0.237 OA
ATOM     74  O   UNL     1      15.015  -8.073  11.796  1.00  0.00    -0.744 OA
ENDBRANCH  70  71
ENDBRANCH  38  63
ENDBRANCH  12  13
ENDBRANCH   5   7
ENDBRANCH   2   3
ENDBRANCH   1   2
BRANCH   1  75
ATOM     75  C   UNL     1       3.567   0.258  -4.162  1.00  0.00     0.117 C 
BRANCH  75  76
ATOM     76  N   UNL     1       3.969   1.587  -4.582  1.00  0.00    -0.356 N 
ATOM     77  C   UNL     1       4.704   2.021  -5.639  1.00  0.00     0.224 C 
ATOM     78  H   UNL     1       3.650   2.308  -3.993  1.00  0.00     0.163 HD
ATOM     79  O   UNL     1       4.508   3.182  -6.023  1.00  0.00    -0.275 OA
BRANCH  77  80
ATOM     80  C   UNL     1       5.792   1.221  -6.338  1.00  0.00     0.096 C 
ATOM     81  C   UNL     1       5.698  -0.296  -6.368  1.00  0.00     0.015 C 
ATOM     82  C   UNL     1       7.194   1.764  -5.976  1.00  0.00     0.082 C 
ATOM     83  C   UNL     1       6.744  -0.888  -7.301  1.00  0.00     0.001 C 
ATOM     84  C   UNL     1       8.286   1.059  -6.808  1.00  0.00     0.021 C 
ATOM     85  C   UNL     1       8.142  -0.465  -6.872  1.00  0.00     0.002 C 
BRANCH  82  86
ATOM     86  N   UNL     1       7.517   1.621  -4.534  1.00  0.00    -0.207 NA
ATOM     87  H   UNL     1       8.273   0.938  -4.467  1.00  0.00     0.141 HD
BRANCH  86  88
ATOM     88  S   UNL     1       8.003   2.985  -3.640  1.00  0.00     0.240 S 
ATOM     89  O   UNL     1       8.799   2.469  -2.549  1.00  0.00    -0.207 OA
ATOM     90  O   UNL     1       8.520   3.987  -4.546  1.00  0.00    -0.207 OA
BRANCH  88  91
ATOM     91  C   UNL     1       6.466   3.552  -2.955  1.00  0.00     0.083 A 
ATOM     92  C   UNL     1       5.973   2.948  -1.799  1.00  0.00     0.022 A 
ATOM     93  C   UNL     1       5.720   4.530  -3.615  1.00  0.00     0.030 A 
ATOM     94  C   UNL     1       4.662   3.210  -1.392  1.00  0.00     0.010 A 
ATOM     95  C   UNL     1       4.382   4.751  -3.247  1.00  0.00    -0.017 A 
ATOM     96  C   UNL     1       3.832   4.040  -2.155  1.00  0.00    -0.018 A 
ATOM     97  C   UNL     1       3.545   5.579  -4.010  1.00  0.00     0.009 A 
ATOM     98  C   UNL     1       2.454   4.119  -1.900  1.00  0.00     0.009 A 
ATOM     99  C   UNL     1       2.174   5.636  -3.756  1.00  0.00     0.001 A 
ATOM    100  C   UNL     1       1.626   4.891  -2.715  1.00  0.00     0.001 A 
ENDBRANCH  88  91
ENDBRANCH  86  88
ENDBRANCH  82  86
ENDBRANCH  77  80
ENDBRANCH  75  76
ENDBRANCH   1  75
TORSDOF 16
