REMARK SMILES COc1ccc(OCc2cccs2)c(C(=O)NCCCNC(=O)c2ccc(-c3c4nc(c(-c5c(F)cc(S(=O)(=O)[O-])cc5F)c5ccc([nH]5)c(-c5c(F)cc(S(=O)(=O)[O-])cc5F)c5nc(c(-c6c(F)cc(S(=O)(=O)[O-])cc6F)c6ccc3[nH]6)C=C5)C=C4)cc2)c1
REMARK SMILES IDX 19 1 18 2 17 3 15 4 16 5 14 7 3 8 4 9 90 10 5 11 6 12 2 13
REMARK SMILES IDX 1 14 7 15 8 16 9 17 10 18 13 19 11 20 12 21 20 22 21 23
REMARK SMILES IDX 22 24 23 26 24 27 25 28 89 29 26 30 88 31 27 32 28 33 29 34
REMARK SMILES IDX 82 35 30 36 87 37 81 38 83 39 31 40 86 41 80 42 79 43 32 45
REMARK SMILES IDX 66 46 45 47 65 48 46 49 49 50 64 51 84 52 47 53 48 54 63 56
REMARK SMILES IDX 85 57 50 58 33 59 34 60 43 61 35 62 36 63 42 64 44 65 37 66
REMARK SMILES IDX 38 67 39 68 40 69 41 70 67 71 68 72 77 73 69 74 70 75 76 76
REMARK SMILES IDX 78 77 71 78 72 79 73 80 74 81 75 82 51 83 52 84 61 85 53 86
REMARK SMILES IDX 54 87 60 88 62 89 55 90 56 91 57 92 58 93 59 94
REMARK H PARENT 17 6 21 25 83 44 49 55
REMARK Flexibility Score: inf
ROOT
ATOM      1  C   UNL     1       5.094  -0.711   0.741  1.00  0.00     0.042 C 
ENDROOT
BRANCH   1   2
ATOM      2  C   UNL     1       4.590  -2.100   0.345  1.00  0.00     0.118 C 
BRANCH   2   3
ATOM      3  N   UNL     1       4.746  -3.019   1.462  1.00  0.00    -0.352 N 
ATOM      4  C   UNL     1       3.852  -3.429   2.420  1.00  0.00     0.255 C 
ATOM      5  O   UNL     1       4.275  -3.953   3.445  1.00  0.00    -0.269 OA
ATOM      6  H   UNL     1       5.644  -3.413   1.545  1.00  0.00     0.163 HD
BRANCH   4   7
ATOM      7  C   UNL     1       2.396  -3.273   2.226  1.00  0.00     0.085 A 
ATOM      8  C   UNL     1       0.542  -1.739   1.867  1.00  0.00     0.119 A 
ATOM      9  C   UNL     1      -0.360  -2.778   2.018  1.00  0.00     0.050 A 
ATOM     10  C   UNL     1       1.903  -1.967   2.050  1.00  0.00     0.064 A 
ATOM     11  C   UNL     1       0.117  -4.070   2.231  1.00  0.00     0.051 A 
ATOM     12  C   UNL     1       1.496  -4.349   2.284  1.00  0.00     0.132 A 
BRANCH   8  13
ATOM     13  O   UNL     1       0.042  -0.500   1.579  1.00  0.00    -0.497 OA
ATOM     14  C   UNL     1       0.572   0.003   0.349  1.00  0.00     0.278 C 
ENDBRANCH   8  13
BRANCH  12  15
ATOM     15  O   UNL     1       1.706  -5.696   2.338  1.00  0.00    -0.487 OA
BRANCH  15  16
ATOM     16  C   UNL     1       2.952  -6.335   2.061  1.00  0.00     0.276 C 
BRANCH  16  17
ATOM     17  C   UNL     1       3.254  -6.375   0.586  1.00  0.00     0.042 A 
ATOM     18  C   UNL     1       2.981  -5.473  -0.427  1.00  0.00     0.019 A 
ATOM     19  S   UNL     1       4.144  -7.718  -0.025  1.00  0.00    -0.145 S 
ATOM     20  C   UNL     1       3.534  -5.862  -1.681  1.00  0.00     0.012 A 
ATOM     21  C   UNL     1       4.184  -7.070  -1.603  1.00  0.00     0.065 A 
ENDBRANCH  16  17
ENDBRANCH  15  16
ENDBRANCH  12  15
ENDBRANCH   4   7
ENDBRANCH   2   3
ENDBRANCH   1   2
BRANCH   1  22
ATOM     22  C   UNL     1       6.614  -0.643   0.865  1.00  0.00     0.118 C 
BRANCH  22  23
ATOM     23  N   UNL     1       7.257  -0.630  -0.438  1.00  0.00    -0.352 N 
ATOM     24  C   UNL     1       8.194   0.244  -0.931  1.00  0.00     0.251 C 
ATOM     25  H   UNL     1       6.982  -1.348  -1.053  1.00  0.00     0.163 HD
ATOM     26  O   UNL     1       8.441   0.242  -2.133  1.00  0.00    -0.269 OA
BRANCH  24  27
ATOM     27  C   UNL     1       8.897   1.183  -0.026  1.00  0.00     0.039 A 
ATOM     28  C   UNL     1       9.175   2.475  -0.483  1.00  0.00     0.014 A 
ATOM     29  C   UNL     1       9.338   0.781   1.238  1.00  0.00     0.014 A 
ATOM     30  C   UNL     1       9.881   3.364   0.332  1.00  0.00     0.010 A 
ATOM     31  C   UNL     1       9.975   1.692   2.078  1.00  0.00     0.010 A 
ATOM     32  C   UNL     1      10.282   2.982   1.622  1.00  0.00    -0.014 A 
BRANCH  32  33
ATOM     33  C   UNL     1      11.087   3.892   2.477  1.00  0.00     0.031 A 
ATOM     34  C   UNL     1      12.499   3.515   2.845  1.00  0.00     0.074 A 
ATOM     35  C   UNL     1      10.542   5.029   2.951  1.00  0.00     0.049 A 
ATOM     36  N   UNL     1      13.349   4.142   3.618  1.00  0.00    -0.248 NA
ATOM     37  C   UNL     1      13.014   2.250   2.296  1.00  0.00     0.031 C 
ATOM     38  C   UNL     1       9.169   5.476   2.705  1.00  0.00     0.029 A 
ATOM     39  N   UNL     1      11.074   6.013   3.744  1.00  0.00    -0.354 N 
ATOM     40  C   UNL     1      14.482   3.337   3.667  1.00  0.00     0.074 A 
ATOM     41  C   UNL     1      14.193   2.152   2.891  1.00  0.00     0.031 C 
ATOM     42  C   UNL     1       8.976   6.657   3.315  1.00  0.00     0.029 A 
ATOM     43  C   UNL     1      10.198   7.038   4.015  1.00  0.00     0.049 A 
ATOM     44  H   UNL     1      11.997   5.989   4.086  1.00  0.00     0.167 HD
ATOM     45  C   UNL     1      15.667   3.575   4.280  1.00  0.00     0.037 A 
ATOM     46  C   UNL     1      10.366   8.159   4.744  1.00  0.00     0.037 A 
ATOM     47  C   UNL     1      15.962   4.778   5.013  1.00  0.00     0.049 A 
ATOM     48  C   UNL     1      11.706   8.426   5.375  1.00  0.00     0.074 A 
ATOM     49  C   UNL     1      17.146   5.145   5.628  1.00  0.00     0.029 A 
ATOM     50  N   UNL     1      15.065   5.816   5.219  1.00  0.00    -0.354 N 
ATOM     51  N   UNL     1      12.784   7.678   5.368  1.00  0.00    -0.248 NA
ATOM     52  C   UNL     1      11.860   9.697   6.095  1.00  0.00     0.031 C 
ATOM     53  C   UNL     1      16.957   6.395   6.229  1.00  0.00     0.029 A 
ATOM     54  C   UNL     1      15.668   6.824   5.953  1.00  0.00     0.049 A 
ATOM     55  H   UNL     1      14.137   5.834   4.893  1.00  0.00     0.167 HD
ATOM     56  C   UNL     1      13.754   8.402   6.053  1.00  0.00     0.074 A 
ATOM     57  C   UNL     1      13.135   9.649   6.454  1.00  0.00     0.031 C 
ATOM     58  C   UNL     1      15.040   8.067   6.324  1.00  0.00     0.037 A 
BRANCH  45  59
ATOM     59  C   UNL     1      16.732   2.518   4.170  1.00  0.00     0.058 A 
ATOM     60  C   UNL     1      17.386   2.253   2.956  1.00  0.00     0.135 A 
ATOM     61  C   UNL     1      17.118   1.771   5.295  1.00  0.00     0.135 A 
ATOM     62  F   UNL     1      17.046   2.925   1.844  1.00  0.00    -0.206 F 
ATOM     63  C   UNL     1      18.356   1.262   2.851  1.00  0.00     0.059 A 
ATOM     64  C   UNL     1      18.107   0.794   5.221  1.00  0.00     0.059 A 
ATOM     65  F   UNL     1      16.528   1.982   6.482  1.00  0.00    -0.206 F 
ATOM     66  C   UNL     1      18.708   0.534   3.989  1.00  0.00     0.060 A 
BRANCH  66  67
ATOM     67  S   UNL     1      19.966  -0.752   3.837  1.00  0.00     0.124 S 
ATOM     68  O   UNL     1      19.220  -1.809   3.161  1.00  0.00    -0.237 OA
ATOM     69  O   UNL     1      20.994  -0.093   3.039  1.00  0.00    -0.237 OA
ATOM     70  O   UNL     1      20.335  -1.031   5.221  1.00  0.00    -0.744 OA
ENDBRANCH  66  67
ENDBRANCH  45  59
BRANCH  46  71
ATOM     71  C   UNL     1       9.251   9.134   4.873  1.00  0.00     0.058 A 
ATOM     72  C   UNL     1       9.293  10.369   4.210  1.00  0.00     0.135 A 
ATOM     73  C   UNL     1       8.114   8.845   5.644  1.00  0.00     0.135 A 
ATOM     74  F   UNL     1      10.360  10.692   3.463  1.00  0.00    -0.206 F 
ATOM     75  C   UNL     1       8.258  11.292   4.319  1.00  0.00     0.059 A 
ATOM     76  C   UNL     1       7.056   9.742   5.750  1.00  0.00     0.059 A 
ATOM     77  F   UNL     1       8.016   7.668   6.282  1.00  0.00    -0.206 F 
ATOM     78  C   UNL     1       7.142  10.968   5.091  1.00  0.00     0.060 A 
BRANCH  78  79
ATOM     79  S   UNL     1       5.780  12.152   5.186  1.00  0.00     0.124 S 
ATOM     80  O   UNL     1       6.333  13.164   6.078  1.00  0.00    -0.237 OA
ATOM     81  O   UNL     1       5.620  12.548   3.790  1.00  0.00    -0.237 OA
ATOM     82  O   UNL     1       4.684  11.357   5.732  1.00  0.00    -0.744 OA
ENDBRANCH  78  79
ENDBRANCH  46  71
BRANCH  58  83
ATOM     83  C   UNL     1      15.880   9.085   7.041  1.00  0.00     0.058 A 
ATOM     84  C   UNL     1      15.711   9.356   8.407  1.00  0.00     0.135 A 
ATOM     85  C   UNL     1      16.899   9.767   6.356  1.00  0.00     0.135 A 
ATOM     86  F   UNL     1      14.748   8.733   9.105  1.00  0.00    -0.206 F 
ATOM     87  C   UNL     1      16.504  10.291   9.064  1.00  0.00     0.059 A 
ATOM     88  C   UNL     1      17.721  10.687   6.999  1.00  0.00     0.059 A 
ATOM     89  F   UNL     1      17.111   9.534   5.051  1.00  0.00    -0.206 F 
ATOM     90  C   UNL     1      17.505  10.953   8.351  1.00  0.00     0.060 A 
BRANCH  90  91
ATOM     91  S   UNL     1      18.543  12.149   9.217  1.00  0.00     0.124 S 
ATOM     92  O   UNL     1      17.646  13.296   9.318  1.00  0.00    -0.237 OA
ATOM     93  O   UNL     1      18.836  11.462  10.471  1.00  0.00    -0.237 OA
ATOM     94  O   UNL     1      19.683  12.320   8.322  1.00  0.00    -0.744 OA
ENDBRANCH  90  91
ENDBRANCH  58  83
ENDBRANCH  32  33
ENDBRANCH  24  27
ENDBRANCH  22  23
ENDBRANCH   1  22
TORSDOF 17
