REMARK SMILES C=CCN(CC(=O)NCCCNC(=O)c1ccc(-c2c3nc(c(-c4c(F)cc(S(=O)(=O)[O-])cc4F)c4ccc([nH]4)c(-c4c(F)cc(S(=O)(=O)[O-])cc4F)c4nc(c(-c5c(F)cc(S(=O)(=O)[O-])cc5F)c5ccc2[nH]5)C=C4)C=C3)cc1)C(=O)c1cn(C2C[NH2+]C2)nn1
REMARK SMILES IDX 9 1 8 2 6 3 7 4 5 6 4 7 3 8 2 9 1 10 81 11 82 12 83 13 84 14
REMARK SMILES IDX 91 15 85 16 90 17 86 18 87 19 89 20 88 21 10 24 11 25 12 26
REMARK SMILES IDX 13 27 14 29 15 30 16 31 80 32 17 33 79 34 18 35 19 36 20 37
REMARK SMILES IDX 73 38 21 39 78 40 72 41 74 42 22 43 77 44 71 45 70 46 23 48
REMARK SMILES IDX 57 49 36 50 56 51 37 52 40 53 55 54 75 55 38 56 39 57 54 59
REMARK SMILES IDX 76 60 41 61 24 62 25 63 34 64 26 65 27 66 33 67 35 68 28 69
REMARK SMILES IDX 29 70 30 71 31 72 32 73 58 74 59 75 68 76 60 77 61 78 67 79
REMARK SMILES IDX 69 80 62 81 63 82 64 83 65 84 66 85 42 86 43 87 52 88 44 89
REMARK SMILES IDX 45 90 51 91 53 92 46 93 47 94 48 95 49 96 50 97
REMARK H PARENT 8 5 88 22 88 23 12 28 74 47 40 58
REMARK Flexibility Score: inf
ROOT
ATOM      1  C   UNL     1      -4.379   0.717  -0.878  1.00  0.00     0.117 C 
ENDROOT
BRANCH   1   2
ATOM      2  N   UNL     1      -4.580   2.152  -0.831  1.00  0.00    -0.354 N 
ATOM      3  C   UNL     1      -3.704   3.168  -1.077  1.00  0.00     0.239 C 
ATOM      4  O   UNL     1      -4.188   4.278  -1.321  1.00  0.00    -0.273 OA
ATOM      5  H   UNL     1      -5.489   2.437  -0.582  1.00  0.00     0.163 HD
BRANCH   3   6
ATOM      6  C   UNL     1      -2.184   2.948  -1.178  1.00  0.00     0.220 C 
BRANCH   6   7
ATOM      7  N   UNL     1      -1.592   2.151  -0.100  1.00  0.00    -0.324 N 
BRANCH   7   8
ATOM      8  C   UNL     1      -0.953   0.888  -0.445  1.00  0.00     0.147 C 
BRANCH   8   9
ATOM      9  C   UNL     1       0.510   1.109  -0.688  1.00  0.00    -0.014 C 
ATOM     10  C   UNL     1       1.471   0.426  -0.051  1.00  0.00     0.006 C 
ENDBRANCH   8   9
ENDBRANCH   7   8
BRANCH   7  11
ATOM     11  C   UNL     1      -1.442   2.619   1.214  1.00  0.00     0.276 C 
ATOM     12  O   UNL     1      -0.996   1.907   2.114  1.00  0.00    -0.267 OA
BRANCH  11  13
ATOM     13  C   UNL     1      -1.838   3.990   1.495  1.00  0.00     0.170 A 
ATOM     14  C   UNL     1      -3.104   4.484   1.739  1.00  0.00     0.145 A 
ATOM     15  N   UNL     1      -0.934   5.019   1.584  1.00  0.00    -0.125 NA
ATOM     16  N   UNL     1      -2.907   5.822   1.941  1.00  0.00    -0.237 N 
ATOM     17  N   UNL     1      -1.600   6.133   1.857  1.00  0.00    -0.066 NA
BRANCH  16  18
ATOM     18  C   UNL     1      -3.888   6.839   2.180  1.00  0.00     0.218 C 
ATOM     19  C   UNL     1      -4.921   6.948   1.034  1.00  0.00     0.294 C 
ATOM     20  C   UNL     1      -5.112   6.414   3.019  1.00  0.00     0.294 C 
ATOM     21  N   UNL     1      -5.981   7.128   2.054  1.00  0.00    -0.342 N 
ATOM     22  H   UNL     1      -6.857   6.652   1.841  1.00  0.00     0.346 HD
ATOM     23  H   UNL     1      -6.362   8.050   2.265  1.00  0.00     0.346 HD
ENDBRANCH  16  18
ENDBRANCH  11  13
ENDBRANCH   7  11
ENDBRANCH   6   7
ENDBRANCH   3   6
ENDBRANCH   1   2
BRANCH   1  24
ATOM     24  C   UNL     1      -4.223   0.057   0.489  1.00  0.00     0.042 C 
BRANCH  24  25
ATOM     25  C   UNL     1      -5.457   0.104   1.387  1.00  0.00     0.118 C 
BRANCH  25  26
ATOM     26  N   UNL     1      -6.598  -0.593   0.819  1.00  0.00    -0.352 N 
ATOM     27  C   UNL     1      -7.320  -1.673   1.261  1.00  0.00     0.251 C 
ATOM     28  H   UNL     1      -6.910  -0.223  -0.038  1.00  0.00     0.163 HD
ATOM     29  O   UNL     1      -8.139  -2.173   0.489  1.00  0.00    -0.269 OA
BRANCH  27  30
ATOM     30  C   UNL     1      -7.144  -2.257   2.615  1.00  0.00     0.039 A 
ATOM     31  C   UNL     1      -7.309  -3.641   2.760  1.00  0.00     0.014 A 
ATOM     32  C   UNL     1      -6.917  -1.475   3.751  1.00  0.00     0.014 A 
ATOM     33  C   UNL     1      -7.207  -4.239   4.021  1.00  0.00     0.010 A 
ATOM     34  C   UNL     1      -6.753  -2.080   5.002  1.00  0.00     0.010 A 
ATOM     35  C   UNL     1      -6.907  -3.466   5.152  1.00  0.00    -0.014 A 
BRANCH  35  36
ATOM     36  C   UNL     1      -6.774  -4.095   6.493  1.00  0.00     0.031 A 
ATOM     37  C   UNL     1      -7.775  -3.802   7.579  1.00  0.00     0.074 A 
ATOM     38  C   UNL     1      -5.730  -4.908   6.750  1.00  0.00     0.049 A 
ATOM     39  N   UNL     1      -7.796  -4.222   8.819  1.00  0.00    -0.248 NA
ATOM     40  C   UNL     1      -8.888  -2.905   7.231  1.00  0.00     0.031 C 
ATOM     41  C   UNL     1      -4.668  -5.246   5.800  1.00  0.00     0.029 A 
ATOM     42  N   UNL     1      -5.387  -5.594   7.888  1.00  0.00    -0.354 N 
ATOM     43  C   UNL     1      -8.906  -3.625   9.405  1.00  0.00     0.074 A 
ATOM     44  C   UNL     1      -9.517  -2.790   8.392  1.00  0.00     0.031 C 
ATOM     45  C   UNL     1      -3.805  -6.091   6.388  1.00  0.00     0.029 A 
ATOM     46  C   UNL     1      -4.237  -6.335   7.762  1.00  0.00     0.049 A 
ATOM     47  H   UNL     1      -5.916  -5.558   8.718  1.00  0.00     0.167 HD
ATOM     48  C   UNL     1      -9.383  -3.768  10.665  1.00  0.00     0.037 A 
ATOM     49  C   UNL     1      -3.601  -7.124   8.649  1.00  0.00     0.037 A 
ATOM     50  C   UNL     1      -8.800  -4.625  11.665  1.00  0.00     0.049 A 
ATOM     51  C   UNL     1      -4.172  -7.301  10.027  1.00  0.00     0.074 A 
ATOM     52  C   UNL     1      -9.237  -4.865  12.957  1.00  0.00     0.029 A 
ATOM     53  N   UNL     1      -7.659  -5.390  11.482  1.00  0.00    -0.354 N 
ATOM     54  N   UNL     1      -5.241  -6.754  10.551  1.00  0.00    -0.248 NA
ATOM     55  C   UNL     1      -3.454  -8.211  10.932  1.00  0.00     0.031 C 
ATOM     56  C   UNL     1      -8.350  -5.765  13.560  1.00  0.00     0.029 A 
ATOM     57  C   UNL     1      -7.376  -6.103  12.635  1.00  0.00     0.049 A 
ATOM     58  H   UNL     1      -7.128  -5.423  10.653  1.00  0.00     0.167 HD
ATOM     59  C   UNL     1      -5.338  -7.269  11.839  1.00  0.00     0.074 A 
ATOM     60  C   UNL     1      -4.223  -8.176  12.013  1.00  0.00     0.031 C 
ATOM     61  C   UNL     1      -6.269  -7.013  12.790  1.00  0.00     0.037 A 
BRANCH  48  62
ATOM     62  C   UNL     1     -10.607  -2.977  11.031  1.00  0.00     0.058 A 
ATOM     63  C   UNL     1     -11.880  -3.338  10.563  1.00  0.00     0.135 A 
ATOM     64  C   UNL     1     -10.508  -1.853  11.867  1.00  0.00     0.135 A 
ATOM     65  F   UNL     1     -12.025  -4.395   9.749  1.00  0.00    -0.206 F 
ATOM     66  C   UNL     1     -13.010  -2.593  10.884  1.00  0.00     0.059 A 
ATOM     67  C   UNL     1     -11.628  -1.105  12.217  1.00  0.00     0.059 A 
ATOM     68  F   UNL     1      -9.314  -1.466  12.342  1.00  0.00    -0.206 F 
ATOM     69  C   UNL     1     -12.872  -1.472  11.704  1.00  0.00     0.060 A 
BRANCH  69  70
ATOM     70  S   UNL     1     -14.340  -0.498  12.101  1.00  0.00     0.124 S 
ATOM     71  O   UNL     1     -14.487   0.307  10.892  1.00  0.00    -0.237 OA
ATOM     72  O   UNL     1     -15.358  -1.524  12.305  1.00  0.00    -0.237 OA
ATOM     73  O   UNL     1     -13.945   0.234  13.300  1.00  0.00    -0.744 OA
ENDBRANCH  69  70
ENDBRANCH  48  62
BRANCH  49  74
ATOM     74  C   UNL     1      -2.366  -7.841   8.241  1.00  0.00     0.058 A 
ATOM     75  C   UNL     1      -2.398  -9.213   7.956  1.00  0.00     0.135 A 
ATOM     76  C   UNL     1      -1.144  -7.167   8.102  1.00  0.00     0.135 A 
ATOM     77  F   UNL     1      -3.545  -9.898   8.082  1.00  0.00    -0.206 F 
ATOM     78  C   UNL     1      -1.258  -9.898   7.551  1.00  0.00     0.059 A 
ATOM     79  C   UNL     1       0.006  -7.827   7.682  1.00  0.00     0.059 A 
ATOM     80  F   UNL     1      -1.070  -5.850   8.350  1.00  0.00    -0.206 F 
ATOM     81  C   UNL     1      -0.059  -9.195   7.416  1.00  0.00     0.060 A 
BRANCH  81  82
ATOM     82  S   UNL     1       1.404 -10.073   6.824  1.00  0.00     0.124 S 
ATOM     83  O   UNL     1       1.855 -10.742   8.038  1.00  0.00    -0.237 OA
ATOM     84  O   UNL     1       0.850 -10.938   5.787  1.00  0.00    -0.237 OA
ATOM     85  O   UNL     1       2.261  -8.997   6.336  1.00  0.00    -0.744 OA
ENDBRANCH  81  82
ENDBRANCH  49  74
BRANCH  61  86
ATOM     86  C   UNL     1      -6.141  -7.748  14.091  1.00  0.00     0.058 A 
ATOM     87  C   UNL     1      -5.205  -7.363  15.063  1.00  0.00     0.135 A 
ATOM     88  C   UNL     1      -6.989  -8.828  14.384  1.00  0.00     0.135 A 
ATOM     89  F   UNL     1      -4.369  -6.340  14.826  1.00  0.00    -0.206 F 
ATOM     90  C   UNL     1      -5.101  -8.035  16.276  1.00  0.00     0.059 A 
ATOM     91  C   UNL     1      -6.913  -9.504  15.597  1.00  0.00     0.059 A 
ATOM     92  F   UNL     1      -7.905  -9.230  13.489  1.00  0.00    -0.206 F 
ATOM     93  C   UNL     1      -5.958  -9.108  16.533  1.00  0.00     0.060 A 
BRANCH  93  94
ATOM     94  S   UNL     1      -5.839  -9.960  18.120  1.00  0.00     0.124 S 
ATOM     95  O   UNL     1      -4.707 -10.851  17.891  1.00  0.00    -0.237 OA
ATOM     96  O   UNL     1      -5.603  -8.863  19.054  1.00  0.00    -0.237 OA
ATOM     97  O   UNL     1      -7.139 -10.613  18.249  1.00  0.00    -0.744 OA
ENDBRANCH  93  94
ENDBRANCH  61  86
ENDBRANCH  35  36
ENDBRANCH  27  30
ENDBRANCH  25  26
ENDBRANCH  24  25
ENDBRANCH   1  24
TORSDOF 19
