REMARK SMILES O=C(NCCCNC(=O)[C@H](c1c[nH]c2ccc(Br)cc12)[N@H+]1CCC[C@H](c2nc3ccccc3s2)C1)c1ccc(-c2c3nc(c(-c4c(F)cc(S(=O)(=O)[O-])cc4F)c4ccc([nH]4)c(-c4c(F)cc(S(=O)(=O)[O-])cc4F)c4nc(c(-c5c(F)cc(S(=O)(=O)[O-])cc5F)c5ccc2[nH]5)C=C4)C=C3)cc1
REMARK SMILES IDX 4 1 3 2 1 3 2 4 36 6 37 7 101 8 38 9 100 10 39 11 40 12
REMARK SMILES IDX 41 13 94 14 42 15 99 16 93 17 95 18 43 19 98 20 92 21 91 22
REMARK SMILES IDX 44 24 78 25 57 26 77 27 58 28 61 29 76 30 96 31 59 32 60 33
REMARK SMILES IDX 75 35 97 36 62 37 45 38 46 39 55 40 47 41 48 42 54 43 56 44
REMARK SMILES IDX 49 45 50 46 51 47 52 48 53 49 79 50 80 51 89 52 81 53 82 54
REMARK SMILES IDX 88 55 90 56 83 57 84 58 85 59 86 60 87 61 63 62 64 63 73 64
REMARK SMILES IDX 65 65 66 66 72 67 74 68 67 69 68 70 69 71 70 72 71 73 5 74
REMARK SMILES IDX 6 75 7 76 8 77 9 79 10 80 21 81 22 82 35 83 23 85 25 86
REMARK SMILES IDX 24 87 26 88 27 89 34 90 28 91 33 92 29 93 32 94 30 95 31 96
REMARK SMILES IDX 11 97 12 98 20 99 13 100 14 101 19 102 15 104 17 105 16 106
REMARK SMILES IDX 18 107
REMARK H PARENT 3 5 95 23 61 34 7 78 21 84 13 103
REMARK Flexibility Score: inf
ROOT
ATOM      1  C   UNL     1       8.863   2.868  -8.104  1.00  0.00     0.118 C 
ENDROOT
BRANCH   1   2
ATOM      2  N   UNL     1       9.064   1.635  -8.861  1.00  0.00    -0.352 N 
ATOM      3  O   UNL     1       9.290   0.343 -10.689  1.00  0.00    -0.269 OA
ATOM      4  C   UNL     1       9.394   1.458 -10.182  1.00  0.00     0.251 C 
ATOM      5  H   UNL     1       8.945   0.805  -8.346  1.00  0.00     0.163 HD
BRANCH   4   6
ATOM      6  C   UNL     1       9.865   2.605 -10.983  1.00  0.00     0.039 A 
ATOM      7  C   UNL     1      10.684   3.573 -10.401  1.00  0.00     0.014 A 
ATOM      8  C   UNL     1       9.514   2.704 -12.333  1.00  0.00     0.014 A 
ATOM      9  C   UNL     1      11.014   4.715 -11.109  1.00  0.00     0.010 A 
ATOM     10  C   UNL     1       9.962   3.793 -13.087  1.00  0.00     0.010 A 
ATOM     11  C   UNL     1      10.703   4.814 -12.474  1.00  0.00    -0.014 A 
BRANCH  11  12
ATOM     12  C   UNL     1      11.288   5.942 -13.236  1.00  0.00     0.031 A 
ATOM     13  C   UNL     1      10.426   6.983 -13.885  1.00  0.00     0.074 A 
ATOM     14  C   UNL     1      12.633   6.039 -13.265  1.00  0.00     0.049 A 
ATOM     15  N   UNL     1      10.793   8.058 -14.534  1.00  0.00    -0.248 NA
ATOM     16  C   UNL     1       8.968   6.798 -13.808  1.00  0.00     0.031 C 
ATOM     17  C   UNL     1      13.559   5.061 -12.679  1.00  0.00     0.029 A 
ATOM     18  N   UNL     1      13.459   7.009 -13.766  1.00  0.00    -0.354 N 
ATOM     19  C   UNL     1       9.620   8.674 -14.950  1.00  0.00     0.074 A 
ATOM     20  C   UNL     1       8.525   7.837 -14.506  1.00  0.00     0.031 C 
ATOM     21  C   UNL     1      14.814   5.515 -12.791  1.00  0.00     0.029 A 
ATOM     22  C   UNL     1      14.792   6.769 -13.530  1.00  0.00     0.049 A 
ATOM     23  H   UNL     1      13.130   7.802 -14.249  1.00  0.00     0.167 HD
ATOM     24  C   UNL     1       9.478   9.835 -15.632  1.00  0.00     0.037 A 
ATOM     25  C   UNL     1      15.883   7.469 -13.889  1.00  0.00     0.037 A 
ATOM     26  C   UNL     1      10.584  10.656 -16.059  1.00  0.00     0.049 A 
ATOM     27  C   UNL     1      15.690   8.742 -14.657  1.00  0.00     0.074 A 
ATOM     28  C   UNL     1      10.550  11.855 -16.750  1.00  0.00     0.029 A 
ATOM     29  N   UNL     1      11.923  10.366 -15.833  1.00  0.00    -0.354 N 
ATOM     30  N   UNL     1      14.570   9.315 -15.030  1.00  0.00    -0.248 NA
ATOM     31  C   UNL     1      16.903   9.462 -15.059  1.00  0.00     0.031 C 
ATOM     32  C   UNL     1      11.867  12.268 -16.979  1.00  0.00     0.029 A 
ATOM     33  C   UNL     1      12.723  11.354 -16.385  1.00  0.00     0.049 A 
ATOM     34  H   UNL     1      12.256   9.575 -15.351  1.00  0.00     0.167 HD
ATOM     35  C   UNL     1      14.944  10.467 -15.709  1.00  0.00     0.074 A 
ATOM     36  C   UNL     1      16.392  10.527 -15.659  1.00  0.00     0.031 C 
ATOM     37  C   UNL     1      14.164  11.386 -16.328  1.00  0.00     0.037 A 
BRANCH  24  38
ATOM     38  C   UNL     1       8.084  10.293 -15.967  1.00  0.00     0.058 A 
ATOM     39  C   UNL     1       7.220  10.803 -14.986  1.00  0.00     0.135 A 
ATOM     40  C   UNL     1       7.633  10.293 -17.298  1.00  0.00     0.135 A 
ATOM     41  F   UNL     1       7.591  10.809 -13.696  1.00  0.00    -0.206 F 
ATOM     42  C   UNL     1       5.957  11.290 -15.310  1.00  0.00     0.059 A 
ATOM     43  C   UNL     1       6.383  10.797 -17.648  1.00  0.00     0.059 A 
ATOM     44  F   UNL     1       8.416   9.812 -18.276  1.00  0.00    -0.206 F 
ATOM     45  C   UNL     1       5.550  11.289 -16.645  1.00  0.00     0.060 A 
BRANCH  45  46
ATOM     46  S   UNL     1       3.922  11.959 -17.049  1.00  0.00     0.124 S 
ATOM     47  O   UNL     1       3.041  10.935 -16.498  1.00  0.00    -0.237 OA
ATOM     48  O   UNL     1       3.928  13.236 -16.344  1.00  0.00    -0.237 OA
ATOM     49  O   UNL     1       3.943  12.050 -18.506  1.00  0.00    -0.744 OA
ENDBRANCH  45  46
ENDBRANCH  24  38
BRANCH  25  50
ATOM     50  C   UNL     1      17.240   6.957 -13.559  1.00  0.00     0.058 A 
ATOM     51  C   UNL     1      18.080   7.635 -12.665  1.00  0.00     0.135 A 
ATOM     52  C   UNL     1      17.722   5.771 -14.137  1.00  0.00     0.135 A 
ATOM     53  F   UNL     1      17.666   8.772 -12.085  1.00  0.00    -0.206 F 
ATOM     54  C   UNL     1      19.362   7.175 -12.380  1.00  0.00     0.059 A 
ATOM     55  C   UNL     1      18.984   5.272 -13.841  1.00  0.00     0.059 A 
ATOM     56  F   UNL     1      16.948   5.070 -14.981  1.00  0.00    -0.206 F 
ATOM     57  C   UNL     1      19.805   5.992 -12.977  1.00  0.00     0.060 A 
BRANCH  57  58
ATOM     58  S   UNL     1      21.464   5.393 -12.595  1.00  0.00     0.124 S 
ATOM     59  O   UNL     1      22.290   6.305 -13.376  1.00  0.00    -0.237 OA
ATOM     60  O   UNL     1      21.526   5.555 -11.146  1.00  0.00    -0.237 OA
ATOM     61  O   UNL     1      21.435   4.009 -13.061  1.00  0.00    -0.744 OA
ENDBRANCH  57  58
ENDBRANCH  25  50
BRANCH  37  62
ATOM     62  C   UNL     1      14.873  12.538 -16.983  1.00  0.00     0.058 A 
ATOM     63  C   UNL     1      15.626  12.366 -18.155  1.00  0.00     0.135 A 
ATOM     64  C   UNL     1      14.797  13.826 -16.432  1.00  0.00     0.135 A 
ATOM     65  F   UNL     1      15.736  11.150 -18.715  1.00  0.00    -0.206 F 
ATOM     66  C   UNL     1      16.315  13.424 -18.735  1.00  0.00     0.059 A 
ATOM     67  C   UNL     1      15.453  14.906 -17.013  1.00  0.00     0.059 A 
ATOM     68  F   UNL     1      14.082  14.046 -15.317  1.00  0.00    -0.206 F 
ATOM     69  C   UNL     1      16.226  14.690 -18.154  1.00  0.00     0.060 A 
BRANCH  69  70
ATOM     70  S   UNL     1      17.125  16.056 -18.916  1.00  0.00     0.124 S 
ATOM     71  O   UNL     1      18.497  15.761 -18.519  1.00  0.00    -0.237 OA
ATOM     72  O   UNL     1      16.823  15.878 -20.333  1.00  0.00    -0.237 OA
ATOM     73  O   UNL     1      16.532  17.238 -18.299  1.00  0.00    -0.744 OA
ENDBRANCH  69  70
ENDBRANCH  37  62
ENDBRANCH  11  12
ENDBRANCH   4   6
ENDBRANCH   1   2
BRANCH   1  74
ATOM     74  C   UNL     1       7.458   2.960  -7.543  1.00  0.00     0.042 C 
BRANCH  74  75
ATOM     75  C   UNL     1       7.209   1.933  -6.452  1.00  0.00     0.118 C 
BRANCH  75  76
ATOM     76  N   UNL     1       7.618   2.361  -5.133  1.00  0.00    -0.351 N 
ATOM     77  C   UNL     1       7.246   3.247  -4.183  1.00  0.00     0.283 C 
ATOM     78  H   UNL     1       8.408   1.854  -4.838  1.00  0.00     0.163 HD
ATOM     79  O   UNL     1       7.927   3.058  -3.152  1.00  0.00    -0.268 OA
BRANCH  77  80
ATOM     80  C   UNL     1       6.286   4.498  -4.242  1.00  0.00     0.307 C 
BRANCH  80  81
ATOM     81  N   UNL     1       5.041   4.558  -5.046  1.00  0.00    -0.320 N 
ATOM     82  C   UNL     1       4.882   5.828  -5.757  1.00  0.00     0.263 C 
ATOM     83  C   UNL     1       4.597   3.402  -5.790  1.00  0.00     0.274 C 
ATOM     84  H   UNL     1       4.351   4.514  -4.296  1.00  0.00     0.349 HD
ATOM     85  C   UNL     1       3.499   5.989  -6.399  1.00  0.00     0.062 C 
ATOM     86  C   UNL     1       3.211   3.481  -6.460  1.00  0.00     0.104 C 
ATOM     87  C   UNL     1       3.121   4.787  -7.258  1.00  0.00     0.022 C 
BRANCH  86  88
ATOM     88  C   UNL     1       2.093   3.283  -5.475  1.00  0.00     0.103 A 
ATOM     89  N   UNL     1       2.258   3.153  -4.178  1.00  0.00    -0.241 NA
ATOM     90  S   UNL     1       0.470   3.108  -6.023  1.00  0.00    -0.118 S 
ATOM     91  C   UNL     1       1.040   3.033  -3.548  1.00  0.00     0.082 A 
ATOM     92  C   UNL     1      -0.067   2.991  -4.394  1.00  0.00     0.055 A 
ATOM     93  C   UNL     1       0.843   2.957  -2.157  1.00  0.00     0.030 A 
ATOM     94  C   UNL     1      -1.373   2.874  -3.897  1.00  0.00     0.021 A 
ATOM     95  C   UNL     1      -0.453   2.857  -1.648  1.00  0.00     0.002 A 
ATOM     96  C   UNL     1      -1.546   2.816  -2.510  1.00  0.00     0.002 A 
ENDBRANCH  86  88
ENDBRANCH  80  81
BRANCH  80  97
ATOM     97  C   UNL     1       5.840   4.768  -2.800  1.00  0.00     0.044 A 
ATOM     98  C   UNL     1       5.003   3.952  -2.052  1.00  0.00     0.094 A 
ATOM     99  C   UNL     1       6.261   5.827  -1.920  1.00  0.00     0.010 A 
ATOM    100  N   UNL     1       4.945   4.433  -0.778  1.00  0.00    -0.361 N 
ATOM    101  C   UNL     1       5.699   5.575  -0.664  1.00  0.00     0.046 A 
ATOM    102  C   UNL     1       7.092   6.959  -2.060  1.00  0.00     0.026 A 
ATOM    103  H   UNL     1       4.434   4.020  -0.044  1.00  0.00     0.166 HD
ATOM    104  C   UNL     1       5.931   6.382   0.457  1.00  0.00     0.028 A 
ATOM    105  C   UNL     1       7.319   7.781  -0.949  1.00  0.00     0.018 A 
ATOM    106  C   UNL     1       6.753   7.498   0.292  1.00  0.00     0.018 A 
ATOM    107  Br  UNL     1       8.421   9.310  -1.133  1.00  0.00    -0.051 Br
ENDBRANCH  80  97
ENDBRANCH  77  80
ENDBRANCH  75  76
ENDBRANCH  74  75
ENDBRANCH   1  74
TORSDOF 16
