REMARK SMILES CC(C)(C)N(CC(=O)NCCCNC(=O)c1ccc(-c2c3nc(c(-c4c(F)cc(S(=O)(=O)[O-])cc4F)c4ccc([nH]4)c(-c4c(F)cc(S(=O)(=O)[O-])cc4F)c4nc(c(-c5c(F)cc(S(=O)(=O)[O-])cc5F)c5ccc2[nH]5)C=C4)C=C3)cc1)C(=O)NCCc1cnc[nH]1
REMARK SMILES IDX 10 1 9 2 7 3 8 4 6 6 5 7 2 8 1 9 3 10 4 11 82 12 83 13 84 14
REMARK SMILES IDX 85 16 86 17 87 18 88 19 91 20 89 21 90 22 11 24 12 25 13 26
REMARK SMILES IDX 14 27 15 29 16 30 17 31 81 32 18 33 80 34 19 35 20 36 21 37
REMARK SMILES IDX 74 38 22 39 79 40 73 41 75 42 23 43 78 44 72 45 71 46 24 48
REMARK SMILES IDX 58 49 37 50 57 51 38 52 41 53 56 54 76 55 39 56 40 57 55 59
REMARK SMILES IDX 77 60 42 61 25 62 26 63 35 64 27 65 28 66 34 67 36 68 29 69
REMARK SMILES IDX 30 70 31 71 32 72 33 73 59 74 60 75 69 76 61 77 62 78 68 79
REMARK SMILES IDX 70 80 63 81 64 82 65 83 66 84 67 85 43 86 44 87 53 88 45 89
REMARK SMILES IDX 46 90 52 91 54 92 47 93 48 94 49 95 50 96 51 97
REMARK H PARENT 9 5 84 15 91 23 13 28 75 47 41 58
REMARK Flexibility Score: inf
ROOT
ATOM      1  C   UNL     1       3.971  -0.255  -1.447  1.00  0.00     0.117 C 
ENDROOT
BRANCH   1   2
ATOM      2  N   UNL     1       4.176   1.119  -1.844  1.00  0.00    -0.354 N 
ATOM      3  C   UNL     1       3.342   2.180  -1.668  1.00  0.00     0.239 C 
ATOM      4  O   UNL     1       3.856   3.305  -1.705  1.00  0.00    -0.273 OA
ATOM      5  H   UNL     1       5.027   1.312  -2.300  1.00  0.00     0.163 HD
BRANCH   3   6
ATOM      6  C   UNL     1       1.867   2.003  -1.260  1.00  0.00     0.221 C 
BRANCH   6   7
ATOM      7  N   UNL     1       1.043   1.045  -2.013  1.00  0.00    -0.311 N 
BRANCH   7   8
ATOM      8  C   UNL     1       0.219   0.004  -1.249  1.00  0.00     0.037 C 
ATOM      9  C   UNL     1       0.472  -0.032   0.284  1.00  0.00     0.034 C 
ATOM     10  C   UNL     1       0.486  -1.439  -1.745  1.00  0.00     0.034 C 
ATOM     11  C   UNL     1      -1.294   0.310  -1.392  1.00  0.00     0.034 C 
ENDBRANCH   7   8
BRANCH   7  12
ATOM     12  C   UNL     1       0.763   1.195  -3.357  1.00  0.00     0.318 C 
ATOM     13  O   UNL     1       0.106   0.364  -3.991  1.00  0.00    -0.249 OA
ATOM     14  N   UNL     1       1.135   2.237  -4.114  1.00  0.00    -0.338 N 
ATOM     15  H   UNL     1       0.893   2.065  -5.052  1.00  0.00     0.165 HD
BRANCH  14  16
ATOM     16  C   UNL     1       1.780   3.539  -4.008  1.00  0.00     0.124 C 
BRANCH  16  17
ATOM     17  C   UNL     1       3.163   3.548  -4.677  1.00  0.00     0.077 C 
BRANCH  17  18
ATOM     18  C   UNL     1       3.077   3.785  -6.147  1.00  0.00     0.036 A 
ATOM     19  C   UNL     1       2.884   2.940  -7.219  1.00  0.00     0.134 A 
ATOM     20  N   UNL     1       3.206   5.032  -6.709  1.00  0.00    -0.348 N 
ATOM     21  N   UNL     1       2.867   3.644  -8.396  1.00  0.00    -0.245 NA
ATOM     22  C   UNL     1       3.064   4.896  -8.059  1.00  0.00     0.196 A 
ATOM     23  H   UNL     1       3.371   5.873  -6.225  1.00  0.00     0.167 HD
ENDBRANCH  17  18
ENDBRANCH  16  17
ENDBRANCH  14  16
ENDBRANCH   7  12
ENDBRANCH   6   7
ENDBRANCH   3   6
ENDBRANCH   1   2
BRANCH   1  24
ATOM     24  C   UNL     1       3.885  -1.214  -2.622  1.00  0.00     0.042 C 
BRANCH  24  25
ATOM     25  C   UNL     1       5.203  -1.387  -3.360  1.00  0.00     0.118 C 
BRANCH  25  26
ATOM     26  N   UNL     1       6.232  -1.992  -2.516  1.00  0.00    -0.352 N 
ATOM     27  C   UNL     1       6.743  -3.268  -2.517  1.00  0.00     0.251 C 
ATOM     28  H   UNL     1       6.620  -1.391  -1.840  1.00  0.00     0.163 HD
ATOM     29  O   UNL     1       7.414  -3.652  -1.560  1.00  0.00    -0.269 OA
BRANCH  27  30
ATOM     30  C   UNL     1       6.479  -4.174  -3.653  1.00  0.00     0.039 A 
ATOM     31  C   UNL     1       6.201  -5.524  -3.415  1.00  0.00     0.014 A 
ATOM     32  C   UNL     1       6.519  -3.690  -4.961  1.00  0.00     0.014 A 
ATOM     33  C   UNL     1       5.876  -6.364  -4.485  1.00  0.00     0.010 A 
ATOM     34  C   UNL     1       6.097  -4.497  -6.008  1.00  0.00     0.010 A 
ATOM     35  C   UNL     1       5.776  -5.845  -5.785  1.00  0.00    -0.014 A 
BRANCH  35  36
ATOM     36  C   UNL     1       5.365  -6.669  -6.951  1.00  0.00     0.031 A 
ATOM     37  C   UNL     1       6.302  -6.807  -8.121  1.00  0.00     0.074 A 
ATOM     38  C   UNL     1       4.119  -7.179  -7.012  1.00  0.00     0.049 A 
ATOM     39  N   UNL     1       6.072  -7.288  -9.314  1.00  0.00    -0.248 NA
ATOM     40  C   UNL     1       7.672  -6.298  -7.933  1.00  0.00     0.031 C 
ATOM     41  C   UNL     1       3.109  -7.085  -5.956  1.00  0.00     0.029 A 
ATOM     42  N   UNL     1       3.477  -7.853  -8.023  1.00  0.00    -0.354 N 
ATOM     43  C   UNL     1       7.252  -7.106 -10.027  1.00  0.00     0.074 A 
ATOM     44  C   UNL     1       8.179  -6.428  -9.149  1.00  0.00     0.031 C 
ATOM     45  C   UNL     1       1.980  -7.682  -6.371  1.00  0.00     0.029 A 
ATOM     46  C   UNL     1       2.164  -8.151  -7.741  1.00  0.00     0.049 A 
ATOM     47  H   UNL     1       3.915  -8.099  -8.869  1.00  0.00     0.167 HD
ATOM     48  C   UNL     1       7.540  -7.487 -11.294  1.00  0.00     0.037 A 
ATOM     49  C   UNL     1       1.208  -8.711  -8.509  1.00  0.00     0.037 A 
ATOM     50  C   UNL     1       6.619  -8.192 -12.145  1.00  0.00     0.049 A 
ATOM     51  C   UNL     1       1.546  -9.114  -9.920  1.00  0.00     0.074 A 
ATOM     52  C   UNL     1       6.831  -8.678 -13.423  1.00  0.00     0.029 A 
ATOM     53  N   UNL     1       5.312  -8.511 -11.805  1.00  0.00    -0.354 N 
ATOM     54  N   UNL     1       2.682  -8.982 -10.564  1.00  0.00    -0.248 NA
ATOM     55  C   UNL     1       0.478  -9.741 -10.711  1.00  0.00     0.031 C 
ATOM     56  C   UNL     1       5.637  -9.246 -13.875  1.00  0.00     0.029 A 
ATOM     57  C   UNL     1       4.700  -9.171 -12.857  1.00  0.00     0.049 A 
ATOM     58  H   UNL     1       4.884  -8.299 -10.944  1.00  0.00     0.167 HD
ATOM     59  C   UNL     1       2.476  -9.544 -11.819  1.00  0.00     0.074 A 
ATOM     60  C   UNL     1       1.107 -10.016 -11.846  1.00  0.00     0.031 C 
ATOM     61  C   UNL     1       3.344  -9.663 -12.854  1.00  0.00     0.037 A 
BRANCH  48  62
ATOM     62  C   UNL     1       8.904  -7.154 -11.835  1.00  0.00     0.058 A 
ATOM     63  C   UNL     1      10.066  -7.774 -11.346  1.00  0.00     0.135 A 
ATOM     64  C   UNL     1       9.050  -6.231 -12.883  1.00  0.00     0.135 A 
ATOM     65  F   UNL     1       9.989  -8.654 -10.335  1.00  0.00    -0.206 F 
ATOM     66  C   UNL     1      11.323  -7.468 -11.855  1.00  0.00     0.059 A 
ATOM     67  C   UNL     1      10.295  -5.934 -13.430  1.00  0.00     0.059 A 
ATOM     68  F   UNL     1       7.974  -5.607 -13.389  1.00  0.00    -0.206 F 
ATOM     69  C   UNL     1      11.428  -6.547 -12.898  1.00  0.00     0.060 A 
BRANCH  69  70
ATOM     70  S   UNL     1      13.068  -6.171 -13.551  1.00  0.00     0.124 S 
ATOM     71  O   UNL     1      13.644  -5.392 -12.459  1.00  0.00    -0.237 OA
ATOM     72  O   UNL     1      13.636  -7.500 -13.749  1.00  0.00    -0.237 OA
ATOM     73  O   UNL     1      12.786  -5.424 -14.773  1.00  0.00    -0.744 OA
ENDBRANCH  69  70
ENDBRANCH  48  62
BRANCH  49  74
ATOM     74  C   UNL     1      -0.158  -8.932  -7.958  1.00  0.00     0.058 A 
ATOM     75  C   UNL     1      -0.628 -10.229  -7.701  1.00  0.00     0.135 A 
ATOM     76  C   UNL     1      -1.015  -7.859  -7.665  1.00  0.00     0.135 A 
ATOM     77  F   UNL     1       0.150 -11.289  -7.969  1.00  0.00    -0.206 F 
ATOM     78  C   UNL     1      -1.902 -10.456  -7.192  1.00  0.00     0.059 A 
ATOM     79  C   UNL     1      -2.284  -8.059  -7.129  1.00  0.00     0.059 A 
ATOM     80  F   UNL     1      -0.609  -6.597  -7.877  1.00  0.00    -0.206 F 
ATOM     81  C   UNL     1      -2.723  -9.364  -6.906  1.00  0.00     0.060 A 
BRANCH  81  82
ATOM     82  S   UNL     1      -4.359  -9.672  -6.205  1.00  0.00     0.124 S 
ATOM     83  O   UNL     1      -5.068 -10.231  -7.350  1.00  0.00    -0.237 OA
ATOM     84  O   UNL     1      -4.056 -10.605  -5.124  1.00  0.00    -0.237 OA
ATOM     85  O   UNL     1      -4.797  -8.348  -5.775  1.00  0.00    -0.744 OA
ENDBRANCH  81  82
ENDBRANCH  49  74
BRANCH  61  86
ATOM     86  C   UNL     1       2.879 -10.385 -14.088  1.00  0.00     0.058 A 
ATOM     87  C   UNL     1       1.996  -9.796 -15.003  1.00  0.00     0.135 A 
ATOM     88  C   UNL     1       3.422 -11.640 -14.411  1.00  0.00     0.135 A 
ATOM     89  F   UNL     1       1.442  -8.602 -14.737  1.00  0.00    -0.206 F 
ATOM     90  C   UNL     1       1.668 -10.425 -16.200  1.00  0.00     0.059 A 
ATOM     91  C   UNL     1       3.130 -12.274 -15.613  1.00  0.00     0.059 A 
ATOM     92  F   UNL     1       4.278 -12.243 -13.570  1.00  0.00    -0.206 F 
ATOM     93  C   UNL     1       2.251 -11.658 -16.502  1.00  0.00     0.060 A 
BRANCH  93  94
ATOM     94  S   UNL     1       1.886 -12.420 -18.098  1.00  0.00     0.124 S 
ATOM     95  O   UNL     1       0.502 -12.845 -17.913  1.00  0.00    -0.237 OA
ATOM     96  O   UNL     1       2.090 -11.312 -19.025  1.00  0.00    -0.237 OA
ATOM     97  O   UNL     1       2.866 -13.498 -18.194  1.00  0.00    -0.744 OA
ENDBRANCH  93  94
ENDBRANCH  61  86
ENDBRANCH  35  36
ENDBRANCH  27  30
ENDBRANCH  25  26
ENDBRANCH  24  25
ENDBRANCH   1  24
TORSDOF 19
