REMARK SMILES CCn1nc(C(=O)NCCCNC(=O)c2ccc(-c3c4nc(c(-c5c(F)cc(S(=O)(=O)[O-])cc5F)c5ccc([nH]5)c(-c5c(F)cc(S(=O)(=O)[O-])cc5F)c5nc(c(-c6c(F)cc(S(=O)(=O)[O-])cc6F)c6ccc3[nH]6)C=C5)C=C4)cc2)c2c1CC[C@H]([NH2+]Cc1nn(CC)c3ccccc13)C2
REMARK SMILES IDX 9 1 8 2 6 3 7 4 5 6 3 7 4 8 82 9 81 10 83 11 99 12 84 13
REMARK SMILES IDX 85 14 2 15 1 16 86 17 87 20 88 21 89 22 98 23 90 24 93 25
REMARK SMILES IDX 97 26 94 27 96 28 95 29 91 30 92 31 10 32 11 33 12 34 13 35
REMARK SMILES IDX 14 37 15 38 16 39 80 40 17 41 79 42 18 43 19 44 20 45 73 46
REMARK SMILES IDX 21 47 78 48 72 49 74 50 22 51 77 52 71 53 70 54 23 56 57 57
REMARK SMILES IDX 36 58 56 59 37 60 40 61 55 62 75 63 38 64 39 65 54 67 76 68
REMARK SMILES IDX 41 69 24 70 25 71 34 72 26 73 27 74 33 75 35 76 28 77 29 78
REMARK SMILES IDX 30 79 31 80 32 81 58 82 59 83 68 84 60 85 61 86 67 87 69 88
REMARK SMILES IDX 62 89 63 90 64 91 65 92 66 93 42 94 43 95 52 96 44 97 45 98
REMARK SMILES IDX 51 99 53 100 46 101 47 102 48 103 49 104 50 105
REMARK H PARENT 8 5 86 18 86 19 12 36 74 55 40 66
REMARK Flexibility Score: inf
ROOT
ATOM      1  C   UNL     1       2.227  -6.366  -2.969  1.00  0.00     0.118 C 
ENDROOT
BRANCH   1   2
ATOM      2  N   UNL     1       3.229  -5.345  -2.854  1.00  0.00    -0.351 N 
ATOM      3  C   UNL     1       3.093  -4.144  -2.112  1.00  0.00     0.272 C 
ATOM      4  O   UNL     1       4.136  -3.506  -1.928  1.00  0.00    -0.267 OA
ATOM      5  H   UNL     1       4.080  -5.489  -3.329  1.00  0.00     0.163 HD
BRANCH   3   6
ATOM      6  C   UNL     1       1.765  -3.619  -1.603  1.00  0.00     0.153 A 
ATOM      7  N   UNL     1       0.286  -2.131  -1.040  1.00  0.00    -0.269 N 
ATOM      8  N   UNL     1       1.563  -2.284  -1.471  1.00  0.00    -0.167 NA
ATOM      9  C   UNL     1      -0.358  -3.323  -0.876  1.00  0.00     0.043 A 
ATOM     10  C   UNL     1       0.565  -4.279  -1.196  1.00  0.00     0.012 A 
ATOM     11  C   UNL     1      -1.758  -3.671  -0.516  1.00  0.00     0.062 C 
ATOM     12  C   UNL     1       0.220  -5.697  -1.130  1.00  0.00     0.105 C 
ATOM     13  C   UNL     1      -1.809  -5.027   0.280  1.00  0.00     0.072 C 
ATOM     14  C   UNL     1      -0.848  -6.181  -0.180  1.00  0.00     0.187 C 
BRANCH   7  15
ATOM     15  C   UNL     1      -0.241  -0.781  -0.945  1.00  0.00     0.141 C 
ATOM     16  C   UNL     1       0.446   0.080   0.107  1.00  0.00     0.029 C 
ENDBRANCH   7  15
BRANCH  14  17
ATOM     17  N   UNL     1      -0.261  -7.070   0.882  1.00  0.00    -0.338 N 
ATOM     18  H   UNL     1      -1.030  -7.529   1.370  1.00  0.00     0.346 HD
ATOM     19  H   UNL     1       0.299  -6.462   1.480  1.00  0.00     0.346 HD
BRANCH  17  20
ATOM     20  C   UNL     1       0.686  -8.151   0.380  1.00  0.00     0.320 C 
BRANCH  20  21
ATOM     21  C   UNL     1       2.181  -7.970   0.736  1.00  0.00     0.124 A 
ATOM     22  N   UNL     1       2.745  -6.741   0.796  1.00  0.00    -0.171 NA
ATOM     23  C   UNL     1       3.215  -8.980   0.875  1.00  0.00     0.029 A 
ATOM     24  N   UNL     1       4.050  -6.975   1.050  1.00  0.00    -0.265 N 
ATOM     25  C   UNL     1       4.317  -8.283   1.357  1.00  0.00     0.069 A 
ATOM     26  C   UNL     1       3.400 -10.366   0.676  1.00  0.00     0.012 A 
ATOM     27  C   UNL     1       5.482  -8.892   1.836  1.00  0.00     0.028 A 
ATOM     28  C   UNL     1       4.715 -10.889   0.760  1.00  0.00     0.001 A 
ATOM     29  C   UNL     1       5.744 -10.157   1.337  1.00  0.00     0.002 A 
BRANCH  24  30
ATOM     30  C   UNL     1       5.083  -5.991   0.743  1.00  0.00     0.141 C 
ATOM     31  C   UNL     1       5.851  -6.250  -0.562  1.00  0.00     0.029 C 
ENDBRANCH  24  30
ENDBRANCH  20  21
ENDBRANCH  17  20
ENDBRANCH  14  17
ENDBRANCH   3   6
ENDBRANCH   1   2
BRANCH   1  32
ATOM     32  C   UNL     1       2.024  -7.401  -4.070  1.00  0.00     0.042 C 
BRANCH  32  33
ATOM     33  C   UNL     1       2.525  -8.813  -3.768  1.00  0.00     0.118 C 
BRANCH  33  34
ATOM     34  N   UNL     1       1.726  -9.629  -2.825  1.00  0.00    -0.352 N 
ATOM     35  C   UNL     1       1.990 -10.935  -2.384  1.00  0.00     0.251 C 
ATOM     36  H   UNL     1       0.914  -9.205  -2.464  1.00  0.00     0.163 HD
ATOM     37  O   UNL     1       1.129 -11.612  -1.871  1.00  0.00    -0.269 OA
BRANCH  35  38
ATOM     38  C   UNL     1       3.369 -11.460  -2.550  1.00  0.00     0.039 A 
ATOM     39  C   UNL     1       3.644 -12.765  -2.963  1.00  0.00     0.014 A 
ATOM     40  C   UNL     1       4.403 -10.559  -2.337  1.00  0.00     0.014 A 
ATOM     41  C   UNL     1       4.947 -13.069  -3.365  1.00  0.00     0.010 A 
ATOM     42  C   UNL     1       5.648 -10.807  -2.838  1.00  0.00     0.010 A 
ATOM     43  C   UNL     1       5.919 -12.052  -3.382  1.00  0.00    -0.014 A 
BRANCH  43  44
ATOM     44  C   UNL     1       7.062 -12.127  -4.288  1.00  0.00     0.031 A 
ATOM     45  C   UNL     1       6.648 -12.388  -5.697  1.00  0.00     0.074 A 
ATOM     46  C   UNL     1       8.288 -11.633  -4.017  1.00  0.00     0.049 A 
ATOM     47  N   UNL     1       6.746 -13.495  -6.353  1.00  0.00    -0.248 NA
ATOM     48  C   UNL     1       5.830 -11.367  -6.382  1.00  0.00     0.031 C 
ATOM     49  C   UNL     1       8.743 -10.948  -2.803  1.00  0.00     0.029 A 
ATOM     50  N   UNL     1       9.363 -11.524  -4.843  1.00  0.00    -0.354 N 
ATOM     51  C   UNL     1       6.268 -13.209  -7.627  1.00  0.00     0.074 A 
ATOM     52  C   UNL     1       5.475 -12.016  -7.494  1.00  0.00     0.031 C 
ATOM     53  C   UNL     1       9.911 -10.314  -3.053  1.00  0.00     0.029 A 
ATOM     54  C   UNL     1      10.369 -10.682  -4.381  1.00  0.00     0.049 A 
ATOM     55  H   UNL     1       9.424 -12.003  -5.701  1.00  0.00     0.167 HD
ATOM     56  C   UNL     1       6.826 -13.780  -8.732  1.00  0.00     0.037 A 
ATOM     57  C   UNL     1      11.483 -10.304  -5.057  1.00  0.00     0.037 A 
ATOM     58  C   UNL     1       7.696 -14.874  -8.361  1.00  0.00     0.049 A 
ATOM     59  C   UNL     1      11.689 -11.304  -6.139  1.00  0.00     0.074 A 
ATOM     60  C   UNL     1       7.543 -16.027  -7.615  1.00  0.00     0.029 A 
ATOM     61  N   UNL     1       9.050 -14.639  -8.410  1.00  0.00    -0.354 N 
ATOM     62  N   UNL     1      11.973 -12.559  -5.925  1.00  0.00    -0.248 NA
ATOM     63  C   UNL     1      11.141 -11.012  -7.455  1.00  0.00     0.031 C 
ATOM     64  C   UNL     1       8.748 -16.137  -6.855  1.00  0.00     0.029 A 
ATOM     65  C   UNL     1       9.604 -15.105  -7.243  1.00  0.00     0.049 A 
ATOM     66  H   UNL     1       9.538 -14.211  -9.151  1.00  0.00     0.167 HD
ATOM     67  C   UNL     1      11.230 -13.257  -6.867  1.00  0.00     0.074 A 
ATOM     68  C   UNL     1      10.840 -12.251  -7.853  1.00  0.00     0.031 C 
ATOM     69  C   UNL     1      10.761 -14.514  -6.602  1.00  0.00     0.037 A 
BRANCH  56  70
ATOM     70  C   UNL     1       6.910 -13.112 -10.088  1.00  0.00     0.058 A 
ATOM     71  C   UNL     1       7.305 -13.873 -11.207  1.00  0.00     0.135 A 
ATOM     72  C   UNL     1       6.870 -11.713 -10.292  1.00  0.00     0.135 A 
ATOM     73  F   UNL     1       7.403 -15.209 -11.122  1.00  0.00    -0.206 F 
ATOM     74  C   UNL     1       7.679 -13.286 -12.417  1.00  0.00     0.059 A 
ATOM     75  C   UNL     1       7.178 -11.113 -11.506  1.00  0.00     0.059 A 
ATOM     76  F   UNL     1       6.630 -10.847  -9.301  1.00  0.00    -0.206 F 
ATOM     77  C   UNL     1       7.617 -11.902 -12.553  1.00  0.00     0.060 A 
BRANCH  77  78
ATOM     78  S   UNL     1       8.166 -11.133 -14.085  1.00  0.00     0.124 S 
ATOM     79  O   UNL     1       9.607 -11.340 -14.012  1.00  0.00    -0.237 OA
ATOM     80  O   UNL     1       7.455 -11.917 -15.089  1.00  0.00    -0.237 OA
ATOM     81  O   UNL     1       7.716  -9.751 -13.944  1.00  0.00    -0.744 OA
ENDBRANCH  77  78
ENDBRANCH  56  70
BRANCH  57  82
ATOM     82  C   UNL     1      12.211  -9.007  -5.020  1.00  0.00     0.058 A 
ATOM     83  C   UNL     1      13.464  -8.866  -5.645  1.00  0.00     0.135 A 
ATOM     84  C   UNL     1      11.570  -7.811  -4.640  1.00  0.00     0.135 A 
ATOM     85  F   UNL     1      14.144  -9.950  -6.048  1.00  0.00    -0.206 F 
ATOM     86  C   UNL     1      14.012  -7.615  -5.946  1.00  0.00     0.059 A 
ATOM     87  C   UNL     1      12.104  -6.552  -4.917  1.00  0.00     0.059 A 
ATOM     88  F   UNL     1      10.354  -7.826  -4.073  1.00  0.00    -0.206 F 
ATOM     89  C   UNL     1      13.309  -6.462  -5.602  1.00  0.00     0.060 A 
BRANCH  89  90
ATOM     90  S   UNL     1      13.905  -4.854  -6.180  1.00  0.00     0.124 S 
ATOM     91  O   UNL     1      15.086  -4.653  -5.348  1.00  0.00    -0.237 OA
ATOM     92  O   UNL     1      14.158  -5.109  -7.594  1.00  0.00    -0.237 OA
ATOM     93  O   UNL     1      12.785  -3.959  -5.902  1.00  0.00    -0.744 OA
ENDBRANCH  89  90
ENDBRANCH  57  82
BRANCH  69  94
ATOM     94  C   UNL     1      11.364 -15.261  -5.433  1.00  0.00     0.058 A 
ATOM     95  C   UNL     1      11.334 -14.835  -4.092  1.00  0.00     0.135 A 
ATOM     96  C   UNL     1      11.927 -16.522  -5.680  1.00  0.00     0.135 A 
ATOM     97  F   UNL     1      10.714 -13.703  -3.737  1.00  0.00    -0.206 F 
ATOM     98  C   UNL     1      11.902 -15.589  -3.062  1.00  0.00     0.059 A 
ATOM     99  C   UNL     1      12.466 -17.309  -4.665  1.00  0.00     0.059 A 
ATOM    100  F   UNL     1      11.931 -17.025  -6.926  1.00  0.00    -0.206 F 
ATOM    101  C   UNL     1      12.475 -16.823  -3.361  1.00  0.00     0.060 A 
BRANCH 101 102
ATOM    102  S   UNL     1      13.194 -17.806  -2.028  1.00  0.00     0.124 S 
ATOM    103  O   UNL     1      14.395 -17.045  -1.700  1.00  0.00    -0.237 OA
ATOM    104  O   UNL     1      12.139 -17.793  -1.018  1.00  0.00    -0.237 OA
ATOM    105  O   UNL     1      13.430 -19.106  -2.652  1.00  0.00    -0.744 OA
ENDBRANCH 101 102
ENDBRANCH  69  94
ENDBRANCH  43  44
ENDBRANCH  35  38
ENDBRANCH  33  34
ENDBRANCH  32  33
ENDBRANCH   1  32
TORSDOF 18
