REMARK SMILES Cc1cccc(C(=O)NCCCNC(=O)c2ccc(-c3c4nc(c(-c5c(F)cc(S(=O)(=O)[O-])cc5F)c5ccc([nH]5)c(-c5c(F)cc(S(=O)(=O)[O-])cc5F)c5nc(c(-c6c(F)cc(S(=O)(=O)[O-])cc6F)c6ccc3[nH]6)C=C5)C=C4)cc2)c1O[C@H](C)[C@H](C)O
REMARK SMILES IDX 10 1 9 2 7 3 8 4 6 6 1 7 2 8 3 9 82 10 4 11 5 12 83 13 84 14
REMARK SMILES IDX 85 15 86 16 87 17 88 18 11 20 12 21 13 22 14 23 15 25 16 26
REMARK SMILES IDX 17 27 81 28 18 29 80 30 19 31 20 32 21 33 74 34 22 35 79 36
REMARK SMILES IDX 73 37 75 38 23 39 78 40 72 41 71 42 24 44 58 45 37 46 57 47
REMARK SMILES IDX 38 48 41 49 56 50 76 51 39 52 40 53 55 55 77 56 42 57 25 58
REMARK SMILES IDX 26 59 35 60 27 61 28 62 34 63 36 64 29 65 30 66 31 67 32 68
REMARK SMILES IDX 33 69 59 70 60 71 69 72 61 73 62 74 68 75 70 76 63 77 64 78
REMARK SMILES IDX 65 79 66 80 67 81 43 82 44 83 53 84 45 85 46 86 52 87 54 88
REMARK SMILES IDX 47 89 48 90 49 91 50 92 51 93
REMARK H PARENT 9 5 88 19 13 24 75 43 41 54
REMARK Flexibility Score: inf
ROOT
ATOM      1  C   UNL     1       3.943   3.400  -2.548  1.00  0.00     0.118 C 
ENDROOT
BRANCH   1   2
ATOM      2  N   UNL     1       4.177   1.855  -2.670  1.00  0.00    -0.352 N 
ATOM      3  C   UNL     1       3.929   0.508  -2.967  1.00  0.00     0.255 C 
ATOM      4  O   UNL     1       5.044  -0.060  -2.929  1.00  0.00    -0.269 OA
ATOM      5  H   UNL     1       5.085   1.786  -2.297  1.00  0.00     0.163 HD
BRANCH   3   6
ATOM      6  C   UNL     1       2.743  -0.477  -3.317  1.00  0.00     0.082 A 
ATOM      7  C   UNL     1      -0.897  -1.221  -4.448  1.00  0.00     0.048 C 
ATOM      8  C   UNL     1       0.551  -1.455  -4.068  1.00  0.00    -0.008 A 
ATOM      9  C   UNL     1       1.111  -2.704  -4.268  1.00  0.00     0.007 A 
ATOM     10  C   UNL     1       1.323  -0.416  -3.463  1.00  0.00     0.135 A 
ATOM     11  C   UNL     1       2.441  -2.889  -3.947  1.00  0.00     0.001 A 
ATOM     12  C   UNL     1       3.230  -1.800  -3.530  1.00  0.00     0.018 A 
BRANCH  10  13
ATOM     13  O   UNL     1       0.409   0.502  -2.999  1.00  0.00    -0.487 OA
BRANCH  13  14
ATOM     14  C   UNL     1       0.966   1.686  -2.466  1.00  0.00     0.198 C 
ATOM     15  C   UNL     1       1.475   2.288  -3.819  1.00  0.00     0.056 C 
BRANCH  14  16
ATOM     16  C   UNL     1       1.493   1.182  -1.004  1.00  0.00     0.151 C 
ATOM     17  C   UNL     1       0.650   1.731   0.155  1.00  0.00     0.042 C 
BRANCH  16  18
ATOM     18  O   UNL     1       2.824   1.316  -0.528  1.00  0.00    -0.390 OA
ATOM     19  H   UNL     1       2.982   2.236  -0.265  1.00  0.00     0.211 HD
ENDBRANCH  16  18
ENDBRANCH  14  16
ENDBRANCH  13  14
ENDBRANCH  10  13
ENDBRANCH   3   6
ENDBRANCH   1   2
BRANCH   1  20
ATOM     20  C   UNL     1       2.708   4.086  -1.913  1.00  0.00     0.042 C 
BRANCH  20  21
ATOM     21  C   UNL     1       2.862   5.228  -0.925  1.00  0.00     0.118 C 
BRANCH  21  22
ATOM     22  N   UNL     1       1.712   6.160  -1.051  1.00  0.00    -0.352 N 
ATOM     23  C   UNL     1       1.217   7.092  -0.148  1.00  0.00     0.251 C 
ATOM     24  H   UNL     1       1.226   6.109  -1.905  1.00  0.00     0.163 HD
ATOM     25  O   UNL     1       0.202   7.729  -0.298  1.00  0.00    -0.269 OA
BRANCH  23  26
ATOM     26  C   UNL     1       2.092   7.328   1.009  1.00  0.00     0.039 A 
ATOM     27  C   UNL     1       3.098   8.281   0.783  1.00  0.00     0.014 A 
ATOM     28  C   UNL     1       2.249   6.247   1.869  1.00  0.00     0.014 A 
ATOM     29  C   UNL     1       4.379   8.004   1.219  1.00  0.00     0.010 A 
ATOM     30  C   UNL     1       3.539   5.931   2.218  1.00  0.00     0.010 A 
ATOM     31  C   UNL     1       4.598   6.774   1.827  1.00  0.00    -0.014 A 
BRANCH  31  32
ATOM     32  C   UNL     1       5.908   6.297   2.213  1.00  0.00     0.031 A 
ATOM     33  C   UNL     1       6.237   6.469   3.636  1.00  0.00     0.074 A 
ATOM     34  C   UNL     1       6.685   5.627   1.337  1.00  0.00     0.049 A 
ATOM     35  N   UNL     1       7.396   6.296   4.154  1.00  0.00    -0.248 NA
ATOM     36  C   UNL     1       5.241   6.936   4.600  1.00  0.00     0.031 C 
ATOM     37  C   UNL     1       7.858   4.810   1.632  1.00  0.00     0.029 A 
ATOM     38  N   UNL     1       6.681   5.734  -0.061  1.00  0.00    -0.354 N 
ATOM     39  C   UNL     1       7.255   6.362   5.524  1.00  0.00     0.074 A 
ATOM     40  C   UNL     1       5.921   6.849   5.741  1.00  0.00     0.031 C 
ATOM     41  C   UNL     1       8.619   4.731   0.527  1.00  0.00     0.029 A 
ATOM     42  C   UNL     1       8.035   5.629  -0.456  1.00  0.00     0.049 A 
ATOM     43  H   UNL     1       5.899   5.856  -0.647  1.00  0.00     0.167 HD
ATOM     44  C   UNL     1       8.265   5.863   6.289  1.00  0.00     0.037 A 
ATOM     45  C   UNL     1       8.683   6.704  -0.996  1.00  0.00     0.037 A 
ATOM     46  C   UNL     1       9.444   5.651   5.443  1.00  0.00     0.049 A 
ATOM     47  C   UNL     1       9.826   7.192  -0.131  1.00  0.00     0.074 A 
ATOM     48  C   UNL     1       9.943   4.540   4.782  1.00  0.00     0.029 A 
ATOM     49  N   UNL     1      10.042   6.761   4.850  1.00  0.00    -0.354 N 
ATOM     50  N   UNL     1       9.924   6.961   1.152  1.00  0.00    -0.248 NA
ATOM     51  C   UNL     1      10.973   7.931  -0.651  1.00  0.00     0.031 C 
ATOM     52  C   UNL     1      10.749   5.003   3.704  1.00  0.00     0.029 A 
ATOM     53  C   UNL     1      10.775   6.388   3.738  1.00  0.00     0.049 A 
ATOM     54  H   UNL     1       9.954   7.686   5.177  1.00  0.00     0.167 HD
ATOM     55  C   UNL     1      11.099   7.485   1.629  1.00  0.00     0.074 A 
ATOM     56  C   UNL     1      11.723   8.072   0.456  1.00  0.00     0.031 C 
ATOM     57  C   UNL     1      11.473   7.392   2.942  1.00  0.00     0.037 A 
BRANCH  44  58
ATOM     58  C   UNL     1       8.101   5.326   7.701  1.00  0.00     0.058 A 
ATOM     59  C   UNL     1       9.057   4.426   8.223  1.00  0.00     0.135 A 
ATOM     60  C   UNL     1       7.004   5.556   8.560  1.00  0.00     0.135 A 
ATOM     61  F   UNL     1      10.176   4.128   7.548  1.00  0.00    -0.206 F 
ATOM     62  C   UNL     1       8.905   3.773   9.452  1.00  0.00     0.059 A 
ATOM     63  C   UNL     1       6.816   4.897   9.776  1.00  0.00     0.059 A 
ATOM     64  F   UNL     1       6.057   6.456   8.295  1.00  0.00    -0.206 F 
ATOM     65  C   UNL     1       7.770   4.001  10.216  1.00  0.00     0.060 A 
BRANCH  65  66
ATOM     66  S   UNL     1       7.569   3.147  11.788  1.00  0.00     0.124 S 
ATOM     67  O   UNL     1       7.578   1.747  11.378  1.00  0.00    -0.237 OA
ATOM     68  O   UNL     1       8.738   3.602  12.532  1.00  0.00    -0.237 OA
ATOM     69  O   UNL     1       6.286   3.640  12.283  1.00  0.00    -0.744 OA
ENDBRANCH  65  66
ENDBRANCH  44  58
BRANCH  45  70
ATOM     70  C   UNL     1       7.794   7.529  -1.868  1.00  0.00     0.058 A 
ATOM     71  C   UNL     1       7.298   6.922  -3.042  1.00  0.00     0.135 A 
ATOM     72  C   UNL     1       7.085   8.632  -1.371  1.00  0.00     0.135 A 
ATOM     73  F   UNL     1       7.942   5.870  -3.575  1.00  0.00    -0.206 F 
ATOM     74  C   UNL     1       6.069   7.272  -3.593  1.00  0.00     0.059 A 
ATOM     75  C   UNL     1       5.851   9.008  -1.917  1.00  0.00     0.059 A 
ATOM     76  F   UNL     1       7.507   9.264  -0.267  1.00  0.00    -0.206 F 
ATOM     77  C   UNL     1       5.323   8.277  -2.983  1.00  0.00     0.060 A 
BRANCH  77  78
ATOM     78  S   UNL     1       3.591   8.463  -3.482  1.00  0.00     0.124 S 
ATOM     79  O   UNL     1       3.720   9.029  -4.818  1.00  0.00    -0.237 OA
ATOM     80  O   UNL     1       3.108   7.082  -3.431  1.00  0.00    -0.237 OA
ATOM     81  O   UNL     1       3.043   9.349  -2.463  1.00  0.00    -0.744 OA
ENDBRANCH  77  78
ENDBRANCH  45  70
BRANCH  57  82
ATOM     82  C   UNL     1      12.589   8.178   3.601  1.00  0.00     0.058 A 
ATOM     83  C   UNL     1      13.036   9.434   3.158  1.00  0.00     0.135 A 
ATOM     84  C   UNL     1      13.139   7.741   4.834  1.00  0.00     0.135 A 
ATOM     85  F   UNL     1      12.514  10.022   2.072  1.00  0.00    -0.206 F 
ATOM     86  C   UNL     1      14.007  10.168   3.842  1.00  0.00     0.059 A 
ATOM     87  C   UNL     1      14.053   8.491   5.569  1.00  0.00     0.059 A 
ATOM     88  F   UNL     1      12.791   6.568   5.384  1.00  0.00    -0.206 F 
ATOM     89  C   UNL     1      14.507   9.690   5.048  1.00  0.00     0.060 A 
BRANCH  89  90
ATOM     90  S   UNL     1      15.715  10.663   5.962  1.00  0.00     0.124 S 
ATOM     91  O   UNL     1      16.965  10.200   5.370  1.00  0.00    -0.237 OA
ATOM     92  O   UNL     1      15.334  12.035   5.639  1.00  0.00    -0.237 OA
ATOM     93  O   UNL     1      15.485  10.267   7.348  1.00  0.00    -0.744 OA
ENDBRANCH  89  90
ENDBRANCH  57  82
ENDBRANCH  31  32
ENDBRANCH  23  26
ENDBRANCH  21  22
ENDBRANCH  20  21
ENDBRANCH   1  20
TORSDOF 17
