REMARK SMILES Cc1ccc(C)n1-c1ccccc1S[C@H](C)C(=O)NCCCNC(=O)c1ccc(-c2c3nc(c(-c4c(F)cc(S(=O)(=O)[O-])cc4F)c4ccc([nH]4)c(-c4c(F)cc(S(=O)(=O)[O-])cc4F)c4nc(c(-c5c(F)cc(S(=O)(=O)[O-])cc5F)c5ccc2[nH]5)C=C4)C=C3)cc1
REMARK SMILES IDX 21 1 20 2 19 3 17 4 18 5 15 7 16 8 14 9 13 10 8 11 9 12
REMARK SMILES IDX 10 13 12 14 11 15 7 16 1 17 2 18 3 19 4 20 5 21 6 22 22 23
REMARK SMILES IDX 23 24 24 25 25 27 26 28 27 29 91 30 28 31 90 32 29 33 30 34
REMARK SMILES IDX 31 35 84 36 32 37 89 38 83 39 85 40 33 41 88 42 82 43 81 44
REMARK SMILES IDX 34 46 68 47 47 48 67 49 48 50 51 51 66 52 86 53 49 54 50 55
REMARK SMILES IDX 65 57 87 58 52 59 35 60 36 61 45 62 37 63 38 64 44 65 46 66
REMARK SMILES IDX 39 67 40 68 41 69 42 70 43 71 69 72 70 73 79 74 71 75 72 76
REMARK SMILES IDX 78 77 80 78 73 79 74 80 75 81 76 82 77 83 53 84 54 85 63 86
REMARK SMILES IDX 55 87 56 88 62 89 64 90 57 91 58 92 59 93 60 94 61 95
REMARK H PARENT 19 6 23 26 85 45 51 56
REMARK Flexibility Score: inf
ROOT
ATOM      1  C   UNL     1      -1.288   2.447   3.638  1.00  0.00     0.042 C 
ENDROOT
BRANCH   1   2
ATOM      2  C   UNL     1      -0.558   1.104   3.552  1.00  0.00     0.117 C 
BRANCH   2   3
ATOM      3  N   UNL     1      -1.407  -0.004   3.158  1.00  0.00    -0.355 N 
ATOM      4  C   UNL     1      -1.672  -0.623   1.982  1.00  0.00     0.233 C 
ATOM      5  O   UNL     1      -2.396  -1.627   2.067  1.00  0.00    -0.274 OA
ATOM      6  H   UNL     1      -1.902  -0.393   3.914  1.00  0.00     0.163 HD
BRANCH   4   7
ATOM      7  C   UNL     1      -1.240  -0.143   0.595  1.00  0.00     0.137 C 
ATOM      8  C   UNL     1      -2.029   1.030   0.046  1.00  0.00     0.030 C 
BRANCH   7   9
ATOM      9  S   UNL     1       0.545  -0.349   0.225  1.00  0.00    -0.111 SA
BRANCH   9  10
ATOM     10  C   UNL     1       1.481   1.153   0.519  1.00  0.00     0.032 A 
ATOM     11  C   UNL     1       2.880   1.085   0.739  1.00  0.00     0.059 A 
ATOM     12  C   UNL     1       3.601   2.216   1.173  1.00  0.00     0.028 A 
ATOM     13  C   UNL     1       2.957   3.434   1.351  1.00  0.00     0.002 A 
ATOM     14  C   UNL     1       0.890   2.419   0.612  1.00  0.00     0.017 A 
ATOM     15  C   UNL     1       1.608   3.542   1.043  1.00  0.00     0.001 A 
BRANCH  11  16
ATOM     16  N   UNL     1       3.635  -0.106   0.512  1.00  0.00    -0.317 N 
ATOM     17  C   UNL     1       3.122  -0.393  -1.990  1.00  0.00     0.065 C 
ATOM     18  C   UNL     1       3.750  -0.795  -0.698  1.00  0.00     0.020 A 
ATOM     19  C   UNL     1       4.589  -1.876  -0.499  1.00  0.00     0.023 A 
ATOM     20  C   UNL     1       5.067  -1.814   0.820  1.00  0.00     0.023 A 
ATOM     21  C   UNL     1       4.497  -0.711   1.427  1.00  0.00     0.020 A 
ATOM     22  C   UNL     1       4.686  -0.275   2.841  1.00  0.00     0.065 C 
ENDBRANCH  11  16
ENDBRANCH   9  10
ENDBRANCH   7   9
ENDBRANCH   4   7
ENDBRANCH   2   3
ENDBRANCH   1   2
BRANCH   1  23
ATOM     23  C   UNL     1      -2.465   2.489   4.634  1.00  0.00     0.118 C 
BRANCH  23  24
ATOM     24  N   UNL     1      -2.132   3.139   5.882  1.00  0.00    -0.352 N 
ATOM     25  C   UNL     1      -2.942   3.888   6.713  1.00  0.00     0.251 C 
ATOM     26  H   UNL     1      -1.200   3.034   6.180  1.00  0.00     0.163 HD
ATOM     27  O   UNL     1      -2.397   4.475   7.647  1.00  0.00    -0.269 OA
BRANCH  25  28
ATOM     28  C   UNL     1      -4.401   4.126   6.422  1.00  0.00     0.039 A 
ATOM     29  C   UNL     1      -4.753   5.395   5.992  1.00  0.00     0.014 A 
ATOM     30  C   UNL     1      -5.456   3.251   6.737  1.00  0.00     0.014 A 
ATOM     31  C   UNL     1      -6.119   5.758   5.842  1.00  0.00     0.010 A 
ATOM     32  C   UNL     1      -6.854   3.666   6.682  1.00  0.00     0.010 A 
ATOM     33  C   UNL     1      -7.241   4.952   6.253  1.00  0.00    -0.014 A 
BRANCH  33  34
ATOM     34  C   UNL     1      -8.553   5.777   6.690  1.00  0.00     0.031 A 
ATOM     35  C   UNL     1      -7.970   6.873   7.523  1.00  0.00     0.074 A 
ATOM     36  C   UNL     1      -9.946   5.780   6.646  1.00  0.00     0.049 A 
ATOM     37  N   UNL     1      -7.196   6.580   8.531  1.00  0.00    -0.248 NA
ATOM     38  C   UNL     1      -7.846   8.250   7.037  1.00  0.00     0.031 C 
ATOM     39  C   UNL     1     -10.849   4.753   6.104  1.00  0.00     0.029 A 
ATOM     40  N   UNL     1     -10.916   6.738   7.086  1.00  0.00    -0.354 N 
ATOM     41  C   UNL     1      -6.714   7.772   9.002  1.00  0.00     0.074 A 
ATOM     42  C   UNL     1      -6.944   8.711   7.911  1.00  0.00     0.031 C 
ATOM     43  C   UNL     1     -12.153   5.166   6.109  1.00  0.00     0.029 A 
ATOM     44  C   UNL     1     -12.291   6.494   6.710  1.00  0.00     0.049 A 
ATOM     45  H   UNL     1     -10.659   7.526   7.618  1.00  0.00     0.167 HD
ATOM     46  C   UNL     1      -6.854   7.984  10.341  1.00  0.00     0.037 A 
ATOM     47  C   UNL     1     -13.447   7.250   6.923  1.00  0.00     0.037 A 
ATOM     48  C   UNL     1      -7.942   8.882  10.623  1.00  0.00     0.049 A 
ATOM     49  C   UNL     1     -13.146   8.104   8.080  1.00  0.00     0.074 A 
ATOM     50  C   UNL     1      -8.335  10.085  10.070  1.00  0.00     0.029 A 
ATOM     51  N   UNL     1      -9.061   8.334  11.214  1.00  0.00    -0.354 N 
ATOM     52  N   UNL     1     -13.152   7.642   9.291  1.00  0.00    -0.248 NA
ATOM     53  C   UNL     1     -12.923   9.540   7.949  1.00  0.00     0.031 C 
ATOM     54  C   UNL     1      -9.726   9.940   9.867  1.00  0.00     0.029 A 
ATOM     55  C   UNL     1     -10.187   8.872  10.626  1.00  0.00     0.049 A 
ATOM     56  H   UNL     1      -9.057   7.667  11.938  1.00  0.00     0.167 HD
ATOM     57  C   UNL     1     -12.465   8.584   9.985  1.00  0.00     0.074 A 
ATOM     58  C   UNL     1     -12.599   9.806   9.215  1.00  0.00     0.031 C 
ATOM     59  C   UNL     1     -11.431   8.148  10.743  1.00  0.00     0.037 A 
BRANCH  46  60
ATOM     60  C   UNL     1      -6.483   6.792  11.182  1.00  0.00     0.058 A 
ATOM     61  C   UNL     1      -5.260   6.800  11.860  1.00  0.00     0.135 A 
ATOM     62  C   UNL     1      -7.224   5.590  11.195  1.00  0.00     0.135 A 
ATOM     63  F   UNL     1      -4.528   7.925  11.915  1.00  0.00    -0.206 F 
ATOM     64  C   UNL     1      -4.761   5.652  12.471  1.00  0.00     0.059 A 
ATOM     65  C   UNL     1      -6.724   4.419  11.755  1.00  0.00     0.059 A 
ATOM     66  F   UNL     1      -8.445   5.541  10.636  1.00  0.00    -0.206 F 
ATOM     67  C   UNL     1      -5.482   4.460  12.385  1.00  0.00     0.060 A 
BRANCH  67  68
ATOM     68  S   UNL     1      -4.751   2.948  13.050  1.00  0.00     0.124 S 
ATOM     69  O   UNL     1      -3.360   3.044  12.590  1.00  0.00    -0.237 OA
ATOM     70  O   UNL     1      -4.931   3.145  14.493  1.00  0.00    -0.237 OA
ATOM     71  O   UNL     1      -5.522   1.886  12.447  1.00  0.00    -0.744 OA
ENDBRANCH  67  68
ENDBRANCH  46  60
BRANCH  47  72
ATOM     72  C   UNL     1     -14.952   7.449   6.537  1.00  0.00     0.058 A 
ATOM     73  C   UNL     1     -15.865   8.099   7.445  1.00  0.00     0.135 A 
ATOM     74  C   UNL     1     -15.428   7.421   5.218  1.00  0.00     0.135 A 
ATOM     75  F   UNL     1     -15.617   8.161   8.761  1.00  0.00    -0.206 F 
ATOM     76  C   UNL     1     -17.024   8.796   7.061  1.00  0.00     0.059 A 
ATOM     77  C   UNL     1     -16.623   8.086   4.812  1.00  0.00     0.059 A 
ATOM     78  F   UNL     1     -14.705   6.822   4.262  1.00  0.00    -0.206 F 
ATOM     79  C   UNL     1     -17.379   8.825   5.727  1.00  0.00     0.060 A 
BRANCH  79  80
ATOM     80  S   UNL     1     -18.721   9.948   5.215  1.00  0.00     0.124 S 
ATOM     81  O   UNL     1     -19.891   9.372   5.870  1.00  0.00    -0.237 OA
ATOM     82  O   UNL     1     -18.271  11.232   5.748  1.00  0.00    -0.237 OA
ATOM     83  O   UNL     1     -18.707   9.850   3.759  1.00  0.00    -0.744 OA
ENDBRANCH  79  80
ENDBRANCH  47  72
BRANCH  59  84
ATOM     84  C   UNL     1     -11.633   6.855  11.523  1.00  0.00     0.058 A 
ATOM     85  C   UNL     1     -12.127   5.623  11.028  1.00  0.00     0.135 A 
ATOM     86  C   UNL     1     -11.373   6.898  12.902  1.00  0.00     0.135 A 
ATOM     87  F   UNL     1     -12.298   5.399   9.717  1.00  0.00    -0.206 F 
ATOM     88  C   UNL     1     -12.446   4.554  11.871  1.00  0.00     0.059 A 
ATOM     89  C   UNL     1     -11.625   5.823  13.752  1.00  0.00     0.059 A 
ATOM     90  F   UNL     1     -10.862   8.012  13.451  1.00  0.00    -0.206 F 
ATOM     91  C   UNL     1     -12.207   4.670  13.236  1.00  0.00     0.060 A 
BRANCH  91  92
ATOM     92  S   UNL     1     -12.651   3.305  14.332  1.00  0.00     0.124 S 
ATOM     93  O   UNL     1     -14.103   3.441  14.407  1.00  0.00    -0.237 OA
ATOM     94  O   UNL     1     -12.165   2.136  13.608  1.00  0.00    -0.237 OA
ATOM     95  O   UNL     1     -11.938   3.620  15.568  1.00  0.00    -0.744 OA
ENDBRANCH  91  92
ENDBRANCH  59  84
ENDBRANCH  33  34
ENDBRANCH  25  28
ENDBRANCH  23  24
ENDBRANCH   1  23
TORSDOF 16
