REMARK SMILES C[C@H](NC(=O)N(CC(=O)NCCCNC(=O)c1ccc(-c2c3nc(c(-c4c(F)cc(S(=O)(=O)[O-])cc4F)c4ccc([nH]4)c(-c4c(F)cc(S(=O)(=O)[O-])cc4F)c4nc(c(-c5c(F)cc(S(=O)(=O)[O-])cc5F)c5ccc2[nH]5)C=C4)C=C3)cc1)C(C)(C)C)c1nncn1C
REMARK SMILES IDX 11 1 10 2 8 3 9 4 7 6 6 7 4 8 3 9 5 11 2 12 1 13 87 14 88 15
REMARK SMILES IDX 91 16 89 17 90 18 92 19 83 20 84 21 85 22 86 23 12 24 13 25
REMARK SMILES IDX 14 26 15 27 16 29 17 30 18 31 82 32 19 33 81 34 20 35 21 36
REMARK SMILES IDX 22 37 75 38 23 39 80 40 74 41 76 42 24 43 79 44 73 45 72 46
REMARK SMILES IDX 25 48 59 49 38 50 58 51 39 52 42 53 57 54 77 55 40 56 41 57
REMARK SMILES IDX 56 59 78 60 43 61 26 62 27 63 36 64 28 65 29 66 35 67 37 68
REMARK SMILES IDX 30 69 31 70 32 71 33 72 34 73 60 74 61 75 70 76 62 77 63 78
REMARK SMILES IDX 69 79 71 80 64 81 65 82 66 83 67 84 68 85 44 86 45 87 54 88
REMARK SMILES IDX 46 89 47 90 53 91 55 92 48 93 49 94 50 95 51 96 52 97
REMARK H PARENT 10 5 3 10 14 28 76 47 42 58
REMARK Flexibility Score: inf
ROOT
ATOM      1  C   UNL     1       2.705  -0.834  -3.054  1.00  0.00     0.117 C 
ENDROOT
BRANCH   1   2
ATOM      2  N   UNL     1       3.581  -1.986  -3.024  1.00  0.00    -0.354 N 
ATOM      3  C   UNL     1       3.867  -2.847  -2.010  1.00  0.00     0.239 C 
ATOM      4  O   UNL     1       4.575  -3.823  -2.273  1.00  0.00    -0.273 OA
ATOM      5  H   UNL     1       4.043  -2.177  -3.872  1.00  0.00     0.163 HD
BRANCH   3   6
ATOM      6  C   UNL     1       3.184  -2.716  -0.645  1.00  0.00     0.221 C 
BRANCH   6   7
ATOM      7  N   UNL     1       3.395  -1.494   0.147  1.00  0.00    -0.311 N 
BRANCH   7   8
ATOM      8  C   UNL     1       2.453  -0.513   0.359  1.00  0.00     0.318 C 
ATOM      9  N   UNL     1       1.120  -0.675   0.222  1.00  0.00    -0.328 N 
ATOM     10  H   UNL     1       0.641   0.171   0.379  1.00  0.00     0.166 HD
ATOM     11  O   UNL     1       2.749   0.620   0.750  1.00  0.00    -0.249 OA
BRANCH   9  12
ATOM     12  C   UNL     1       0.191  -1.756  -0.093  1.00  0.00     0.149 C 
ATOM     13  C   UNL     1       0.287  -2.870   0.962  1.00  0.00     0.040 C 
BRANCH  12  14
ATOM     14  C   UNL     1      -1.254  -1.338  -0.281  1.00  0.00     0.154 A 
ATOM     15  N   UNL     1      -2.229  -2.232  -0.389  1.00  0.00    -0.133 NA
ATOM     16  N   UNL     1      -1.815  -0.098  -0.488  1.00  0.00    -0.319 N 
ATOM     17  N   UNL     1      -3.414  -1.590  -0.605  1.00  0.00    -0.139 NA
ATOM     18  C   UNL     1      -3.155  -0.309  -0.659  1.00  0.00     0.225 A 
ATOM     19  C   UNL     1      -1.208   1.204  -0.566  1.00  0.00     0.152 C 
ENDBRANCH  12  14
ENDBRANCH   9  12
ENDBRANCH   7   8
BRANCH   7  20
ATOM     20  C   UNL     1       4.794  -1.284   0.727  1.00  0.00     0.037 C 
ATOM     21  C   UNL     1       5.562  -0.173  -0.016  1.00  0.00     0.034 C 
ATOM     22  C   UNL     1       4.717  -0.933   2.235  1.00  0.00     0.034 C 
ATOM     23  C   UNL     1       5.699  -2.546   0.663  1.00  0.00     0.034 C 
ENDBRANCH   7  20
ENDBRANCH   6   7
ENDBRANCH   3   6
ENDBRANCH   1   2
BRANCH   1  24
ATOM     24  C   UNL     1       3.474   0.477  -3.092  1.00  0.00     0.042 C 
BRANCH  24  25
ATOM     25  C   UNL     1       4.404   0.589  -4.292  1.00  0.00     0.118 C 
BRANCH  25  26
ATOM     26  N   UNL     1       3.665   0.615  -5.546  1.00  0.00    -0.352 N 
ATOM     27  C   UNL     1       3.699   1.554  -6.546  1.00  0.00     0.251 C 
ATOM     28  H   UNL     1       3.059  -0.145  -5.698  1.00  0.00     0.163 HD
ATOM     29  O   UNL     1       2.831   1.554  -7.412  1.00  0.00    -0.269 OA
BRANCH  27  30
ATOM     30  C   UNL     1       4.775   2.567  -6.558  1.00  0.00     0.039 A 
ATOM     31  C   UNL     1       4.455   3.892  -6.855  1.00  0.00     0.014 A 
ATOM     32  C   UNL     1       6.096   2.204  -6.280  1.00  0.00     0.014 A 
ATOM     33  C   UNL     1       5.457   4.863  -6.826  1.00  0.00     0.010 A 
ATOM     34  C   UNL     1       7.074   3.185  -6.168  1.00  0.00     0.010 A 
ATOM     35  C   UNL     1       6.769   4.522  -6.455  1.00  0.00    -0.014 A 
BRANCH  35  36
ATOM     36  C   UNL     1       7.835   5.552  -6.381  1.00  0.00     0.031 A 
ATOM     37  C   UNL     1       9.029   5.468  -7.294  1.00  0.00     0.074 A 
ATOM     38  C   UNL     1       7.748   6.533  -5.461  1.00  0.00     0.049 A 
ATOM     39  N   UNL     1      10.076   6.249  -7.356  1.00  0.00    -0.248 NA
ATOM     40  C   UNL     1       9.066   4.342  -8.242  1.00  0.00     0.031 C 
ATOM     41  C   UNL     1       6.666   6.684  -4.485  1.00  0.00     0.029 A 
ATOM     42  N   UNL     1       8.585   7.586  -5.192  1.00  0.00    -0.354 N 
ATOM     43  C   UNL     1      10.897   5.705  -8.337  1.00  0.00     0.074 A 
ATOM     44  C   UNL     1      10.258   4.494  -8.801  1.00  0.00     0.031 C 
ATOM     45  C   UNL     1       6.890   7.782  -3.745  1.00  0.00     0.029 A 
ATOM     46  C   UNL     1       8.148   8.391  -4.166  1.00  0.00     0.049 A 
ATOM     47  H   UNL     1       9.420   7.750  -5.686  1.00  0.00     0.167 HD
ATOM     48  C   UNL     1      12.064   6.186  -8.827  1.00  0.00     0.037 A 
ATOM     49  C   UNL     1       8.702   9.492  -3.622  1.00  0.00     0.037 A 
ATOM     50  C   UNL     1      12.679   7.407  -8.376  1.00  0.00     0.049 A 
ATOM     51  C   UNL     1       9.999  10.009  -4.185  1.00  0.00     0.074 A 
ATOM     52  C   UNL     1      13.828   8.016  -8.848  1.00  0.00     0.029 A 
ATOM     53  N   UNL     1      12.198   8.204  -7.348  1.00  0.00    -0.354 N 
ATOM     54  N   UNL     1      10.725   9.522  -5.164  1.00  0.00    -0.248 NA
ATOM     55  C   UNL     1      10.549  11.227  -3.576  1.00  0.00     0.031 C 
ATOM     56  C   UNL     1      14.070   9.154  -8.072  1.00  0.00     0.029 A 
ATOM     57  C   UNL     1      13.040   9.287  -7.154  1.00  0.00     0.049 A 
ATOM     58  H   UNL     1      11.378   8.027  -6.832  1.00  0.00     0.167 HD
ATOM     59  C   UNL     1      11.802  10.390  -5.307  1.00  0.00     0.074 A 
ATOM     60  C   UNL     1      11.624  11.439  -4.324  1.00  0.00     0.031 C 
ATOM     61  C   UNL     1      12.843  10.326  -6.174  1.00  0.00     0.037 A 
BRANCH  48  62
ATOM     62  C   UNL     1      12.748   5.397  -9.911  1.00  0.00     0.058 A 
ATOM     63  C   UNL     1      12.209   5.299 -11.205  1.00  0.00     0.135 A 
ATOM     64  C   UNL     1      13.977   4.764  -9.666  1.00  0.00     0.135 A 
ATOM     65  F   UNL     1      11.029   5.871 -11.492  1.00  0.00    -0.206 F 
ATOM     66  C   UNL     1      12.850   4.579 -12.208  1.00  0.00     0.059 A 
ATOM     67  C   UNL     1      14.650   4.064 -10.663  1.00  0.00     0.059 A 
ATOM     68  F   UNL     1      14.537   4.823  -8.448  1.00  0.00    -0.206 F 
ATOM     69  C   UNL     1      14.072   3.966 -11.928  1.00  0.00     0.060 A 
BRANCH  69  70
ATOM     70  S   UNL     1      14.894   3.046 -13.245  1.00  0.00     0.124 S 
ATOM     71  O   UNL     1      14.038   1.870 -13.357  1.00  0.00    -0.237 OA
ATOM     72  O   UNL     1      14.833   3.983 -14.363  1.00  0.00    -0.237 OA
ATOM     73  O   UNL     1      16.229   2.801 -12.708  1.00  0.00    -0.744 OA
ENDBRANCH  69  70
ENDBRANCH  48  62
BRANCH  49  74
ATOM     74  C   UNL     1       8.021  10.192  -2.500  1.00  0.00     0.058 A 
ATOM     75  C   UNL     1       7.447  11.460  -2.679  1.00  0.00     0.135 A 
ATOM     76  C   UNL     1       7.920   9.604  -1.229  1.00  0.00     0.135 A 
ATOM     77  F   UNL     1       7.520  12.066  -3.873  1.00  0.00    -0.206 F 
ATOM     78  C   UNL     1       6.817  12.129  -1.635  1.00  0.00     0.059 A 
ATOM     79  C   UNL     1       7.270  10.241  -0.177  1.00  0.00     0.059 A 
ATOM     80  F   UNL     1       8.436   8.384  -1.009  1.00  0.00    -0.206 F 
ATOM     81  C   UNL     1       6.731  11.510  -0.387  1.00  0.00     0.060 A 
BRANCH  81  82
ATOM     82  S   UNL     1       5.872  12.369   0.949  1.00  0.00     0.124 S 
ATOM     83  O   UNL     1       6.821  13.427   1.275  1.00  0.00    -0.237 OA
ATOM     84  O   UNL     1       4.639  12.795   0.295  1.00  0.00    -0.237 OA
ATOM     85  O   UNL     1       5.708  11.333   1.964  1.00  0.00    -0.744 OA
ENDBRANCH  81  82
ENDBRANCH  49  74
BRANCH  61  86
ATOM     86  C   UNL     1      13.855  11.437  -6.124  1.00  0.00     0.058 A 
ATOM     87  C   UNL     1      14.765  11.563  -5.063  1.00  0.00     0.135 A 
ATOM     88  C   UNL     1      13.951  12.357  -7.182  1.00  0.00     0.135 A 
ATOM     89  F   UNL     1      14.713  10.714  -4.024  1.00  0.00    -0.206 F 
ATOM     90  C   UNL     1      15.718  12.576  -5.039  1.00  0.00     0.059 A 
ATOM     91  C   UNL     1      14.916  13.358  -7.194  1.00  0.00     0.059 A 
ATOM     92  F   UNL     1      13.112  12.275  -8.227  1.00  0.00    -0.206 F 
ATOM     93  C   UNL     1      15.787  13.467  -6.112  1.00  0.00     0.060 A 
BRANCH  93  94
ATOM     94  S   UNL     1      17.051  14.755  -6.084  1.00  0.00     0.124 S 
ATOM     95  O   UNL     1      16.523  15.663  -5.071  1.00  0.00    -0.237 OA
ATOM     96  O   UNL     1      18.248  14.010  -5.706  1.00  0.00    -0.237 OA
ATOM     97  O   UNL     1      17.044  15.268  -7.451  1.00  0.00    -0.744 OA
ENDBRANCH  93  94
ENDBRANCH  61  86
ENDBRANCH  35  36
ENDBRANCH  27  30
ENDBRANCH  25  26
ENDBRANCH  24  25
ENDBRANCH   1  24
TORSDOF 18
