REMARK SMILES O=C(NCCCNC(=O)c1cc(/C=C/c2cccc3ccccc23)ncn1)c1ccc(-c2c3nc(c(-c4c(F)cc(S(=O)(=O)[O-])cc4F)c4ccc([nH]4)c(-c4c(F)cc(S(=O)(=O)[O-])cc4F)c4nc(c(-c5c(F)cc(S(=O)(=O)[O-])cc5F)c5ccc2[nH]5)C=C4)C=C3)cc1
REMARK SMILES IDX 4 1 3 2 1 3 2 4 28 6 29 7 93 8 30 9 92 10 31 11 32 12 33 13
REMARK SMILES IDX 86 14 34 15 91 16 85 17 87 18 35 19 90 20 84 21 83 22 36 24
REMARK SMILES IDX 70 25 49 26 69 27 50 28 53 29 68 30 88 31 51 32 52 33 67 35
REMARK SMILES IDX 89 36 54 37 37 38 38 39 47 40 39 41 40 42 46 43 48 44 41 45
REMARK SMILES IDX 42 46 43 47 44 48 45 49 71 50 72 51 81 52 73 53 74 54 80 55
REMARK SMILES IDX 82 56 75 57 76 58 77 59 78 60 79 61 55 62 56 63 65 64 57 65
REMARK SMILES IDX 58 66 64 67 66 68 59 69 60 70 61 71 62 72 63 73 5 74 6 75
REMARK SMILES IDX 7 76 8 77 9 79 10 80 11 81 27 82 12 83 26 84 25 85 13 86
REMARK SMILES IDX 14 87 15 88 16 89 24 90 17 91 19 92 23 93 18 94 20 95 22 96
REMARK SMILES IDX 21 97
REMARK H PARENT 3 5 87 23 53 34 7 78
REMARK Flexibility Score: inf
ROOT
ATOM      1  C   UNL     1       4.538   1.306  -0.188  1.00  0.00     0.118 C 
ENDROOT
BRANCH   1   2
ATOM      2  N   UNL     1       3.103   1.088  -0.051  1.00  0.00    -0.352 N 
ATOM      3  O   UNL     1       1.155  -0.033  -0.067  1.00  0.00    -0.269 OA
ATOM      4  C   UNL     1       2.381  -0.080   0.012  1.00  0.00     0.251 C 
ATOM      5  H   UNL     1       2.564   1.910   0.006  1.00  0.00     0.163 HD
BRANCH   4   6
ATOM      6  C   UNL     1       3.066  -1.383   0.153  1.00  0.00     0.039 A 
ATOM      7  C   UNL     1       4.168  -1.523   0.997  1.00  0.00     0.014 A 
ATOM      8  C   UNL     1       2.581  -2.494  -0.545  1.00  0.00     0.014 A 
ATOM      9  C   UNL     1       4.885  -2.713   1.012  1.00  0.00     0.010 A 
ATOM     10  C   UNL     1       3.240  -3.724  -0.443  1.00  0.00     0.010 A 
ATOM     11  C   UNL     1       4.417  -3.836   0.312  1.00  0.00    -0.014 A 
BRANCH  11  12
ATOM     12  C   UNL     1       5.138  -5.126   0.458  1.00  0.00     0.031 A 
ATOM     13  C   UNL     1       5.799  -5.791  -0.718  1.00  0.00     0.074 A 
ATOM     14  C   UNL     1       5.222  -5.677   1.685  1.00  0.00     0.049 A 
ATOM     15  N   UNL     1       6.487  -6.903  -0.751  1.00  0.00    -0.248 NA
ATOM     16  C   UNL     1       5.665  -5.131  -2.026  1.00  0.00     0.031 C 
ATOM     17  C   UNL     1       4.606  -5.128   2.897  1.00  0.00     0.029 A 
ATOM     18  N   UNL     1       5.870  -6.801   2.127  1.00  0.00    -0.354 N 
ATOM     19  C   UNL     1       6.854  -7.089  -2.079  1.00  0.00     0.074 A 
ATOM     20  C   UNL     1       6.290  -5.985  -2.827  1.00  0.00     0.031 C 
ATOM     21  C   UNL     1       4.948  -5.884   3.949  1.00  0.00     0.029 A 
ATOM     22  C   UNL     1       5.749  -7.008   3.480  1.00  0.00     0.049 A 
ATOM     23  H   UNL     1       6.374  -7.402   1.532  1.00  0.00     0.167 HD
ATOM     24  C   UNL     1       7.598  -8.085  -2.619  1.00  0.00     0.037 A 
ATOM     25  C   UNL     1       6.213  -8.002   4.260  1.00  0.00     0.037 A 
ATOM     26  C   UNL     1       8.167  -9.170  -1.861  1.00  0.00     0.049 A 
ATOM     27  C   UNL     1       7.021  -9.099   3.633  1.00  0.00     0.074 A 
ATOM     28  C   UNL     1       8.964 -10.210  -2.311  1.00  0.00     0.029 A 
ATOM     29  N   UNL     1       8.000  -9.361  -0.496  1.00  0.00    -0.354 N 
ATOM     30  N   UNL     1       7.380  -9.242   2.380  1.00  0.00    -0.248 NA
ATOM     31  C   UNL     1       7.484 -10.172   4.521  1.00  0.00     0.031 C 
ATOM     32  C   UNL     1       9.242 -11.050  -1.227  1.00  0.00     0.029 A 
ATOM     33  C   UNL     1       8.659 -10.511  -0.092  1.00  0.00     0.049 A 
ATOM     34  H   UNL     1       7.487  -8.766   0.098  1.00  0.00     0.167 HD
ATOM     35  C   UNL     1       8.121 -10.415   2.330  1.00  0.00     0.074 A 
ATOM     36  C   UNL     1       8.177 -10.931   3.683  1.00  0.00     0.031 C 
ATOM     37  C   UNL     1       8.701 -11.012   1.259  1.00  0.00     0.037 A 
BRANCH  24  38
ATOM     38  C   UNL     1       7.829  -8.061  -4.107  1.00  0.00     0.058 A 
ATOM     39  C   UNL     1       8.692  -7.132  -4.707  1.00  0.00     0.135 A 
ATOM     40  C   UNL     1       7.215  -9.014  -4.938  1.00  0.00     0.135 A 
ATOM     41  F   UNL     1       9.295  -6.190  -3.963  1.00  0.00    -0.206 F 
ATOM     42  C   UNL     1       8.922  -7.132  -6.080  1.00  0.00     0.059 A 
ATOM     43  C   UNL     1       7.449  -9.048  -6.310  1.00  0.00     0.059 A 
ATOM     44  F   UNL     1       6.381  -9.927  -4.417  1.00  0.00    -0.206 F 
ATOM     45  C   UNL     1       8.294  -8.094  -6.874  1.00  0.00     0.060 A 
BRANCH  45  46
ATOM     46  S   UNL     1       8.604  -8.083  -8.653  1.00  0.00     0.124 S 
ATOM     47  O   UNL     1       7.837  -6.915  -9.074  1.00  0.00    -0.237 OA
ATOM     48  O   UNL     1      10.056  -7.943  -8.717  1.00  0.00    -0.237 OA
ATOM     49  O   UNL     1       8.082  -9.371  -9.098  1.00  0.00    -0.744 OA
ENDBRANCH  45  46
ENDBRANCH  24  38
BRANCH  25  50
ATOM     50  C   UNL     1       5.908  -7.999   5.714  1.00  0.00     0.058 A 
ATOM     51  C   UNL     1       6.909  -7.756   6.665  1.00  0.00     0.135 A 
ATOM     52  C   UNL     1       4.598  -8.202   6.179  1.00  0.00     0.135 A 
ATOM     53  F   UNL     1       8.176  -7.559   6.269  1.00  0.00    -0.206 F 
ATOM     54  C   UNL     1       6.627  -7.725   8.026  1.00  0.00     0.059 A 
ATOM     55  C   UNL     1       4.286  -8.147   7.533  1.00  0.00     0.059 A 
ATOM     56  F   UNL     1       3.601  -8.418   5.307  1.00  0.00    -0.206 F 
ATOM     57  C   UNL     1       5.310  -7.918   8.450  1.00  0.00     0.060 A 
BRANCH  57  58
ATOM     58  S   UNL     1       4.942  -7.820  10.215  1.00  0.00     0.124 S 
ATOM     59  O   UNL     1       5.462  -9.095  10.693  1.00  0.00    -0.237 OA
ATOM     60  O   UNL     1       5.688  -6.633  10.620  1.00  0.00    -0.237 OA
ATOM     61  O   UNL     1       3.489  -7.678  10.246  1.00  0.00    -0.744 OA
ENDBRANCH  57  58
ENDBRANCH  25  50
BRANCH  37  62
ATOM     62  C   UNL     1       9.464 -12.281   1.516  1.00  0.00     0.058 A 
ATOM     63  C   UNL     1       8.807 -13.490   1.792  1.00  0.00     0.135 A 
ATOM     64  C   UNL     1      10.866 -12.293   1.452  1.00  0.00     0.135 A 
ATOM     65  F   UNL     1       7.468 -13.528   1.873  1.00  0.00    -0.206 F 
ATOM     66  C   UNL     1       9.516 -14.665   2.019  1.00  0.00     0.059 A 
ATOM     67  C   UNL     1      11.594 -13.461   1.651  1.00  0.00     0.059 A 
ATOM     68  F   UNL     1      11.541 -11.164   1.184  1.00  0.00    -0.206 F 
ATOM     69  C   UNL     1      10.910 -14.640   1.947  1.00  0.00     0.060 A 
BRANCH  69  70
ATOM     70  S   UNL     1      11.819 -16.176   2.217  1.00  0.00     0.124 S 
ATOM     71  O   UNL     1      11.723 -16.323   3.665  1.00  0.00    -0.237 OA
ATOM     72  O   UNL     1      11.052 -17.137   1.430  1.00  0.00    -0.237 OA
ATOM     73  O   UNL     1      13.152 -15.877   1.702  1.00  0.00    -0.744 OA
ENDBRANCH  69  70
ENDBRANCH  37  62
ENDBRANCH  11  12
ENDBRANCH   4   6
ENDBRANCH   1   2
BRANCH   1  74
ATOM     74  C   UNL     1       4.916   1.899  -1.535  1.00  0.00     0.042 C 
BRANCH  74  75
ATOM     75  C   UNL     1       4.356   3.291  -1.771  1.00  0.00     0.118 C 
BRANCH  75  76
ATOM     76  N   UNL     1       4.880   4.278  -0.833  1.00  0.00    -0.351 N 
ATOM     77  C   UNL     1       5.728   5.344  -1.052  1.00  0.00     0.270 C 
ATOM     78  H   UNL     1       4.583   4.165   0.099  1.00  0.00     0.163 HD
ATOM     79  O   UNL     1       6.148   5.991  -0.097  1.00  0.00    -0.268 OA
BRANCH  77  80
ATOM     80  C   UNL     1       6.094   5.720  -2.444  1.00  0.00     0.132 A 
ATOM     81  C   UNL     1       5.091   5.897  -3.369  1.00  0.00     0.062 A 
ATOM     82  N   UNL     1       7.409   5.810  -2.724  1.00  0.00    -0.231 NA
ATOM     83  C   UNL     1       5.507   6.044  -4.668  1.00  0.00     0.067 A 
ATOM     84  C   UNL     1       7.695   6.040  -4.008  1.00  0.00     0.223 A 
ATOM     85  N   UNL     1       6.806   6.142  -5.009  1.00  0.00    -0.237 NA
BRANCH  83  86
ATOM     86  C   UNL     1       4.505   5.966  -5.737  1.00  0.00     0.029 C 
ATOM     87  C   UNL     1       4.766   6.116  -7.044  1.00  0.00     0.011 C 
BRANCH  87  88
ATOM     88  C   UNL     1       3.735   5.921  -8.084  1.00  0.00    -0.018 A 
ATOM     89  C   UNL     1       2.472   6.512  -7.902  1.00  0.00     0.009 A 
ATOM     90  C   UNL     1       4.003   5.176  -9.269  1.00  0.00    -0.011 A 
ATOM     91  C   UNL     1       1.470   6.362  -8.854  1.00  0.00     0.001 A 
ATOM     92  C   UNL     1       2.976   5.051 -10.240  1.00  0.00    -0.018 A 
ATOM     93  C   UNL     1       5.235   4.530  -9.538  1.00  0.00     0.009 A 
ATOM     94  C   UNL     1       1.723   5.640 -10.015  1.00  0.00     0.009 A 
ATOM     95  C   UNL     1       3.210   4.333 -11.425  1.00  0.00     0.009 A 
ATOM     96  C   UNL     1       5.451   3.818 -10.720  1.00  0.00     0.001 A 
ATOM     97  C   UNL     1       4.440   3.725 -11.666  1.00  0.00     0.001 A 
ENDBRANCH  87  88
ENDBRANCH  83  86
ENDBRANCH  77  80
ENDBRANCH  75  76
ENDBRANCH  74  75
ENDBRANCH   1  74
TORSDOF 15
