REMARK SMILES CC(C)[C@@H](C)[N@@H+]1[C@@H](C(=O)NCCCNC(=O)c2ccc(-c3c4nc(c(-c5c(F)cc(S(=O)(=O)[O-])cc5F)c5ccc([nH]5)c(-c5c(F)cc(S(=O)(=O)[O-])cc5F)c5nc(c(-c6c(F)cc(S(=O)(=O)[O-])cc6F)c6ccc3[nH]6)C=C5)C=C4)cc2)C[C@H]2CCCC[C@H]21
REMARK SMILES IDX 12 1 11 2 10 3 8 4 9 5 7 7 6 8 89 9 83 11 84 12 88 13 85 14
REMARK SMILES IDX 87 15 86 16 4 17 5 18 2 19 1 20 3 21 13 22 14 23 15 24 16 26
REMARK SMILES IDX 17 27 18 28 82 29 19 30 81 31 20 32 21 33 22 34 75 35 23 36
REMARK SMILES IDX 80 37 74 38 76 39 24 40 79 41 73 42 72 43 25 45 59 46 38 47
REMARK SMILES IDX 58 48 39 49 42 50 57 51 77 52 40 53 41 54 56 56 78 57 43 58
REMARK SMILES IDX 26 59 27 60 36 61 28 62 29 63 35 64 37 65 30 66 31 67 32 68
REMARK SMILES IDX 33 69 34 70 60 71 61 72 70 73 62 74 63 75 69 76 71 77 64 78
REMARK SMILES IDX 65 79 66 80 67 81 68 82 44 83 45 84 54 85 46 86 47 87 53 88
REMARK SMILES IDX 55 89 48 90 49 91 50 92 51 93 52 94
REMARK H PARENT 10 6 6 10 14 25 76 44 42 55
REMARK Flexibility Score: inf
ROOT
ATOM      1  C   UNL     1      -6.332  -1.262  -3.865  1.00  0.00     0.042 C 
ENDROOT
BRANCH   1   2
ATOM      2  C   UNL     1      -5.759  -2.384  -3.025  1.00  0.00     0.118 C 
BRANCH   2   3
ATOM      3  N   UNL     1      -4.440  -2.807  -3.455  1.00  0.00    -0.351 N 
ATOM      4  C   UNL     1      -3.243  -2.772  -2.792  1.00  0.00     0.278 C 
ATOM      5  O   UNL     1      -2.265  -3.216  -3.400  1.00  0.00    -0.268 OA
ATOM      6  H   UNL     1      -4.400  -3.178  -4.366  1.00  0.00     0.163 HD
BRANCH   4   7
ATOM      7  C   UNL     1      -3.162  -2.111  -1.388  1.00  0.00     0.275 C 
ATOM      8  N   UNL     1      -1.808  -2.346  -0.782  1.00  0.00    -0.320 N 
ATOM      9  C   UNL     1      -2.036  -3.366   0.280  1.00  0.00     0.188 C 
ATOM     10  H   UNL     1      -1.157  -2.678  -1.494  1.00  0.00     0.349 HD
ATOM     11  C   UNL     1      -4.182  -2.646  -0.377  1.00  0.00     0.085 C 
ATOM     12  C   UNL     1      -3.389  -2.986   0.862  1.00  0.00     0.054 C 
ATOM     13  C   UNL     1      -2.025  -4.798  -0.304  1.00  0.00     0.065 C 
ATOM     14  C   UNL     1      -4.046  -4.055   1.730  1.00  0.00     0.010 C 
ATOM     15  C   UNL     1      -2.643  -5.832   0.638  1.00  0.00     0.006 C 
ATOM     16  C   UNL     1      -4.045  -5.436   1.085  1.00  0.00     0.001 C 
BRANCH   8  17
ATOM     17  C   UNL     1      -1.075  -1.126  -0.322  1.00  0.00     0.184 C 
ATOM     18  C   UNL     1      -1.422   0.143  -1.145  1.00  0.00     0.075 C 
BRANCH  17  19
ATOM     19  C   UNL     1       0.493  -1.315  -0.371  1.00  0.00     0.041 C 
ATOM     20  C   UNL     1       1.248  -0.068   0.135  1.00  0.00     0.013 C 
ATOM     21  C   UNL     1       1.026  -2.508   0.428  1.00  0.00     0.013 C 
ENDBRANCH  17  19
ENDBRANCH   8  17
ENDBRANCH   4   7
ENDBRANCH   2   3
ENDBRANCH   1   2
BRANCH   1  22
ATOM     22  C   UNL     1      -6.594  -1.656  -5.306  1.00  0.00     0.118 C 
BRANCH  22  23
ATOM     23  N   UNL     1      -7.529  -2.769  -5.422  1.00  0.00    -0.352 N 
ATOM     24  C   UNL     1      -8.813  -2.806  -5.912  1.00  0.00     0.251 C 
ATOM     25  H   UNL     1      -7.186  -3.632  -5.098  1.00  0.00     0.163 HD
ATOM     26  O   UNL     1      -9.504  -3.801  -5.720  1.00  0.00    -0.269 OA
BRANCH  24  27
ATOM     27  C   UNL     1      -9.362  -1.644  -6.643  1.00  0.00     0.039 A 
ATOM     28  C   UNL     1     -10.691  -1.270  -6.431  1.00  0.00     0.014 A 
ATOM     29  C   UNL     1      -8.568  -0.923  -7.536  1.00  0.00     0.014 A 
ATOM     30  C   UNL     1     -11.194  -0.127  -7.057  1.00  0.00     0.010 A 
ATOM     31  C   UNL     1      -9.031   0.275  -8.063  1.00  0.00     0.010 A 
ATOM     32  C   UNL     1     -10.354   0.680  -7.841  1.00  0.00    -0.014 A 
BRANCH  32  33
ATOM     33  C   UNL     1     -10.838   1.941  -8.458  1.00  0.00     0.031 A 
ATOM     34  C   UNL     1     -10.809   2.102  -9.956  1.00  0.00     0.074 A 
ATOM     35  C   UNL     1     -11.237   2.960  -7.671  1.00  0.00     0.049 A 
ATOM     36  N   UNL     1     -11.107   3.150 -10.679  1.00  0.00    -0.248 NA
ATOM     37  C   UNL     1     -10.355   0.942 -10.743  1.00  0.00     0.031 C 
ATOM     38  C   UNL     1     -11.257   2.943  -6.206  1.00  0.00     0.029 A 
ATOM     39  N   UNL     1     -11.691   4.214  -7.992  1.00  0.00    -0.354 N 
ATOM     40  C   UNL     1     -10.868   2.780 -11.998  1.00  0.00     0.074 A 
ATOM     41  C   UNL     1     -10.332   1.437 -11.970  1.00  0.00     0.031 C 
ATOM     42  C   UNL     1     -11.727   4.118  -5.758  1.00  0.00     0.029 A 
ATOM     43  C   UNL     1     -11.997   4.989  -6.896  1.00  0.00     0.049 A 
ATOM     44  H   UNL     1     -11.790   4.531  -8.919  1.00  0.00     0.167 HD
ATOM     45  C   UNL     1     -11.105   3.481 -13.131  1.00  0.00     0.037 A 
ATOM     46  C   UNL     1     -12.434   6.261  -6.819  1.00  0.00     0.037 A 
ATOM     47  C   UNL     1     -11.658   4.809 -13.150  1.00  0.00     0.049 A 
ATOM     48  C   UNL     1     -12.673   7.027  -8.094  1.00  0.00     0.074 A 
ATOM     49  C   UNL     1     -11.978   5.592 -14.245  1.00  0.00     0.029 A 
ATOM     50  N   UNL     1     -11.974   5.552 -12.021  1.00  0.00    -0.354 N 
ATOM     51  N   UNL     1     -12.501   6.638  -9.335  1.00  0.00    -0.248 NA
ATOM     52  C   UNL     1     -13.173   8.401  -7.958  1.00  0.00     0.031 C 
ATOM     53  C   UNL     1     -12.442   6.826 -13.778  1.00  0.00     0.029 A 
ATOM     54  C   UNL     1     -12.467   6.791 -12.393  1.00  0.00     0.049 A 
ATOM     55  H   UNL     1     -11.864   5.243 -11.093  1.00  0.00     0.167 HD
ATOM     56  C   UNL     1     -12.902   7.707 -10.128  1.00  0.00     0.074 A 
ATOM     57  C   UNL     1     -13.339   8.753  -9.226  1.00  0.00     0.031 C 
ATOM     58  C   UNL     1     -12.911   7.815 -11.480  1.00  0.00     0.037 A 
BRANCH  45  59
ATOM     59  C   UNL     1     -10.779   2.818 -14.443  1.00  0.00     0.058 A 
ATOM     60  C   UNL     1     -11.514   1.717 -14.914  1.00  0.00     0.135 A 
ATOM     61  C   UNL     1      -9.744   3.308 -15.257  1.00  0.00     0.135 A 
ATOM     62  F   UNL     1     -12.503   1.196 -14.171  1.00  0.00    -0.206 F 
ATOM     63  C   UNL     1     -11.215   1.107 -16.127  1.00  0.00     0.059 A 
ATOM     64  C   UNL     1      -9.449   2.732 -16.490  1.00  0.00     0.059 A 
ATOM     65  F   UNL     1      -9.008   4.356 -14.857  1.00  0.00    -0.206 F 
ATOM     66  C   UNL     1     -10.181   1.623 -16.910  1.00  0.00     0.060 A 
BRANCH  66  67
ATOM     67  S   UNL     1      -9.816   0.824 -18.486  1.00  0.00     0.124 S 
ATOM     68  O   UNL     1      -9.214  -0.430 -18.043  1.00  0.00    -0.237 OA
ATOM     69  O   UNL     1     -11.138   0.712 -19.092  1.00  0.00    -0.237 OA
ATOM     70  O   UNL     1      -8.906   1.759 -19.140  1.00  0.00    -0.744 OA
ENDBRANCH  66  67
ENDBRANCH  45  59
BRANCH  46  71
ATOM     71  C   UNL     1     -12.688   6.886  -5.493  1.00  0.00     0.058 A 
ATOM     72  C   UNL     1     -13.990   7.210  -5.083  1.00  0.00     0.135 A 
ATOM     73  C   UNL     1     -11.635   7.179  -4.611  1.00  0.00     0.135 A 
ATOM     74  F   UNL     1     -15.030   6.954  -5.890  1.00  0.00    -0.206 F 
ATOM     75  C   UNL     1     -14.239   7.826  -3.860  1.00  0.00     0.059 A 
ATOM     76  C   UNL     1     -11.861   7.767  -3.370  1.00  0.00     0.059 A 
ATOM     77  F   UNL     1     -10.372   6.872  -4.944  1.00  0.00    -0.206 F 
ATOM     78  C   UNL     1     -13.166   8.101  -3.011  1.00  0.00     0.060 A 
BRANCH  78  79
ATOM     79  S   UNL     1     -13.502   8.877  -1.415  1.00  0.00     0.124 S 
ATOM     80  O   UNL     1     -13.847  10.236  -1.816  1.00  0.00    -0.237 OA
ATOM     81  O   UNL     1     -14.601   8.062  -0.904  1.00  0.00    -0.237 OA
ATOM     82  O   UNL     1     -12.238   8.731  -0.699  1.00  0.00    -0.744 OA
ENDBRANCH  78  79
ENDBRANCH  46  71
BRANCH  58  83
ATOM     83  C   UNL     1     -13.450   9.089 -12.071  1.00  0.00     0.058 A 
ATOM     84  C   UNL     1     -12.747  10.301 -11.988  1.00  0.00     0.135 A 
ATOM     85  C   UNL     1     -14.665   9.083 -12.776  1.00  0.00     0.135 A 
ATOM     86  F   UNL     1     -11.585  10.364 -11.319  1.00  0.00    -0.206 F 
ATOM     87  C   UNL     1     -13.242  11.468 -12.560  1.00  0.00     0.059 A 
ATOM     88  C   UNL     1     -15.163  10.230 -13.384  1.00  0.00     0.059 A 
ATOM     89  F   UNL     1     -15.372   7.948 -12.896  1.00  0.00    -0.206 F 
ATOM     90  C   UNL     1     -14.450  11.422 -13.260  1.00  0.00     0.060 A 
BRANCH  90  91
ATOM     91  S   UNL     1     -15.063  12.936 -14.027  1.00  0.00     0.124 S 
ATOM     92  O   UNL     1     -15.495  13.702 -12.863  1.00  0.00    -0.237 OA
ATOM     93  O   UNL     1     -13.877  13.440 -14.713  1.00  0.00    -0.237 OA
ATOM     94  O   UNL     1     -16.133  12.466 -14.902  1.00  0.00    -0.744 OA
ENDBRANCH  90  91
ENDBRANCH  58  83
ENDBRANCH  32  33
ENDBRANCH  24  27
ENDBRANCH  22  23
ENDBRANCH   1  22
TORSDOF 15
