REMARK SMILES Cc1cccc(CS(=O)(=O)c2ccc(C(=O)NCCCNC(=O)c3ccc(-c4c5nc(c(-c6c(F)cc(S(=O)(=O)[O-])cc6F)c6ccc([nH]6)c(-c6c(F)cc(S(=O)(=O)[O-])cc6F)c6nc(c(-c7c(F)cc(S(=O)(=O)[O-])cc7F)c7ccc4[nH]7)C=C6)C=C5)cc3)cc2F)n1
REMARK SMILES IDX 19 1 18 2 17 3 15 4 16 5 14 7 11 8 12 9 91 10 13 11 90 12
REMARK SMILES IDX 92 13 8 14 9 15 10 16 7 17 6 18 1 19 2 20 3 21 93 22 4 23
REMARK SMILES IDX 5 24 20 25 21 26 22 27 23 29 24 30 25 31 89 32 26 33 88 34
REMARK SMILES IDX 27 35 28 36 29 37 82 38 30 39 87 40 81 41 83 42 31 43 86 44
REMARK SMILES IDX 80 45 79 46 32 48 66 49 45 50 65 51 46 52 49 53 64 54 84 55
REMARK SMILES IDX 47 56 48 57 63 59 85 60 50 61 33 62 34 63 43 64 35 65 36 66
REMARK SMILES IDX 42 67 44 68 37 69 38 70 39 71 40 72 41 73 67 74 68 75 77 76
REMARK SMILES IDX 69 77 70 78 76 79 78 80 71 81 72 82 73 83 74 84 75 85 51 86
REMARK SMILES IDX 52 87 61 88 53 89 54 90 60 91 62 92 55 93 56 94 57 95 58 96
REMARK SMILES IDX 59 97
REMARK H PARENT 17 6 21 28 83 47 49 58
REMARK Flexibility Score: inf
ROOT
ATOM      1  C   UNL     1      -3.950   2.913   8.289  1.00  0.00     0.042 C 
ENDROOT
BRANCH   1   2
ATOM      2  C   UNL     1      -2.536   2.396   8.036  1.00  0.00     0.118 C 
BRANCH   2   3
ATOM      3  N   UNL     1      -2.561   1.010   7.602  1.00  0.00    -0.352 N 
ATOM      4  C   UNL     1      -2.400   0.435   6.371  1.00  0.00     0.251 C 
ATOM      5  O   UNL     1      -2.421  -0.793   6.292  1.00  0.00    -0.269 OA
ATOM      6  H   UNL     1      -2.723   0.366   8.328  1.00  0.00     0.163 HD
BRANCH   4   7
ATOM      7  C   UNL     1      -2.130   1.222   5.141  1.00  0.00     0.042 A 
ATOM      8  C   UNL     1      -1.481   2.575   2.762  1.00  0.00     0.103 A 
ATOM      9  C   UNL     1      -0.910   1.331   3.042  1.00  0.00     0.024 A 
ATOM     10  C   UNL     1      -2.366   3.135   3.676  1.00  0.00     0.142 A 
ATOM     11  C   UNL     1      -1.257   0.647   4.208  1.00  0.00     0.015 A 
ATOM     12  C   UNL     1      -2.703   2.460   4.853  1.00  0.00     0.054 A 
ATOM     13  F   UNL     1      -2.915   4.340   3.486  1.00  0.00    -0.206 F 
BRANCH   8  14
ATOM     14  S   UNL     1      -0.981   3.469   1.310  1.00  0.00     0.186 S 
ATOM     15  O   UNL     1       0.472   3.521   1.350  1.00  0.00    -0.223 OA
ATOM     16  O   UNL     1      -1.716   4.720   1.282  1.00  0.00    -0.223 OA
BRANCH  14  17
ATOM     17  C   UNL     1      -1.563   2.550  -0.105  1.00  0.00     0.198 C 
BRANCH  17  18
ATOM     18  C   UNL     1      -0.986   1.169  -0.157  1.00  0.00     0.056 A 
ATOM     19  C   UNL     1       2.421  -0.215  -0.146  1.00  0.00     0.067 C 
ATOM     20  C   UNL     1       0.924  -0.174  -0.199  1.00  0.00     0.038 A 
ATOM     21  C   UNL     1       0.164  -1.332  -0.164  1.00  0.00     0.023 A 
ATOM     22  N   UNL     1       0.360   1.056  -0.220  1.00  0.00    -0.257 NA
ATOM     23  C   UNL     1      -1.223  -1.216  -0.157  1.00  0.00     0.004 A 
ATOM     24  C   UNL     1      -1.809   0.047  -0.154  1.00  0.00     0.025 A 
ENDBRANCH  17  18
ENDBRANCH  14  17
ENDBRANCH   8  14
ENDBRANCH   4   7
ENDBRANCH   2   3
ENDBRANCH   1   2
BRANCH   1  25
ATOM     25  C   UNL     1      -4.587   2.339   9.552  1.00  0.00     0.118 C 
BRANCH  25  26
ATOM     26  N   UNL     1      -3.937   2.829  10.759  1.00  0.00    -0.352 N 
ATOM     27  C   UNL     1      -4.457   3.540  11.811  1.00  0.00     0.251 C 
ATOM     28  H   UNL     1      -2.978   2.619  10.831  1.00  0.00     0.163 HD
ATOM     29  O   UNL     1      -3.694   4.068  12.616  1.00  0.00    -0.269 OA
BRANCH  27  30
ATOM     30  C   UNL     1      -5.921   3.675  11.978  1.00  0.00     0.039 A 
ATOM     31  C   UNL     1      -6.443   4.904  12.391  1.00  0.00     0.014 A 
ATOM     32  C   UNL     1      -6.774   2.586  11.774  1.00  0.00     0.014 A 
ATOM     33  C   UNL     1      -7.822   5.053  12.551  1.00  0.00     0.010 A 
ATOM     34  C   UNL     1      -8.153   2.756  11.864  1.00  0.00     0.010 A 
ATOM     35  C   UNL     1      -8.691   3.989  12.261  1.00  0.00    -0.014 A 
BRANCH  35  36
ATOM     36  C   UNL     1     -10.165   4.146  12.366  1.00  0.00     0.031 A 
ATOM     37  C   UNL     1     -10.942   3.339  13.370  1.00  0.00     0.074 A 
ATOM     38  C   UNL     1     -10.806   4.975  11.519  1.00  0.00     0.049 A 
ATOM     39  N   UNL     1     -12.235   3.285  13.560  1.00  0.00    -0.248 NA
ATOM     40  C   UNL     1     -10.168   2.460  14.262  1.00  0.00     0.031 C 
ATOM     41  C   UNL     1     -10.162   5.783  10.480  1.00  0.00     0.029 A 
ATOM     42  N   UNL     1     -12.139   5.274  11.390  1.00  0.00    -0.354 N 
ATOM     43  C   UNL     1     -12.430   2.363  14.582  1.00  0.00     0.074 A 
ATOM     44  C   UNL     1     -11.128   1.843  14.936  1.00  0.00     0.031 C 
ATOM     45  C   UNL     1     -11.095   6.508   9.844  1.00  0.00     0.029 A 
ATOM     46  C   UNL     1     -12.408   6.185  10.396  1.00  0.00     0.049 A 
ATOM     47  H   UNL     1     -12.837   4.874  11.957  1.00  0.00     0.167 HD
ATOM     48  C   UNL     1     -13.588   2.002  15.185  1.00  0.00     0.037 A 
ATOM     49  C   UNL     1     -13.579   6.700   9.973  1.00  0.00     0.037 A 
ATOM     50  C   UNL     1     -14.876   2.547  14.844  1.00  0.00     0.049 A 
ATOM     51  C   UNL     1     -14.852   6.273  10.648  1.00  0.00     0.074 A 
ATOM     52  C   UNL     1     -16.102   2.284  15.430  1.00  0.00     0.029 A 
ATOM     53  N   UNL     1     -15.107   3.466  13.830  1.00  0.00    -0.354 N 
ATOM     54  N   UNL     1     -15.014   5.430  11.641  1.00  0.00    -0.248 NA
ATOM     55  C   UNL     1     -16.102   6.862  10.149  1.00  0.00     0.031 C 
ATOM     56  C   UNL     1     -17.079   3.009  14.742  1.00  0.00     0.029 A 
ATOM     57  C   UNL     1     -16.457   3.764  13.760  1.00  0.00     0.049 A 
ATOM     58  H   UNL     1     -14.412   3.849  13.247  1.00  0.00     0.167 HD
ATOM     59  C   UNL     1     -16.380   5.405  11.900  1.00  0.00     0.074 A 
ATOM     60  C   UNL     1     -16.998   6.325  10.968  1.00  0.00     0.031 C 
ATOM     61  C   UNL     1     -17.058   4.685  12.827  1.00  0.00     0.037 A 
BRANCH  48  62
ATOM     62  C   UNL     1     -13.519   0.982  16.289  1.00  0.00     0.058 A 
ATOM     63  C   UNL     1     -14.075  -0.296  16.118  1.00  0.00     0.135 A 
ATOM     64  C   UNL     1     -12.959   1.288  17.540  1.00  0.00     0.135 A 
ATOM     65  F   UNL     1     -14.619  -0.646  14.942  1.00  0.00    -0.206 F 
ATOM     66  C   UNL     1     -14.091  -1.228  17.151  1.00  0.00     0.059 A 
ATOM     67  C   UNL     1     -12.939   0.362  18.579  1.00  0.00     0.059 A 
ATOM     68  F   UNL     1     -12.395   2.488  17.751  1.00  0.00    -0.206 F 
ATOM     69  C   UNL     1     -13.521  -0.889  18.379  1.00  0.00     0.060 A 
BRANCH  69  70
ATOM     70  S   UNL     1     -13.523  -2.120  19.700  1.00  0.00     0.124 S 
ATOM     71  O   UNL     1     -14.935  -2.177  20.056  1.00  0.00    -0.237 OA
ATOM     72  O   UNL     1     -12.987  -3.296  19.022  1.00  0.00    -0.237 OA
ATOM     73  O   UNL     1     -12.642  -1.535  20.708  1.00  0.00    -0.744 OA
ENDBRANCH  69  70
ENDBRANCH  48  62
BRANCH  49  74
ATOM     74  C   UNL     1     -13.587   7.703   8.874  1.00  0.00     0.058 A 
ATOM     75  C   UNL     1     -13.265   7.347   7.556  1.00  0.00     0.135 A 
ATOM     76  C   UNL     1     -13.872   9.051   9.137  1.00  0.00     0.135 A 
ATOM     77  F   UNL     1     -12.974   6.072   7.253  1.00  0.00    -0.206 F 
ATOM     78  C   UNL     1     -13.197   8.296   6.542  1.00  0.00     0.059 A 
ATOM     79  C   UNL     1     -13.835  10.016   8.134  1.00  0.00     0.059 A 
ATOM     80  F   UNL     1     -14.196   9.437  10.380  1.00  0.00    -0.206 F 
ATOM     81  C   UNL     1     -13.477   9.630   6.843  1.00  0.00     0.060 A 
BRANCH  81  82
ATOM     82  S   UNL     1     -13.360  10.850   5.517  1.00  0.00     0.124 S 
ATOM     83  O   UNL     1     -11.922  10.875   5.271  1.00  0.00    -0.237 OA
ATOM     84  O   UNL     1     -14.173  10.241   4.469  1.00  0.00    -0.237 OA
ATOM     85  O   UNL     1     -13.916  12.058   6.118  1.00  0.00    -0.744 OA
ENDBRANCH  81  82
ENDBRANCH  49  74
BRANCH  61  86
ATOM     86  C   UNL     1     -18.548   4.868  12.901  1.00  0.00     0.058 A 
ATOM     87  C   UNL     1     -19.131   5.515  14.002  1.00  0.00     0.135 A 
ATOM     88  C   UNL     1     -19.404   4.325  11.930  1.00  0.00     0.135 A 
ATOM     89  F   UNL     1     -18.358   6.048  14.962  1.00  0.00    -0.206 F 
ATOM     90  C   UNL     1     -20.511   5.597  14.150  1.00  0.00     0.059 A 
ATOM     91  C   UNL     1     -20.787   4.419  12.043  1.00  0.00     0.059 A 
ATOM     92  F   UNL     1     -18.895   3.707  10.852  1.00  0.00    -0.206 F 
ATOM     93  C   UNL     1     -21.332   5.041  13.168  1.00  0.00     0.060 A 
BRANCH  93  94
ATOM     94  S   UNL     1     -23.121   5.155  13.377  1.00  0.00     0.124 S 
ATOM     95  O   UNL     1     -23.352   4.234  14.484  1.00  0.00    -0.237 OA
ATOM     96  O   UNL     1     -23.306   6.571  13.679  1.00  0.00    -0.237 OA
ATOM     97  O   UNL     1     -23.642   4.725  12.082  1.00  0.00    -0.744 OA
ENDBRANCH  93  94
ENDBRANCH  61  86
ENDBRANCH  35  36
ENDBRANCH  27  30
ENDBRANCH  25  26
ENDBRANCH   1  25
TORSDOF 16
