REMARK SMILES CN(C)S(=O)(=O)c1ccc(-n2c(CCC(=O)NCCCNC(=O)c3ccc(-c4c5nc(c(-c6c(F)cc(S(=O)(=O)[O-])cc6F)c6ccc([nH]6)c(-c6c(F)cc(S(=O)(=O)[O-])cc6F)c6nc(c(-c7c(F)cc(S(=O)(=O)[O-])cc7F)c7ccc4[nH]7)C=C6)C=C5)cc3)ccc2-c2ccc(F)cc2)cc1
REMARK SMILES IDX 18 1 17 2 15 3 16 4 14 6 13 7 12 8 11 9 92 10 90 11 91 12
REMARK SMILES IDX 10 13 7 14 8 15 101 16 9 17 100 18 4 19 5 20 6 21 2 22 1 23
REMARK SMILES IDX 3 24 93 25 94 26 99 27 95 28 98 29 96 30 97 31 19 32 20 33
REMARK SMILES IDX 21 34 22 35 23 37 24 38 25 39 89 40 26 41 88 42 27 43 28 44
REMARK SMILES IDX 29 45 82 46 30 47 87 48 81 49 83 50 31 51 86 52 80 53 79 54
REMARK SMILES IDX 32 56 66 57 45 58 65 59 46 60 49 61 64 62 84 63 47 64 48 65
REMARK SMILES IDX 63 67 85 68 50 69 33 70 34 71 43 72 35 73 36 74 42 75 44 76
REMARK SMILES IDX 37 77 38 78 39 79 40 80 41 81 67 82 68 83 77 84 69 85 70 86
REMARK SMILES IDX 76 87 78 88 71 89 72 90 73 91 74 92 75 93 51 94 52 95 61 96
REMARK SMILES IDX 53 97 54 98 60 99 62 100 55 101 56 102 57 103 58 104 59 105
REMARK H PARENT 17 5 21 36 83 55 49 66
REMARK Flexibility Score: inf
ROOT
ATOM      1  C   UNL     1      -2.609   1.731   8.091  1.00  0.00     0.117 C 
ENDROOT
BRANCH   1   2
ATOM      2  N   UNL     1      -1.608   0.691   7.933  1.00  0.00    -0.356 N 
ATOM      3  C   UNL     1      -0.531   0.367   8.717  1.00  0.00     0.220 C 
ATOM      4  O   UNL     1       0.032  -0.710   8.492  1.00  0.00    -0.275 OA
ATOM      5  H   UNL     1      -1.720   0.128   7.134  1.00  0.00     0.163 HD
BRANCH   3   6
ATOM      6  C   UNL     1       0.045   1.311   9.770  1.00  0.00     0.106 C 
BRANCH   6   7
ATOM      7  C   UNL     1       1.266   2.164   9.347  1.00  0.00     0.064 C 
BRANCH   7   8
ATOM      8  C   UNL     1       0.893   3.546   8.867  1.00  0.00     0.024 A 
ATOM      9  N   UNL     1       0.841   4.047   7.538  1.00  0.00    -0.314 N 
ATOM     10  C   UNL     1       0.451   5.411   7.686  1.00  0.00     0.053 A 
ATOM     11  C   UNL     1       0.581   4.568   9.750  1.00  0.00     0.024 A 
ATOM     12  C   UNL     1       0.304   5.719   9.022  1.00  0.00     0.029 A 
BRANCH   9  13
ATOM     13  C   UNL     1       0.988   3.268   6.285  1.00  0.00     0.046 A 
ATOM     14  C   UNL     1       1.024   1.528   3.970  1.00  0.00     0.082 A 
ATOM     15  C   UNL     1       1.216   2.904   3.828  1.00  0.00     0.024 A 
ATOM     16  C   UNL     1       0.861   1.030   5.243  1.00  0.00     0.024 A 
ATOM     17  C   UNL     1       1.194   3.763   4.986  1.00  0.00     0.028 A 
ATOM     18  C   UNL     1       0.878   1.887   6.338  1.00  0.00     0.028 A 
BRANCH  14  19
ATOM     19  S   UNL     1       1.257   0.288   2.705  1.00  0.00     0.242 S 
ATOM     20  O   UNL     1       0.729  -0.954   3.260  1.00  0.00    -0.207 OA
ATOM     21  O   UNL     1       2.639   0.393   2.317  1.00  0.00    -0.207 OA
BRANCH  19  22
ATOM     22  N   UNL     1       0.244   0.652   1.383  1.00  0.00    -0.204 NA
ATOM     23  C   UNL     1       0.501  -0.332   0.273  1.00  0.00     0.124 C 
ATOM     24  C   UNL     1      -1.203   0.676   1.651  1.00  0.00     0.124 C 
ENDBRANCH  19  22
ENDBRANCH  14  19
ENDBRANCH   9  13
BRANCH  10  25
ATOM     25  C   UNL     1      -0.147   6.200   6.628  1.00  0.00    -0.001 A 
ATOM     26  C   UNL     1       0.601   7.055   5.823  1.00  0.00     0.013 A 
ATOM     27  C   UNL     1      -1.431   5.804   6.273  1.00  0.00     0.013 A 
ATOM     28  C   UNL     1       0.220   7.175   4.500  1.00  0.00     0.040 A 
ATOM     29  C   UNL     1      -1.746   5.821   4.945  1.00  0.00     0.040 A 
ATOM     30  C   UNL     1      -0.870   6.434   4.075  1.00  0.00     0.123 A 
ATOM     31  F   UNL     1      -0.979   6.161   2.790  1.00  0.00    -0.207 F 
ENDBRANCH  10  25
ENDBRANCH   7   8
ENDBRANCH   6   7
ENDBRANCH   3   6
ENDBRANCH   1   2
BRANCH   1  32
ATOM     32  C   UNL     1      -2.774   2.715   6.922  1.00  0.00     0.042 C 
BRANCH  32  33
ATOM     33  C   UNL     1      -3.695   2.341   5.742  1.00  0.00     0.118 C 
BRANCH  33  34
ATOM     34  N   UNL     1      -4.657   3.433   5.465  1.00  0.00    -0.352 N 
ATOM     35  C   UNL     1      -5.061   4.250   4.433  1.00  0.00     0.251 C 
ATOM     36  H   UNL     1      -5.172   3.640   6.278  1.00  0.00     0.163 HD
ATOM     37  O   UNL     1      -5.979   5.030   4.707  1.00  0.00    -0.269 OA
BRANCH  35  38
ATOM     38  C   UNL     1      -4.496   4.299   3.050  1.00  0.00     0.039 A 
ATOM     39  C   UNL     1      -5.123   5.123   2.086  1.00  0.00     0.014 A 
ATOM     40  C   UNL     1      -3.332   3.643   2.676  1.00  0.00     0.014 A 
ATOM     41  C   UNL     1      -4.614   5.247   0.781  1.00  0.00     0.010 A 
ATOM     42  C   UNL     1      -2.846   3.733   1.377  1.00  0.00     0.010 A 
ATOM     43  C   UNL     1      -3.470   4.531   0.418  1.00  0.00    -0.014 A 
BRANCH  43  44
ATOM     44  C   UNL     1      -2.892   4.515  -0.957  1.00  0.00     0.031 A 
ATOM     45  C   UNL     1      -1.580   5.327  -1.153  1.00  0.00     0.074 A 
ATOM     46  C   UNL     1      -3.537   3.665  -1.809  1.00  0.00     0.049 A 
ATOM     47  N   UNL     1      -0.941   5.755  -2.198  1.00  0.00    -0.248 NA
ATOM     48  C   UNL     1      -0.871   5.759   0.061  1.00  0.00     0.031 C 
ATOM     49  C   UNL     1      -4.720   2.846  -1.452  1.00  0.00     0.029 A 
ATOM     50  N   UNL     1      -3.340   3.297  -3.116  1.00  0.00    -0.354 N 
ATOM     51  C   UNL     1       0.288   6.351  -1.761  1.00  0.00     0.074 A 
ATOM     52  C   UNL     1       0.255   6.345  -0.337  1.00  0.00     0.031 C 
ATOM     53  C   UNL     1      -5.192   2.189  -2.529  1.00  0.00     0.029 A 
ATOM     54  C   UNL     1      -4.371   2.500  -3.677  1.00  0.00     0.049 A 
ATOM     55  H   UNL     1      -2.542   3.565  -3.626  1.00  0.00     0.167 HD
ATOM     56  C   UNL     1       1.288   6.770  -2.598  1.00  0.00     0.037 A 
ATOM     57  C   UNL     1      -4.585   2.192  -4.992  1.00  0.00     0.037 A 
ATOM     58  C   UNL     1       0.867   6.606  -3.943  1.00  0.00     0.049 A 
ATOM     59  C   UNL     1      -3.431   2.771  -5.696  1.00  0.00     0.074 A 
ATOM     60  C   UNL     1      -0.035   7.299  -4.703  1.00  0.00     0.029 A 
ATOM     61  N   UNL     1       1.135   5.402  -4.540  1.00  0.00    -0.354 N 
ATOM     62  N   UNL     1      -2.220   2.306  -5.650  1.00  0.00    -0.248 NA
ATOM     63  C   UNL     1      -3.616   4.053  -6.385  1.00  0.00     0.031 C 
ATOM     64  C   UNL     1      -0.672   6.282  -5.437  1.00  0.00     0.029 A 
ATOM     65  C   UNL     1       0.010   5.071  -5.257  1.00  0.00     0.049 A 
ATOM     66  H   UNL     1       1.966   4.879  -4.469  1.00  0.00     0.167 HD
ATOM     67  C   UNL     1      -1.465   3.379  -6.053  1.00  0.00     0.074 A 
ATOM     68  C   UNL     1      -2.358   4.286  -6.738  1.00  0.00     0.031 C 
ATOM     69  C   UNL     1      -0.291   3.670  -5.439  1.00  0.00     0.037 A 
BRANCH  56  70
ATOM     70  C   UNL     1       2.722   7.215  -2.404  1.00  0.00     0.058 A 
ATOM     71  C   UNL     1       3.315   7.980  -3.443  1.00  0.00     0.135 A 
ATOM     72  C   UNL     1       3.613   6.641  -1.487  1.00  0.00     0.135 A 
ATOM     73  F   UNL     1       2.554   8.662  -4.316  1.00  0.00    -0.206 F 
ATOM     74  C   UNL     1       4.686   8.014  -3.671  1.00  0.00     0.059 A 
ATOM     75  C   UNL     1       5.006   6.704  -1.670  1.00  0.00     0.059 A 
ATOM     76  F   UNL     1       3.158   5.950  -0.432  1.00  0.00    -0.206 F 
ATOM     77  C   UNL     1       5.526   7.334  -2.803  1.00  0.00     0.060 A 
BRANCH  77  78
ATOM     78  S   UNL     1       7.285   7.267  -3.213  1.00  0.00     0.124 S 
ATOM     79  O   UNL     1       7.298   6.321  -4.323  1.00  0.00    -0.237 OA
ATOM     80  O   UNL     1       7.576   8.654  -3.568  1.00  0.00    -0.237 OA
ATOM     81  O   UNL     1       7.903   6.805  -1.975  1.00  0.00    -0.744 OA
ENDBRANCH  77  78
ENDBRANCH  56  70
BRANCH  57  82
ATOM     82  C   UNL     1      -5.724   1.672  -5.839  1.00  0.00     0.058 A 
ATOM     83  C   UNL     1      -6.945   1.170  -5.371  1.00  0.00     0.135 A 
ATOM     84  C   UNL     1      -5.668   1.843  -7.251  1.00  0.00     0.135 A 
ATOM     85  F   UNL     1      -7.100   0.782  -4.101  1.00  0.00    -0.206 F 
ATOM     86  C   UNL     1      -8.074   1.052  -6.199  1.00  0.00     0.059 A 
ATOM     87  C   UNL     1      -6.781   1.782  -8.083  1.00  0.00     0.059 A 
ATOM     88  F   UNL     1      -4.520   2.134  -7.880  1.00  0.00    -0.206 F 
ATOM     89  C   UNL     1      -7.998   1.429  -7.537  1.00  0.00     0.060 A 
BRANCH  89  90
ATOM     90  S   UNL     1      -9.496   1.595  -8.529  1.00  0.00     0.124 S 
ATOM     91  O   UNL     1      -9.718   0.225  -8.975  1.00  0.00    -0.237 OA
ATOM     92  O   UNL     1     -10.457   2.113  -7.559  1.00  0.00    -0.237 OA
ATOM     93  O   UNL     1      -9.103   2.543  -9.568  1.00  0.00    -0.744 OA
ENDBRANCH  89  90
ENDBRANCH  57  82
BRANCH  69  94
ATOM     94  C   UNL     1       0.389   2.495  -4.756  1.00  0.00     0.058 A 
ATOM     95  C   UNL     1       0.685   1.350  -5.518  1.00  0.00     0.135 A 
ATOM     96  C   UNL     1       0.738   2.429  -3.392  1.00  0.00     0.135 A 
ATOM     97  F   UNL     1       0.415   1.329  -6.834  1.00  0.00    -0.206 F 
ATOM     98  C   UNL     1       1.269   0.210  -4.969  1.00  0.00     0.059 A 
ATOM     99  C   UNL     1       1.375   1.316  -2.829  1.00  0.00     0.059 A 
ATOM    100  F   UNL     1       0.482   3.449  -2.566  1.00  0.00    -0.206 F 
ATOM    101  C   UNL     1       1.617   0.199  -3.623  1.00  0.00     0.060 A 
BRANCH 101 102
ATOM    102  S   UNL     1       2.433  -1.270  -2.959  1.00  0.00     0.124 S 
ATOM    103  O   UNL     1       1.298  -2.156  -2.716  1.00  0.00    -0.237 OA
ATOM    104  O   UNL     1       3.324  -1.663  -4.046  1.00  0.00    -0.237 OA
ATOM    105  O   UNL     1       3.101  -0.776  -1.762  1.00  0.00    -0.744 OA
ENDBRANCH 101 102
ENDBRANCH  69  94
ENDBRANCH  43  44
ENDBRANCH  35  38
ENDBRANCH  33  34
ENDBRANCH  32  33
ENDBRANCH   1  32
TORSDOF 19
