REMARK SMILES O=C(NCCCNC(=O)c1n[nH]c2cc(Br)cc(Cl)c12)c1ccc(-c2c3nc(c(-c4c(F)cc(S(=O)(=O)[O-])cc4F)c4ccc([nH]4)c(-c4c(F)cc(S(=O)(=O)[O-])cc4F)c4nc(c(-c5c(F)cc(S(=O)(=O)[O-])cc5F)c5ccc2[nH]5)C=C4)C=C3)cc1
REMARK SMILES IDX 1 1 2 2 3 3 21 5 22 6 86 7 23 8 85 9 24 10 25 11 26 12 79 13
REMARK SMILES IDX 27 14 84 15 78 16 80 17 28 18 83 19 77 20 76 21 29 23 63 24
REMARK SMILES IDX 42 25 62 26 43 27 46 28 61 29 81 30 44 31 45 32 60 34 82 35
REMARK SMILES IDX 47 36 30 37 31 38 40 39 32 40 33 41 39 42 41 43 34 44 35 45
REMARK SMILES IDX 36 46 37 47 38 48 64 49 65 50 74 51 66 52 67 53 73 54 75 55
REMARK SMILES IDX 68 56 69 57 70 58 71 59 72 60 48 61 49 62 58 63 50 64 51 65
REMARK SMILES IDX 57 66 59 67 52 68 53 69 54 70 55 71 56 72 4 73 5 74 6 75
REMARK SMILES IDX 7 76 8 77 9 79 10 80 11 81 20 82 12 83 13 84 18 85 14 87
REMARK SMILES IDX 17 88 19 89 15 90 16 91
REMARK H PARENT 3 4 80 22 46 33 7 78 12 86
REMARK Flexibility Score: inf
ROOT
ATOM      1  O   UNL     1       1.154  -0.635  -0.443  1.00  0.00    -0.269 OA
ATOM      2  C   UNL     1       2.226  -0.236   0.021  1.00  0.00     0.251 C 
ATOM      3  N   UNL     1       3.263  -1.128  -0.037  1.00  0.00    -0.352 N 
ATOM      4  H   UNL     1       2.973  -2.022  -0.330  1.00  0.00     0.163 HD
ENDROOT
BRANCH   2   5
ATOM      5  C   UNL     1       2.284   1.125   0.625  1.00  0.00     0.039 A 
ATOM      6  C   UNL     1       3.440   1.771   1.059  1.00  0.00     0.014 A 
ATOM      7  C   UNL     1       1.053   1.797   0.771  1.00  0.00     0.014 A 
ATOM      8  C   UNL     1       3.367   3.018   1.678  1.00  0.00     0.010 A 
ATOM      9  C   UNL     1       0.977   3.058   1.364  1.00  0.00     0.010 A 
ATOM     10  C   UNL     1       2.137   3.663   1.838  1.00  0.00    -0.014 A 
BRANCH  10  11
ATOM     11  C   UNL     1       2.154   5.026   2.373  1.00  0.00     0.031 A 
ATOM     12  C   UNL     1       2.857   6.041   1.533  1.00  0.00     0.074 A 
ATOM     13  C   UNL     1       1.471   5.441   3.458  1.00  0.00     0.049 A 
ATOM     14  N   UNL     1       3.877   6.778   1.835  1.00  0.00    -0.248 NA
ATOM     15  C   UNL     1       2.385   6.209   0.150  1.00  0.00     0.031 C 
ATOM     16  C   UNL     1       0.461   4.706   4.218  1.00  0.00     0.029 A 
ATOM     17  N   UNL     1       1.475   6.674   4.048  1.00  0.00    -0.354 N 
ATOM     18  C   UNL     1       4.058   7.643   0.755  1.00  0.00     0.074 A 
ATOM     19  C   UNL     1       3.196   7.168  -0.296  1.00  0.00     0.031 C 
ATOM     20  C   UNL     1      -0.192   5.567   5.031  1.00  0.00     0.029 A 
ATOM     21  C   UNL     1       0.435   6.876   4.942  1.00  0.00     0.049 A 
ATOM     22  H   UNL     1       2.156   7.358   3.855  1.00  0.00     0.167 HD
ATOM     23  C   UNL     1       4.761   8.806   0.857  1.00  0.00     0.037 A 
ATOM     24  C   UNL     1       0.073   8.050   5.516  1.00  0.00     0.037 A 
ATOM     25  C   UNL     1       5.622   8.820   2.008  1.00  0.00     0.049 A 
ATOM     26  C   UNL     1       1.241   8.966   5.459  1.00  0.00     0.074 A 
ATOM     27  C   UNL     1       6.669   8.040   2.458  1.00  0.00     0.029 A 
ATOM     28  N   UNL     1       5.268   9.614   3.069  1.00  0.00    -0.354 N 
ATOM     29  N   UNL     1       2.349   8.805   6.129  1.00  0.00    -0.248 NA
ATOM     30  C   UNL     1       1.302   9.947   4.385  1.00  0.00     0.031 C 
ATOM     31  C   UNL     1       6.582   8.078   3.880  1.00  0.00     0.029 A 
ATOM     32  C   UNL     1       5.494   8.888   4.209  1.00  0.00     0.049 A 
ATOM     33  H   UNL     1       4.917  10.533   3.021  1.00  0.00     0.167 HD
ATOM     34  C   UNL     1       3.334   9.356   5.327  1.00  0.00     0.074 A 
ATOM     35  C   UNL     1       2.619  10.157   4.343  1.00  0.00     0.031 C 
ATOM     36  C   UNL     1       4.618   8.896   5.362  1.00  0.00     0.037 A 
BRANCH  23  37
ATOM     37  C   UNL     1       4.428  10.068   0.091  1.00  0.00     0.058 A 
ATOM     38  C   UNL     1       5.330  11.154   0.103  1.00  0.00     0.135 A 
ATOM     39  C   UNL     1       3.137  10.356  -0.406  1.00  0.00     0.135 A 
ATOM     40  F   UNL     1       6.581  10.998   0.565  1.00  0.00    -0.206 F 
ATOM     41  C   UNL     1       4.953  12.444  -0.274  1.00  0.00     0.059 A 
ATOM     42  C   UNL     1       2.757  11.622  -0.840  1.00  0.00     0.059 A 
ATOM     43  F   UNL     1       2.154   9.447  -0.397  1.00  0.00    -0.206 F 
ATOM     44  C   UNL     1       3.655  12.670  -0.724  1.00  0.00     0.060 A 
BRANCH  44  45
ATOM     45  S   UNL     1       3.120  14.355  -1.075  1.00  0.00     0.124 S 
ATOM     46  O   UNL     1       3.032  14.913   0.269  1.00  0.00    -0.237 OA
ATOM     47  O   UNL     1       4.211  14.856  -1.905  1.00  0.00    -0.237 OA
ATOM     48  O   UNL     1       1.849  14.164  -1.768  1.00  0.00    -0.744 OA
ENDBRANCH  44  45
ENDBRANCH  23  37
BRANCH  24  49
ATOM     49  C   UNL     1      -1.292   8.527   5.865  1.00  0.00     0.058 A 
ATOM     50  C   UNL     1      -1.479   9.673   6.661  1.00  0.00     0.135 A 
ATOM     51  C   UNL     1      -2.437   8.040   5.202  1.00  0.00     0.135 A 
ATOM     52  F   UNL     1      -0.442  10.220   7.313  1.00  0.00    -0.206 F 
ATOM     53  C   UNL     1      -2.711  10.328   6.748  1.00  0.00     0.059 A 
ATOM     54  C   UNL     1      -3.679   8.665   5.290  1.00  0.00     0.059 A 
ATOM     55  F   UNL     1      -2.364   6.993   4.368  1.00  0.00    -0.206 F 
ATOM     56  C   UNL     1      -3.802   9.827   6.040  1.00  0.00     0.060 A 
BRANCH  56  57
ATOM     57  S   UNL     1      -5.345  10.768   6.005  1.00  0.00     0.124 S 
ATOM     58  O   UNL     1      -5.800  10.653   7.386  1.00  0.00    -0.237 OA
ATOM     59  O   UNL     1      -4.888  12.090   5.591  1.00  0.00    -0.237 OA
ATOM     60  O   UNL     1      -6.155  10.055   5.020  1.00  0.00    -0.744 OA
ENDBRANCH  56  57
ENDBRANCH  24  49
BRANCH  36  61
ATOM     61  C   UNL     1       5.062   8.081   6.546  1.00  0.00     0.058 A 
ATOM     62  C   UNL     1       4.551   6.811   6.864  1.00  0.00     0.135 A 
ATOM     63  C   UNL     1       6.174   8.529   7.277  1.00  0.00     0.135 A 
ATOM     64  F   UNL     1       3.555   6.269   6.149  1.00  0.00    -0.206 F 
ATOM     65  C   UNL     1       5.110   6.031   7.877  1.00  0.00     0.059 A 
ATOM     66  C   UNL     1       6.766   7.754   8.271  1.00  0.00     0.059 A 
ATOM     67  F   UNL     1       6.742   9.710   6.981  1.00  0.00    -0.206 F 
ATOM     68  C   UNL     1       6.226   6.505   8.568  1.00  0.00     0.060 A 
BRANCH  68  69
ATOM     69  S   UNL     1       7.029   5.429   9.777  1.00  0.00     0.124 S 
ATOM     70  O   UNL     1       6.086   5.457  10.889  1.00  0.00    -0.237 OA
ATOM     71  O   UNL     1       7.126   4.160   9.059  1.00  0.00    -0.237 OA
ATOM     72  O   UNL     1       8.309   6.090  10.025  1.00  0.00    -0.744 OA
ENDBRANCH  68  69
ENDBRANCH  36  61
ENDBRANCH  10  11
ENDBRANCH   2   5
BRANCH   3  73
ATOM     73  C   UNL     1       4.688  -1.071   0.231  1.00  0.00     0.118 C 
BRANCH  73  74
ATOM     74  C   UNL     1       5.082  -1.200   1.702  1.00  0.00     0.042 C 
BRANCH  74  75
ATOM     75  C   UNL     1       4.542  -2.436   2.411  1.00  0.00     0.118 C 
BRANCH  75  76
ATOM     76  N   UNL     1       5.006  -3.688   1.838  1.00  0.00    -0.351 N 
ATOM     77  C   UNL     1       5.622  -4.762   2.453  1.00  0.00     0.272 C 
ATOM     78  H   UNL     1       4.861  -3.786   0.869  1.00  0.00     0.163 HD
ATOM     79  O   UNL     1       5.914  -5.736   1.769  1.00  0.00    -0.267 OA
BRANCH  77  80
ATOM     80  C   UNL     1       5.937  -4.670   3.885  1.00  0.00     0.159 A 
ATOM     81  N   UNL     1       7.222  -4.686   4.293  1.00  0.00    -0.169 NA
ATOM     82  C   UNL     1       5.044  -4.525   4.995  1.00  0.00     0.051 A 
ATOM     83  N   UNL     1       7.154  -4.470   5.612  1.00  0.00    -0.277 N 
ATOM     84  C   UNL     1       5.882  -4.324   6.092  1.00  0.00     0.068 A 
ATOM     85  C   UNL     1       3.655  -4.493   5.234  1.00  0.00     0.054 A 
ATOM     86  H   UNL     1       7.951  -4.419   6.188  1.00  0.00     0.190 HD
ATOM     87  C   UNL     1       5.411  -4.033   7.379  1.00  0.00     0.044 A 
ATOM     88  C   UNL     1       3.146  -4.186   6.496  1.00  0.00     0.037 A 
ATOM     89  Cl  UNL     1       2.613  -4.885   3.939  1.00  0.00    -0.083 Cl
ATOM     90  C   UNL     1       4.024  -3.947   7.547  1.00  0.00     0.021 A 
ATOM     91  Br  UNL     1       3.331  -3.513   9.254  1.00  0.00    -0.051 Br
ENDBRANCH  77  80
ENDBRANCH  75  76
ENDBRANCH  74  75
ENDBRANCH  73  74
ENDBRANCH   3  73
TORSDOF 13
