REMARK SMILES C=CC[N@@H+](CC(=O)NCCCNC(=O)c1ccc(-c2c3nc(c(-c4c(F)cc(S(=O)(=O)[O-])cc4F)c4ccc([nH]4)c(-c4c(F)cc(S(=O)(=O)[O-])cc4F)c4nc(c(-c5c(F)cc(S(=O)(=O)[O-])cc5F)c5ccc2[nH]5)C=C4)C=C3)cc1)[C@@H]1CC[N@@H+](C(C)C)C1
REMARK SMILES IDX 10 1 9 2 8 3 6 4 7 5 5 7 4 8 3 10 2 11 1 12 81 13 82 14
REMARK SMILES IDX 88 15 83 16 84 17 85 19 86 20 87 21 11 22 12 23 13 24 14 26
REMARK SMILES IDX 15 27 16 28 80 29 17 30 79 31 18 32 19 33 20 34 73 35 21 36
REMARK SMILES IDX 78 37 72 38 74 39 22 40 77 41 71 42 70 43 23 45 57 46 36 47
REMARK SMILES IDX 56 48 37 49 40 50 55 51 75 52 38 53 39 54 54 56 76 57 41 58
REMARK SMILES IDX 24 59 25 60 34 61 26 62 27 63 33 64 35 65 28 66 29 67 30 68
REMARK SMILES IDX 31 69 32 70 58 71 59 72 68 73 60 74 61 75 67 76 69 77 62 78
REMARK SMILES IDX 63 79 64 80 65 81 66 82 42 83 43 84 52 85 44 86 45 87 51 88
REMARK SMILES IDX 53 89 46 90 47 91 48 92 49 93 50 94
REMARK H PARENT 8 6 4 9 84 18 12 25 74 44 40 55
REMARK Flexibility Score: inf
ROOT
ATOM      1  C   UNL     1      -1.852  -1.242   1.303  1.00  0.00     0.042 C 
ENDROOT
BRANCH   1   2
ATOM      2  C   UNL     1      -3.123  -1.212   0.454  1.00  0.00     0.118 C 
BRANCH   2   3
ATOM      3  N   UNL     1      -3.654   0.135   0.377  1.00  0.00    -0.351 N 
ATOM      4  C   UNL     1      -3.587   1.075  -0.606  1.00  0.00     0.275 C 
ATOM      5  O   UNL     1      -4.033   2.190  -0.314  1.00  0.00    -0.269 OA
ATOM      6  H   UNL     1      -4.152   0.421   1.177  1.00  0.00     0.163 HD
BRANCH   4   7
ATOM      7  C   UNL     1      -3.081   0.754  -2.024  1.00  0.00     0.364 C 
BRANCH   7   8
ATOM      8  N   UNL     1      -1.649   1.030  -2.314  1.00  0.00    -0.317 N 
ATOM      9  H   UNL     1      -1.581   1.132  -3.327  1.00  0.00     0.349 HD
BRANCH   8  10
ATOM     10  C   UNL     1      -0.824  -0.119  -1.925  1.00  0.00     0.291 C 
BRANCH  10  11
ATOM     11  C   UNL     1       0.670  -0.025  -2.009  1.00  0.00     0.025 C 
ATOM     12  C   UNL     1       1.476   0.024  -0.937  1.00  0.00     0.010 C 
ENDBRANCH  10  11
ENDBRANCH   8  10
BRANCH   8  13
ATOM     13  C   UNL     1      -1.129   2.357  -1.908  1.00  0.00     0.246 C 
ATOM     14  C   UNL     1      -2.043   3.588  -2.039  1.00  0.00     0.132 C 
ATOM     15  C   UNL     1       0.092   2.765  -2.784  1.00  0.00     0.328 C 
ATOM     16  C   UNL     1      -1.505   4.419  -3.187  1.00  0.00     0.269 C 
ATOM     17  N   UNL     1      -0.083   4.130  -3.285  1.00  0.00    -0.328 N 
ATOM     18  H   UNL     1       0.216   4.180  -4.259  1.00  0.00     0.348 HD
BRANCH  17  19
ATOM     19  C   UNL     1       0.824   5.147  -2.745  1.00  0.00     0.177 C 
ATOM     20  C   UNL     1       0.766   5.356  -1.230  1.00  0.00     0.075 C 
ATOM     21  C   UNL     1       2.265   4.853  -3.190  1.00  0.00     0.075 C 
ENDBRANCH  17  19
ENDBRANCH   8  13
ENDBRANCH   7   8
ENDBRANCH   4   7
ENDBRANCH   2   3
ENDBRANCH   1   2
BRANCH   1  22
ATOM     22  C   UNL     1      -2.099  -1.116   2.798  1.00  0.00     0.118 C 
BRANCH  22  23
ATOM     23  N   UNL     1      -2.555  -2.361   3.387  1.00  0.00    -0.352 N 
ATOM     24  C   UNL     1      -1.901  -3.253   4.201  1.00  0.00     0.251 C 
ATOM     25  H   UNL     1      -3.482  -2.607   3.167  1.00  0.00     0.163 HD
ATOM     26  O   UNL     1      -2.414  -4.356   4.393  1.00  0.00    -0.269 OA
BRANCH  24  27
ATOM     27  C   UNL     1      -0.597  -2.928   4.832  1.00  0.00     0.039 A 
ATOM     28  C   UNL     1       0.336  -3.956   5.006  1.00  0.00     0.014 A 
ATOM     29  C   UNL     1      -0.302  -1.651   5.315  1.00  0.00     0.014 A 
ATOM     30  C   UNL     1       1.565  -3.695   5.622  1.00  0.00     0.010 A 
ATOM     31  C   UNL     1       0.961  -1.368   5.835  1.00  0.00     0.010 A 
ATOM     32  C   UNL     1       1.900  -2.392   6.021  1.00  0.00    -0.014 A 
BRANCH  32  33
ATOM     33  C   UNL     1       3.202  -2.093   6.677  1.00  0.00     0.031 A 
ATOM     34  C   UNL     1       3.233  -1.562   8.088  1.00  0.00     0.074 A 
ATOM     35  C   UNL     1       4.353  -2.255   5.996  1.00  0.00     0.049 A 
ATOM     36  N   UNL     1       4.260  -1.194   8.812  1.00  0.00    -0.248 NA
ATOM     37  C   UNL     1       1.937  -1.396   8.765  1.00  0.00     0.031 C 
ATOM     38  C   UNL     1       4.458  -2.718   4.610  1.00  0.00     0.029 A 
ATOM     39  N   UNL     1       5.656  -2.046   6.374  1.00  0.00    -0.354 N 
ATOM     40  C   UNL     1       3.733  -0.736  10.015  1.00  0.00     0.074 A 
ATOM     41  C   UNL     1       2.293  -0.817   9.902  1.00  0.00     0.031 C 
ATOM     42  C   UNL     1       5.755  -2.788   4.267  1.00  0.00     0.029 A 
ATOM     43  C   UNL     1       6.571  -2.342   5.392  1.00  0.00     0.049 A 
ATOM     44  H   UNL     1       5.911  -1.715   7.266  1.00  0.00     0.167 HD
ATOM     45  C   UNL     1       4.386  -0.310  11.124  1.00  0.00     0.037 A 
ATOM     46  C   UNL     1       7.916  -2.263   5.396  1.00  0.00     0.037 A 
ATOM     47  C   UNL     1       5.819  -0.265  11.246  1.00  0.00     0.049 A 
ATOM     48  C   UNL     1       8.623  -1.801   6.641  1.00  0.00     0.074 A 
ATOM     49  C   UNL     1       6.579   0.093  12.346  1.00  0.00     0.029 A 
ATOM     50  N   UNL     1       6.710  -0.590  10.234  1.00  0.00    -0.354 N 
ATOM     51  N   UNL     1       8.109  -1.423   7.787  1.00  0.00    -0.248 NA
ATOM     52  C   UNL     1      10.091  -1.760   6.596  1.00  0.00     0.031 C 
ATOM     53  C   UNL     1       7.929   0.019  11.988  1.00  0.00     0.029 A 
ATOM     54  C   UNL     1       8.012  -0.426  10.678  1.00  0.00     0.049 A 
ATOM     55  H   UNL     1       6.455  -0.893   9.333  1.00  0.00     0.167 HD
ATOM     56  C   UNL     1       9.191  -1.124   8.608  1.00  0.00     0.074 A 
ATOM     57  C   UNL     1      10.387  -1.374   7.830  1.00  0.00     0.031 C 
ATOM     58  C   UNL     1       9.193  -0.684   9.891  1.00  0.00     0.037 A 
BRANCH  45  59
ATOM     59  C   UNL     1       3.548   0.134  12.293  1.00  0.00     0.058 A 
ATOM     60  C   UNL     1       2.795  -0.778  13.050  1.00  0.00     0.135 A 
ATOM     61  C   UNL     1       3.501   1.488  12.665  1.00  0.00     0.135 A 
ATOM     62  F   UNL     1       2.791  -2.082  12.730  1.00  0.00    -0.206 F 
ATOM     63  C   UNL     1       1.990  -0.359  14.105  1.00  0.00     0.059 A 
ATOM     64  C   UNL     1       2.726   1.925  13.736  1.00  0.00     0.059 A 
ATOM     65  F   UNL     1       4.203   2.403  11.979  1.00  0.00    -0.206 F 
ATOM     66  C   UNL     1       1.957   0.995  14.436  1.00  0.00     0.060 A 
BRANCH  66  67
ATOM     67  S   UNL     1       0.892   1.530  15.792  1.00  0.00     0.124 S 
ATOM     68  O   UNL     1      -0.428   1.454  15.170  1.00  0.00    -0.237 OA
ATOM     69  O   UNL     1       1.163   0.524  16.818  1.00  0.00    -0.237 OA
ATOM     70  O   UNL     1       1.368   2.871  16.093  1.00  0.00    -0.744 OA
ENDBRANCH  66  67
ENDBRANCH  45  59
BRANCH  46  71
ATOM     71  C   UNL     1       8.682  -2.670   4.188  1.00  0.00     0.058 A 
ATOM     72  C   UNL     1       9.416  -3.865   4.173  1.00  0.00     0.135 A 
ATOM     73  C   UNL     1       8.666  -1.897   3.017  1.00  0.00     0.135 A 
ATOM     74  F   UNL     1       9.467  -4.635   5.271  1.00  0.00    -0.206 F 
ATOM     75  C   UNL     1      10.113  -4.278   3.042  1.00  0.00     0.059 A 
ATOM     76  C   UNL     1       9.336  -2.300   1.866  1.00  0.00     0.059 A 
ATOM     77  F   UNL     1       7.964  -0.754   2.976  1.00  0.00    -0.206 F 
ATOM     78  C   UNL     1      10.062  -3.490   1.891  1.00  0.00     0.060 A 
BRANCH  78  79
ATOM     79  S   UNL     1      10.912  -4.071   0.406  1.00  0.00     0.124 S 
ATOM     80  O   UNL     1      12.307  -3.826   0.751  1.00  0.00    -0.237 OA
ATOM     81  O   UNL     1      10.504  -5.472   0.348  1.00  0.00    -0.237 OA
ATOM     82  O   UNL     1      10.362  -3.223  -0.647  1.00  0.00    -0.744 OA
ENDBRANCH  78  79
ENDBRANCH  46  71
BRANCH  58  83
ATOM     83  C   UNL     1      10.529  -0.472  10.546  1.00  0.00     0.058 A 
ATOM     84  C   UNL     1      11.345   0.622  10.219  1.00  0.00     0.135 A 
ATOM     85  C   UNL     1      10.973  -1.346  11.551  1.00  0.00     0.135 A 
ATOM     86  F   UNL     1      10.969   1.483   9.261  1.00  0.00    -0.206 F 
ATOM     87  C   UNL     1      12.567   0.829  10.850  1.00  0.00     0.059 A 
ATOM     88  C   UNL     1      12.180  -1.144  12.213  1.00  0.00     0.059 A 
ATOM     89  F   UNL     1      10.225  -2.401  11.909  1.00  0.00    -0.206 F 
ATOM     90  C   UNL     1      12.976  -0.059  11.847  1.00  0.00     0.060 A 
BRANCH  90  91
ATOM     91  S   UNL     1      14.548   0.239  12.682  1.00  0.00     0.124 S 
ATOM     92  O   UNL     1      15.506  -0.188  11.667  1.00  0.00    -0.237 OA
ATOM     93  O   UNL     1      14.498   1.675  12.942  1.00  0.00    -0.237 OA
ATOM     94  O   UNL     1      14.469  -0.609  13.868  1.00  0.00    -0.744 OA
ENDBRANCH  90  91
ENDBRANCH  58  83
ENDBRANCH  32  33
ENDBRANCH  24  27
ENDBRANCH  22  23
ENDBRANCH   1  22
TORSDOF 18
