REMARK SMILES C[C@H](C[N@@H+](C)[C@H]1CC[C@H]([NH3+])CC1)C(=O)NCCCNC(=O)c1ccc(-c2c3nc(c(-c4c(F)cc(S(=O)(=O)[O-])cc4F)c4ccc([nH]4)c(-c4c(F)cc(S(=O)(=O)[O-])cc4F)c4nc(c(-c5c(F)cc(S(=O)(=O)[O-])cc5F)c5ccc2[nH]5)C=C4)C=C3)cc1
REMARK SMILES IDX 16 1 15 2 13 3 14 4 2 6 1 7 3 8 4 9 5 10 6 12 7 13 12 14
REMARK SMILES IDX 8 15 11 16 9 17 10 18 17 22 18 23 19 24 20 25 21 27 22 28
REMARK SMILES IDX 23 29 87 30 24 31 86 32 25 33 26 34 27 35 80 36 28 37 85 38
REMARK SMILES IDX 79 39 81 40 29 41 84 42 78 43 77 44 30 46 64 47 43 48 63 49
REMARK SMILES IDX 44 50 47 51 62 52 82 53 45 54 46 55 61 57 83 58 48 59 31 60
REMARK SMILES IDX 32 61 41 62 33 63 34 64 40 65 42 66 35 67 36 68 37 69 38 70
REMARK SMILES IDX 39 71 65 72 66 73 75 74 67 75 68 76 74 77 76 78 69 79 70 80
REMARK SMILES IDX 71 81 72 82 73 83 49 84 50 85 59 86 51 87 52 88 58 89 60 90
REMARK SMILES IDX 53 91 54 92 55 93 56 94 57 95
REMARK H PARENT 15 5 4 11 10 19 10 20 10 21 19 26 81 45 47 56
REMARK Flexibility Score: inf
ROOT
ATOM      1  C   UNL     1      -2.008   0.862   0.435  1.00  0.00     0.117 C 
ENDROOT
BRANCH   1   2
ATOM      2  N   UNL     1      -1.900  -0.561   0.517  1.00  0.00    -0.356 N 
ATOM      3  C   UNL     1      -0.861  -1.242   1.081  1.00  0.00     0.228 C 
ATOM      4  O   UNL     1      -1.157  -2.338   1.578  1.00  0.00    -0.275 OA
ATOM      5  H   UNL     1      -2.636  -1.093   0.137  1.00  0.00     0.163 HD
BRANCH   3   6
ATOM      6  C   UNL     1       0.633  -0.808   1.036  1.00  0.00     0.130 C 
ATOM      7  C   UNL     1       1.346  -1.184   2.349  1.00  0.00     0.024 C 
BRANCH   6   8
ATOM      8  C   UNL     1       1.207   0.489   0.381  1.00  0.00     0.275 C 
BRANCH   8   9
ATOM      9  N   UNL     1       1.552   1.694   1.165  1.00  0.00    -0.334 N 
ATOM     10  C   UNL     1       2.882   2.234   0.960  1.00  0.00     0.332 C 
ATOM     11  H   UNL     1       1.536   1.177   2.043  1.00  0.00     0.348 HD
BRANCH   9  12
ATOM     12  C   UNL     1       0.558   2.512   1.857  1.00  0.00     0.184 C 
ATOM     13  C   UNL     1       0.800   4.027   2.034  1.00  0.00     0.071 C 
ATOM     14  C   UNL     1       0.245   1.889   3.221  1.00  0.00     0.071 C 
ATOM     15  C   UNL     1      -0.461   4.679   2.631  1.00  0.00     0.071 C 
ATOM     16  C   UNL     1      -0.946   2.539   3.910  1.00  0.00     0.071 C 
ATOM     17  C   UNL     1      -0.839   4.060   3.981  1.00  0.00     0.181 C 
BRANCH  17  18
ATOM     18  N   UNL     1      -2.117   4.586   4.463  1.00  0.00    -0.355 N 
ATOM     19  H   UNL     1      -2.858   4.329   3.812  1.00  0.00     0.344 HD
ATOM     20  H   UNL     1      -2.062   5.603   4.532  1.00  0.00     0.344 HD
ATOM     21  H   UNL     1      -2.321   4.194   5.383  1.00  0.00     0.344 HD
ENDBRANCH  17  18
ENDBRANCH   9  12
ENDBRANCH   8   9
ENDBRANCH   6   8
ENDBRANCH   3   6
ENDBRANCH   1   2
BRANCH   1  22
ATOM     22  C   UNL     1      -2.540   1.469  -0.843  1.00  0.00     0.042 C 
BRANCH  22  23
ATOM     23  C   UNL     1      -3.863   2.200  -0.667  1.00  0.00     0.118 C 
BRANCH  23  24
ATOM     24  N   UNL     1      -3.845   3.282   0.323  1.00  0.00    -0.352 N 
ATOM     25  C   UNL     1      -4.085   4.637   0.226  1.00  0.00     0.251 C 
ATOM     26  H   UNL     1      -3.618   2.984   1.233  1.00  0.00     0.163 HD
ATOM     27  O   UNL     1      -3.957   5.330   1.236  1.00  0.00    -0.269 OA
BRANCH  25  28
ATOM     28  C   UNL     1      -4.436   5.271  -1.067  1.00  0.00     0.039 A 
ATOM     29  C   UNL     1      -3.943   6.546  -1.369  1.00  0.00     0.014 A 
ATOM     30  C   UNL     1      -5.225   4.612  -2.003  1.00  0.00     0.014 A 
ATOM     31  C   UNL     1      -4.126   7.084  -2.651  1.00  0.00     0.010 A 
ATOM     32  C   UNL     1      -5.280   5.075  -3.311  1.00  0.00     0.010 A 
ATOM     33  C   UNL     1      -4.728   6.316  -3.659  1.00  0.00    -0.014 A 
BRANCH  33  34
ATOM     34  C   UNL     1      -4.803   6.752  -5.082  1.00  0.00     0.031 A 
ATOM     35  C   UNL     1      -6.136   6.764  -5.790  1.00  0.00     0.074 A 
ATOM     36  C   UNL     1      -3.672   6.994  -5.779  1.00  0.00     0.049 A 
ATOM     37  N   UNL     1      -6.396   6.867  -7.068  1.00  0.00    -0.248 NA
ATOM     38  C   UNL     1      -7.332   6.577  -4.951  1.00  0.00     0.031 C 
ATOM     39  C   UNL     1      -2.312   6.962  -5.236  1.00  0.00     0.029 A 
ATOM     40  N   UNL     1      -3.485   7.286  -7.109  1.00  0.00    -0.354 N 
ATOM     41  C   UNL     1      -7.773   6.708  -7.188  1.00  0.00     0.074 A 
ATOM     42  C   UNL     1      -8.284   6.445  -5.861  1.00  0.00     0.031 C 
ATOM     43  C   UNL     1      -1.436   7.244  -6.214  1.00  0.00     0.029 A 
ATOM     44  C   UNL     1      -2.162   7.420  -7.466  1.00  0.00     0.049 A 
ATOM     45  H   UNL     1      -4.227   7.390  -7.747  1.00  0.00     0.167 HD
ATOM     46  C   UNL     1      -8.545   6.799  -8.296  1.00  0.00     0.037 A 
ATOM     47  C   UNL     1      -1.594   7.638  -8.669  1.00  0.00     0.037 A 
ATOM     48  C   UNL     1      -8.038   7.127  -9.602  1.00  0.00     0.049 A 
ATOM     49  C   UNL     1      -2.473   7.766  -9.883  1.00  0.00     0.074 A 
ATOM     50  C   UNL     1      -8.746   7.330 -10.773  1.00  0.00     0.029 A 
ATOM     51  N   UNL     1      -6.697   7.313  -9.907  1.00  0.00    -0.354 N 
ATOM     52  N   UNL     1      -3.779   7.663  -9.969  1.00  0.00    -0.248 NA
ATOM     53  C   UNL     1      -1.806   8.037 -11.164  1.00  0.00     0.031 C 
ATOM     54  C   UNL     1      -7.830   7.603 -11.795  1.00  0.00     0.029 A 
ATOM     55  C   UNL     1      -6.556   7.614 -11.251  1.00  0.00     0.049 A 
ATOM     56  H   UNL     1      -5.957   7.241  -9.262  1.00  0.00     0.167 HD
ATOM     57  C   UNL     1      -4.090   7.882 -11.306  1.00  0.00     0.074 A 
ATOM     58  C   UNL     1      -2.839   8.134 -11.991  1.00  0.00     0.031 C 
ATOM     59  C   UNL     1      -5.302   7.875 -11.913  1.00  0.00     0.037 A 
BRANCH  46  60
ATOM     60  C   UNL     1     -10.023   6.558  -8.142  1.00  0.00     0.058 A 
ATOM     61  C   UNL     1     -10.849   7.456  -7.447  1.00  0.00     0.135 A 
ATOM     62  C   UNL     1     -10.628   5.429  -8.720  1.00  0.00     0.135 A 
ATOM     63  F   UNL     1     -10.323   8.544  -6.861  1.00  0.00    -0.206 F 
ATOM     64  C   UNL     1     -12.212   7.226  -7.297  1.00  0.00     0.059 A 
ATOM     65  C   UNL     1     -11.996   5.196  -8.610  1.00  0.00     0.059 A 
ATOM     66  F   UNL     1      -9.888   4.537  -9.397  1.00  0.00    -0.206 F 
ATOM     67  C   UNL     1     -12.777   6.091  -7.881  1.00  0.00     0.060 A 
BRANCH  67  68
ATOM     68  S   UNL     1     -14.548   5.809  -7.677  1.00  0.00     0.124 S 
ATOM     69  O   UNL     1     -14.615   5.393  -6.279  1.00  0.00    -0.237 OA
ATOM     70  O   UNL     1     -15.110   7.123  -7.974  1.00  0.00    -0.237 OA
ATOM     71  O   UNL     1     -14.842   4.769  -8.656  1.00  0.00    -0.744 OA
ENDBRANCH  67  68
ENDBRANCH  46  60
BRANCH  47  72
ATOM     72  C   UNL     1      -0.115   7.768  -8.783  1.00  0.00     0.058 A 
ATOM     73  C   UNL     1       0.475   9.011  -9.056  1.00  0.00     0.135 A 
ATOM     74  C   UNL     1       0.736   6.666  -8.606  1.00  0.00     0.135 A 
ATOM     75  F   UNL     1      -0.297  10.093  -9.240  1.00  0.00    -0.206 F 
ATOM     76  C   UNL     1       1.854   9.157  -9.165  1.00  0.00     0.059 A 
ATOM     77  C   UNL     1       2.121   6.792  -8.685  1.00  0.00     0.059 A 
ATOM     78  F   UNL     1       0.224   5.458  -8.326  1.00  0.00    -0.206 F 
ATOM     79  C   UNL     1       2.670   8.040  -8.974  1.00  0.00     0.060 A 
BRANCH  79  80
ATOM     80  S   UNL     1       4.461   8.252  -9.065  1.00  0.00     0.124 S 
ATOM     81  O   UNL     1       4.665   8.424 -10.498  1.00  0.00    -0.237 OA
ATOM     82  O   UNL     1       4.671   9.441  -8.243  1.00  0.00    -0.237 OA
ATOM     83  O   UNL     1       4.975   7.009  -8.497  1.00  0.00    -0.744 OA
ENDBRANCH  79  80
ENDBRANCH  47  72
BRANCH  59  84
ATOM     84  C   UNL     1      -5.347   8.181 -13.383  1.00  0.00     0.058 A 
ATOM     85  C   UNL     1      -4.926   7.248 -14.342  1.00  0.00     0.135 A 
ATOM     86  C   UNL     1      -5.887   9.395 -13.838  1.00  0.00     0.135 A 
ATOM     87  F   UNL     1      -4.395   6.077 -13.958  1.00  0.00    -0.206 F 
ATOM     88  C   UNL     1      -5.028   7.513 -15.704  1.00  0.00     0.059 A 
ATOM     89  C   UNL     1      -6.023   9.670 -15.195  1.00  0.00     0.059 A 
ATOM     90  F   UNL     1      -6.313  10.317 -12.960  1.00  0.00    -0.206 F 
ATOM     91  C   UNL     1      -5.583   8.724 -16.121  1.00  0.00     0.060 A 
BRANCH  91  92
ATOM     92  S   UNL     1      -5.760   9.031 -17.891  1.00  0.00     0.124 S 
ATOM     93  O   UNL     1      -4.379   9.291 -18.284  1.00  0.00    -0.237 OA
ATOM     94  O   UNL     1      -6.330   7.776 -18.370  1.00  0.00    -0.237 OA
ATOM     95  O   UNL     1      -6.657  10.181 -17.949  1.00  0.00    -0.744 OA
ENDBRANCH  91  92
ENDBRANCH  59  84
ENDBRANCH  33  34
ENDBRANCH  25  28
ENDBRANCH  23  24
ENDBRANCH  22  23
ENDBRANCH   1  22
TORSDOF 17
