REMARK SMILES C[C@H]1C[C@H]1C(=O)Nc1cc(C(F)(F)F)ccc1C(=O)NCCCNC(=O)c1ccc(-c2c3nc(c(-c4c(F)cc(S(=O)(=O)[O-])cc4F)c4ccc([nH]4)c(-c4c(F)cc(S(=O)(=O)[O-])cc4F)c4nc(c(-c5c(F)cc(S(=O)(=O)[O-])cc5F)c5ccc2[nH]5)C=C4)C=C3)cc1
REMARK SMILES IDX 22 1 21 2 20 3 18 4 19 5 17 7 8 8 9 9 10 10 16 11 15 12 7 13
REMARK SMILES IDX 5 14 6 15 4 17 1 18 2 19 3 20 11 21 12 22 13 23 14 24 23 25
REMARK SMILES IDX 24 26 25 27 26 29 27 30 28 31 92 32 29 33 91 34 30 35 31 36
REMARK SMILES IDX 32 37 85 38 33 39 90 40 84 41 86 42 34 43 89 44 83 45 82 46
REMARK SMILES IDX 35 48 69 49 48 50 68 51 49 52 52 53 67 54 87 55 50 56 51 57
REMARK SMILES IDX 66 59 88 60 53 61 36 62 37 63 46 64 38 65 39 66 45 67 47 68
REMARK SMILES IDX 40 69 41 70 42 71 43 72 44 73 70 74 71 75 80 76 72 77 73 78
REMARK SMILES IDX 79 79 81 80 74 81 75 82 76 83 77 84 78 85 54 86 55 87 64 88
REMARK SMILES IDX 56 89 57 90 63 91 65 92 58 93 59 94 60 95 61 96 62 97
REMARK H PARENT 20 6 7 16 24 28 86 47 52 58
REMARK Flexibility Score: inf
ROOT
ATOM      1  C   UNL     1      -4.023   0.880   2.683  1.00  0.00     0.042 C 
ENDROOT
BRANCH   1   2
ATOM      2  C   UNL     1      -2.794   0.001   2.856  1.00  0.00     0.118 C 
BRANCH   2   3
ATOM      3  N   UNL     1      -1.553   0.715   2.613  1.00  0.00    -0.352 N 
ATOM      4  C   UNL     1      -0.306   0.592   3.153  1.00  0.00     0.253 C 
ATOM      5  O   UNL     1       0.531   1.437   2.827  1.00  0.00    -0.269 OA
ATOM      6  H   UNL     1      -1.625   1.421   1.930  1.00  0.00     0.163 HD
BRANCH   4   7
ATOM      7  C   UNL     1       0.063  -0.423   4.171  1.00  0.00     0.063 A 
ATOM      8  C   UNL     1      -0.357  -1.753   4.253  1.00  0.00     0.054 A 
ATOM      9  C   UNL     1      -0.068  -2.482   5.429  1.00  0.00     0.040 A 
ATOM     10  C   UNL     1       0.764  -1.985   6.441  1.00  0.00     0.058 A 
ATOM     11  C   UNL     1       0.920   0.070   5.184  1.00  0.00     0.016 A 
ATOM     12  C   UNL     1       1.282  -0.702   6.293  1.00  0.00     0.014 A 
BRANCH   8  13
ATOM     13  N   UNL     1      -1.066  -2.514   3.323  1.00  0.00    -0.325 N 
ATOM     14  C   UNL     1      -1.160  -2.617   1.970  1.00  0.00     0.227 C 
ATOM     15  O   UNL     1      -2.050  -3.372   1.567  1.00  0.00    -0.274 OA
ATOM     16  H   UNL     1      -1.665  -3.155   3.771  1.00  0.00     0.169 HD
BRANCH  14  17
ATOM     17  C   UNL     1      -0.290  -2.022   0.932  1.00  0.00     0.082 C 
ATOM     18  C   UNL     1       2.112  -0.964   1.575  1.00  0.00     0.008 C 
ATOM     19  C   UNL     1       1.113  -1.542   0.655  1.00  0.00    -0.001 C 
ATOM     20  C   UNL     1       0.868  -3.002   0.632  1.00  0.00     0.018 C 
ENDBRANCH  14  17
ENDBRANCH   8  13
BRANCH  10  21
ATOM     21  C   UNL     1       1.071  -2.823   7.657  1.00  0.00     0.416 C 
ATOM     22  F   UNL     1       0.215  -2.578   8.686  1.00  0.00    -0.166 F 
ATOM     23  F   UNL     1       0.989  -4.162   7.414  1.00  0.00    -0.166 F 
ATOM     24  F   UNL     1       2.323  -2.614   8.148  1.00  0.00    -0.166 F 
ENDBRANCH  10  21
ENDBRANCH   4   7
ENDBRANCH   2   3
ENDBRANCH   1   2
BRANCH   1  25
ATOM     25  C   UNL     1      -4.183   1.442   1.273  1.00  0.00     0.118 C 
BRANCH  25  26
ATOM     26  N   UNL     1      -4.538   0.444   0.270  1.00  0.00    -0.352 N 
ATOM     27  C   UNL     1      -5.723   0.225  -0.402  1.00  0.00     0.251 C 
ATOM     28  H   UNL     1      -3.811  -0.176   0.033  1.00  0.00     0.163 HD
ATOM     29  O   UNL     1      -5.834  -0.735  -1.149  1.00  0.00    -0.269 OA
BRANCH  27  30
ATOM     30  C   UNL     1      -6.876   1.125  -0.175  1.00  0.00     0.039 A 
ATOM     31  C   UNL     1      -8.137   0.568   0.052  1.00  0.00     0.014 A 
ATOM     32  C   UNL     1      -6.710   2.508  -0.141  1.00  0.00     0.014 A 
ATOM     33  C   UNL     1      -9.199   1.395   0.429  1.00  0.00     0.010 A 
ATOM     34  C   UNL     1      -7.729   3.311   0.357  1.00  0.00     0.010 A 
ATOM     35  C   UNL     1      -8.987   2.765   0.652  1.00  0.00    -0.014 A 
BRANCH  35  36
ATOM     36  C   UNL     1     -10.054   3.649   1.196  1.00  0.00     0.031 A 
ATOM     37  C   UNL     1     -10.475   4.879   0.432  1.00  0.00     0.074 A 
ATOM     38  C   UNL     1     -10.570   3.404   2.419  1.00  0.00     0.049 A 
ATOM     39  N   UNL     1     -11.282   5.842   0.796  1.00  0.00    -0.248 NA
ATOM     40  C   UNL     1      -9.870   5.080  -0.896  1.00  0.00     0.031 C 
ATOM     41  C   UNL     1     -10.191   2.293   3.298  1.00  0.00     0.029 A 
ATOM     42  N   UNL     1     -11.521   4.080   3.143  1.00  0.00    -0.354 N 
ATOM     43  C   UNL     1     -11.242   6.779  -0.231  1.00  0.00     0.074 A 
ATOM     44  C   UNL     1     -10.295   6.295  -1.210  1.00  0.00     0.031 C 
ATOM     45  C   UNL     1     -10.928   2.342   4.420  1.00  0.00     0.029 A 
ATOM     46  C   UNL     1     -11.803   3.507   4.362  1.00  0.00     0.049 A 
ATOM     47  H   UNL     1     -11.961   4.899   2.820  1.00  0.00     0.167 HD
ATOM     48  C   UNL     1     -11.952   7.924  -0.362  1.00  0.00     0.037 A 
ATOM     49  C   UNL     1     -12.669   3.880   5.325  1.00  0.00     0.037 A 
ATOM     50  C   UNL     1     -12.960   8.354   0.570  1.00  0.00     0.049 A 
ATOM     51  C   UNL     1     -13.504   5.114   5.116  1.00  0.00     0.074 A 
ATOM     52  C   UNL     1     -13.815   9.438   0.473  1.00  0.00     0.029 A 
ATOM     53  N   UNL     1     -13.261   7.710   1.760  1.00  0.00    -0.354 N 
ATOM     54  N   UNL     1     -13.503   5.947   4.103  1.00  0.00    -0.248 NA
ATOM     55  C   UNL     1     -14.460   5.457   6.178  1.00  0.00     0.031 C 
ATOM     56  C   UNL     1     -14.618   9.462   1.618  1.00  0.00     0.029 A 
ATOM     57  C   UNL     1     -14.284   8.376   2.411  1.00  0.00     0.049 A 
ATOM     58  H   UNL     1     -12.813   6.898   2.092  1.00  0.00     0.167 HD
ATOM     59  C   UNL     1     -14.475   6.897   4.393  1.00  0.00     0.074 A 
ATOM     60  C   UNL     1     -15.053   6.528   5.669  1.00  0.00     0.031 C 
ATOM     61  C   UNL     1     -14.855   7.980   3.672  1.00  0.00     0.037 A 
BRANCH  48  62
ATOM     62  C   UNL     1     -11.690   8.779  -1.571  1.00  0.00     0.058 A 
ATOM     63  C   UNL     1     -12.098   8.386  -2.855  1.00  0.00     0.135 A 
ATOM     64  C   UNL     1     -11.061  10.028  -1.438  1.00  0.00     0.135 A 
ATOM     65  F   UNL     1     -12.688   7.194  -3.041  1.00  0.00    -0.206 F 
ATOM     66  C   UNL     1     -11.872   9.188  -3.968  1.00  0.00     0.059 A 
ATOM     67  C   UNL     1     -10.848  10.859  -2.534  1.00  0.00     0.059 A 
ATOM     68  F   UNL     1     -10.648  10.453  -0.233  1.00  0.00    -0.206 F 
ATOM     69  C   UNL     1     -11.247  10.424  -3.797  1.00  0.00     0.060 A 
BRANCH  69  70
ATOM     70  S   UNL     1     -10.982  11.464  -5.249  1.00  0.00     0.124 S 
ATOM     71  O   UNL     1      -9.859  10.787  -5.890  1.00  0.00    -0.237 OA
ATOM     72  O   UNL     1     -12.261  11.364  -5.944  1.00  0.00    -0.237 OA
ATOM     73  O   UNL     1     -10.683  12.774  -4.678  1.00  0.00    -0.744 OA
ENDBRANCH  69  70
ENDBRANCH  48  62
BRANCH  49  74
ATOM     74  C   UNL     1     -12.825   3.062   6.558  1.00  0.00     0.058 A 
ATOM     75  C   UNL     1     -13.989   2.308   6.772  1.00  0.00     0.135 A 
ATOM     76  C   UNL     1     -11.834   3.029   7.549  1.00  0.00     0.135 A 
ATOM     77  F   UNL     1     -14.967   2.310   5.853  1.00  0.00    -0.206 F 
ATOM     78  C   UNL     1     -14.180   1.575   7.938  1.00  0.00     0.059 A 
ATOM     79  C   UNL     1     -11.992   2.284   8.715  1.00  0.00     0.059 A 
ATOM     80  F   UNL     1     -10.694   3.716   7.384  1.00  0.00    -0.206 F 
ATOM     81  C   UNL     1     -13.177   1.573   8.908  1.00  0.00     0.060 A 
BRANCH  81  82
ATOM     82  S   UNL     1     -13.422   0.603  10.412  1.00  0.00     0.124 S 
ATOM     83  O   UNL     1     -14.335   1.456  11.164  1.00  0.00    -0.237 OA
ATOM     84  O   UNL     1     -13.988  -0.637   9.892  1.00  0.00    -0.237 OA
ATOM     85  O   UNL     1     -12.072   0.486  10.955  1.00  0.00    -0.744 OA
ENDBRANCH  81  82
ENDBRANCH  49  74
BRANCH  61  86
ATOM     86  C   UNL     1     -15.969   8.818   4.227  1.00  0.00     0.058 A 
ATOM     87  C   UNL     1     -15.763   9.689   5.307  1.00  0.00     0.135 A 
ATOM     88  C   UNL     1     -17.244   8.783   3.641  1.00  0.00     0.135 A 
ATOM     89  F   UNL     1     -14.562   9.753   5.904  1.00  0.00    -0.206 F 
ATOM     90  C   UNL     1     -16.791  10.481   5.804  1.00  0.00     0.059 A 
ATOM     91  C   UNL     1     -18.281   9.583   4.107  1.00  0.00     0.059 A 
ATOM     92  F   UNL     1     -17.487   7.973   2.598  1.00  0.00    -0.206 F 
ATOM     93  C   UNL     1     -18.048  10.421   5.198  1.00  0.00     0.060 A 
BRANCH  93  94
ATOM     94  S   UNL     1     -19.369  11.475   5.831  1.00  0.00     0.124 S 
ATOM     95  O   UNL     1     -19.773  10.750   7.030  1.00  0.00    -0.237 OA
ATOM     96  O   UNL     1     -18.680  12.742   6.058  1.00  0.00    -0.237 OA
ATOM     97  O   UNL     1     -20.343  11.486   4.744  1.00  0.00    -0.744 OA
ENDBRANCH  93  94
ENDBRANCH  61  86
ENDBRANCH  35  36
ENDBRANCH  27  30
ENDBRANCH  25  26
ENDBRANCH   1  25
TORSDOF 16
