REMARK SMILES CC(C)[C@H](NC(N)=O)C(=O)N[C@H](C)C(=O)NCCCNC(=O)c1ccc(-c2c3nc(c(-c4c(F)cc(S(=O)(=O)[O-])cc4F)c4ccc([nH]4)c(-c4c(F)cc(S(=O)(=O)[O-])cc4F)c4nc(c(-c5c(F)cc(S(=O)(=O)[O-])cc5F)c5ccc2[nH]5)C=C4)C=C3)cc1
REMARK SMILES IDX 18 1 17 2 16 3 14 4 15 5 12 7 13 8 11 9 9 10 10 11 4 13 2 14
REMARK SMILES IDX 1 15 3 16 5 17 6 18 7 20 8 21 19 24 20 25 21 26 22 28 23 29
REMARK SMILES IDX 24 30 88 31 25 32 87 33 26 34 27 35 28 36 81 37 29 38 86 39
REMARK SMILES IDX 80 40 82 41 30 42 85 43 79 44 78 45 31 47 65 48 44 49 64 50
REMARK SMILES IDX 45 51 48 52 63 53 83 54 46 55 47 56 62 58 84 59 49 60 32 61
REMARK SMILES IDX 33 62 42 63 34 64 35 65 41 66 43 67 36 68 37 69 38 70 39 71
REMARK SMILES IDX 40 72 66 73 67 74 76 75 68 76 69 77 75 78 77 79 70 80 71 81
REMARK SMILES IDX 72 82 73 83 74 84 50 85 51 86 60 87 52 88 53 89 59 90 61 91
REMARK SMILES IDX 54 92 55 93 56 94 57 95 58 96
REMARK H PARENT 16 6 11 12 5 19 7 22 7 23 20 27 82 46 48 57
REMARK Flexibility Score: inf
ROOT
ATOM      1  C   UNL     1      -2.229  -6.956  -2.791  1.00  0.00     0.042 C 
ENDROOT
BRANCH   1   2
ATOM      2  C   UNL     1      -0.933  -6.316  -3.286  1.00  0.00     0.117 C 
BRANCH   2   3
ATOM      3  N   UNL     1      -1.157  -4.954  -3.733  1.00  0.00    -0.354 N 
ATOM      4  C   UNL     1      -0.915  -3.740  -3.181  1.00  0.00     0.242 C 
ATOM      5  O   UNL     1      -1.407  -2.777  -3.788  1.00  0.00    -0.273 OA
ATOM      6  H   UNL     1      -1.573  -4.901  -4.624  1.00  0.00     0.163 HD
BRANCH   4   7
ATOM      7  C   UNL     1      -0.154  -3.473  -1.848  1.00  0.00     0.168 C 
ATOM      8  C   UNL     1      -1.054  -2.698  -0.889  1.00  0.00     0.041 C 
BRANCH   7   9
ATOM      9  N   UNL     1       0.830  -4.433  -1.319  1.00  0.00    -0.343 N 
ATOM     10  C   UNL     1       1.071  -5.272  -0.286  1.00  0.00     0.243 C 
ATOM     11  O   UNL     1       2.148  -5.882  -0.383  1.00  0.00    -0.273 OA
ATOM     12  H   UNL     1       1.589  -4.481  -1.945  1.00  0.00     0.164 HD
BRANCH  10  13
ATOM     13  C   UNL     1       0.147  -5.586   0.917  1.00  0.00     0.175 C 
BRANCH  13  14
ATOM     14  C   UNL     1      -1.042  -6.472   0.471  1.00  0.00     0.015 C 
ATOM     15  C   UNL     1      -1.251  -7.703   1.359  1.00  0.00     0.010 C 
ATOM     16  C   UNL     1      -2.365  -5.739   0.278  1.00  0.00     0.010 C 
ENDBRANCH  13  14
BRANCH  13  17
ATOM     17  N   UNL     1      -0.146  -4.380   1.673  1.00  0.00    -0.326 N 
ATOM     18  C   UNL     1      -0.881  -4.354   2.814  1.00  0.00     0.312 C 
ATOM     19  H   UNL     1       0.211  -3.527   1.335  1.00  0.00     0.166 HD
ATOM     20  N   UNL     1      -1.182  -3.094   3.205  1.00  0.00    -0.352 N 
ATOM     21  O   UNL     1      -1.301  -5.322   3.422  1.00  0.00    -0.249 OA
ATOM     22  H   UNL     1      -0.832  -2.325   2.699  1.00  0.00     0.161 HD
ATOM     23  H   UNL     1      -1.750  -2.946   3.995  1.00  0.00     0.161 HD
ENDBRANCH  13  17
ENDBRANCH  10  13
ENDBRANCH   7   9
ENDBRANCH   4   7
ENDBRANCH   2   3
ENDBRANCH   1   2
BRANCH   1  24
ATOM     24  C   UNL     1      -3.135  -7.513  -3.880  1.00  0.00     0.118 C 
BRANCH  24  25
ATOM     25  N   UNL     1      -2.678  -8.806  -4.363  1.00  0.00    -0.352 N 
ATOM     26  C   UNL     1      -3.156 -10.078  -4.149  1.00  0.00     0.251 C 
ATOM     27  H   UNL     1      -1.887  -8.763  -4.948  1.00  0.00     0.163 HD
ATOM     28  O   UNL     1      -2.446 -11.024  -4.488  1.00  0.00    -0.269 OA
BRANCH  26  29
ATOM     29  C   UNL     1      -4.479 -10.344  -3.523  1.00  0.00     0.039 A 
ATOM     30  C   UNL     1      -4.638 -11.517  -2.773  1.00  0.00     0.014 A 
ATOM     31  C   UNL     1      -5.588  -9.521  -3.727  1.00  0.00     0.014 A 
ATOM     32  C   UNL     1      -5.879 -11.835  -2.207  1.00  0.00     0.010 A 
ATOM     33  C   UNL     1      -6.796  -9.785  -3.078  1.00  0.00     0.010 A 
ATOM     34  C   UNL     1      -6.968 -10.959  -2.332  1.00  0.00    -0.014 A 
BRANCH  34  35
ATOM     35  C   UNL     1      -8.296 -11.275  -1.733  1.00  0.00     0.031 A 
ATOM     36  C   UNL     1      -9.514 -11.416  -2.615  1.00  0.00     0.074 A 
ATOM     37  C   UNL     1      -8.424 -11.390  -0.395  1.00  0.00     0.049 A 
ATOM     38  N   UNL     1     -10.763 -11.621  -2.279  1.00  0.00    -0.248 NA
ATOM     39  C   UNL     1      -9.305 -11.282  -4.066  1.00  0.00     0.031 C 
ATOM     40  C   UNL     1      -7.338 -11.234   0.575  1.00  0.00     0.029 A 
ATOM     41  N   UNL     1      -9.524 -11.657   0.383  1.00  0.00    -0.354 N 
ATOM     42  C   UNL     1     -11.485 -11.618  -3.468  1.00  0.00     0.074 A 
ATOM     43  C   UNL     1     -10.545 -11.334  -4.529  1.00  0.00     0.031 C 
ATOM     44  C   UNL     1      -7.820 -11.435   1.812  1.00  0.00     0.029 A 
ATOM     45  C   UNL     1      -9.254 -11.691   1.732  1.00  0.00     0.049 A 
ATOM     46  H   UNL     1     -10.423 -11.811   0.010  1.00  0.00     0.167 HD
ATOM     47  C   UNL     1     -12.805 -11.856  -3.664  1.00  0.00     0.037 A 
ATOM     48  C   UNL     1     -10.069 -11.895   2.786  1.00  0.00     0.037 A 
ATOM     49  C   UNL     1     -13.732 -12.174  -2.608  1.00  0.00     0.049 A 
ATOM     50  C   UNL     1     -11.532 -12.158   2.545  1.00  0.00     0.074 A 
ATOM     51  C   UNL     1     -15.075 -12.491  -2.709  1.00  0.00     0.029 A 
ATOM     52  N   UNL     1     -13.413 -12.216  -1.259  1.00  0.00    -0.354 N 
ATOM     53  N   UNL     1     -12.184 -12.209   1.407  1.00  0.00    -0.248 NA
ATOM     54  C   UNL     1     -12.369 -12.399   3.728  1.00  0.00     0.031 C 
ATOM     55  C   UNL     1     -15.580 -12.676  -1.418  1.00  0.00     0.029 A 
ATOM     56  C   UNL     1     -14.539 -12.532  -0.516  1.00  0.00     0.049 A 
ATOM     57  H   UNL     1     -12.518 -12.047  -0.884  1.00  0.00     0.167 HD
ATOM     58  C   UNL     1     -13.500 -12.516   1.737  1.00  0.00     0.074 A 
ATOM     59  C   UNL     1     -13.548 -12.652   3.178  1.00  0.00     0.031 C 
ATOM     60  C   UNL     1     -14.571 -12.673   0.919  1.00  0.00     0.037 A 
BRANCH  47  61
ATOM     61  C   UNL     1     -13.329 -11.789  -5.075  1.00  0.00     0.058 A 
ATOM     62  C   UNL     1     -12.980 -12.747  -6.041  1.00  0.00     0.135 A 
ATOM     63  C   UNL     1     -14.222 -10.774  -5.458  1.00  0.00     0.135 A 
ATOM     64  F   UNL     1     -12.120 -13.732  -5.737  1.00  0.00    -0.206 F 
ATOM     65  C   UNL     1     -13.469 -12.684  -7.342  1.00  0.00     0.059 A 
ATOM     66  C   UNL     1     -14.749 -10.709  -6.746  1.00  0.00     0.059 A 
ATOM     67  F   UNL     1     -14.593  -9.832  -4.578  1.00  0.00    -0.206 F 
ATOM     68  C   UNL     1     -14.354 -11.660  -7.685  1.00  0.00     0.060 A 
BRANCH  68  69
ATOM     69  S   UNL     1     -14.981 -11.595  -9.377  1.00  0.00     0.124 S 
ATOM     70  O   UNL     1     -13.796 -11.159 -10.110  1.00  0.00    -0.237 OA
ATOM     71  O   UNL     1     -15.396 -12.975  -9.609  1.00  0.00    -0.237 OA
ATOM     72  O   UNL     1     -16.065 -10.621  -9.301  1.00  0.00    -0.744 OA
ENDBRANCH  68  69
ENDBRANCH  47  61
BRANCH  48  73
ATOM     73  C   UNL     1      -9.515 -11.879   4.168  1.00  0.00     0.058 A 
ATOM     74  C   UNL     1      -9.435 -13.055   4.929  1.00  0.00     0.135 A 
ATOM     75  C   UNL     1      -9.045 -10.692   4.753  1.00  0.00     0.135 A 
ATOM     76  F   UNL     1      -9.878 -14.214   4.418  1.00  0.00    -0.206 F 
ATOM     77  C   UNL     1      -8.928 -13.054   6.224  1.00  0.00     0.059 A 
ATOM     78  C   UNL     1      -8.507 -10.671   6.036  1.00  0.00     0.059 A 
ATOM     79  F   UNL     1      -9.085  -9.541   4.063  1.00  0.00    -0.206 F 
ATOM     80  C   UNL     1      -8.463 -11.856   6.769  1.00  0.00     0.060 A 
BRANCH  80  81
ATOM     81  S   UNL     1      -7.770 -11.875   8.436  1.00  0.00     0.124 S 
ATOM     82  O   UNL     1      -8.965 -12.065   9.249  1.00  0.00    -0.237 OA
ATOM     83  O   UNL     1      -6.854 -13.010   8.373  1.00  0.00    -0.237 OA
ATOM     84  O   UNL     1      -7.130 -10.568   8.550  1.00  0.00    -0.744 OA
ENDBRANCH  80  81
ENDBRANCH  48  73
BRANCH  60  85
ATOM     85  C   UNL     1     -15.882 -13.050   1.555  1.00  0.00     0.058 A 
ATOM     86  C   UNL     1     -16.623 -12.138   2.322  1.00  0.00     0.135 A 
ATOM     87  C   UNL     1     -16.428 -14.328   1.348  1.00  0.00     0.135 A 
ATOM     88  F   UNL     1     -16.145 -10.905   2.555  1.00  0.00    -0.206 F 
ATOM     89  C   UNL     1     -17.848 -12.486   2.882  1.00  0.00     0.059 A 
ATOM     90  C   UNL     1     -17.665 -14.688   1.873  1.00  0.00     0.059 A 
ATOM     91  F   UNL     1     -15.767 -15.236   0.613  1.00  0.00    -0.206 F 
ATOM     92  C   UNL     1     -18.362 -13.763   2.650  1.00  0.00     0.060 A 
BRANCH  92  93
ATOM     93  S   UNL     1     -19.968 -14.191   3.354  1.00  0.00     0.124 S 
ATOM     94  O   UNL     1     -19.640 -14.337   4.769  1.00  0.00    -0.237 OA
ATOM     95  O   UNL     1     -20.780 -13.027   3.010  1.00  0.00    -0.237 OA
ATOM     96  O   UNL     1     -20.327 -15.425   2.662  1.00  0.00    -0.744 OA
ENDBRANCH  92  93
ENDBRANCH  60  85
ENDBRANCH  34  35
ENDBRANCH  26  29
ENDBRANCH  24  25
ENDBRANCH   1  24
TORSDOF 17
