REMARK SMILES CC1=C(CC(=O)NCCCNC(=O)c2ccc(-c3c4nc(c(-c5c(F)cc(S(=O)(=O)[O-])cc5F)c5ccc([nH]5)c(-c5c(F)cc(S(=O)(=O)[O-])cc5F)c5nc(c(-c6c(F)cc(S(=O)(=O)[O-])cc6F)c6ccc3[nH]6)C=C5)C=C4)cc2)c2cc(F)ccc2/C1=C\c1ccc([S@@+](C)[O-])cc1
REMARK SMILES IDX 9 1 8 2 7 3 5 4 6 5 4 7 3 8 1 9 2 10 87 11 80 12 86 13 88 14
REMARK SMILES IDX 81 15 85 16 82 17 84 18 83 19 89 20 90 21 97 22 91 23 96 24
REMARK SMILES IDX 92 25 93 26 94 27 95 28 10 29 11 30 12 31 13 33 14 34 15 35
REMARK SMILES IDX 79 36 16 37 78 38 17 39 18 40 19 41 72 42 20 43 77 44 71 45
REMARK SMILES IDX 73 46 21 47 76 48 70 49 69 50 22 52 56 53 35 54 55 55 36 56
REMARK SMILES IDX 39 57 54 58 74 59 37 60 38 61 53 63 75 64 40 65 23 66 24 67
REMARK SMILES IDX 33 68 25 69 26 70 32 71 34 72 27 73 28 74 29 75 30 76 31 77
REMARK SMILES IDX 57 78 58 79 67 80 59 81 60 82 66 83 68 84 61 85 62 86 63 87
REMARK SMILES IDX 64 88 65 89 41 90 42 91 51 92 43 93 44 94 50 95 52 96 45 97
REMARK SMILES IDX 46 98 47 99 48 100 49 101
REMARK H PARENT 7 6 11 32 73 51 39 62
REMARK Flexibility Score: inf
ROOT
ATOM      1  C   UNL     1       1.861   0.962   3.596  1.00  0.00     0.042 C 
ENDROOT
BRANCH   1   2
ATOM      2  C   UNL     1       0.750  -0.080   3.528  1.00  0.00     0.117 C 
BRANCH   2   3
ATOM      3  N   UNL     1      -0.536   0.453   3.932  1.00  0.00    -0.356 N 
ATOM      4  C   UNL     1      -1.566   0.896   3.156  1.00  0.00     0.224 C 
ATOM      5  O   UNL     1      -2.576   1.323   3.721  1.00  0.00    -0.275 OA
ATOM      6  H   UNL     1      -0.686   0.503   4.903  1.00  0.00     0.163 HD
BRANCH   4   7
ATOM      7  C   UNL     1      -1.483   0.816   1.634  1.00  0.00     0.136 C 
BRANCH   7   8
ATOM      8  C   UNL     1      -0.532   1.796   1.027  1.00  0.00    -0.027 C 
ATOM      9  C   UNL     1       1.080   0.265  -0.246  1.00  0.00     0.045 C 
ATOM     10  C   UNL     1       0.551   1.573   0.245  1.00  0.00    -0.039 C 
ATOM     11  C   UNL     1       1.192   2.856  -0.096  1.00  0.00    -0.014 C 
ATOM     12  C   UNL     1      -0.693   3.256   1.162  1.00  0.00    -0.011 A 
ATOM     13  C   UNL     1       0.321   3.918   0.445  1.00  0.00    -0.010 A 
ATOM     14  C   UNL     1       2.379   2.974  -0.724  1.00  0.00     0.017 C 
ATOM     15  C   UNL     1      -1.670   3.981   1.834  1.00  0.00     0.048 A 
ATOM     16  C   UNL     1       0.325   5.304   0.347  1.00  0.00     0.012 A 
ATOM     17  C   UNL     1      -1.624   5.371   1.772  1.00  0.00     0.123 A 
ATOM     18  C   UNL     1      -0.647   6.035   1.031  1.00  0.00     0.040 A 
ATOM     19  F   UNL     1      -2.550   6.088   2.422  1.00  0.00    -0.207 F 
BRANCH  14  20
ATOM     20  C   UNL     1       3.060   4.240  -1.012  1.00  0.00    -0.025 A 
ATOM     21  C   UNL     1       3.617   5.005   0.021  1.00  0.00     0.013 A 
ATOM     22  C   UNL     1       3.054   4.743  -2.315  1.00  0.00     0.013 A 
ATOM     23  C   UNL     1       4.038   6.316  -0.225  1.00  0.00     0.061 A 
ATOM     24  C   UNL     1       3.490   6.048  -2.561  1.00  0.00     0.061 A 
ATOM     25  C   UNL     1       3.939   6.859  -1.512  1.00  0.00     0.152 A 
BRANCH  25  26
ATOM     26  S   UNL     1       4.187   8.632  -1.779  1.00  0.00    -0.018 S 
ATOM     27  C   UNL     1       5.896   8.782  -1.230  1.00  0.00     0.346 C 
ATOM     28  O   UNL     1       4.124   8.884  -3.328  1.00  0.00    -0.612 OA
ENDBRANCH  25  26
ENDBRANCH  14  20
ENDBRANCH   7   8
ENDBRANCH   4   7
ENDBRANCH   2   3
ENDBRANCH   1   2
BRANCH   1  29
ATOM     29  C   UNL     1       2.195   1.425   5.011  1.00  0.00     0.118 C 
BRANCH  29  30
ATOM     30  N   UNL     1       2.780   0.371   5.831  1.00  0.00    -0.352 N 
ATOM     31  C   UNL     1       3.983   0.331   6.495  1.00  0.00     0.251 C 
ATOM     32  H   UNL     1       2.227  -0.438   5.925  1.00  0.00     0.163 HD
ATOM     33  O   UNL     1       4.355  -0.723   7.006  1.00  0.00    -0.269 OA
BRANCH  31  34
ATOM     34  C   UNL     1       4.842   1.534   6.568  1.00  0.00     0.039 A 
ATOM     35  C   UNL     1       4.297   2.792   6.833  1.00  0.00     0.014 A 
ATOM     36  C   UNL     1       6.219   1.399   6.365  1.00  0.00     0.014 A 
ATOM     37  C   UNL     1       5.093   3.927   6.717  1.00  0.00     0.010 A 
ATOM     38  C   UNL     1       7.033   2.535   6.333  1.00  0.00     0.010 A 
ATOM     39  C   UNL     1       6.467   3.814   6.453  1.00  0.00    -0.014 A 
BRANCH  39  40
ATOM     40  C   UNL     1       7.282   5.045   6.279  1.00  0.00     0.031 A 
ATOM     41  C   UNL     1       7.903   5.370   4.946  1.00  0.00     0.074 A 
ATOM     42  C   UNL     1       7.412   5.905   7.308  1.00  0.00     0.049 A 
ATOM     43  N   UNL     1       8.608   6.417   4.599  1.00  0.00    -0.248 NA
ATOM     44  C   UNL     1       7.710   4.395   3.862  1.00  0.00     0.031 C 
ATOM     45  C   UNL     1       6.847   5.708   8.644  1.00  0.00     0.029 A 
ATOM     46  N   UNL     1       8.031   7.127   7.385  1.00  0.00    -0.354 N 
ATOM     47  C   UNL     1       8.963   6.216   3.270  1.00  0.00     0.074 A 
ATOM     48  C   UNL     1       8.415   4.936   2.878  1.00  0.00     0.031 C 
ATOM     49  C   UNL     1       7.096   6.795   9.390  1.00  0.00     0.029 A 
ATOM     50  C   UNL     1       7.886   7.740   8.606  1.00  0.00     0.049 A 
ATOM     51  H   UNL     1       8.531   7.526   6.637  1.00  0.00     0.167 HD
ATOM     52  C   UNL     1       9.670   7.029   2.449  1.00  0.00     0.037 A 
ATOM     53  C   UNL     1       8.341   8.926   9.051  1.00  0.00     0.037 A 
ATOM     54  C   UNL     1      10.199   8.311   2.835  1.00  0.00     0.049 A 
ATOM     55  C   UNL     1       9.150   9.795   8.133  1.00  0.00     0.074 A 
ATOM     56  C   UNL     1      10.906   9.218   2.064  1.00  0.00     0.029 A 
ATOM     57  N   UNL     1      10.088   8.866   4.101  1.00  0.00    -0.354 N 
ATOM     58  N   UNL     1       9.466   9.592   6.877  1.00  0.00    -0.248 NA
ATOM     59  C   UNL     1       9.676  11.046   8.695  1.00  0.00     0.031 C 
ATOM     60  C   UNL     1      11.254  10.305   2.875  1.00  0.00     0.029 A 
ATOM     61  C   UNL     1      10.730  10.093   4.140  1.00  0.00     0.049 A 
ATOM     62  H   UNL     1       9.622   8.449   4.862  1.00  0.00     0.167 HD
ATOM     63  C   UNL     1      10.231  10.689   6.497  1.00  0.00     0.074 A 
ATOM     64  C   UNL     1      10.309  11.564   7.650  1.00  0.00     0.031 C 
ATOM     65  C   UNL     1      10.817  10.944   5.301  1.00  0.00     0.037 A 
BRANCH  52  66
ATOM     66  C   UNL     1       9.927   6.542   1.050  1.00  0.00     0.058 A 
ATOM     67  C   UNL     1       8.908   6.501   0.086  1.00  0.00     0.135 A 
ATOM     68  C   UNL     1      11.211   6.127   0.664  1.00  0.00     0.135 A 
ATOM     69  F   UNL     1       7.657   6.869   0.410  1.00  0.00    -0.206 F 
ATOM     70  C   UNL     1       9.145   6.039  -1.204  1.00  0.00     0.059 A 
ATOM     71  C   UNL     1      11.478   5.681  -0.626  1.00  0.00     0.059 A 
ATOM     72  F   UNL     1      12.221   6.144   1.549  1.00  0.00    -0.206 F 
ATOM     73  C   UNL     1      10.434   5.625  -1.549  1.00  0.00     0.060 A 
BRANCH  73  74
ATOM     74  S   UNL     1      10.721   5.006  -3.220  1.00  0.00     0.124 S 
ATOM     75  O   UNL     1      10.056   3.708  -3.164  1.00  0.00    -0.237 OA
ATOM     76  O   UNL     1      10.067   6.019  -4.041  1.00  0.00    -0.237 OA
ATOM     77  O   UNL     1      12.176   4.963  -3.321  1.00  0.00    -0.744 OA
ENDBRANCH  73  74
ENDBRANCH  52  66
BRANCH  53  78
ATOM     78  C   UNL     1       8.023   9.351  10.438  1.00  0.00     0.058 A 
ATOM     79  C   UNL     1       7.077  10.356  10.683  1.00  0.00     0.135 A 
ATOM     80  C   UNL     1       8.602   8.709  11.545  1.00  0.00     0.135 A 
ATOM     81  F   UNL     1       6.505  11.003   9.656  1.00  0.00    -0.206 F 
ATOM     82  C   UNL     1       6.703  10.700  11.977  1.00  0.00     0.059 A 
ATOM     83  C   UNL     1       8.228   9.021  12.847  1.00  0.00     0.059 A 
ATOM     84  F   UNL     1       9.503   7.732  11.359  1.00  0.00    -0.206 F 
ATOM     85  C   UNL     1       7.275  10.017  13.053  1.00  0.00     0.060 A 
BRANCH  85  86
ATOM     86  S   UNL     1       6.703  10.400  14.723  1.00  0.00     0.124 S 
ATOM     87  O   UNL     1       7.312  11.706  14.950  1.00  0.00    -0.237 OA
ATOM     88  O   UNL     1       5.253  10.391  14.558  1.00  0.00    -0.237 OA
ATOM     89  O   UNL     1       7.242   9.303  15.521  1.00  0.00    -0.744 OA
ENDBRANCH  85  86
ENDBRANCH  53  78
BRANCH  65  90
ATOM     90  C   UNL     1      11.607  12.216   5.178  1.00  0.00     0.058 A 
ATOM     91  C   UNL     1      12.878  12.344   5.758  1.00  0.00     0.135 A 
ATOM     92  C   UNL     1      11.115  13.295   4.427  1.00  0.00     0.135 A 
ATOM     93  F   UNL     1      13.389  11.343   6.493  1.00  0.00    -0.206 F 
ATOM     94  C   UNL     1      13.632  13.503   5.607  1.00  0.00     0.059 A 
ATOM     95  C   UNL     1      11.860  14.456   4.245  1.00  0.00     0.059 A 
ATOM     96  F   UNL     1       9.907  13.219   3.845  1.00  0.00    -0.206 F 
ATOM     97  C   UNL     1      13.114  14.553   4.846  1.00  0.00     0.060 A 
BRANCH  97  98
ATOM     98  S   UNL     1      14.121  16.036   4.623  1.00  0.00     0.124 S 
ATOM     99  O   UNL     1      14.017  16.661   5.938  1.00  0.00    -0.237 OA
ATOM    100  O   UNL     1      15.427  15.479   4.287  1.00  0.00    -0.237 OA
ATOM    101  O   UNL     1      13.449  16.742   3.537  1.00  0.00    -0.744 OA
ENDBRANCH  97  98
ENDBRANCH  65  90
ENDBRANCH  39  40
ENDBRANCH  31  34
ENDBRANCH  29  30
ENDBRANCH   1  29
TORSDOF 16
