REMARK SMILES CCC[C@]1(C(=O)NCCCNC(=O)c2ccc(-c3c4nc(c(-c5c(F)cc(S(=O)(=O)[O-])cc5F)c5ccc([nH]5)c(-c5c(F)cc(S(=O)(=O)[O-])cc5F)c5nc(c(-c6c(F)cc(S(=O)(=O)[O-])cc6F)c6ccc3[nH]6)C=C5)C=C4)cc2)CCN(c2cncc(C(=O)OC)n2)C1
REMARK SMILES IDX 9 1 8 2 7 3 5 4 6 5 4 7 80 8 93 9 81 10 82 11 3 12 2 13 1 14
REMARK SMILES IDX 83 15 84 16 92 17 85 18 87 19 86 20 88 21 89 22 90 23 91 24
REMARK SMILES IDX 10 25 11 26 12 27 13 29 14 30 15 31 79 32 16 33 78 34 17 35
REMARK SMILES IDX 18 36 19 37 72 38 20 39 77 40 71 41 73 42 21 43 76 44 70 45
REMARK SMILES IDX 69 46 22 48 56 49 35 50 55 51 36 52 39 53 54 54 74 55 37 56
REMARK SMILES IDX 38 57 53 59 75 60 40 61 23 62 24 63 33 64 25 65 26 66 32 67
REMARK SMILES IDX 34 68 27 69 28 70 29 71 30 72 31 73 57 74 58 75 67 76 59 77
REMARK SMILES IDX 60 78 66 79 68 80 61 81 62 82 63 83 64 84 65 85 41 86 42 87
REMARK SMILES IDX 51 88 43 89 44 90 50 91 52 92 45 93 46 94 47 95 48 96 49 97
REMARK H PARENT 7 6 11 28 73 47 39 58
REMARK Flexibility Score: inf
ROOT
ATOM      1  C   UNL     1      -1.045   0.182   6.394  1.00  0.00     0.042 C 
ENDROOT
BRANCH   1   2
ATOM      2  C   UNL     1      -0.007   0.569   5.358  1.00  0.00     0.117 C 
BRANCH   2   3
ATOM      3  N   UNL     1       0.923  -0.508   5.057  1.00  0.00    -0.355 N 
ATOM      4  C   UNL     1       1.261  -1.118   3.887  1.00  0.00     0.228 C 
ATOM      5  O   UNL     1       2.148  -1.974   3.969  1.00  0.00    -0.274 OA
ATOM      6  H   UNL     1       1.395  -0.862   5.845  1.00  0.00     0.163 HD
BRANCH   4   7
ATOM      7  C   UNL     1       0.570  -0.798   2.541  1.00  0.00     0.068 C 
ATOM      8  C   UNL     1      -0.932  -1.149   2.637  1.00  0.00     0.040 C 
ATOM      9  C   UNL     1       0.639   0.718   2.252  1.00  0.00     0.135 C 
ATOM     10  C   UNL     1      -1.663  -0.003   1.955  1.00  0.00     0.119 C 
ATOM     11  N   UNL     1      -0.752   1.115   2.086  1.00  0.00    -0.354 N 
BRANCH   7  12
ATOM     12  C   UNL     1       1.259  -1.649   1.431  1.00  0.00     0.018 C 
BRANCH  12  13
ATOM     13  C   UNL     1       0.733  -1.588  -0.011  1.00  0.00    -0.002 C 
ATOM     14  C   UNL     1       1.093  -0.330  -0.784  1.00  0.00     0.004 C 
ENDBRANCH  12  13
ENDBRANCH   7  12
BRANCH  11  15
ATOM     15  C   UNL     1      -1.142   2.417   1.931  1.00  0.00     0.148 A 
ATOM     16  C   UNL     1      -2.285   2.909   2.580  1.00  0.00     0.157 A 
ATOM     17  N   UNL     1      -0.402   3.244   1.161  1.00  0.00    -0.221 NA
ATOM     18  N   UNL     1      -2.732   4.186   2.494  1.00  0.00    -0.258 NA
ATOM     19  C   UNL     1      -0.868   4.521   1.027  1.00  0.00     0.169 A 
ATOM     20  C   UNL     1      -1.996   4.981   1.691  1.00  0.00     0.147 A 
BRANCH  19  21
ATOM     21  C   UNL     1      -0.203   5.457   0.088  1.00  0.00     0.358 C 
ATOM     22  O   UNL     1      -0.537   6.630  -0.036  1.00  0.00    -0.244 OA
BRANCH  21  23
ATOM     23  O   UNL     1       0.764   4.838  -0.636  1.00  0.00    -0.464 OA
ATOM     24  C   UNL     1       1.362   5.678  -1.623  1.00  0.00     0.282 C 
ENDBRANCH  21  23
ENDBRANCH  19  21
ENDBRANCH  11  15
ENDBRANCH   4   7
ENDBRANCH   2   3
ENDBRANCH   1   2
BRANCH   1  25
ATOM     25  C   UNL     1      -0.461  -0.057   7.774  1.00  0.00     0.118 C 
BRANCH  25  26
ATOM     26  N   UNL     1       0.143   1.143   8.340  1.00  0.00    -0.352 N 
ATOM     27  C   UNL     1      -0.223   1.881   9.439  1.00  0.00     0.251 C 
ATOM     28  H   UNL     1       0.935   1.476   7.860  1.00  0.00     0.163 HD
ATOM     29  O   UNL     1       0.291   2.980   9.628  1.00  0.00    -0.269 OA
BRANCH  27  30
ATOM     30  C   UNL     1      -1.240   1.361  10.376  1.00  0.00     0.039 A 
ATOM     31  C   UNL     1      -2.185   2.237  10.914  1.00  0.00     0.014 A 
ATOM     32  C   UNL     1      -1.259   0.010  10.730  1.00  0.00     0.014 A 
ATOM     33  C   UNL     1      -3.183   1.743  11.757  1.00  0.00     0.010 A 
ATOM     34  C   UNL     1      -2.318  -0.498  11.470  1.00  0.00     0.010 A 
ATOM     35  C   UNL     1      -3.279   0.365  12.013  1.00  0.00    -0.014 A 
BRANCH  35  36
ATOM     36  C   UNL     1      -4.351  -0.192  12.876  1.00  0.00     0.031 A 
ATOM     37  C   UNL     1      -3.990  -0.932  14.137  1.00  0.00     0.074 A 
ATOM     38  C   UNL     1      -5.640  -0.086  12.495  1.00  0.00     0.049 A 
ATOM     39  N   UNL     1      -4.771  -1.543  14.990  1.00  0.00    -0.248 NA
ATOM     40  C   UNL     1      -2.558  -1.028  14.466  1.00  0.00     0.031 C 
ATOM     41  C   UNL     1      -6.111   0.560  11.268  1.00  0.00     0.029 A 
ATOM     42  N   UNL     1      -6.790  -0.525  13.101  1.00  0.00    -0.354 N 
ATOM     43  C   UNL     1      -3.927  -2.103  15.942  1.00  0.00     0.074 A 
ATOM     44  C   UNL     1      -2.572  -1.825  15.523  1.00  0.00     0.031 C 
ATOM     45  C   UNL     1      -7.452   0.509  11.231  1.00  0.00     0.029 A 
ATOM     46  C   UNL     1      -7.934  -0.211  12.405  1.00  0.00     0.049 A 
ATOM     47  H   UNL     1      -6.796  -1.018  13.953  1.00  0.00     0.167 HD
ATOM     48  C   UNL     1      -4.250  -2.762  17.081  1.00  0.00     0.037 A 
ATOM     49  C   UNL     1      -9.226  -0.475  12.683  1.00  0.00     0.037 A 
ATOM     50  C   UNL     1      -5.603  -3.014  17.502  1.00  0.00     0.049 A 
ATOM     51  C   UNL     1      -9.563  -1.213  13.951  1.00  0.00     0.074 A 
ATOM     52  C   UNL     1      -6.044  -3.628  18.660  1.00  0.00     0.029 A 
ATOM     53  N   UNL     1      -6.735  -2.667  16.778  1.00  0.00    -0.354 N 
ATOM     54  N   UNL     1      -8.755  -1.684  14.871  1.00  0.00    -0.248 NA
ATOM     55  C   UNL     1     -10.987  -1.447  14.223  1.00  0.00     0.031 C 
ATOM     56  C   UNL     1      -7.440  -3.698  18.613  1.00  0.00     0.029 A 
ATOM     57  C   UNL     1      -7.873  -3.071  17.456  1.00  0.00     0.049 A 
ATOM     58  H   UNL     1      -6.730  -2.201  15.911  1.00  0.00     0.167 HD
ATOM     59  C   UNL     1      -9.574  -2.238  15.849  1.00  0.00     0.074 A 
ATOM     60  C   UNL     1     -10.940  -2.035  15.410  1.00  0.00     0.031 C 
ATOM     61  C   UNL     1      -9.227  -2.855  17.007  1.00  0.00     0.037 A 
BRANCH  48  62
ATOM     62  C   UNL     1      -3.119  -3.251  17.946  1.00  0.00     0.058 A 
ATOM     63  C   UNL     1      -2.269  -2.362  18.626  1.00  0.00     0.135 A 
ATOM     64  C   UNL     1      -2.885  -4.627  18.108  1.00  0.00     0.135 A 
ATOM     65  F   UNL     1      -2.433  -1.036  18.496  1.00  0.00    -0.206 F 
ATOM     66  C   UNL     1      -1.206  -2.816  19.399  1.00  0.00     0.059 A 
ATOM     67  C   UNL     1      -1.849  -5.104  18.906  1.00  0.00     0.059 A 
ATOM     68  F   UNL     1      -3.664  -5.523  17.484  1.00  0.00    -0.206 F 
ATOM     69  C   UNL     1      -1.003  -4.190  19.532  1.00  0.00     0.060 A 
BRANCH  69  70
ATOM     70  S   UNL     1       0.387  -4.762  20.531  1.00  0.00     0.124 S 
ATOM     71  O   UNL     1       1.520  -4.420  19.677  1.00  0.00    -0.237 OA
ATOM     72  O   UNL     1       0.246  -3.966  21.746  1.00  0.00    -0.237 OA
ATOM     73  O   UNL     1       0.129  -6.190  20.688  1.00  0.00    -0.744 OA
ENDBRANCH  69  70
ENDBRANCH  48  62
BRANCH  49  74
ATOM     74  C   UNL     1     -10.295  -0.003  11.762  1.00  0.00     0.058 A 
ATOM     75  C   UNL     1     -11.166   1.030  12.139  1.00  0.00     0.135 A 
ATOM     76  C   UNL     1     -10.453  -0.555  10.481  1.00  0.00     0.135 A 
ATOM     77  F   UNL     1     -11.060   1.587  13.354  1.00  0.00    -0.206 F 
ATOM     78  C   UNL     1     -12.166   1.488  11.287  1.00  0.00     0.059 A 
ATOM     79  C   UNL     1     -11.427  -0.095   9.601  1.00  0.00     0.059 A 
ATOM     80  F   UNL     1      -9.633  -1.533  10.064  1.00  0.00    -0.206 F 
ATOM     81  C   UNL     1     -12.285   0.922  10.017  1.00  0.00     0.060 A 
BRANCH  81  82
ATOM     82  S   UNL     1     -13.551   1.563   8.900  1.00  0.00     0.124 S 
ATOM     83  O   UNL     1     -14.772   1.060   9.519  1.00  0.00    -0.237 OA
ATOM     84  O   UNL     1     -13.335   3.003   8.988  1.00  0.00    -0.237 OA
ATOM     85  O   UNL     1     -13.201   0.961   7.616  1.00  0.00    -0.744 OA
ENDBRANCH  81  82
ENDBRANCH  49  74
BRANCH  61  86
ATOM     86  C   UNL     1     -10.343  -3.313  17.908  1.00  0.00     0.058 A 
ATOM     87  C   UNL     1     -11.167  -4.399  17.577  1.00  0.00     0.135 A 
ATOM     88  C   UNL     1     -10.558  -2.679  19.143  1.00  0.00     0.135 A 
ATOM     89  F   UNL     1     -11.008  -5.038  16.407  1.00  0.00    -0.206 F 
ATOM     90  C   UNL     1     -12.188  -4.821  18.424  1.00  0.00     0.059 A 
ATOM     91  C   UNL     1     -11.550  -3.105  20.020  1.00  0.00     0.059 A 
ATOM     92  F   UNL     1      -9.790  -1.643  19.515  1.00  0.00    -0.206 F 
ATOM     93  C   UNL     1     -12.370  -4.167  19.644  1.00  0.00     0.060 A 
BRANCH  93  94
ATOM     94  S   UNL     1     -13.683  -4.738  20.743  1.00  0.00     0.124 S 
ATOM     95  O   UNL     1     -14.875  -4.264  20.048  1.00  0.00    -0.237 OA
ATOM     96  O   UNL     1     -13.482  -6.184  20.744  1.00  0.00    -0.237 OA
ATOM     97  O   UNL     1     -13.385  -4.069  22.006  1.00  0.00    -0.744 OA
ENDBRANCH  93  94
ENDBRANCH  61  86
ENDBRANCH  35  36
ENDBRANCH  27  30
ENDBRANCH  25  26
ENDBRANCH   1  25
TORSDOF 18
