REMARK SMILES CC[C@@H](O)C[NH+]1CC(n2cc(C(=O)NCCCNC(=O)c3ccc(-c4c5nc(c(-c6c(F)cc(S(=O)(=O)[O-])cc6F)c6ccc([nH]6)c(-c6c(F)cc(S(=O)(=O)[O-])cc6F)c6nc(c(-c7c(F)cc(S(=O)(=O)[O-])cc7F)c7ccc4[nH]7)C=C6)C=C5)cc3)nn2)C1
REMARK SMILES IDX 15 1 14 2 12 3 13 4 11 6 9 7 10 8 88 9 87 10 8 11 6 12 7 13
REMARK SMILES IDX 89 14 5 16 3 17 2 18 1 19 4 20 16 22 17 23 18 24 19 25 20 27
REMARK SMILES IDX 21 28 22 29 86 30 23 31 85 32 24 33 25 34 26 35 79 36 27 37
REMARK SMILES IDX 84 38 78 39 80 40 28 41 83 42 77 43 76 44 29 46 63 47 42 48
REMARK SMILES IDX 62 49 43 50 46 51 61 52 81 53 44 54 45 55 60 57 82 58 47 59
REMARK SMILES IDX 30 60 31 61 40 62 32 63 33 64 39 65 41 66 34 67 35 68 36 69
REMARK SMILES IDX 37 70 38 71 64 72 65 73 74 74 66 75 67 76 73 77 75 78 68 79
REMARK SMILES IDX 69 80 70 81 71 82 72 83 48 84 49 85 58 86 50 87 51 88 57 89
REMARK SMILES IDX 59 90 52 91 53 92 54 93 55 94 56 95
REMARK H PARENT 14 5 6 15 4 21 18 26 80 45 46 56
REMARK Flexibility Score: inf
ROOT
ATOM      1  C   UNL     1      -1.772   2.551   7.150  1.00  0.00     0.118 C 
ENDROOT
BRANCH   1   2
ATOM      2  N   UNL     1      -2.373   3.778   7.648  1.00  0.00    -0.351 N 
ATOM      3  C   UNL     1      -2.523   5.008   7.037  1.00  0.00     0.273 C 
ATOM      4  O   UNL     1      -3.285   5.814   7.556  1.00  0.00    -0.267 OA
ATOM      5  H   UNL     1      -2.729   3.723   8.564  1.00  0.00     0.163 HD
BRANCH   3   6
ATOM      6  C   UNL     1      -1.810   5.301   5.798  1.00  0.00     0.170 A 
ATOM      7  N   UNL     1      -0.448   5.379   4.114  1.00  0.00    -0.237 N 
ATOM      8  C   UNL     1      -0.571   4.870   5.374  1.00  0.00     0.145 A 
ATOM      9  N   UNL     1      -1.504   6.130   3.783  1.00  0.00    -0.066 NA
ATOM     10  N   UNL     1      -2.330   6.128   4.824  1.00  0.00    -0.125 NA
BRANCH   7  11
ATOM     11  C   UNL     1       0.623   5.021   3.248  1.00  0.00     0.218 C 
ATOM     12  N   UNL     1       1.096   4.226   1.379  1.00  0.00    -0.329 N 
ATOM     13  C   UNL     1       0.628   5.590   1.815  1.00  0.00     0.296 C 
ATOM     14  C   UNL     1       0.306   3.688   2.527  1.00  0.00     0.296 C 
ATOM     15  H   UNL     1       2.079   3.994   1.236  1.00  0.00     0.348 HD
BRANCH  12  16
ATOM     16  C   UNL     1       0.493   3.857   0.091  1.00  0.00     0.294 C 
BRANCH  16  17
ATOM     17  C   UNL     1       1.007   2.503  -0.462  1.00  0.00     0.169 C 
BRANCH  17  18
ATOM     18  C   UNL     1       0.570   1.291   0.373  1.00  0.00     0.034 C 
ATOM     19  C   UNL     1       1.070  -0.040  -0.174  1.00  0.00     0.007 C 
ENDBRANCH  17  18
BRANCH  17  20
ATOM     20  O   UNL     1       0.509   2.360  -1.798  1.00  0.00    -0.387 OA
ATOM     21  H   UNL     1      -0.461   2.349  -1.782  1.00  0.00     0.211 HD
ENDBRANCH  17  20
ENDBRANCH  16  17
ENDBRANCH  12  16
ENDBRANCH   7  11
ENDBRANCH   3   6
ENDBRANCH   1   2
BRANCH   1  22
ATOM     22  C   UNL     1      -0.401   2.264   7.772  1.00  0.00     0.042 C 
BRANCH  22  23
ATOM     23  C   UNL     1      -0.511   1.581   9.127  1.00  0.00     0.118 C 
BRANCH  23  24
ATOM     24  N   UNL     1      -0.999   0.203   9.018  1.00  0.00    -0.352 N 
ATOM     25  C   UNL     1      -1.284  -0.701  10.028  1.00  0.00     0.251 C 
ATOM     26  H   UNL     1      -1.145  -0.125   8.101  1.00  0.00     0.163 HD
ATOM     27  O   UNL     1      -1.360  -1.893   9.789  1.00  0.00    -0.269 OA
BRANCH  25  28
ATOM     28  C   UNL     1      -1.483  -0.191  11.397  1.00  0.00     0.039 A 
ATOM     29  C   UNL     1      -0.964  -0.864  12.509  1.00  0.00     0.014 A 
ATOM     30  C   UNL     1      -2.171   1.006  11.548  1.00  0.00     0.014 A 
ATOM     31  C   UNL     1      -1.069  -0.270  13.766  1.00  0.00     0.010 A 
ATOM     32  C   UNL     1      -2.116   1.667  12.744  1.00  0.00     0.010 A 
ATOM     33  C   UNL     1      -1.631   1.008  13.871  1.00  0.00    -0.014 A 
BRANCH  33  34
ATOM     34  C   UNL     1      -1.629   1.742  15.135  1.00  0.00     0.031 A 
ATOM     35  C   UNL     1      -0.273   1.999  15.706  1.00  0.00     0.074 A 
ATOM     36  C   UNL     1      -2.733   2.401  15.555  1.00  0.00     0.049 A 
ATOM     37  N   UNL     1       0.203   1.624  16.848  1.00  0.00    -0.248 NA
ATOM     38  C   UNL     1       0.731   2.637  14.835  1.00  0.00     0.031 C 
ATOM     39  C   UNL     1      -4.027   2.515  14.866  1.00  0.00     0.029 A 
ATOM     40  N   UNL     1      -2.888   3.260  16.596  1.00  0.00    -0.354 N 
ATOM     41  C   UNL     1       1.474   2.196  16.938  1.00  0.00     0.074 A 
ATOM     42  C   UNL     1       1.821   2.597  15.602  1.00  0.00     0.031 C 
ATOM     43  C   UNL     1      -4.696   3.589  15.336  1.00  0.00     0.029 A 
ATOM     44  C   UNL     1      -3.967   4.129  16.466  1.00  0.00     0.049 A 
ATOM     45  H   UNL     1      -2.287   3.267  17.376  1.00  0.00     0.167 HD
ATOM     46  C   UNL     1       2.017   2.541  18.141  1.00  0.00     0.037 A 
ATOM     47  C   UNL     1      -4.195   5.254  17.191  1.00  0.00     0.037 A 
ATOM     48  C   UNL     1       1.322   1.886  19.224  1.00  0.00     0.049 A 
ATOM     49  C   UNL     1      -3.366   5.145  18.424  1.00  0.00     0.074 A 
ATOM     50  C   UNL     1       1.018   0.570  19.523  1.00  0.00     0.029 A 
ATOM     51  N   UNL     1       0.474   2.642  20.000  1.00  0.00    -0.354 N 
ATOM     52  N   UNL     1      -3.543   4.232  19.343  1.00  0.00    -0.248 NA
ATOM     53  C   UNL     1      -2.040   5.745  18.395  1.00  0.00     0.031 C 
ATOM     54  C   UNL     1      -0.314   0.611  20.031  1.00  0.00     0.029 A 
ATOM     55  C   UNL     1      -0.705   1.949  20.098  1.00  0.00     0.049 A 
ATOM     56  H   UNL     1       0.676   3.516  20.407  1.00  0.00     0.167 HD
ATOM     57  C   UNL     1      -2.263   3.840  19.710  1.00  0.00     0.074 A 
ATOM     58  C   UNL     1      -1.380   4.862  19.149  1.00  0.00     0.031 C 
ATOM     59  C   UNL     1      -2.005   2.580  20.173  1.00  0.00     0.037 A 
BRANCH  46  60
ATOM     60  C   UNL     1       2.903   3.753  18.372  1.00  0.00     0.058 A 
ATOM     61  C   UNL     1       3.456   3.963  19.656  1.00  0.00     0.135 A 
ATOM     62  C   UNL     1       2.997   4.857  17.494  1.00  0.00     0.135 A 
ATOM     63  F   UNL     1       3.439   2.985  20.576  1.00  0.00    -0.206 F 
ATOM     64  C   UNL     1       3.960   5.199  20.066  1.00  0.00     0.059 A 
ATOM     65  C   UNL     1       3.547   6.080  17.865  1.00  0.00     0.059 A 
ATOM     66  F   UNL     1       2.478   4.850  16.262  1.00  0.00    -0.206 F 
ATOM     67  C   UNL     1       3.979   6.258  19.166  1.00  0.00     0.060 A 
BRANCH  67  68
ATOM     68  S   UNL     1       4.509   7.887  19.721  1.00  0.00     0.124 S 
ATOM     69  O   UNL     1       3.412   8.260  20.606  1.00  0.00    -0.237 OA
ATOM     70  O   UNL     1       5.782   7.586  20.368  1.00  0.00    -0.237 OA
ATOM     71  O   UNL     1       4.608   8.647  18.479  1.00  0.00    -0.744 OA
ENDBRANCH  67  68
ENDBRANCH  46  60
BRANCH  47  72
ATOM     72  C   UNL     1      -4.766   6.542  16.701  1.00  0.00     0.058 A 
ATOM     73  C   UNL     1      -5.152   7.556  17.595  1.00  0.00     0.135 A 
ATOM     74  C   UNL     1      -4.702   6.915  15.340  1.00  0.00     0.135 A 
ATOM     75  F   UNL     1      -5.220   7.302  18.911  1.00  0.00    -0.206 F 
ATOM     76  C   UNL     1      -5.414   8.867  17.175  1.00  0.00     0.059 A 
ATOM     77  C   UNL     1      -4.975   8.208  14.896  1.00  0.00     0.059 A 
ATOM     78  F   UNL     1      -4.283   6.053  14.402  1.00  0.00    -0.206 F 
ATOM     79  C   UNL     1      -5.304   9.188  15.822  1.00  0.00     0.060 A 
BRANCH  79  80
ATOM     80  S   UNL     1      -5.468  10.911  15.294  1.00  0.00     0.124 S 
ATOM     81  O   UNL     1      -6.891  11.156  15.499  1.00  0.00    -0.237 OA
ATOM     82  O   UNL     1      -4.564  11.601  16.207  1.00  0.00    -0.237 OA
ATOM     83  O   UNL     1      -5.035  10.880  13.899  1.00  0.00    -0.744 OA
ENDBRANCH  79  80
ENDBRANCH  47  72
BRANCH  59  84
ATOM     84  C   UNL     1      -3.156   1.692  20.575  1.00  0.00     0.058 A 
ATOM     85  C   UNL     1      -4.171   1.247  19.709  1.00  0.00     0.135 A 
ATOM     86  C   UNL     1      -3.124   1.125  21.859  1.00  0.00     0.135 A 
ATOM     87  F   UNL     1      -4.214   1.648  18.431  1.00  0.00    -0.206 F 
ATOM     88  C   UNL     1      -5.132   0.318  20.114  1.00  0.00     0.059 A 
ATOM     89  C   UNL     1      -4.051   0.172  22.273  1.00  0.00     0.059 A 
ATOM     90  F   UNL     1      -2.144   1.455  22.716  1.00  0.00    -0.206 F 
ATOM     91  C   UNL     1      -5.062  -0.217  21.399  1.00  0.00     0.060 A 
BRANCH  91  92
ATOM     92  S   UNL     1      -6.262  -1.469  21.901  1.00  0.00     0.124 S 
ATOM     93  O   UNL     1      -7.490  -0.690  22.014  1.00  0.00    -0.237 OA
ATOM     94  O   UNL     1      -6.213  -2.419  20.794  1.00  0.00    -0.237 OA
ATOM     95  O   UNL     1      -5.724  -1.971  23.164  1.00  0.00    -0.744 OA
ENDBRANCH  91  92
ENDBRANCH  59  84
ENDBRANCH  33  34
ENDBRANCH  25  28
ENDBRANCH  23  24
ENDBRANCH  22  23
ENDBRANCH   1  22
TORSDOF 18
