REMARK SMILES C[NH2+][C@]1(C(=O)NCCCNC(=O)c2ccc(-c3c4nc(c(-c5c(F)cc(S(=O)(=O)[O-])cc5F)c5ccc([nH]5)c(-c5c(F)cc(S(=O)(=O)[O-])cc5F)c5nc(c(-c6c(F)cc(S(=O)(=O)[O-])cc6F)c6ccc3[nH]6)C=C5)C=C4)cc2)CCC[C@@H]1CCOC[C@@H]1CCCO1
REMARK SMILES IDX 7 1 6 2 4 3 5 4 3 6 79 7 82 8 80 9 81 10 2 11 1 12 83 15
REMARK SMILES IDX 84 16 85 17 86 18 87 19 88 20 91 21 89 22 90 23 8 24 9 25
REMARK SMILES IDX 10 26 11 27 12 29 13 30 14 31 78 32 15 33 77 34 16 35 17 36
REMARK SMILES IDX 18 37 71 38 19 39 76 40 70 41 72 42 20 43 75 44 69 45 68 46
REMARK SMILES IDX 21 48 55 49 34 50 54 51 35 52 38 53 53 54 73 55 36 56 37 57
REMARK SMILES IDX 52 59 74 60 39 61 22 62 23 63 32 64 24 65 25 66 31 67 33 68
REMARK SMILES IDX 26 69 27 70 28 71 29 72 30 73 56 74 57 75 66 76 58 77 59 78
REMARK SMILES IDX 65 79 67 80 60 81 61 82 62 83 63 84 64 85 40 86 41 87 50 88
REMARK SMILES IDX 42 89 43 90 49 91 51 92 44 93 45 94 46 95 47 96 48 97
REMARK H PARENT 6 5 2 13 2 14 10 28 72 47 38 58
REMARK Flexibility Score: inf
ROOT
ATOM      1  C   UNL     1       0.527   0.148  -3.939  1.00  0.00     0.118 C 
ENDROOT
BRANCH   1   2
ATOM      2  N   UNL     1       1.152   0.207  -2.629  1.00  0.00    -0.351 N 
ATOM      3  C   UNL     1       0.701   0.319  -1.350  1.00  0.00     0.281 C 
ATOM      4  O   UNL     1       1.608   0.232  -0.514  1.00  0.00    -0.268 OA
ATOM      5  H   UNL     1       2.134   0.153  -2.678  1.00  0.00     0.163 HD
BRANCH   3   6
ATOM      6  C   UNL     1      -0.813   0.487  -0.972  1.00  0.00     0.178 C 
ATOM      7  C   UNL     1      -1.474   1.692  -1.681  1.00  0.00     0.079 C 
ATOM      8  C   UNL     1      -1.671  -0.698  -1.513  1.00  0.00     0.063 C 
ATOM      9  C   UNL     1      -2.951   1.321  -1.881  1.00  0.00     0.008 C 
ATOM     10  C   UNL     1      -3.102  -0.138  -1.444  1.00  0.00     0.011 C 
BRANCH   6  11
ATOM     11  N   UNL     1      -1.130   0.698   0.478  1.00  0.00    -0.336 N 
ATOM     12  C   UNL     1      -0.052   0.858   1.431  1.00  0.00     0.331 C 
ATOM     13  H   UNL     1      -1.703   1.540   0.537  1.00  0.00     0.346 HD
ATOM     14  H   UNL     1      -1.565  -0.181   0.757  1.00  0.00     0.346 HD
ENDBRANCH   6  11
BRANCH   8  15
ATOM     15  C   UNL     1      -1.447  -2.052  -0.819  1.00  0.00     0.039 C 
BRANCH  15  16
ATOM     16  C   UNL     1      -2.033  -3.268  -1.555  1.00  0.00     0.161 C 
BRANCH  16  17
ATOM     17  O   UNL     1      -1.149  -3.909  -2.463  1.00  0.00    -0.379 OA
BRANCH  17  18
ATOM     18  C   UNL     1      -0.900  -3.347  -3.748  1.00  0.00     0.192 C 
BRANCH  18  19
ATOM     19  C   UNL     1      -2.062  -3.282  -4.760  1.00  0.00     0.144 C 
ATOM     20  C   UNL     1      -2.988  -2.087  -4.622  1.00  0.00     0.037 C 
ATOM     21  O   UNL     1      -2.876  -4.464  -4.711  1.00  0.00    -0.376 OA
ATOM     22  C   UNL     1      -4.333  -2.628  -5.025  1.00  0.00     0.031 C 
ATOM     23  C   UNL     1      -4.246  -4.071  -4.584  1.00  0.00     0.160 C 
ENDBRANCH  18  19
ENDBRANCH  17  18
ENDBRANCH  16  17
ENDBRANCH  15  16
ENDBRANCH   8  15
ENDBRANCH   3   6
ENDBRANCH   1   2
BRANCH   1  24
ATOM     24  C   UNL     1       1.051   1.202  -4.895  1.00  0.00     0.042 C 
BRANCH  24  25
ATOM     25  C   UNL     1       2.551   1.121  -5.136  1.00  0.00     0.118 C 
BRANCH  25  26
ATOM     26  N   UNL     1       2.978  -0.151  -5.711  1.00  0.00    -0.352 N 
ATOM     27  C   UNL     1       3.554  -0.425  -6.932  1.00  0.00     0.251 C 
ATOM     28  H   UNL     1       2.832  -0.936  -5.136  1.00  0.00     0.163 HD
ATOM     29  O   UNL     1       3.688  -1.585  -7.294  1.00  0.00    -0.269 OA
BRANCH  27  30
ATOM     30  C   UNL     1       3.976   0.688  -7.810  1.00  0.00     0.039 A 
ATOM     31  C   UNL     1       3.705   0.620  -9.179  1.00  0.00     0.014 A 
ATOM     32  C   UNL     1       4.616   1.808  -7.278  1.00  0.00     0.014 A 
ATOM     33  C   UNL     1       3.994   1.718  -9.993  1.00  0.00     0.010 A 
ATOM     34  C   UNL     1       4.791   2.939  -8.064  1.00  0.00     0.010 A 
ATOM     35  C   UNL     1       4.493   2.905  -9.433  1.00  0.00    -0.014 A 
BRANCH  35  36
ATOM     36  C   UNL     1       4.734   4.120 -10.253  1.00  0.00     0.031 A 
ATOM     37  C   UNL     1       6.119   4.707 -10.329  1.00  0.00     0.074 A 
ATOM     38  C   UNL     1       3.698   4.739 -10.856  1.00  0.00     0.049 A 
ATOM     39  N   UNL     1       6.517   5.813 -10.902  1.00  0.00    -0.248 NA
ATOM     40  C   UNL     1       7.191   3.974  -9.636  1.00  0.00     0.031 C 
ATOM     41  C   UNL     1       2.301   4.300 -10.806  1.00  0.00     0.029 A 
ATOM     42  N   UNL     1       3.658   5.878 -11.619  1.00  0.00    -0.354 N 
ATOM     43  C   UNL     1       7.873   5.919 -10.617  1.00  0.00     0.074 A 
ATOM     44  C   UNL     1       8.217   4.801  -9.768  1.00  0.00     0.031 C 
ATOM     45  C   UNL     1       1.548   5.142 -11.532  1.00  0.00     0.029 A 
ATOM     46  C   UNL     1       2.396   6.205 -12.061  1.00  0.00     0.049 A 
ATOM     47  H   UNL     1       4.457   6.413 -11.831  1.00  0.00     0.167 HD
ATOM     48  C   UNL     1       8.760   6.847 -11.049  1.00  0.00     0.037 A 
ATOM     49  C   UNL     1       1.971   7.246 -12.802  1.00  0.00     0.037 A 
ATOM     50  C   UNL     1       8.416   7.934 -11.926  1.00  0.00     0.049 A 
ATOM     51  C   UNL     1       2.977   8.259 -13.281  1.00  0.00     0.074 A 
ATOM     52  C   UNL     1       9.251   8.889 -12.479  1.00  0.00     0.029 A 
ATOM     53  N   UNL     1       7.135   8.211 -12.379  1.00  0.00    -0.354 N 
ATOM     54  N   UNL     1       4.270   8.305 -13.059  1.00  0.00    -0.248 NA
ATOM     55  C   UNL     1       2.471   9.356 -14.117  1.00  0.00     0.031 C 
ATOM     56  C   UNL     1       8.466   9.772 -13.228  1.00  0.00     0.029 A 
ATOM     57  C   UNL     1       7.152   9.334 -13.189  1.00  0.00     0.049 A 
ATOM     58  H   UNL     1       6.332   7.686 -12.158  1.00  0.00     0.167 HD
ATOM     59  C   UNL     1       4.736   9.415 -13.755  1.00  0.00     0.074 A 
ATOM     60  C   UNL     1       3.588  10.007 -14.412  1.00  0.00     0.031 C 
ATOM     61  C   UNL     1       5.999   9.901 -13.844  1.00  0.00     0.037 A 
BRANCH  48  62
ATOM     62  C   UNL     1      10.186   6.719 -10.585  1.00  0.00     0.058 A 
ATOM     63  C   UNL     1      11.013   5.668 -11.014  1.00  0.00     0.135 A 
ATOM     64  C   UNL     1      10.743   7.676  -9.720  1.00  0.00     0.135 A 
ATOM     65  F   UNL     1      10.529   4.715 -11.827  1.00  0.00    -0.206 F 
ATOM     66  C   UNL     1      12.328   5.550 -10.576  1.00  0.00     0.059 A 
ATOM     67  C   UNL     1      12.066   7.596  -9.296  1.00  0.00     0.059 A 
ATOM     68  F   UNL     1       9.999   8.701  -9.277  1.00  0.00    -0.206 F 
ATOM     69  C   UNL     1      12.846   6.519  -9.717  1.00  0.00     0.060 A 
BRANCH  69  70
ATOM     70  S   UNL     1      14.556   6.354  -9.164  1.00  0.00     0.124 S 
ATOM     71  O   UNL     1      14.453   5.234  -8.233  1.00  0.00    -0.237 OA
ATOM     72  O   UNL     1      15.261   6.077 -10.411  1.00  0.00    -0.237 OA
ATOM     73  O   UNL     1      14.845   7.650  -8.558  1.00  0.00    -0.744 OA
ENDBRANCH  69  70
ENDBRANCH  48  62
BRANCH  49  74
ATOM     74  C   UNL     1       0.532   7.368 -13.162  1.00  0.00     0.058 A 
ATOM     75  C   UNL     1       0.101   7.177 -14.483  1.00  0.00     0.135 A 
ATOM     76  C   UNL     1      -0.441   7.665 -12.195  1.00  0.00     0.135 A 
ATOM     77  F   UNL     1       0.993   6.897 -15.445  1.00  0.00    -0.206 F 
ATOM     78  C   UNL     1      -1.239   7.295 -14.838  1.00  0.00     0.059 A 
ATOM     79  C   UNL     1      -1.790   7.761 -12.520  1.00  0.00     0.059 A 
ATOM     80  F   UNL     1      -0.084   7.838 -10.912  1.00  0.00    -0.206 F 
ATOM     81  C   UNL     1      -2.179   7.584 -13.848  1.00  0.00     0.060 A 
BRANCH  81  82
ATOM     82  S   UNL     1      -3.921   7.687 -14.311  1.00  0.00     0.124 S 
ATOM     83  O   UNL     1      -3.957   8.948 -15.043  1.00  0.00    -0.237 OA
ATOM     84  O   UNL     1      -4.097   6.479 -15.110  1.00  0.00    -0.237 OA
ATOM     85  O   UNL     1      -4.611   7.684 -13.024  1.00  0.00    -0.744 OA
ENDBRANCH  81  82
ENDBRANCH  49  74
BRANCH  61  86
ATOM     86  C   UNL     1       6.220  11.104 -14.718  1.00  0.00     0.058 A 
ATOM     87  C   UNL     1       5.779  12.383 -14.344  1.00  0.00     0.135 A 
ATOM     88  C   UNL     1       6.933  10.982 -15.922  1.00  0.00     0.135 A 
ATOM     89  F   UNL     1       5.088  12.554 -13.206  1.00  0.00    -0.206 F 
ATOM     90  C   UNL     1       6.018  13.495 -15.144  1.00  0.00     0.059 A 
ATOM     91  C   UNL     1       7.210  12.085 -16.722  1.00  0.00     0.059 A 
ATOM     92  F   UNL     1       7.387   9.783 -16.321  1.00  0.00    -0.206 F 
ATOM     93  C   UNL     1       6.737  13.337 -16.331  1.00  0.00     0.060 A 
BRANCH  93  94
ATOM     94  S   UNL     1       7.069  14.794 -17.343  1.00  0.00     0.124 S 
ATOM     95  O   UNL     1       5.754  15.058 -17.918  1.00  0.00    -0.237 OA
ATOM     96  O   UNL     1       7.534  15.761 -16.353  1.00  0.00    -0.237 OA
ATOM     97  O   UNL     1       8.085  14.331 -18.283  1.00  0.00    -0.744 OA
ENDBRANCH  93  94
ENDBRANCH  61  86
ENDBRANCH  35  36
ENDBRANCH  27  30
ENDBRANCH  25  26
ENDBRANCH  24  25
ENDBRANCH   1  24
TORSDOF 19
