REMARK SMILES O=C(NCCCNC(=O)c1cc(=O)[nH]c2c(Br)cccc12)c1ccc(-c2c3nc(c(-c4c(F)cc(S(=O)(=O)[O-])cc4F)c4ccc([nH]4)c(-c4c(F)cc(S(=O)(=O)[O-])cc4F)c4nc(c(-c5c(F)cc(S(=O)(=O)[O-])cc5F)c5ccc2[nH]5)C=C4)C=C3)cc1
REMARK SMILES IDX 1 1 2 2 3 3 22 5 23 6 87 7 24 8 86 9 25 10 26 11 27 12 80 13
REMARK SMILES IDX 28 14 85 15 79 16 81 17 29 18 84 19 78 20 77 21 30 23 64 24
REMARK SMILES IDX 43 25 63 26 44 27 47 28 62 29 82 30 45 31 46 32 61 34 83 35
REMARK SMILES IDX 48 36 31 37 32 38 41 39 33 40 34 41 40 42 42 43 35 44 36 45
REMARK SMILES IDX 37 46 38 47 39 48 65 49 66 50 75 51 67 52 68 53 74 54 76 55
REMARK SMILES IDX 69 56 70 57 71 58 72 59 73 60 49 61 50 62 59 63 51 64 52 65
REMARK SMILES IDX 58 66 60 67 53 68 54 69 55 70 56 71 57 72 4 73 5 74 6 75
REMARK SMILES IDX 7 76 8 77 9 79 10 80 11 81 21 82 12 83 15 84 20 85 13 86
REMARK SMILES IDX 14 87 16 88 19 89 17 91 18 92
REMARK H PARENT 3 4 81 22 47 33 7 78 14 90
REMARK Flexibility Score: inf
ROOT
ATOM      1  O   UNL     1       1.175  -0.009   0.201  1.00  0.00    -0.269 OA
ATOM      2  C   UNL     1       2.393  -0.083   0.055  1.00  0.00     0.251 C 
ATOM      3  N   UNL     1       3.171  -0.417   1.135  1.00  0.00    -0.352 N 
ATOM      4  H   UNL     1       2.672  -0.746   1.918  1.00  0.00     0.163 HD
ENDROOT
BRANCH   2   5
ATOM      5  C   UNL     1       2.998   0.188  -1.268  1.00  0.00     0.039 A 
ATOM      6  C   UNL     1       2.424   1.169  -2.083  1.00  0.00     0.014 A 
ATOM      7  C   UNL     1       4.077  -0.561  -1.744  1.00  0.00     0.014 A 
ATOM      8  C   UNL     1       2.943   1.408  -3.358  1.00  0.00     0.010 A 
ATOM      9  C   UNL     1       4.656  -0.254  -2.972  1.00  0.00     0.010 A 
ATOM     10  C   UNL     1       4.070   0.704  -3.810  1.00  0.00    -0.014 A 
BRANCH  10  11
ATOM     11  C   UNL     1       4.586   0.873  -5.193  1.00  0.00     0.031 A 
ATOM     12  C   UNL     1       4.544  -0.294  -6.147  1.00  0.00     0.074 A 
ATOM     13  C   UNL     1       5.103   2.053  -5.589  1.00  0.00     0.049 A 
ATOM     14  N   UNL     1       5.001  -0.382  -7.369  1.00  0.00    -0.248 NA
ATOM     15  C   UNL     1       3.926  -1.536  -5.651  1.00  0.00     0.031 C 
ATOM     16  C   UNL     1       5.204   3.254  -4.759  1.00  0.00     0.029 A 
ATOM     17  N   UNL     1       5.633   2.436  -6.795  1.00  0.00    -0.354 N 
ATOM     18  C   UNL     1       4.730  -1.682  -7.781  1.00  0.00     0.074 A 
ATOM     19  C   UNL     1       4.142  -2.370  -6.655  1.00  0.00     0.031 C 
ATOM     20  C   UNL     1       5.724   4.251  -5.492  1.00  0.00     0.029 A 
ATOM     21  C   UNL     1       6.036   3.750  -6.829  1.00  0.00     0.049 A 
ATOM     22  H   UNL     1       5.718   1.827  -7.564  1.00  0.00     0.167 HD
ATOM     23  C   UNL     1       4.916  -2.243  -8.999  1.00  0.00     0.037 A 
ATOM     24  C   UNL     1       6.593   4.468  -7.824  1.00  0.00     0.037 A 
ATOM     25  C   UNL     1       5.478  -1.547 -10.126  1.00  0.00     0.049 A 
ATOM     26  C   UNL     1       6.847   3.807  -9.152  1.00  0.00     0.074 A 
ATOM     27  C   UNL     1       5.694  -2.019 -11.408  1.00  0.00     0.029 A 
ATOM     28  N   UNL     1       5.905  -0.227 -10.107  1.00  0.00    -0.354 N 
ATOM     29  N   UNL     1       6.571   2.581  -9.530  1.00  0.00    -0.248 NA
ATOM     30  C   UNL     1       7.489   4.625 -10.190  1.00  0.00     0.031 C 
ATOM     31  C   UNL     1       6.294  -1.000 -12.152  1.00  0.00     0.029 A 
ATOM     32  C   UNL     1       6.403   0.126 -11.350  1.00  0.00     0.049 A 
ATOM     33  H   UNL     1       5.861   0.370  -9.326  1.00  0.00     0.167 HD
ATOM     34  C   UNL     1       6.982   2.488 -10.855  1.00  0.00     0.074 A 
ATOM     35  C   UNL     1       7.514   3.786 -11.218  1.00  0.00     0.031 C 
ATOM     36  C   UNL     1       6.926   1.425 -11.696  1.00  0.00     0.037 A 
BRANCH  23  37
ATOM     37  C   UNL     1       4.492  -3.677  -9.178  1.00  0.00     0.058 A 
ATOM     38  C   UNL     1       3.137  -4.048  -9.168  1.00  0.00     0.135 A 
ATOM     39  C   UNL     1       5.444  -4.687  -9.392  1.00  0.00     0.135 A 
ATOM     40  F   UNL     1       2.185  -3.126  -8.949  1.00  0.00    -0.206 F 
ATOM     41  C   UNL     1       2.743  -5.371  -9.333  1.00  0.00     0.059 A 
ATOM     42  C   UNL     1       5.070  -6.013  -9.592  1.00  0.00     0.059 A 
ATOM     43  F   UNL     1       6.753  -4.391  -9.409  1.00  0.00    -0.206 F 
ATOM     44  C   UNL     1       3.717  -6.347  -9.546  1.00  0.00     0.060 A 
BRANCH  44  45
ATOM     45  S   UNL     1       3.183  -8.057  -9.762  1.00  0.00     0.124 S 
ATOM     46  O   UNL     1       2.701  -8.383  -8.423  1.00  0.00    -0.237 OA
ATOM     47  O   UNL     1       2.158  -7.934 -10.792  1.00  0.00    -0.237 OA
ATOM     48  O   UNL     1       4.403  -8.746 -10.172  1.00  0.00    -0.744 OA
ENDBRANCH  44  45
ENDBRANCH  23  37
BRANCH  24  49
ATOM     49  C   UNL     1       6.912   5.906  -7.611  1.00  0.00     0.058 A 
ATOM     50  C   UNL     1       6.175   6.906  -8.261  1.00  0.00     0.135 A 
ATOM     51  C   UNL     1       7.930   6.312  -6.734  1.00  0.00     0.135 A 
ATOM     52  F   UNL     1       5.198   6.570  -9.117  1.00  0.00    -0.206 F 
ATOM     53  C   UNL     1       6.436   8.257  -8.055  1.00  0.00     0.059 A 
ATOM     54  C   UNL     1       8.193   7.657  -6.490  1.00  0.00     0.059 A 
ATOM     55  F   UNL     1       8.658   5.395  -6.077  1.00  0.00    -0.206 F 
ATOM     56  C   UNL     1       7.442   8.622  -7.159  1.00  0.00     0.060 A 
BRANCH  56  57
ATOM     57  S   UNL     1       7.725  10.379  -6.851  1.00  0.00     0.124 S 
ATOM     58  O   UNL     1       8.266  10.821  -8.131  1.00  0.00    -0.237 OA
ATOM     59  O   UNL     1       6.381  10.849  -6.528  1.00  0.00    -0.237 OA
ATOM     60  O   UNL     1       8.666  10.378  -5.735  1.00  0.00    -0.744 OA
ENDBRANCH  56  57
ENDBRANCH  24  49
BRANCH  36  61
ATOM     61  C   UNL     1       7.434   1.615 -13.099  1.00  0.00     0.058 A 
ATOM     62  C   UNL     1       8.805   1.729 -13.375  1.00  0.00     0.135 A 
ATOM     63  C   UNL     1       6.545   1.601 -14.187  1.00  0.00     0.135 A 
ATOM     64  F   UNL     1       9.697   1.752 -12.371  1.00  0.00    -0.206 F 
ATOM     65  C   UNL     1       9.277   1.840 -14.678  1.00  0.00     0.059 A 
ATOM     66  C   UNL     1       6.997   1.680 -15.501  1.00  0.00     0.059 A 
ATOM     67  F   UNL     1       5.224   1.482 -13.980  1.00  0.00    -0.206 F 
ATOM     68  C   UNL     1       8.365   1.807 -15.736  1.00  0.00     0.060 A 
BRANCH  68  69
ATOM     69  S   UNL     1       9.000   1.906 -17.422  1.00  0.00     0.124 S 
ATOM     70  O   UNL     1       9.471   3.285 -17.480  1.00  0.00    -0.237 OA
ATOM     71  O   UNL     1      10.038   0.880 -17.422  1.00  0.00    -0.237 OA
ATOM     72  O   UNL     1       7.831   1.607 -18.245  1.00  0.00    -0.744 OA
ENDBRANCH  68  69
ENDBRANCH  36  61
ENDBRANCH  10  11
ENDBRANCH   2   5
BRANCH   3  73
ATOM     73  C   UNL     1       4.614  -0.365   1.312  1.00  0.00     0.118 C 
BRANCH  73  74
ATOM     74  C   UNL     1       5.039   0.644   2.369  1.00  0.00     0.042 C 
BRANCH  74  75
ATOM     75  C   UNL     1       4.494   0.365   3.761  1.00  0.00     0.118 C 
BRANCH  75  76
ATOM     76  N   UNL     1       4.935  -0.919   4.290  1.00  0.00    -0.352 N 
ATOM     77  C   UNL     1       5.668  -1.209   5.402  1.00  0.00     0.252 C 
ATOM     78  H   UNL     1       4.660  -1.701   3.759  1.00  0.00     0.163 HD
ATOM     79  O   UNL     1       6.005  -2.370   5.620  1.00  0.00    -0.269 OA
BRANCH  77  80
ATOM     80  C   UNL     1       6.060  -0.113   6.325  1.00  0.00     0.054 A 
ATOM     81  C   UNL     1       5.059   0.614   6.849  1.00  0.00     0.086 A 
ATOM     82  C   UNL     1       7.447   0.107   6.779  1.00  0.00     0.012 A 
ATOM     83  C   UNL     1       5.324   1.735   7.766  1.00  0.00     0.249 A 
ATOM     84  C   UNL     1       7.692   1.131   7.710  1.00  0.00     0.063 A 
ATOM     85  C   UNL     1       8.528  -0.665   6.328  1.00  0.00     0.011 A 
ATOM     86  O   UNL     1       4.409   2.454   8.153  1.00  0.00    -0.270 OA
ATOM     87  N   UNL     1       6.617   1.921   8.150  1.00  0.00    -0.321 N 
ATOM     88  C   UNL     1       8.989   1.357   8.193  1.00  0.00     0.042 A 
ATOM     89  C   UNL     1       9.819  -0.436   6.811  1.00  0.00     0.002 A 
ATOM     90  H   UNL     1       6.811   2.657   8.775  1.00  0.00     0.170 HD
ATOM     91  Br  UNL     1       9.347   2.712   9.474  1.00  0.00    -0.049 Br
ATOM     92  C   UNL     1      10.050   0.571   7.747  1.00  0.00     0.018 A 
ENDBRANCH  77  80
ENDBRANCH  75  76
ENDBRANCH  74  75
ENDBRANCH  73  74
ENDBRANCH   3  73
TORSDOF 13
