REMARK SMILES O=C(NCCCNC(=O)c1nn2cc(Br)cnc2c1Br)c1ccc(-c2c3nc(c(-c4c(F)cc(S(=O)(=O)[O-])cc4F)c4ccc([nH]4)c(-c4c(F)cc(S(=O)(=O)[O-])cc4F)c4nc(c(-c5c(F)cc(S(=O)(=O)[O-])cc5F)c5ccc2[nH]5)C=C4)C=C3)cc1
REMARK SMILES IDX 1 1 2 2 3 3 21 5 22 6 86 7 23 8 85 9 24 10 25 11 26 12 79 13
REMARK SMILES IDX 27 14 84 15 78 16 80 17 28 18 83 19 77 20 76 21 29 23 63 24
REMARK SMILES IDX 42 25 62 26 43 27 46 28 61 29 81 30 44 31 45 32 60 34 82 35
REMARK SMILES IDX 47 36 30 37 31 38 40 39 32 40 33 41 39 42 41 43 34 44 35 45
REMARK SMILES IDX 36 46 37 47 38 48 64 49 65 50 74 51 66 52 67 53 73 54 75 55
REMARK SMILES IDX 68 56 69 57 70 58 71 59 72 60 48 61 49 62 58 63 50 64 51 65
REMARK SMILES IDX 57 66 59 67 52 68 53 69 54 70 55 71 56 72 4 73 5 74 6 75
REMARK SMILES IDX 7 76 8 77 9 79 10 80 11 81 19 82 12 83 18 84 20 85 13 86
REMARK SMILES IDX 17 87 14 88 16 89 15 90
REMARK H PARENT 3 4 80 22 46 33 7 78
REMARK Flexibility Score: inf
ROOT
ATOM      1  O   UNL     1       1.253  -0.013  -0.742  1.00  0.00    -0.269 OA
ATOM      2  C   UNL     1       2.330  -0.101  -0.146  1.00  0.00     0.251 C 
ATOM      3  N   UNL     1       3.335  -0.743  -0.818  1.00  0.00    -0.352 N 
ATOM      4  H   UNL     1       3.030  -1.139  -1.667  1.00  0.00     0.163 HD
ENDROOT
BRANCH   2   5
ATOM      5  C   UNL     1       2.432   0.436   1.238  1.00  0.00     0.039 A 
ATOM      6  C   UNL     1       3.622   0.704   1.915  1.00  0.00     0.014 A 
ATOM      7  C   UNL     1       1.214   0.710   1.890  1.00  0.00     0.014 A 
ATOM      8  C   UNL     1       3.601   1.167   3.229  1.00  0.00     0.010 A 
ATOM      9  C   UNL     1       1.187   1.200   3.193  1.00  0.00     0.010 A 
ATOM     10  C   UNL     1       2.385   1.412   3.872  1.00  0.00    -0.014 A 
BRANCH  10  11
ATOM     11  C   UNL     1       2.426   2.073   5.179  1.00  0.00     0.031 A 
ATOM     12  C   UNL     1       2.976   3.463   5.166  1.00  0.00     0.074 A 
ATOM     13  C   UNL     1       1.847   1.589   6.296  1.00  0.00     0.049 A 
ATOM     14  N   UNL     1       3.966   3.954   5.841  1.00  0.00    -0.248 NA
ATOM     15  C   UNL     1       2.373   4.412   4.213  1.00  0.00     0.031 C 
ATOM     16  C   UNL     1       0.980   0.415   6.407  1.00  0.00     0.029 A 
ATOM     17  N   UNL     1       1.814   2.123   7.554  1.00  0.00    -0.354 N 
ATOM     18  C   UNL     1       3.975   5.319   5.557  1.00  0.00     0.074 A 
ATOM     19  C   UNL     1       3.073   5.519   4.453  1.00  0.00     0.031 C 
ATOM     20  C   UNL     1       0.340   0.450   7.597  1.00  0.00     0.029 A 
ATOM     21  C   UNL     1       0.834   1.576   8.373  1.00  0.00     0.049 A 
ATOM     22  H   UNL     1       2.429   2.831   7.853  1.00  0.00     0.167 HD
ATOM     23  C   UNL     1       4.542   6.238   6.387  1.00  0.00     0.037 A 
ATOM     24  C   UNL     1       0.401   2.061   9.564  1.00  0.00     0.037 A 
ATOM     25  C   UNL     1       5.499   5.654   7.283  1.00  0.00     0.049 A 
ATOM     26  C   UNL     1       1.448   2.971  10.091  1.00  0.00     0.074 A 
ATOM     27  C   UNL     1       6.655   4.914   7.130  1.00  0.00     0.029 A 
ATOM     28  N   UNL     1       5.158   5.540   8.607  1.00  0.00    -0.354 N 
ATOM     29  N   UNL     1       2.628   2.594  10.501  1.00  0.00    -0.248 NA
ATOM     30  C   UNL     1       1.298   4.400   9.859  1.00  0.00     0.031 C 
ATOM     31  C   UNL     1       6.677   4.022   8.240  1.00  0.00     0.029 A 
ATOM     32  C   UNL     1       5.549   4.292   9.016  1.00  0.00     0.049 A 
ATOM     33  H   UNL     1       4.716   6.226   9.159  1.00  0.00     0.167 HD
ATOM     34  C   UNL     1       3.466   3.655  10.195  1.00  0.00     0.074 A 
ATOM     35  C   UNL     1       2.576   4.776   9.922  1.00  0.00     0.031 C 
ATOM     36  C   UNL     1       4.789   3.460   9.924  1.00  0.00     0.037 A 
BRANCH  23  37
ATOM     37  C   UNL     1       3.956   7.611   6.604  1.00  0.00     0.058 A 
ATOM     38  C   UNL     1       4.717   8.621   7.224  1.00  0.00     0.135 A 
ATOM     39  C   UNL     1       2.574   7.880   6.468  1.00  0.00     0.135 A 
ATOM     40  F   UNL     1       6.030   8.449   7.442  1.00  0.00    -0.206 F 
ATOM     41  C   UNL     1       4.139   9.799   7.705  1.00  0.00     0.059 A 
ATOM     42  C   UNL     1       1.989   9.068   6.887  1.00  0.00     0.059 A 
ATOM     43  F   UNL     1       1.717   6.958   6.011  1.00  0.00    -0.206 F 
ATOM     44  C   UNL     1       2.772  10.007   7.538  1.00  0.00     0.060 A 
BRANCH  44  45
ATOM     45  S   UNL     1       2.005  11.482   8.232  1.00  0.00     0.124 S 
ATOM     46  O   UNL     1       2.033  11.177   9.658  1.00  0.00    -0.237 OA
ATOM     47  O   UNL     1       2.911  12.536   7.786  1.00  0.00    -0.237 OA
ATOM     48  O   UNL     1       0.684  11.496   7.612  1.00  0.00    -0.744 OA
ENDBRANCH  44  45
ENDBRANCH  23  37
BRANCH  24  49
ATOM     49  C   UNL     1      -0.975   2.029  10.135  1.00  0.00     0.058 A 
ATOM     50  C   UNL     1      -1.212   2.400  11.472  1.00  0.00     0.135 A 
ATOM     51  C   UNL     1      -2.117   1.911   9.317  1.00  0.00     0.135 A 
ATOM     52  F   UNL     1      -0.186   2.555  12.323  1.00  0.00    -0.206 F 
ATOM     53  C   UNL     1      -2.493   2.695  11.951  1.00  0.00     0.059 A 
ATOM     54  C   UNL     1      -3.405   2.180   9.777  1.00  0.00     0.059 A 
ATOM     55  F   UNL     1      -2.012   1.622   8.011  1.00  0.00    -0.206 F 
ATOM     56  C   UNL     1      -3.583   2.603  11.087  1.00  0.00     0.060 A 
BRANCH  56  57
ATOM     57  S   UNL     1      -5.209   3.160  11.646  1.00  0.00     0.124 S 
ATOM     58  O   UNL     1      -5.537   2.166  12.662  1.00  0.00    -0.237 OA
ATOM     59  O   UNL     1      -4.920   4.503  12.138  1.00  0.00    -0.237 OA
ATOM     60  O   UNL     1      -6.022   3.105  10.434  1.00  0.00    -0.744 OA
ENDBRANCH  56  57
ENDBRANCH  24  49
BRANCH  36  61
ATOM     61  C   UNL     1       5.434   2.170  10.350  1.00  0.00     0.058 A 
ATOM     62  C   UNL     1       5.096   0.905   9.842  1.00  0.00     0.135 A 
ATOM     63  C   UNL     1       6.566   2.249  11.179  1.00  0.00     0.135 A 
ATOM     64  F   UNL     1       4.088   0.757   8.969  1.00  0.00    -0.206 F 
ATOM     65  C   UNL     1       5.839  -0.234  10.160  1.00  0.00     0.059 A 
ATOM     66  C   UNL     1       7.340   1.132  11.483  1.00  0.00     0.059 A 
ATOM     67  F   UNL     1       6.972   3.439  11.651  1.00  0.00    -0.206 F 
ATOM     68  C   UNL     1       6.968  -0.108  10.971  1.00  0.00     0.060 A 
BRANCH  68  69
ATOM     69  S   UNL     1       8.001  -1.560  11.269  1.00  0.00     0.124 S 
ATOM     70  O   UNL     1       7.168  -2.353  12.167  1.00  0.00    -0.237 OA
ATOM     71  O   UNL     1       8.178  -2.103   9.924  1.00  0.00    -0.237 OA
ATOM     72  O   UNL     1       9.211  -1.002  11.868  1.00  0.00    -0.744 OA
ENDBRANCH  68  69
ENDBRANCH  36  61
ENDBRANCH  10  11
ENDBRANCH   2   5
BRANCH   3  73
ATOM     73  C   UNL     1       4.745  -0.976  -0.570  1.00  0.00     0.118 C 
BRANCH  73  74
ATOM     74  C   UNL     1       5.054  -2.054   0.467  1.00  0.00     0.042 C 
BRANCH  74  75
ATOM     75  C   UNL     1       4.495  -3.434   0.136  1.00  0.00     0.118 C 
BRANCH  75  76
ATOM     76  N   UNL     1       5.034  -3.988  -1.096  1.00  0.00    -0.351 N 
ATOM     77  C   UNL     1       5.776  -5.135  -1.296  1.00  0.00     0.273 C 
ATOM     78  H   UNL     1       4.841  -3.467  -1.909  1.00  0.00     0.163 HD
ATOM     79  O   UNL     1       6.168  -5.392  -2.425  1.00  0.00    -0.267 OA
BRANCH  77  80
ATOM     80  C   UNL     1       6.070  -5.986  -0.140  1.00  0.00     0.167 A 
ATOM     81  N   UNL     1       7.336  -6.154   0.287  1.00  0.00    -0.160 NA
ATOM     82  C   UNL     1       5.171  -6.730   0.652  1.00  0.00     0.095 A 
ATOM     83  N   UNL     1       7.234  -6.934   1.389  1.00  0.00    -0.219 N 
ATOM     84  C   UNL     1       5.910  -7.288   1.665  1.00  0.00     0.170 A 
ATOM     85  Br  UNL     1       3.322  -6.891   0.386  1.00  0.00    -0.044 Br
ATOM     86  C   UNL     1       8.269  -7.375   2.203  1.00  0.00     0.132 A 
ATOM     87  N   UNL     1       5.570  -8.037   2.760  1.00  0.00    -0.235 NA
ATOM     88  C   UNL     1       8.006  -8.114   3.289  1.00  0.00     0.054 A 
ATOM     89  C   UNL     1       6.558  -8.398   3.527  1.00  0.00     0.131 A 
ATOM     90  Br  UNL     1       9.275  -8.784   4.453  1.00  0.00    -0.047 Br
ENDBRANCH  77  80
ENDBRANCH  75  76
ENDBRANCH  74  75
ENDBRANCH  73  74
ENDBRANCH   3  73
TORSDOF 13
