REMARK SMILES C[NH+]1CC[NH+](CC[C@H]2CCC[C@@]2([NH3+])C(=O)NCCCNC(=O)c2ccc(-c3c4nc(c(-c5c(F)cc(S(=O)(=O)[O-])cc5F)c5ccc([nH]5)c(-c5c(F)cc(S(=O)(=O)[O-])cc5F)c5nc(c(-c6c(F)cc(S(=O)(=O)[O-])cc6F)c6ccc3[nH]6)C=C5)C=C4)cc2)CC1
REMARK SMILES IDX 18 1 17 2 16 3 14 4 15 5 12 7 8 8 9 9 10 10 11 11 7 12 6 13
REMARK SMILES IDX 5 14 1 15 2 16 3 17 90 18 4 20 89 21 13 23 19 27 20 28 21 29
REMARK SMILES IDX 22 31 23 32 24 33 88 34 25 35 87 36 26 37 27 38 28 39 81 40
REMARK SMILES IDX 29 41 86 42 80 43 82 44 30 45 85 46 79 47 78 48 31 50 65 51
REMARK SMILES IDX 44 52 64 53 45 54 48 55 63 56 83 57 46 58 47 59 62 61 84 62
REMARK SMILES IDX 49 63 32 64 33 65 42 66 34 67 35 68 41 69 43 70 36 71 37 72
REMARK SMILES IDX 38 73 39 74 40 75 66 76 67 77 76 78 68 79 69 80 75 81 77 82
REMARK SMILES IDX 70 83 71 84 72 85 73 86 74 87 50 88 51 89 60 90 52 91 53 92
REMARK SMILES IDX 59 93 61 94 54 95 55 96 56 97 57 98 58 99
REMARK H PARENT 16 6 2 19 5 22 13 24 13 25 13 26 20 30 82 49 48 60
REMARK Flexibility Score: inf
ROOT
ATOM      1  C   UNL     1       0.673   2.380  -2.120  1.00  0.00     0.042 C 
ENDROOT
BRANCH   1   2
ATOM      2  C   UNL     1       1.164   3.378  -1.056  1.00  0.00     0.118 C 
BRANCH   2   3
ATOM      3  N   UNL     1       0.118   4.008  -0.263  1.00  0.00    -0.351 N 
ATOM      4  C   UNL     1      -0.218   4.021   1.054  1.00  0.00     0.281 C 
ATOM      5  O   UNL     1      -1.185   4.754   1.321  1.00  0.00    -0.268 OA
ATOM      6  H   UNL     1      -0.491   4.554  -0.810  1.00  0.00     0.163 HD
BRANCH   4   7
ATOM      7  C   UNL     1       0.471   3.183   2.193  1.00  0.00     0.177 C 
ATOM      8  C   UNL     1       0.396   1.616   2.157  1.00  0.00     0.066 C 
ATOM      9  C   UNL     1       1.816   1.147   2.573  1.00  0.00     0.011 C 
ATOM     10  C   UNL     1       2.514   2.361   3.174  1.00  0.00     0.008 C 
ATOM     11  C   UNL     1       1.958   3.522   2.365  1.00  0.00     0.079 C 
BRANCH   8  12
ATOM     12  C   UNL     1      -0.037   0.973   0.836  1.00  0.00     0.072 C 
BRANCH  12  13
ATOM     13  C   UNL     1      -0.858  -0.323   0.900  1.00  0.00     0.263 C 
BRANCH  13  14
ATOM     14  N   UNL     1      -2.316  -0.240   0.929  1.00  0.00    -0.326 N 
ATOM     15  C   UNL     1      -4.236   3.351   2.389  1.00  0.00     0.333 C 
ATOM     16  N   UNL     1      -4.054   2.002   1.851  1.00  0.00    -0.328 N 
ATOM     17  C   UNL     1      -3.290   1.171   2.795  1.00  0.00     0.324 C 
ATOM     18  C   UNL     1      -3.371   2.053   0.545  1.00  0.00     0.324 C 
ATOM     19  H   UNL     1      -4.974   1.582   1.718  1.00  0.00     0.348 HD
ATOM     20  C   UNL     1      -2.959  -0.228   2.240  1.00  0.00     0.324 C 
ATOM     21  C   UNL     1      -2.984   0.661  -0.018  1.00  0.00     0.324 C 
ATOM     22  H   UNL     1      -2.485  -1.171   0.547  1.00  0.00     0.348 HD
ENDBRANCH  13  14
ENDBRANCH  12  13
ENDBRANCH   8  12
BRANCH   7  23
ATOM     23  N   UNL     1      -0.152   3.621   3.490  1.00  0.00    -0.345 N 
ATOM     24  H   UNL     1       0.267   3.101   4.261  1.00  0.00     0.345 HD
ATOM     25  H   UNL     1      -1.155   3.440   3.463  1.00  0.00     0.345 HD
ATOM     26  H   UNL     1       0.010   4.619   3.625  1.00  0.00     0.345 HD
ENDBRANCH   7  23
ENDBRANCH   4   7
ENDBRANCH   2   3
ENDBRANCH   1   2
BRANCH   1  27
ATOM     27  C   UNL     1      -0.564   2.774  -2.918  1.00  0.00     0.118 C 
BRANCH  27  28
ATOM     28  N   UNL     1      -0.255   3.715  -3.974  1.00  0.00    -0.352 N 
ATOM     29  C   UNL     1       0.096   3.496  -5.285  1.00  0.00     0.251 C 
ATOM     30  H   UNL     1      -0.304   4.662  -3.712  1.00  0.00     0.163 HD
ATOM     31  O   UNL     1       0.585   4.430  -5.918  1.00  0.00    -0.269 OA
BRANCH  29  32
ATOM     32  C   UNL     1      -0.077   2.176  -5.947  1.00  0.00     0.039 A 
ATOM     33  C   UNL     1       0.897   1.769  -6.867  1.00  0.00     0.014 A 
ATOM     34  C   UNL     1      -1.221   1.389  -5.779  1.00  0.00     0.014 A 
ATOM     35  C   UNL     1       0.737   0.581  -7.590  1.00  0.00     0.010 A 
ATOM     36  C   UNL     1      -1.347   0.166  -6.451  1.00  0.00     0.010 A 
ATOM     37  C   UNL     1      -0.381  -0.243  -7.382  1.00  0.00    -0.014 A 
BRANCH  37  38
ATOM     38  C   UNL     1      -0.544  -1.507  -8.158  1.00  0.00     0.031 A 
ATOM     39  C   UNL     1      -1.677  -1.672  -9.141  1.00  0.00     0.074 A 
ATOM     40  C   UNL     1       0.328  -2.520  -7.978  1.00  0.00     0.049 A 
ATOM     41  N   UNL     1      -1.952  -2.686  -9.924  1.00  0.00    -0.248 NA
ATOM     42  C   UNL     1      -2.638  -0.563  -9.245  1.00  0.00     0.031 C 
ATOM     43  C   UNL     1       1.440  -2.515  -7.026  1.00  0.00     0.029 A 
ATOM     44  N   UNL     1       0.420  -3.747  -8.588  1.00  0.00    -0.354 N 
ATOM     45  C   UNL     1      -3.116  -2.343 -10.604  1.00  0.00     0.074 A 
ATOM     46  C   UNL     1      -3.524  -1.048 -10.104  1.00  0.00     0.031 C 
ATOM     47  C   UNL     1       2.121  -3.666  -7.139  1.00  0.00     0.029 A 
ATOM     48  C   UNL     1       1.481  -4.504  -8.150  1.00  0.00     0.049 A 
ATOM     49  H   UNL     1      -0.214  -4.055  -9.275  1.00  0.00     0.167 HD
ATOM     50  C   UNL     1      -3.773  -3.028 -11.572  1.00  0.00     0.037 A 
ATOM     51  C   UNL     1       1.900  -5.731  -8.521  1.00  0.00     0.037 A 
ATOM     52  C   UNL     1      -3.355  -4.306 -12.089  1.00  0.00     0.049 A 
ATOM     53  C   UNL     1       1.168  -6.466  -9.610  1.00  0.00     0.074 A 
ATOM     54  C   UNL     1      -3.923  -5.051 -13.109  1.00  0.00     0.029 A 
ATOM     55  N   UNL     1      -2.266  -5.032 -11.628  1.00  0.00    -0.354 N 
ATOM     56  N   UNL     1       0.108  -6.093 -10.288  1.00  0.00    -0.248 NA
ATOM     57  C   UNL     1       1.694  -7.783  -9.994  1.00  0.00     0.031 C 
ATOM     58  C   UNL     1      -3.202  -6.244 -13.238  1.00  0.00     0.029 A 
ATOM     59  C   UNL     1      -2.156  -6.222 -12.329  1.00  0.00     0.049 A 
ATOM     60  H   UNL     1      -1.660  -4.744 -10.908  1.00  0.00     0.167 HD
ATOM     61  C   UNL     1      -0.142  -7.116 -11.195  1.00  0.00     0.074 A 
ATOM     62  C   UNL     1       0.882  -8.119 -10.987  1.00  0.00     0.031 C 
ATOM     63  C   UNL     1      -1.131  -7.213 -12.119  1.00  0.00     0.037 A 
BRANCH  50  64
ATOM     64  C   UNL     1      -5.019  -2.404 -12.144  1.00  0.00     0.058 A 
ATOM     65  C   UNL     1      -4.962  -1.270 -12.971  1.00  0.00     0.135 A 
ATOM     66  C   UNL     1      -6.282  -2.963 -11.889  1.00  0.00     0.135 A 
ATOM     67  F   UNL     1      -3.782  -0.689 -13.240  1.00  0.00    -0.206 F 
ATOM     68  C   UNL     1      -6.114  -0.690 -13.492  1.00  0.00     0.059 A 
ATOM     69  C   UNL     1      -7.446  -2.415 -12.424  1.00  0.00     0.059 A 
ATOM     70  F   UNL     1      -6.396  -4.051 -11.111  1.00  0.00    -0.206 F 
ATOM     71  C   UNL     1      -7.353  -1.267 -13.209  1.00  0.00     0.060 A 
BRANCH  71  72
ATOM     72  S   UNL     1      -8.841  -0.499 -13.883  1.00  0.00     0.124 S 
ATOM     73  O   UNL     1      -8.971   0.679 -13.028  1.00  0.00    -0.237 OA
ATOM     74  O   UNL     1      -8.457  -0.232 -15.268  1.00  0.00    -0.237 OA
ATOM     75  O   UNL     1      -9.863  -1.520 -13.705  1.00  0.00    -0.744 OA
ENDBRANCH  71  72
ENDBRANCH  50  64
BRANCH  51  76
ATOM     76  C   UNL     1       3.104  -6.322  -7.880  1.00  0.00     0.058 A 
ATOM     77  C   UNL     1       4.314  -6.434  -8.580  1.00  0.00     0.135 A 
ATOM     78  C   UNL     1       3.078  -6.760  -6.546  1.00  0.00     0.135 A 
ATOM     79  F   UNL     1       4.386  -6.037  -9.860  1.00  0.00    -0.206 F 
ATOM     80  C   UNL     1       5.454  -6.965  -7.986  1.00  0.00     0.059 A 
ATOM     81  C   UNL     1       4.211  -7.272  -5.923  1.00  0.00     0.059 A 
ATOM     82  F   UNL     1       1.948  -6.659  -5.828  1.00  0.00    -0.206 F 
ATOM     83  C   UNL     1       5.394  -7.376  -6.654  1.00  0.00     0.060 A 
BRANCH  83  84
ATOM     84  S   UNL     1       6.897  -7.997  -5.868  1.00  0.00     0.124 S 
ATOM     85  O   UNL     1       7.011  -9.325  -6.461  1.00  0.00    -0.237 OA
ATOM     86  O   UNL     1       7.893  -7.019  -6.295  1.00  0.00    -0.237 OA
ATOM     87  O   UNL     1       6.569  -7.965  -4.446  1.00  0.00    -0.744 OA
ENDBRANCH  83  84
ENDBRANCH  51  76
BRANCH  63  88
ATOM     88  C   UNL     1      -1.138  -8.432 -13.000  1.00  0.00     0.058 A 
ATOM     89  C   UNL     1      -1.520  -9.693 -12.514  1.00  0.00     0.135 A 
ATOM     90  C   UNL     1      -0.799  -8.329 -14.359  1.00  0.00     0.135 A 
ATOM     91  F   UNL     1      -1.848  -9.848 -11.222  1.00  0.00    -0.206 F 
ATOM     92  C   UNL     1      -1.540 -10.814 -13.339  1.00  0.00     0.059 A 
ATOM     93  C   UNL     1      -0.837  -9.431 -15.207  1.00  0.00     0.059 A 
ATOM     94  F   UNL     1      -0.437  -7.145 -14.877  1.00  0.00    -0.206 F 
ATOM     95  C   UNL     1      -1.196 -10.673 -14.685  1.00  0.00     0.060 A 
BRANCH  95  96
ATOM     96  S   UNL     1      -1.250 -12.129 -15.751  1.00  0.00     0.124 S 
ATOM     97  O   UNL     1      -0.041 -12.837 -15.343  1.00  0.00    -0.237 OA
ATOM     98  O   UNL     1      -2.511 -12.755 -15.366  1.00  0.00    -0.237 OA
ATOM     99  O   UNL     1      -1.224 -11.565 -17.098  1.00  0.00    -0.744 OA
ENDBRANCH  95  96
ENDBRANCH  63  88
ENDBRANCH  37  38
ENDBRANCH  29  32
ENDBRANCH  27  28
ENDBRANCH   1  27
TORSDOF 17
