REMARK SMILES O=C(NCCCNC(=O)[C@H]1CCCCN1S(=O)(=O)c1cc[nH]c1)c1ccc(-c2c3nc(c(-c4c(F)cc(S(=O)(=O)[O-])cc4F)c4ccc([nH]4)c(-c4c(F)cc(S(=O)(=O)[O-])cc4F)c4nc(c(-c5c(F)cc(S(=O)(=O)[O-])cc5F)c5ccc2[nH]5)C=C4)C=C3)cc1
REMARK SMILES IDX 4 1 3 2 1 3 2 4 24 6 25 7 89 8 26 9 88 10 27 11 28 12 29 13
REMARK SMILES IDX 82 14 30 15 87 16 81 17 83 18 31 19 86 20 80 21 79 22 32 24
REMARK SMILES IDX 66 25 45 26 65 27 46 28 49 29 64 30 84 31 47 32 48 33 63 35
REMARK SMILES IDX 85 36 50 37 33 38 34 39 43 40 35 41 36 42 42 43 44 44 37 45
REMARK SMILES IDX 38 46 39 47 40 48 41 49 67 50 68 51 77 52 69 53 70 54 76 55
REMARK SMILES IDX 78 56 71 57 72 58 73 59 74 60 75 61 51 62 52 63 61 64 53 65
REMARK SMILES IDX 54 66 60 67 62 68 55 69 56 70 57 71 58 72 59 73 5 74 6 75
REMARK SMILES IDX 7 76 8 77 9 79 10 80 11 81 15 82 12 83 14 84 13 85 16 86
REMARK SMILES IDX 17 87 18 88 19 89 20 90 23 91 21 92 22 93
REMARK H PARENT 3 5 83 23 49 34 7 78 22 94
REMARK Flexibility Score: inf
ROOT
ATOM      1  C   UNL     1      10.309  -3.459  -0.448  1.00  0.00     0.118 C 
ENDROOT
BRANCH   1   2
ATOM      2  N   UNL     1      10.941  -2.284   0.114  1.00  0.00    -0.352 N 
ATOM      3  O   UNL     1      11.559  -0.691   1.532  1.00  0.00    -0.269 OA
ATOM      4  C   UNL     1      10.724  -1.556   1.258  1.00  0.00     0.251 C 
ATOM      5  H   UNL     1      11.680  -1.936  -0.437  1.00  0.00     0.163 HD
BRANCH   4   6
ATOM      6  C   UNL     1       9.528  -1.703   2.135  1.00  0.00     0.039 A 
ATOM      7  C   UNL     1       8.880  -2.914   2.401  1.00  0.00     0.014 A 
ATOM      8  C   UNL     1       9.064  -0.535   2.765  1.00  0.00     0.014 A 
ATOM      9  C   UNL     1       7.760  -2.950   3.238  1.00  0.00     0.010 A 
ATOM     10  C   UNL     1       7.962  -0.569   3.623  1.00  0.00     0.010 A 
ATOM     11  C   UNL     1       7.313  -1.784   3.872  1.00  0.00    -0.014 A 
BRANCH  11  12
ATOM     12  C   UNL     1       6.313  -1.899   4.968  1.00  0.00     0.031 A 
ATOM     13  C   UNL     1       6.945  -2.347   6.298  1.00  0.00     0.074 A 
ATOM     14  C   UNL     1       5.006  -1.622   4.683  1.00  0.00     0.049 A 
ATOM     15  N   UNL     1       6.406  -2.946   7.318  1.00  0.00    -0.248 NA
ATOM     16  C   UNL     1       8.413  -2.179   6.489  1.00  0.00     0.031 C 
ATOM     17  C   UNL     1       4.521  -1.210   3.352  1.00  0.00     0.029 A 
ATOM     18  N   UNL     1       3.833  -1.611   5.421  1.00  0.00    -0.354 N 
ATOM     19  C   UNL     1       7.395  -3.032   8.325  1.00  0.00     0.074 A 
ATOM     20  C   UNL     1       8.634  -2.666   7.712  1.00  0.00     0.031 C 
ATOM     21  C   UNL     1       3.182  -1.042   3.361  1.00  0.00     0.029 A 
ATOM     22  C   UNL     1       2.655  -1.307   4.688  1.00  0.00     0.049 A 
ATOM     23  H   UNL     1       3.818  -1.802   6.387  1.00  0.00     0.167 HD
ATOM     24  C   UNL     1       7.120  -3.267   9.642  1.00  0.00     0.037 A 
ATOM     25  C   UNL     1       1.348  -1.288   5.101  1.00  0.00     0.037 A 
ATOM     26  C   UNL     1       5.717  -3.399   9.840  1.00  0.00     0.049 A 
ATOM     27  C   UNL     1       1.373  -1.443   6.567  1.00  0.00     0.074 A 
ATOM     28  C   UNL     1       4.817  -4.393   9.569  1.00  0.00     0.029 A 
ATOM     29  N   UNL     1       5.035  -2.255  10.176  1.00  0.00    -0.354 N 
ATOM     30  N   UNL     1       1.779  -0.536   7.404  1.00  0.00    -0.248 NA
ATOM     31  C   UNL     1       0.940  -2.718   7.153  1.00  0.00     0.031 C 
ATOM     32  C   UNL     1       3.599  -3.712   9.370  1.00  0.00     0.029 A 
ATOM     33  C   UNL     1       3.784  -2.347   9.619  1.00  0.00     0.049 A 
ATOM     34  H   UNL     1       5.379  -1.507  10.716  1.00  0.00     0.167 HD
ATOM     35  C   UNL     1       1.952  -1.249   8.566  1.00  0.00     0.074 A 
ATOM     36  C   UNL     1       1.156  -2.449   8.437  1.00  0.00     0.031 C 
ATOM     37  C   UNL     1       3.112  -1.116   9.254  1.00  0.00     0.037 A 
BRANCH  24  38
ATOM     38  C   UNL     1       7.960  -3.157  10.889  1.00  0.00     0.058 A 
ATOM     39  C   UNL     1       7.529  -3.868  12.038  1.00  0.00     0.135 A 
ATOM     40  C   UNL     1       8.903  -2.143  11.108  1.00  0.00     0.135 A 
ATOM     41  F   UNL     1       6.679  -4.903  11.925  1.00  0.00    -0.206 F 
ATOM     42  C   UNL     1       7.883  -3.492  13.329  1.00  0.00     0.059 A 
ATOM     43  C   UNL     1       9.309  -1.778  12.397  1.00  0.00     0.059 A 
ATOM     44  F   UNL     1       9.388  -1.420  10.090  1.00  0.00    -0.206 F 
ATOM     45  C   UNL     1       8.741  -2.414  13.501  1.00  0.00     0.060 A 
BRANCH  45  46
ATOM     46  S   UNL     1       9.052  -1.825  15.178  1.00  0.00     0.124 S 
ATOM     47  O   UNL     1       7.822  -1.097  15.469  1.00  0.00    -0.237 OA
ATOM     48  O   UNL     1       9.238  -3.069  15.919  1.00  0.00    -0.237 OA
ATOM     49  O   UNL     1      10.254  -1.010  15.029  1.00  0.00    -0.744 OA
ENDBRANCH  45  46
ENDBRANCH  24  38
BRANCH  25  50
ATOM     50  C   UNL     1      -0.037  -1.243   4.466  1.00  0.00     0.058 A 
ATOM     51  C   UNL     1      -0.317  -1.240   3.093  1.00  0.00     0.135 A 
ATOM     52  C   UNL     1      -1.196  -1.392   5.287  1.00  0.00     0.135 A 
ATOM     53  F   UNL     1       0.633  -0.996   2.187  1.00  0.00    -0.206 F 
ATOM     54  C   UNL     1      -1.595  -1.525   2.578  1.00  0.00     0.059 A 
ATOM     55  C   UNL     1      -2.457  -1.736   4.803  1.00  0.00     0.059 A 
ATOM     56  F   UNL     1      -1.138  -1.258   6.620  1.00  0.00    -0.206 F 
ATOM     57  C   UNL     1      -2.642  -1.837   3.440  1.00  0.00     0.060 A 
BRANCH  57  58
ATOM     58  S   UNL     1      -4.190  -2.518   2.807  1.00  0.00     0.124 S 
ATOM     59  O   UNL     1      -4.997  -1.318   2.621  1.00  0.00    -0.237 OA
ATOM     60  O   UNL     1      -3.765  -3.196   1.586  1.00  0.00    -0.237 OA
ATOM     61  O   UNL     1      -4.617  -3.409   3.884  1.00  0.00    -0.744 OA
ENDBRANCH  57  58
ENDBRANCH  25  50
BRANCH  37  62
ATOM     62  C   UNL     1       3.756   0.252   9.128  1.00  0.00     0.058 A 
ATOM     63  C   UNL     1       3.115   1.384   9.657  1.00  0.00     0.135 A 
ATOM     64  C   UNL     1       4.943   0.493   8.417  1.00  0.00     0.135 A 
ATOM     65  F   UNL     1       1.968   1.244  10.342  1.00  0.00    -0.206 F 
ATOM     66  C   UNL     1       3.629   2.674   9.498  1.00  0.00     0.059 A 
ATOM     67  C   UNL     1       5.490   1.768   8.255  1.00  0.00     0.059 A 
ATOM     68  F   UNL     1       5.601  -0.515   7.844  1.00  0.00    -0.206 F 
ATOM     69  C   UNL     1       4.822   2.858   8.797  1.00  0.00     0.060 A 
BRANCH  69  70
ATOM     70  S   UNL     1       5.484   4.530   8.613  1.00  0.00     0.124 S 
ATOM     71  O   UNL     1       4.429   5.201   7.860  1.00  0.00    -0.237 OA
ATOM     72  O   UNL     1       5.635   4.954  10.001  1.00  0.00    -0.237 OA
ATOM     73  O   UNL     1       6.734   4.329   7.884  1.00  0.00    -0.744 OA
ENDBRANCH  69  70
ENDBRANCH  37  62
ENDBRANCH  11  12
ENDBRANCH   4   6
ENDBRANCH   1   2
BRANCH   1  74
ATOM     74  C   UNL     1       8.841  -3.308  -0.815  1.00  0.00     0.042 C 
BRANCH  74  75
ATOM     75  C   UNL     1       8.524  -2.782  -2.220  1.00  0.00     0.117 C 
BRANCH  75  76
ATOM     76  N   UNL     1       8.656  -3.840  -3.203  1.00  0.00    -0.355 N 
ATOM     77  C   UNL     1       7.771  -4.661  -3.824  1.00  0.00     0.238 C 
ATOM     78  H   UNL     1       9.588  -3.997  -3.480  1.00  0.00     0.163 HD
ATOM     79  O   UNL     1       8.326  -5.563  -4.469  1.00  0.00    -0.273 OA
BRANCH  77  80
ATOM     80  C   UNL     1       6.224  -4.500  -3.821  1.00  0.00     0.162 C 
ATOM     81  C   UNL     1       5.659  -5.152  -5.116  1.00  0.00     0.030 C 
ATOM     82  N   UNL     1       5.426  -5.122  -2.709  1.00  0.00    -0.185 NA
ATOM     83  C   UNL     1       5.731  -6.689  -5.099  1.00  0.00     0.004 C 
ATOM     84  C   UNL     1       5.700  -6.548  -2.537  1.00  0.00     0.103 C 
ATOM     85  C   UNL     1       5.214  -7.287  -3.792  1.00  0.00     0.017 C 
BRANCH  82  86
ATOM     86  S   UNL     1       5.011  -4.091  -1.451  1.00  0.00     0.245 S 
ATOM     87  O   UNL     1       6.239  -3.684  -0.826  1.00  0.00    -0.207 OA
ATOM     88  O   UNL     1       4.116  -3.094  -2.004  1.00  0.00    -0.207 OA
BRANCH  86  89
ATOM     89  C   UNL     1       4.202  -4.721  -0.061  1.00  0.00     0.100 A 
ATOM     90  C   UNL     1       4.580  -5.860   0.701  1.00  0.00     0.041 A 
ATOM     91  C   UNL     1       3.352  -3.972   0.737  1.00  0.00     0.104 A 
ATOM     92  C   UNL     1       3.979  -5.748   1.939  1.00  0.00     0.083 A 
ATOM     93  N   UNL     1       3.252  -4.585   1.959  1.00  0.00    -0.366 N 
ATOM     94  H   UNL     1       2.740  -4.245   2.728  1.00  0.00     0.165 HD
ENDBRANCH  86  89
ENDBRANCH  82  86
ENDBRANCH  77  80
ENDBRANCH  75  76
ENDBRANCH  74  75
ENDBRANCH   1  74
TORSDOF 15
