REMARK SMILES O=C(NCCCNC(=O)c1ccccc1NS(=O)(=O)c1cccc([N+](=O)[O-])c1)c1ccc(-c2c3nc(c(-c4c(F)cc(S(=O)(=O)[O-])cc4F)c4ccc([nH]4)c(-c4c(F)cc(S(=O)(=O)[O-])cc4F)c4nc(c(-c5c(F)cc(S(=O)(=O)[O-])cc5F)c5ccc2[nH]5)C=C4)C=C3)cc1
REMARK SMILES IDX 5 1 4 2 3 3 1 4 2 5 29 7 30 8 94 9 31 10 93 11 32 12 33 13
REMARK SMILES IDX 34 14 87 15 35 16 92 17 86 18 88 19 36 20 91 21 85 22 84 23
REMARK SMILES IDX 37 25 71 26 50 27 70 28 51 29 54 30 69 31 89 32 52 33 53 34
REMARK SMILES IDX 68 36 90 37 55 38 38 39 39 40 48 41 40 42 41 43 47 44 49 45
REMARK SMILES IDX 42 46 43 47 44 48 45 49 46 50 72 51 73 52 82 53 74 54 75 55
REMARK SMILES IDX 81 56 83 57 76 58 77 59 78 60 79 61 80 62 56 63 57 64 66 65
REMARK SMILES IDX 58 66 59 67 65 68 67 69 60 70 61 71 62 72 63 73 64 74 6 75
REMARK SMILES IDX 7 76 8 77 9 79 10 80 11 81 15 82 12 83 14 84 13 85 16 86
REMARK SMILES IDX 17 88 18 89 19 90 20 91 21 92 28 93 22 94 24 95 23 96 25 97
REMARK SMILES IDX 26 98 27 99
REMARK H PARENT 3 6 88 24 54 35 7 78 16 87
REMARK Flexibility Score: inf
ROOT
ATOM      1  C   UNL     1       5.059  -1.595   1.516  1.00  0.00     0.042 C 
ENDROOT
BRANCH   1   2
ATOM      2  C   UNL     1       4.585  -1.280   0.107  1.00  0.00     0.118 C 
BRANCH   2   3
ATOM      3  N   UNL     1       3.143  -1.096   0.009  1.00  0.00    -0.352 N 
ATOM      4  O   UNL     1       1.166  -0.035  -0.111  1.00  0.00    -0.269 OA
ATOM      5  C   UNL     1       2.389   0.033  -0.207  1.00  0.00     0.251 C 
ATOM      6  H   UNL     1       2.618  -1.922   0.116  1.00  0.00     0.163 HD
BRANCH   5   7
ATOM      7  C   UNL     1       3.030   1.328  -0.526  1.00  0.00     0.039 A 
ATOM      8  C   UNL     1       4.114   1.404  -1.401  1.00  0.00     0.014 A 
ATOM      9  C   UNL     1       2.514   2.499   0.040  1.00  0.00     0.014 A 
ATOM     10  C   UNL     1       4.789   2.608  -1.567  1.00  0.00     0.010 A 
ATOM     11  C   UNL     1       3.130   3.729  -0.215  1.00  0.00     0.010 A 
ATOM     12  C   UNL     1       4.297   3.788  -0.989  1.00  0.00    -0.014 A 
BRANCH  12  13
ATOM     13  C   UNL     1       4.994   5.073  -1.256  1.00  0.00     0.031 A 
ATOM     14  C   UNL     1       5.631   5.858  -0.142  1.00  0.00     0.074 A 
ATOM     15  C   UNL     1       5.074   5.514  -2.527  1.00  0.00     0.049 A 
ATOM     16  N   UNL     1       6.280   6.993  -0.203  1.00  0.00    -0.248 NA
ATOM     17  C   UNL     1       5.520   5.305   1.217  1.00  0.00     0.031 C 
ATOM     18  C   UNL     1       4.483   4.845  -3.689  1.00  0.00     0.029 A 
ATOM     19  N   UNL     1       5.695   6.614  -3.061  1.00  0.00    -0.354 N 
ATOM     20  C   UNL     1       6.632   7.304   1.105  1.00  0.00     0.074 A 
ATOM     21  C   UNL     1       6.108   6.246   1.943  1.00  0.00     0.031 C 
ATOM     22  C   UNL     1       4.811   5.518  -4.801  1.00  0.00     0.029 A 
ATOM     23  C   UNL     1       5.580   6.700  -4.427  1.00  0.00     0.049 A 
ATOM     24  H   UNL     1       6.178   7.277  -2.517  1.00  0.00     0.167 HD
ATOM     25  C   UNL     1       7.332   8.371   1.562  1.00  0.00     0.037 A 
ATOM     26  C   UNL     1       6.026   7.634  -5.288  1.00  0.00     0.037 A 
ATOM     27  C   UNL     1       7.870   9.408   0.718  1.00  0.00     0.049 A 
ATOM     28  C   UNL     1       6.798   8.804  -4.757  1.00  0.00     0.074 A 
ATOM     29  C   UNL     1       8.620  10.513   1.083  1.00  0.00     0.029 A 
ATOM     30  N   UNL     1       7.716   9.468  -0.660  1.00  0.00    -0.354 N 
ATOM     31  N   UNL     1       7.134   9.072  -3.518  1.00  0.00    -0.248 NA
ATOM     32  C   UNL     1       7.247   9.802  -5.736  1.00  0.00     0.031 C 
ATOM     33  C   UNL     1       8.891  11.258  -0.070  1.00  0.00     0.029 A 
ATOM     34  C   UNL     1       8.344  10.598  -1.159  1.00  0.00     0.049 A 
ATOM     35  H   UNL     1       7.233   8.805  -1.203  1.00  0.00     0.167 HD
ATOM     36  C   UNL     1       7.842  10.266  -3.567  1.00  0.00     0.074 A 
ATOM     37  C   UNL     1       7.900  10.659  -4.962  1.00  0.00     0.031 C 
ATOM     38  C   UNL     1       8.390  10.974  -2.550  1.00  0.00     0.037 A 
BRANCH  25  39
ATOM     39  C   UNL     1       7.541   8.482   3.047  1.00  0.00     0.058 A 
ATOM     40  C   UNL     1       8.445   7.653   3.731  1.00  0.00     0.135 A 
ATOM     41  C   UNL     1       6.849   9.450   3.793  1.00  0.00     0.135 A 
ATOM     42  F   UNL     1       9.122   6.701   3.069  1.00  0.00    -0.206 F 
ATOM     43  C   UNL     1       8.636   7.762   5.105  1.00  0.00     0.059 A 
ATOM     44  C   UNL     1       7.040   9.592   5.165  1.00  0.00     0.059 A 
ATOM     45  F   UNL     1       5.974  10.270   3.189  1.00  0.00    -0.206 F 
ATOM     46  C   UNL     1       7.925   8.732   5.814  1.00  0.00     0.060 A 
BRANCH  46  47
ATOM     47  S   UNL     1       8.176   8.860   7.598  1.00  0.00     0.124 S 
ATOM     48  O   UNL     1       7.414   7.713   8.081  1.00  0.00    -0.237 OA
ATOM     49  O   UNL     1       9.627   8.752   7.721  1.00  0.00    -0.237 OA
ATOM     50  O   UNL     1       7.619  10.168   7.927  1.00  0.00    -0.744 OA
ENDBRANCH  46  47
ENDBRANCH  25  39
BRANCH  26  51
ATOM     51  C   UNL     1       5.742   7.485  -6.738  1.00  0.00     0.058 A 
ATOM     52  C   UNL     1       6.755   7.132  -7.640  1.00  0.00     0.135 A 
ATOM     53  C   UNL     1       4.439   7.636  -7.239  1.00  0.00     0.135 A 
ATOM     54  F   UNL     1       8.016   6.981  -7.207  1.00  0.00    -0.206 F 
ATOM     55  C   UNL     1       6.487   6.933  -8.990  1.00  0.00     0.059 A 
ATOM     56  C   UNL     1       4.143   7.419  -8.579  1.00  0.00     0.059 A 
ATOM     57  F   UNL     1       3.433   7.954  -6.409  1.00  0.00    -0.206 F 
ATOM     58  C   UNL     1       5.176   7.073  -9.449  1.00  0.00     0.060 A 
BRANCH  58  59
ATOM     59  S   UNL     1       4.822   6.735 -11.188  1.00  0.00     0.124 S 
ATOM     60  O   UNL     1       5.309   7.952 -11.827  1.00  0.00    -0.237 OA
ATOM     61  O   UNL     1       5.604   5.527 -11.434  1.00  0.00    -0.237 OA
ATOM     62  O   UNL     1       3.374   6.547 -11.203  1.00  0.00    -0.744 OA
ENDBRANCH  58  59
ENDBRANCH  26  51
BRANCH  38  63
ATOM     63  C   UNL     1       9.117  12.237  -2.911  1.00  0.00     0.058 A 
ATOM     64  C   UNL     1       8.425  13.407  -3.259  1.00  0.00     0.135 A 
ATOM     65  C   UNL     1      10.519  12.287  -2.871  1.00  0.00     0.135 A 
ATOM     66  F   UNL     1       7.083  13.406  -3.320  1.00  0.00    -0.206 F 
ATOM     67  C   UNL     1       9.100  14.581  -3.575  1.00  0.00     0.059 A 
ATOM     68  C   UNL     1      11.213  13.456  -3.163  1.00  0.00     0.059 A 
ATOM     69  F   UNL     1      11.225  11.195  -2.538  1.00  0.00    -0.206 F 
ATOM     70  C   UNL     1      10.495  14.595  -3.525  1.00  0.00     0.060 A 
BRANCH  70  71
ATOM     71  S   UNL     1      11.362  16.132  -3.906  1.00  0.00     0.124 S 
ATOM     72  O   UNL     1      11.284  16.159  -5.363  1.00  0.00    -0.237 OA
ATOM     73  O   UNL     1      10.556  17.131  -3.210  1.00  0.00    -0.237 OA
ATOM     74  O   UNL     1      12.695  15.915  -3.351  1.00  0.00    -0.744 OA
ENDBRANCH  70  71
ENDBRANCH  38  63
ENDBRANCH  12  13
ENDBRANCH   5   7
ENDBRANCH   2   3
ENDBRANCH   1   2
BRANCH   1  75
ATOM     75  C   UNL     1       4.502  -2.883   2.094  1.00  0.00     0.118 C 
BRANCH  75  76
ATOM     76  N   UNL     1       4.802  -4.069   1.310  1.00  0.00    -0.352 N 
ATOM     77  C   UNL     1       5.475  -5.199   1.691  1.00  0.00     0.253 C 
ATOM     78  H   UNL     1       4.478  -4.059   0.380  1.00  0.00     0.163 HD
ATOM     79  O   UNL     1       5.646  -6.123   0.901  1.00  0.00    -0.269 OA
BRANCH  77  80
ATOM     80  C   UNL     1       6.031  -5.303   3.050  1.00  0.00     0.063 A 
ATOM     81  C   UNL     1       7.432  -5.349   3.136  1.00  0.00     0.016 A 
ATOM     82  C   UNL     1       5.232  -5.422   4.202  1.00  0.00     0.062 A 
ATOM     83  C   UNL     1       8.053  -5.477   4.375  1.00  0.00     0.001 A 
ATOM     84  C   UNL     1       5.880  -5.543   5.436  1.00  0.00     0.027 A 
ATOM     85  C   UNL     1       7.277  -5.563   5.525  1.00  0.00     0.002 A 
BRANCH  82  86
ATOM     86  N   UNL     1       3.805  -5.563   4.123  1.00  0.00    -0.279 N 
ATOM     87  H   UNL     1       3.438  -6.309   3.596  1.00  0.00     0.180 HD
BRANCH  86  88
ATOM     88  S   UNL     1       2.723  -4.518   4.886  1.00  0.00     0.262 S 
ATOM     89  O   UNL     1       3.168  -3.151   4.694  1.00  0.00    -0.201 OA
ATOM     90  O   UNL     1       1.403  -4.937   4.492  1.00  0.00    -0.201 OA
BRANCH  88  91
ATOM     91  C   UNL     1       2.883  -4.881   6.612  1.00  0.00     0.094 A 
ATOM     92  C   UNL     1       2.706  -6.195   7.054  1.00  0.00     0.023 A 
ATOM     93  C   UNL     1       3.277  -3.863   7.489  1.00  0.00     0.107 A 
ATOM     94  C   UNL     1       2.976  -6.509   8.386  1.00  0.00     0.008 A 
ATOM     95  C   UNL     1       3.543  -4.190   8.820  1.00  0.00     0.270 A 
ATOM     96  C   UNL     1       3.404  -5.512   9.270  1.00  0.00     0.086 A 
BRANCH  95  97
ATOM     97  N   UNL     1       4.008  -3.149   9.746  1.00  0.00     0.062 N 
ATOM     98  O   UNL     1       4.345  -3.506  10.884  1.00  0.00    -0.258 OA
ATOM     99  O   UNL     1       4.042  -1.984   9.332  1.00  0.00    -0.258 OA
ENDBRANCH  95  97
ENDBRANCH  88  91
ENDBRANCH  86  88
ENDBRANCH  82  86
ENDBRANCH  77  80
ENDBRANCH  75  76
ENDBRANCH   1  75
TORSDOF 17
