REMARK SMILES Nc1nc(N2CCOC[C@H]2C(=O)NCCCNC(=O)c2ccc(-c3c4nc(c(-c5c(F)cc(S(=O)(=O)[O-])cc5F)c5ccc([nH]5)c(-c5c(F)cc(S(=O)(=O)[O-])cc5F)c5nc(c(-c6c(F)cc(S(=O)(=O)[O-])cc6F)c6ccc3[nH]6)C=C5)C=C4)cc2)ccc1[N+](=O)[O-]
REMARK SMILES IDX 15 1 14 2 13 3 11 4 12 5 10 7 5 8 6 9 7 10 9 11 8 12 4 13
REMARK SMILES IDX 2 14 3 15 88 16 87 17 86 18 1 19 89 22 90 23 91 24 16 25
REMARK SMILES IDX 17 26 18 27 19 29 20 30 21 31 85 32 22 33 84 34 23 35 24 36
REMARK SMILES IDX 25 37 78 38 26 39 83 40 77 41 79 42 27 43 82 44 76 45 75 46
REMARK SMILES IDX 28 48 62 49 41 50 61 51 42 52 45 53 60 54 80 55 43 56 44 57
REMARK SMILES IDX 59 59 81 60 46 61 29 62 30 63 39 64 31 65 32 66 38 67 40 68
REMARK SMILES IDX 33 69 34 70 35 71 36 72 37 73 63 74 64 75 73 76 65 77 66 78
REMARK SMILES IDX 72 79 74 80 67 81 68 82 69 83 70 84 71 85 47 86 48 87 57 88
REMARK SMILES IDX 49 89 50 90 56 91 58 92 51 93 52 94 53 95 54 96 55 97
REMARK H PARENT 13 6 1 20 1 21 17 28 79 47 45 58
REMARK Flexibility Score: inf
ROOT
ATOM      1  C   UNL     1      -2.261   4.369   3.367  1.00  0.00     0.042 C 
ENDROOT
BRANCH   1   2
ATOM      2  C   UNL     1      -2.228   5.188   2.082  1.00  0.00     0.117 C 
BRANCH   2   3
ATOM      3  N   UNL     1      -0.986   5.014   1.359  1.00  0.00    -0.354 N 
ATOM      4  C   UNL     1      -0.645   4.270   0.271  1.00  0.00     0.245 C 
ATOM      5  O   UNL     1       0.528   4.419  -0.107  1.00  0.00    -0.273 OA
ATOM      6  H   UNL     1      -0.238   5.538   1.728  1.00  0.00     0.163 HD
BRANCH   4   7
ATOM      7  C   UNL     1      -1.607   3.371  -0.544  1.00  0.00     0.199 C 
ATOM      8  N   UNL     1      -2.055   2.113   0.099  1.00  0.00    -0.340 N 
ATOM      9  C   UNL     1      -3.330   2.119   0.806  1.00  0.00     0.147 C 
ATOM     10  C   UNL     1      -4.403   2.810  -0.035  1.00  0.00     0.181 C 
ATOM     11  C   UNL     1      -2.792   4.134  -1.176  1.00  0.00     0.195 C 
ATOM     12  O   UNL     1      -4.010   4.135  -0.411  1.00  0.00    -0.377 OA
BRANCH   8  13
ATOM     13  C   UNL     1      -1.278   0.979  -0.001  1.00  0.00     0.132 A 
ATOM     14  C   UNL     1       0.860   0.005  -0.089  1.00  0.00     0.204 A 
ATOM     15  N   UNL     1       0.065   1.106  -0.061  1.00  0.00    -0.207 NA
ATOM     16  C   UNL     1       0.322  -1.277  -0.109  1.00  0.00     0.311 A 
ATOM     17  C   UNL     1      -1.063  -1.427  -0.121  1.00  0.00     0.093 A 
ATOM     18  C   UNL     1      -1.858  -0.287  -0.070  1.00  0.00     0.054 A 
BRANCH  14  19
ATOM     19  N   UNL     1       2.208   0.289  -0.194  1.00  0.00    -0.378 N 
ATOM     20  H   UNL     1       2.517   1.223  -0.173  1.00  0.00     0.158 HD
ATOM     21  H   UNL     1       2.859  -0.444  -0.290  1.00  0.00     0.158 HD
ENDBRANCH  14  19
BRANCH  16  22
ATOM     22  N   UNL     1       1.157  -2.472  -0.098  1.00  0.00     0.066 N 
ATOM     23  O   UNL     1       0.625  -3.543  -0.429  1.00  0.00    -0.258 OA
ATOM     24  O   UNL     1       2.338  -2.369   0.268  1.00  0.00    -0.258 OA
ENDBRANCH  16  22
ENDBRANCH   8  13
ENDBRANCH   4   7
ENDBRANCH   2   3
ENDBRANCH   1   2
BRANCH   1  25
ATOM     25  C   UNL     1      -1.696   5.104   4.573  1.00  0.00     0.118 C 
BRANCH  25  26
ATOM     26  N   UNL     1      -2.590   6.155   5.039  1.00  0.00    -0.352 N 
ATOM     27  C   UNL     1      -3.218   6.331   6.248  1.00  0.00     0.251 C 
ATOM     28  H   UNL     1      -2.776   6.859   4.376  1.00  0.00     0.163 HD
ATOM     29  O   UNL     1      -4.093   7.190   6.334  1.00  0.00    -0.269 OA
BRANCH  27  30
ATOM     30  C   UNL     1      -2.877   5.505   7.433  1.00  0.00     0.039 A 
ATOM     31  C   UNL     1      -3.885   5.220   8.360  1.00  0.00     0.014 A 
ATOM     32  C   UNL     1      -1.577   5.059   7.678  1.00  0.00     0.014 A 
ATOM     33  C   UNL     1      -3.596   4.465   9.500  1.00  0.00     0.010 A 
ATOM     34  C   UNL     1      -1.312   4.218   8.758  1.00  0.00     0.010 A 
ATOM     35  C   UNL     1      -2.311   3.936   9.699  1.00  0.00    -0.014 A 
BRANCH  35  36
ATOM     36  C   UNL     1      -1.997   3.123  10.904  1.00  0.00     0.031 A 
ATOM     37  C   UNL     1      -0.969   3.600  11.899  1.00  0.00     0.074 A 
ATOM     38  C   UNL     1      -2.615   1.939  11.086  1.00  0.00     0.049 A 
ATOM     39  N   UNL     1      -0.575   3.037  13.013  1.00  0.00    -0.248 NA
ATOM     40  C   UNL     1      -0.266   4.855  11.586  1.00  0.00     0.031 C 
ATOM     41  C   UNL     1      -3.569   1.331  10.155  1.00  0.00     0.029 A 
ATOM     42  N   UNL     1      -2.538   1.036  12.116  1.00  0.00    -0.354 N 
ATOM     43  C   UNL     1       0.429   3.856  13.520  1.00  0.00     0.074 A 
ATOM     44  C   UNL     1       0.627   4.921  12.562  1.00  0.00     0.031 C 
ATOM     45  C   UNL     1      -4.017   0.177  10.675  1.00  0.00     0.029 A 
ATOM     46  C   UNL     1      -3.366  -0.050  11.961  1.00  0.00     0.049 A 
ATOM     47  H   UNL     1      -1.946   1.155  12.894  1.00  0.00     0.167 HD
ATOM     48  C   UNL     1       1.103   3.750  14.690  1.00  0.00     0.037 A 
ATOM     49  C   UNL     1      -3.587  -1.104  12.771  1.00  0.00     0.037 A 
ATOM     50  C   UNL     1       0.870   2.711  15.658  1.00  0.00     0.049 A 
ATOM     51  C   UNL     1      -2.880  -1.165  14.096  1.00  0.00     0.074 A 
ATOM     52  C   UNL     1       1.444   2.550  16.907  1.00  0.00     0.029 A 
ATOM     53  N   UNL     1      -0.016   1.656  15.487  1.00  0.00    -0.354 N 
ATOM     54  N   UNL     1      -1.992  -0.338  14.595  1.00  0.00    -0.248 NA
ATOM     55  C   UNL     1      -3.219  -2.290  14.978  1.00  0.00     0.031 C 
ATOM     56  C   UNL     1       0.930   1.379  17.477  1.00  0.00     0.029 A 
ATOM     57  C   UNL     1       0.003   0.835  16.602  1.00  0.00     0.049 A 
ATOM     58  H   UNL     1      -0.576   1.513  14.690  1.00  0.00     0.167 HD
ATOM     59  C   UNL     1      -1.684  -0.828  15.859  1.00  0.00     0.074 A 
ATOM     60  C   UNL     1      -2.493  -2.014  16.053  1.00  0.00     0.031 C 
ATOM     61  C   UNL     1      -0.811  -0.341  16.776  1.00  0.00     0.037 A 
BRANCH  48  62
ATOM     62  C   UNL     1       2.147   4.792  14.991  1.00  0.00     0.058 A 
ATOM     63  C   UNL     1       1.801   6.123  15.279  1.00  0.00     0.135 A 
ATOM     64  C   UNL     1       3.510   4.454  15.012  1.00  0.00     0.135 A 
ATOM     65  F   UNL     1       0.515   6.507  15.257  1.00  0.00    -0.206 F 
ATOM     66  C   UNL     1       2.768   7.088  15.542  1.00  0.00     0.059 A 
ATOM     67  C   UNL     1       4.494   5.397  15.302  1.00  0.00     0.059 A 
ATOM     68  F   UNL     1       3.900   3.198  14.745  1.00  0.00    -0.206 F 
ATOM     69  C   UNL     1       4.113   6.715  15.548  1.00  0.00     0.060 A 
BRANCH  69  70
ATOM     70  S   UNL     1       5.357   7.979  15.890  1.00  0.00     0.124 S 
ATOM     71  O   UNL     1       5.365   8.724  14.635  1.00  0.00    -0.237 OA
ATOM     72  O   UNL     1       4.787   8.677  17.037  1.00  0.00    -0.237 OA
ATOM     73  O   UNL     1       6.562   7.203  16.168  1.00  0.00    -0.744 OA
ENDBRANCH  69  70
ENDBRANCH  48  62
BRANCH  49  74
ATOM     74  C   UNL     1      -4.562  -2.153  12.369  1.00  0.00     0.058 A 
ATOM     75  C   UNL     1      -5.811  -2.259  12.999  1.00  0.00     0.135 A 
ATOM     76  C   UNL     1      -4.279  -3.047  11.325  1.00  0.00     0.135 A 
ATOM     77  F   UNL     1      -6.127  -1.428  14.004  1.00  0.00    -0.206 F 
ATOM     78  C   UNL     1      -6.740  -3.221  12.619  1.00  0.00     0.059 A 
ATOM     79  C   UNL     1      -5.202  -4.003  10.911  1.00  0.00     0.059 A 
ATOM     80  F   UNL     1      -3.107  -2.973  10.675  1.00  0.00    -0.206 F 
ATOM     81  C   UNL     1      -6.427  -4.087  11.570  1.00  0.00     0.060 A 
BRANCH  81  82
ATOM     82  S   UNL     1      -7.666  -5.290  11.038  1.00  0.00     0.124 S 
ATOM     83  O   UNL     1      -7.591  -6.280  12.106  1.00  0.00    -0.237 OA
ATOM     84  O   UNL     1      -8.881  -4.483  10.998  1.00  0.00    -0.237 OA
ATOM     85  O   UNL     1      -7.170  -5.726   9.736  1.00  0.00    -0.744 OA
ENDBRANCH  81  82
ENDBRANCH  49  74
BRANCH  61  86
ATOM     86  C   UNL     1      -0.712  -1.076  18.084  1.00  0.00     0.058 A 
ATOM     87  C   UNL     1      -0.090  -2.330  18.180  1.00  0.00     0.135 A 
ATOM     88  C   UNL     1      -1.229  -0.506  19.258  1.00  0.00     0.135 A 
ATOM     89  F   UNL     1       0.418  -2.919  17.085  1.00  0.00    -0.206 F 
ATOM     90  C   UNL     1      -0.018  -3.013  19.390  1.00  0.00     0.059 A 
ATOM     91  C   UNL     1      -1.143  -1.159  20.484  1.00  0.00     0.059 A 
ATOM     92  F   UNL     1      -1.821   0.698  19.223  1.00  0.00    -0.206 F 
ATOM     93  C   UNL     1      -0.553  -2.421  20.535  1.00  0.00     0.060 A 
BRANCH  93  94
ATOM     94  S   UNL     1      -0.455  -3.314  22.101  1.00  0.00     0.124 S 
ATOM     95  O   UNL     1      -1.513  -4.306  21.938  1.00  0.00    -0.237 OA
ATOM     96  O   UNL     1       0.909  -3.834  22.082  1.00  0.00    -0.237 OA
ATOM     97  O   UNL     1      -0.711  -2.279  23.098  1.00  0.00    -0.744 OA
ENDBRANCH  93  94
ENDBRANCH  61  86
ENDBRANCH  35  36
ENDBRANCH  27  30
ENDBRANCH  25  26
ENDBRANCH   1  25
TORSDOF 16
