REMARK SMILES CCN(CC)C(=O)[C@H](C)SCC(=O)NCCCNC(=O)c1ccc(-c2c3nc(c(-c4c(F)cc(S(=O)(=O)[O-])cc4F)c4ccc([nH]4)c(-c4c(F)cc(S(=O)(=O)[O-])cc4F)c4nc(c(-c5c(F)cc(S(=O)(=O)[O-])cc5F)c5ccc2[nH]5)C=C4)C=C3)cc1
REMARK SMILES IDX 15 1 14 2 12 3 13 4 11 6 10 7 8 8 9 9 6 10 3 11 7 12 2 13
REMARK SMILES IDX 1 14 4 15 5 16 16 17 17 18 18 19 19 20 20 22 21 23 22 24
REMARK SMILES IDX 86 25 23 26 85 27 24 28 25 29 26 30 79 31 27 32 84 33 78 34
REMARK SMILES IDX 80 35 28 36 83 37 77 38 76 39 29 41 63 42 42 43 62 44 43 45
REMARK SMILES IDX 46 46 61 47 81 48 44 49 45 50 60 52 82 53 47 54 30 55 31 56
REMARK SMILES IDX 40 57 32 58 33 59 39 60 41 61 34 62 35 63 36 64 37 65 38 66
REMARK SMILES IDX 64 67 65 68 74 69 66 70 67 71 73 72 75 73 68 74 69 75 70 76
REMARK SMILES IDX 71 77 72 78 48 79 49 80 58 81 50 82 51 83 57 84 59 85 52 86
REMARK SMILES IDX 53 87 54 88 55 89 56 90
REMARK H PARENT 14 5 18 21 80 40 46 51
REMARK Flexibility Score: inf
ROOT
ATOM      1  C   UNL     1       1.017   0.698   8.143  1.00  0.00     0.117 C 
ENDROOT
BRANCH   1   2
ATOM      2  N   UNL     1       0.088   0.999   7.069  1.00  0.00    -0.355 N 
ATOM      3  C   UNL     1      -0.060   0.414   5.845  1.00  0.00     0.230 C 
ATOM      4  O   UNL     1      -0.981   0.806   5.120  1.00  0.00    -0.274 OA
ATOM      5  H   UNL     1      -0.533   1.741   7.253  1.00  0.00     0.163 HD
BRANCH   3   6
ATOM      6  C   UNL     1       0.789  -0.769   5.423  1.00  0.00     0.170 C 
BRANCH   6   7
ATOM      7  S   UNL     1       2.578  -0.460   5.253  1.00  0.00    -0.139 SA
BRANCH   7   8
ATOM      8  C   UNL     1       2.693   0.570   3.715  1.00  0.00     0.133 C 
ATOM      9  C   UNL     1       2.071  -0.193   2.547  1.00  0.00     0.030 C 
BRANCH   8  10
ATOM     10  C   UNL     1       2.106   1.981   3.917  1.00  0.00     0.235 C 
ATOM     11  N   UNL     1       2.038   2.823   2.807  1.00  0.00    -0.342 N 
ATOM     12  O   UNL     1       1.709   2.385   5.012  1.00  0.00    -0.274 OA
BRANCH  11  13
ATOM     13  C   UNL     1       1.047   3.901   2.849  1.00  0.00     0.116 C 
ATOM     14  C   UNL     1      -0.352   3.353   2.596  1.00  0.00     0.027 C 
ENDBRANCH  11  13
BRANCH  11  15
ATOM     15  C   UNL     1       3.135   2.947   1.849  1.00  0.00     0.116 C 
ATOM     16  C   UNL     1       4.327   3.675   2.457  1.00  0.00     0.027 C 
ENDBRANCH  11  15
ENDBRANCH   8  10
ENDBRANCH   7   8
ENDBRANCH   6   7
ENDBRANCH   3   6
ENDBRANCH   1   2
BRANCH   1  17
ATOM     17  C   UNL     1       2.240   1.616   8.194  1.00  0.00     0.042 C 
BRANCH  17  18
ATOM     18  C   UNL     1       1.934   3.107   8.306  1.00  0.00     0.118 C 
BRANCH  18  19
ATOM     19  N   UNL     1       1.303   3.455   9.571  1.00  0.00    -0.352 N 
ATOM     20  C   UNL     1       1.766   4.187  10.636  1.00  0.00     0.251 C 
ATOM     21  H   UNL     1       0.388   3.107   9.680  1.00  0.00     0.163 HD
ATOM     22  O   UNL     1       1.120   4.182  11.683  1.00  0.00    -0.269 OA
BRANCH  20  23
ATOM     23  C   UNL     1       3.026   4.965  10.559  1.00  0.00     0.039 A 
ATOM     24  C   UNL     1       3.868   4.982  11.678  1.00  0.00     0.014 A 
ATOM     25  C   UNL     1       3.358   5.729   9.438  1.00  0.00     0.014 A 
ATOM     26  C   UNL     1       5.061   5.712  11.650  1.00  0.00     0.010 A 
ATOM     27  C   UNL     1       4.579   6.407   9.387  1.00  0.00     0.010 A 
ATOM     28  C   UNL     1       5.444   6.407  10.491  1.00  0.00    -0.014 A 
BRANCH  28  29
ATOM     29  C   UNL     1       6.747   7.123  10.418  1.00  0.00     0.031 A 
ATOM     30  C   UNL     1       6.791   8.620  10.263  1.00  0.00     0.074 A 
ATOM     31  C   UNL     1       7.896   6.417  10.431  1.00  0.00     0.049 A 
ATOM     32  N   UNL     1       7.828   9.405  10.109  1.00  0.00    -0.248 NA
ATOM     33  C   UNL     1       5.500   9.326  10.261  1.00  0.00     0.031 C 
ATOM     34  C   UNL     1       7.991   4.960  10.536  1.00  0.00     0.029 A 
ATOM     35  N   UNL     1       9.204   6.828  10.342  1.00  0.00    -0.354 N 
ATOM     36  C   UNL     1       7.317  10.691   9.973  1.00  0.00     0.074 A 
ATOM     37  C   UNL     1       5.875  10.576  10.025  1.00  0.00     0.031 C 
ATOM     38  C   UNL     1       9.285   4.600  10.518  1.00  0.00     0.029 A 
ATOM     39  C   UNL     1      10.110   5.794  10.364  1.00  0.00     0.049 A 
ATOM     40  H   UNL     1       9.467   7.774  10.269  1.00  0.00     0.167 HD
ATOM     41  C   UNL     1       7.987  11.861   9.836  1.00  0.00     0.037 A 
ATOM     42  C   UNL     1      11.454   5.802  10.259  1.00  0.00     0.037 A 
ATOM     43  C   UNL     1       9.423  11.976   9.812  1.00  0.00     0.049 A 
ATOM     44  C   UNL     1      12.175   7.113  10.111  1.00  0.00     0.074 A 
ATOM     45  C   UNL     1      10.193  13.124   9.737  1.00  0.00     0.029 A 
ATOM     46  N   UNL     1      10.306  10.907   9.860  1.00  0.00    -0.354 N 
ATOM     47  N   UNL     1      11.677   8.324  10.041  1.00  0.00    -0.248 NA
ATOM     48  C   UNL     1      13.642   7.061  10.031  1.00  0.00     0.031 C 
ATOM     49  C   UNL     1      11.540  12.747   9.700  1.00  0.00     0.029 A 
ATOM     50  C   UNL     1      11.612  11.367   9.797  1.00  0.00     0.049 A 
ATOM     51  H   UNL     1      10.044   9.961   9.929  1.00  0.00     0.167 HD
ATOM     52  C   UNL     1      12.769   9.179   9.935  1.00  0.00     0.074 A 
ATOM     53  C   UNL     1      13.954   8.348   9.960  1.00  0.00     0.031 C 
ATOM     54  C   UNL     1      12.786  10.531   9.828  1.00  0.00     0.037 A 
BRANCH  41  55
ATOM     55  C   UNL     1       7.173  13.120   9.702  1.00  0.00     0.058 A 
ATOM     56  C   UNL     1       6.465  13.659  10.788  1.00  0.00     0.135 A 
ATOM     57  C   UNL     1       7.134  13.819   8.485  1.00  0.00     0.135 A 
ATOM     58  F   UNL     1       6.458  13.026  11.972  1.00  0.00    -0.206 F 
ATOM     59  C   UNL     1       5.722  14.829  10.664  1.00  0.00     0.059 A 
ATOM     60  C   UNL     1       6.419  15.006   8.345  1.00  0.00     0.059 A 
ATOM     61  F   UNL     1       7.796  13.351   7.415  1.00  0.00    -0.206 F 
ATOM     62  C   UNL     1       5.704  15.494   9.438  1.00  0.00     0.060 A 
BRANCH  62  63
ATOM     63  S   UNL     1       4.737  17.012   9.293  1.00  0.00     0.124 S 
ATOM     64  O   UNL     1       3.376  16.487   9.260  1.00  0.00    -0.237 OA
ATOM     65  O   UNL     1       5.107  17.737  10.504  1.00  0.00    -0.237 OA
ATOM     66  O   UNL     1       5.213  17.601   8.044  1.00  0.00    -0.744 OA
ENDBRANCH  62  63
ENDBRANCH  41  55
BRANCH  42  67
ATOM     67  C   UNL     1      12.207   4.520  10.308  1.00  0.00     0.058 A 
ATOM     68  C   UNL     1      12.985   4.183  11.425  1.00  0.00     0.135 A 
ATOM     69  C   UNL     1      12.150   3.602   9.248  1.00  0.00     0.135 A 
ATOM     70  F   UNL     1      13.077   5.033  12.459  1.00  0.00    -0.206 F 
ATOM     71  C   UNL     1      13.693   2.987  11.486  1.00  0.00     0.059 A 
ATOM     72  C   UNL     1      12.829   2.388   9.296  1.00  0.00     0.059 A 
ATOM     73  F   UNL     1      11.407   3.871   8.164  1.00  0.00    -0.206 F 
ATOM     74  C   UNL     1      13.606   2.095  10.416  1.00  0.00     0.060 A 
BRANCH  74  75
ATOM     75  S   UNL     1      14.487   0.522  10.526  1.00  0.00     0.124 S 
ATOM     76  O   UNL     1      15.866   0.941  10.305  1.00  0.00    -0.237 OA
ATOM     77  O   UNL     1      14.163   0.081  11.879  1.00  0.00    -0.237 OA
ATOM     78  O   UNL     1      13.889  -0.272   9.457  1.00  0.00    -0.744 OA
ENDBRANCH  74  75
ENDBRANCH  42  67
BRANCH  54  79
ATOM     79  C   UNL     1      14.129  11.203   9.760  1.00  0.00     0.058 A 
ATOM     80  C   UNL     1      14.924  11.147   8.605  1.00  0.00     0.135 A 
ATOM     81  C   UNL     1      14.604  11.954  10.848  1.00  0.00     0.135 A 
ATOM     82  F   UNL     1      14.520  10.437   7.540  1.00  0.00    -0.206 F 
ATOM     83  C   UNL     1      16.154  11.795   8.538  1.00  0.00     0.059 A 
ATOM     84  C   UNL     1      15.818  12.631  10.794  1.00  0.00     0.059 A 
ATOM     85  F   UNL     1      13.877  12.048  11.973  1.00  0.00    -0.206 F 
ATOM     86  C   UNL     1      16.592  12.536   9.638  1.00  0.00     0.060 A 
BRANCH  86  87
ATOM     87  S   UNL     1      18.173  13.402   9.526  1.00  0.00     0.124 S 
ATOM     88  O   UNL     1      19.121  12.302   9.668  1.00  0.00    -0.237 OA
ATOM     89  O   UNL     1      18.104  14.011   8.201  1.00  0.00    -0.237 OA
ATOM     90  O   UNL     1      18.126  14.340  10.643  1.00  0.00    -0.744 OA
ENDBRANCH  86  87
ENDBRANCH  54  79
ENDBRANCH  28  29
ENDBRANCH  20  23
ENDBRANCH  18  19
ENDBRANCH  17  18
ENDBRANCH   1  17
TORSDOF 18
