REMARK SMILES O=C(NCCCNC(=O)C1CC[NH+]([C@@H]2CCO[C@]3(CCOC3)C2)CC1)c1ccc(-c2c3nc(c(-c4c(F)cc(S(=O)(=O)[O-])cc4F)c4ccc([nH]4)c(-c4c(F)cc(S(=O)(=O)[O-])cc4F)c4nc(c(-c5c(F)cc(S(=O)(=O)[O-])cc5F)c5ccc2[nH]5)C=C4)C=C3)cc1
REMARK SMILES IDX 4 1 3 2 1 3 2 4 26 6 27 7 91 8 28 9 90 10 29 11 30 12 31 13
REMARK SMILES IDX 84 14 32 15 89 16 83 17 85 18 33 19 88 20 82 21 81 22 34 24
REMARK SMILES IDX 68 25 47 26 67 27 48 28 51 29 66 30 86 31 49 32 50 33 65 35
REMARK SMILES IDX 87 36 52 37 35 38 36 39 45 40 37 41 38 42 44 43 46 44 39 45
REMARK SMILES IDX 40 46 41 47 42 48 43 49 69 50 70 51 79 52 71 53 72 54 78 55
REMARK SMILES IDX 80 56 73 57 74 58 75 59 76 60 77 61 53 62 54 63 63 64 55 65
REMARK SMILES IDX 56 66 62 67 64 68 57 69 58 70 59 71 60 72 61 73 5 74 6 75
REMARK SMILES IDX 7 76 8 77 9 79 10 80 11 81 25 82 12 83 24 84 13 85 14 87
REMARK SMILES IDX 15 88 23 89 16 90 18 91 17 92 19 93 22 94 20 95 21 96
REMARK H PARENT 3 5 85 23 51 34 7 78 13 86
REMARK Flexibility Score: inf
ROOT
ATOM      1  C   UNL     1       4.242  -1.220   0.725  1.00  0.00     0.118 C 
ENDROOT
BRANCH   1   2
ATOM      2  N   UNL     1       2.885  -1.157   0.207  1.00  0.00    -0.352 N 
ATOM      3  O   UNL     1       0.970  -0.140  -0.386  1.00  0.00    -0.269 OA
ATOM      4  C   UNL     1       2.203  -0.086  -0.300  1.00  0.00     0.251 C 
ATOM      5  H   UNL     1       2.387  -2.006   0.223  1.00  0.00     0.163 HD
BRANCH   4   6
ATOM      6  C   UNL     1       2.924   1.123  -0.740  1.00  0.00     0.039 A 
ATOM      7  C   UNL     1       4.089   1.019  -1.507  1.00  0.00     0.014 A 
ATOM      8  C   UNL     1       2.390   2.380  -0.443  1.00  0.00     0.014 A 
ATOM      9  C   UNL     1       4.774   2.167  -1.893  1.00  0.00     0.010 A 
ATOM     10  C   UNL     1       3.041   3.532  -0.892  1.00  0.00     0.010 A 
ATOM     11  C   UNL     1       4.244   3.434  -1.608  1.00  0.00    -0.014 A 
BRANCH  11  12
ATOM     12  C   UNL     1       4.914   4.654  -2.124  1.00  0.00     0.031 A 
ATOM     13  C   UNL     1       5.515   5.655  -1.181  1.00  0.00     0.074 A 
ATOM     14  C   UNL     1       4.950   4.863  -3.454  1.00  0.00     0.049 A 
ATOM     15  N   UNL     1       6.071   6.808  -1.449  1.00  0.00    -0.248 NA
ATOM     16  C   UNL     1       5.477   5.323   0.251  1.00  0.00     0.031 C 
ATOM     17  C   UNL     1       4.391   3.960  -4.464  1.00  0.00     0.029 A 
ATOM     18  N   UNL     1       5.468   5.900  -4.186  1.00  0.00    -0.354 N 
ATOM     19  C   UNL     1       6.430   7.352  -0.222  1.00  0.00     0.074 A 
ATOM     20  C   UNL     1       6.008   6.410   0.794  1.00  0.00     0.031 C 
ATOM     21  C   UNL     1       4.609   4.475  -5.683  1.00  0.00     0.029 A 
ATOM     22  C   UNL     1       5.268   5.768  -5.540  1.00  0.00     0.049 A 
ATOM     23  H   UNL     1       5.937   6.665  -3.782  1.00  0.00     0.167 HD
ATOM     24  C   UNL     1       7.055   8.528   0.030  1.00  0.00     0.037 A 
ATOM     25  C   UNL     1       5.556   6.606  -6.554  1.00  0.00     0.037 A 
ATOM     26  C   UNL     1       7.472   9.454  -0.992  1.00  0.00     0.049 A 
ATOM     27  C   UNL     1       6.229   7.913  -6.250  1.00  0.00     0.074 A 
ATOM     28  C   UNL     1       8.136  10.659  -0.844  1.00  0.00     0.029 A 
ATOM     29  N   UNL     1       7.257   9.282  -2.353  1.00  0.00    -0.354 N 
ATOM     30  N   UNL     1       6.585   8.402  -5.086  1.00  0.00    -0.248 NA
ATOM     31  C   UNL     1       6.540   8.783  -7.391  1.00  0.00     0.031 C 
ATOM     32  C   UNL     1       8.287  11.234  -2.111  1.00  0.00     0.029 A 
ATOM     33  C   UNL     1       7.760  10.366  -3.054  1.00  0.00     0.049 A 
ATOM     34  H   UNL     1       6.812   8.504  -2.760  1.00  0.00     0.167 HD
ATOM     35  C   UNL     1       7.184   9.626  -5.355  1.00  0.00     0.074 A 
ATOM     36  C   UNL     1       7.145   9.801  -6.793  1.00  0.00     0.031 C 
ATOM     37  C   UNL     1       7.721  10.520  -4.489  1.00  0.00     0.037 A 
BRANCH  24  38
ATOM     38  C   UNL     1       7.296   8.889   1.470  1.00  0.00     0.058 A 
ATOM     39  C   UNL     1       8.246   8.215   2.255  1.00  0.00     0.135 A 
ATOM     40  C   UNL     1       6.569   9.928   2.075  1.00  0.00     0.135 A 
ATOM     41  F   UNL     1       8.960   7.205   1.732  1.00  0.00    -0.206 F 
ATOM     42  C   UNL     1       8.436   8.529   3.597  1.00  0.00     0.059 A 
ATOM     43  C   UNL     1       6.761  10.277   3.409  1.00  0.00     0.059 A 
ATOM     44  F   UNL     1       5.650  10.609   1.371  1.00  0.00    -0.206 F 
ATOM     45  C   UNL     1       7.682   9.556   4.168  1.00  0.00     0.060 A 
BRANCH  45  46
ATOM     46  S   UNL     1       7.910   9.925   5.920  1.00  0.00     0.124 S 
ATOM     47  O   UNL     1       7.215   8.803   6.544  1.00  0.00    -0.237 OA
ATOM     48  O   UNL     1       9.363   9.924   6.055  1.00  0.00    -0.237 OA
ATOM     49  O   UNL     1       7.269  11.227   6.079  1.00  0.00    -0.744 OA
ENDBRANCH  45  46
ENDBRANCH  24  38
BRANCH  25  50
ATOM     50  C   UNL     1       5.201   6.215  -7.942  1.00  0.00     0.058 A 
ATOM     51  C   UNL     1       6.188   5.824  -8.856  1.00  0.00     0.135 A 
ATOM     52  C   UNL     1       3.861   6.156  -8.357  1.00  0.00     0.135 A 
ATOM     53  F   UNL     1       7.483   5.868  -8.506  1.00  0.00    -0.206 F 
ATOM     54  C   UNL     1       5.861   5.382 -10.134  1.00  0.00     0.059 A 
ATOM     55  C   UNL     1       3.508   5.695  -9.621  1.00  0.00     0.059 A 
ATOM     56  F   UNL     1       2.879   6.503  -7.511  1.00  0.00    -0.206 F 
ATOM     57  C   UNL     1       4.516   5.312 -10.504  1.00  0.00     0.060 A 
BRANCH  57  58
ATOM     58  S   UNL     1       4.099   4.652 -12.132  1.00  0.00     0.124 S 
ATOM     59  O   UNL     1       4.481   5.757 -13.003  1.00  0.00    -0.237 OA
ATOM     60  O   UNL     1       4.940   3.461 -12.205  1.00  0.00    -0.237 OA
ATOM     61  O   UNL     1       2.666   4.391 -12.031  1.00  0.00    -0.744 OA
ENDBRANCH  57  58
ENDBRANCH  25  50
BRANCH  37  62
ATOM     62  C   UNL     1       8.351  11.753  -5.070  1.00  0.00     0.058 A 
ATOM     63  C   UNL     1       7.578  12.814  -5.566  1.00  0.00     0.135 A 
ATOM     64  C   UNL     1       9.747  11.902  -5.065  1.00  0.00     0.135 A 
ATOM     65  F   UNL     1       6.240  12.716  -5.601  1.00  0.00    -0.206 F 
ATOM     66  C   UNL     1       8.169  13.978  -6.046  1.00  0.00     0.059 A 
ATOM     67  C   UNL     1      10.358  13.066  -5.518  1.00  0.00     0.059 A 
ATOM     68  F   UNL     1      10.530  10.917  -4.595  1.00  0.00    -0.206 F 
ATOM     69  C   UNL     1       9.561  14.097  -6.013  1.00  0.00     0.060 A 
BRANCH  69  70
ATOM     70  S   UNL     1      10.314  15.635  -6.584  1.00  0.00     0.124 S 
ATOM     71  O   UNL     1      10.184  15.505  -8.032  1.00  0.00    -0.237 OA
ATOM     72  O   UNL     1       9.469  16.648  -5.960  1.00  0.00    -0.237 OA
ATOM     73  O   UNL     1      11.677  15.558  -6.066  1.00  0.00    -0.744 OA
ENDBRANCH  69  70
ENDBRANCH  37  62
ENDBRANCH  11  12
ENDBRANCH   4   6
ENDBRANCH   1   2
BRANCH   1  74
ATOM     74  C   UNL     1       4.269  -1.170   2.252  1.00  0.00     0.042 C 
BRANCH  74  75
ATOM     75  C   UNL     1       3.562  -2.349   2.918  1.00  0.00     0.117 C 
BRANCH  75  76
ATOM     76  N   UNL     1       4.084  -3.607   2.440  1.00  0.00    -0.356 N 
ATOM     77  C   UNL     1       5.077  -4.404   2.879  1.00  0.00     0.223 C 
ATOM     78  H   UNL     1       3.625  -3.948   1.638  1.00  0.00     0.163 HD
ATOM     79  O   UNL     1       5.314  -5.376   2.150  1.00  0.00    -0.275 OA
BRANCH  77  80
ATOM     80  C   UNL     1       5.781  -4.223   4.233  1.00  0.00     0.089 C 
ATOM     81  C   UNL     1       6.362  -2.855   4.630  1.00  0.00     0.075 C 
ATOM     82  C   UNL     1       6.938  -5.230   4.271  1.00  0.00     0.075 C 
ATOM     83  C   UNL     1       7.662  -2.464   3.903  1.00  0.00     0.263 C 
ATOM     84  C   UNL     1       8.040  -4.735   3.331  1.00  0.00     0.263 C 
ATOM     85  N   UNL     1       8.654  -3.557   3.942  1.00  0.00    -0.332 N 
ATOM     86  H   UNL     1       8.896  -3.819   4.898  1.00  0.00     0.348 HD
BRANCH  85  87
ATOM     87  C   UNL     1       9.974  -3.134   3.414  1.00  0.00     0.189 C 
ATOM     88  C   UNL     1      10.183  -3.197   1.901  1.00  0.00     0.093 C 
ATOM     89  C   UNL     1      11.170  -3.831   4.106  1.00  0.00     0.103 C 
ATOM     90  C   UNL     1      10.511  -4.595   1.400  1.00  0.00     0.167 C 
ATOM     91  C   UNL     1      11.531  -5.218   3.548  1.00  0.00     0.099 C 
ATOM     92  O   UNL     1      11.558  -5.234   2.117  1.00  0.00    -0.372 OA
ATOM     93  C   UNL     1      10.726  -6.340   4.208  1.00  0.00     0.066 C 
ATOM     94  C   UNL     1      12.948  -5.638   3.973  1.00  0.00     0.195 C 
ATOM     95  C   UNL     1      11.608  -6.921   5.299  1.00  0.00     0.163 C 
ATOM     96  O   UNL     1      12.849  -6.221   5.272  1.00  0.00    -0.378 OA
ENDBRANCH  85  87
ENDBRANCH  77  80
ENDBRANCH  75  76
ENDBRANCH  74  75
ENDBRANCH   1  74
TORSDOF 14
