REMARK SMILES Cc1cc2c(c(C)c1Cl)C=C(C(=O)NCCCNC(=O)c1ccc(-c3c4nc(c(-c5c(F)cc(S(=O)(=O)[O-])cc5F)c5ccc([nH]5)c(-c5c(F)cc(S(=O)(=O)[O-])cc5F)c5nc(c(-c6c(F)cc(S(=O)(=O)[O-])cc6F)c6ccc3[nH]6)C=C5)C=C4)cc1)[C@@H](C(F)(F)F)O2
REMARK SMILES IDX 17 1 16 2 15 3 14 4 12 5 13 6 11 8 1 9 2 10 3 11 8 12 4 13
REMARK SMILES IDX 6 14 9 15 5 16 92 17 7 18 10 19 87 20 88 21 89 22 90 23
REMARK SMILES IDX 91 24 18 25 19 26 20 28 21 29 22 30 86 31 23 32 85 33 24 34
REMARK SMILES IDX 25 35 26 36 79 37 27 38 84 39 78 40 80 41 28 42 83 43 77 44
REMARK SMILES IDX 76 45 29 47 63 48 42 49 62 50 43 51 46 52 61 53 81 54 44 55
REMARK SMILES IDX 45 56 60 58 82 59 47 60 30 61 31 62 40 63 32 64 33 65 39 66
REMARK SMILES IDX 41 67 34 68 35 69 36 70 37 71 38 72 64 73 65 74 74 75 66 76
REMARK SMILES IDX 67 77 73 78 75 79 68 80 69 81 70 82 71 83 72 84 48 85 49 86
REMARK SMILES IDX 58 87 50 88 51 89 57 90 59 91 52 92 53 93 54 94 55 95 56 96
REMARK H PARENT 14 7 18 27 80 46 46 57
REMARK Flexibility Score: inf
ROOT
ATOM      1  C   UNL     1      -4.901   7.539   5.765  1.00  0.00     0.118 C 
ENDROOT
BRANCH   1   2
ATOM      2  C   UNL     1      -4.462   6.211   5.163  1.00  0.00     0.042 C 
BRANCH   2   3
ATOM      3  C   UNL     1      -4.508   6.226   3.643  1.00  0.00     0.118 C 
BRANCH   3   4
ATOM      4  N   UNL     1      -3.380   6.947   3.071  1.00  0.00    -0.352 N 
ATOM      5  C   UNL     1      -2.257   6.646   2.379  1.00  0.00     0.251 C 
ATOM      6  O   UNL     1      -1.556   7.614   2.067  1.00  0.00    -0.270 OA
ATOM      7  H   UNL     1      -3.454   7.915   3.231  1.00  0.00     0.163 HD
BRANCH   5   8
ATOM      8  C   UNL     1      -1.838   5.271   1.981  1.00  0.00     0.067 C 
ATOM      9  C   UNL     1       1.081  -0.166  -0.076  1.00  0.00     0.046 C 
ATOM     10  C   UNL     1       0.693   1.247   0.262  1.00  0.00    -0.028 A 
ATOM     11  C   UNL     1      -0.434   1.447   1.061  1.00  0.00     0.052 A 
ATOM     12  C   UNL     1       1.392   2.372  -0.223  1.00  0.00     0.047 A 
ATOM     13  C   UNL     1      -0.852   2.733   1.383  1.00  0.00     0.128 A 
ATOM     14  C   UNL     1       0.989   3.688   0.116  1.00  0.00    -0.021 A 
ATOM     15  Cl  UNL     1       2.764   2.106  -1.258  1.00  0.00    -0.084 Cl
ATOM     16  C   UNL     1      -0.153   3.858   0.937  1.00  0.00     0.022 A 
ATOM     17  O   UNL     1      -1.952   2.799   2.187  1.00  0.00    -0.475 OA
ATOM     18  C   UNL     1       1.742   4.905  -0.369  1.00  0.00     0.047 C 
ATOM     19  C   UNL     1      -0.634   5.169   1.386  1.00  0.00     0.026 C 
ATOM     20  C   UNL     1      -2.682   4.050   2.181  1.00  0.00     0.314 C 
BRANCH  20  21
ATOM     21  C   UNL     1      -3.844   3.962   1.172  1.00  0.00     0.429 C 
ATOM     22  F   UNL     1      -4.788   3.091   1.607  1.00  0.00    -0.167 F 
ATOM     23  F   UNL     1      -4.472   5.149   0.992  1.00  0.00    -0.167 F 
ATOM     24  F   UNL     1      -3.442   3.547  -0.051  1.00  0.00    -0.167 F 
ENDBRANCH  20  21
ENDBRANCH   5   8
ENDBRANCH   3   4
ENDBRANCH   2   3
ENDBRANCH   1   2
BRANCH   1  25
ATOM     25  N   UNL     1      -6.295   7.842   5.447  1.00  0.00    -0.352 N 
ATOM     26  C   UNL     1      -7.415   7.775   6.236  1.00  0.00     0.251 C 
ATOM     27  H   UNL     1      -6.455   8.140   4.523  1.00  0.00     0.163 HD
ATOM     28  O   UNL     1      -8.528   7.782   5.713  1.00  0.00    -0.269 OA
BRANCH  26  29
ATOM     29  C   UNL     1      -7.281   7.696   7.703  1.00  0.00     0.039 A 
ATOM     30  C   UNL     1      -8.141   6.870   8.430  1.00  0.00     0.014 A 
ATOM     31  C   UNL     1      -6.315   8.461   8.361  1.00  0.00     0.014 A 
ATOM     32  C   UNL     1      -7.987   6.767   9.813  1.00  0.00     0.010 A 
ATOM     33  C   UNL     1      -6.096   8.279   9.718  1.00  0.00     0.010 A 
ATOM     34  C   UNL     1      -6.941   7.445  10.462  1.00  0.00    -0.014 A 
BRANCH  34  35
ATOM     35  C   UNL     1      -6.732   7.331  11.925  1.00  0.00     0.031 A 
ATOM     36  C   UNL     1      -6.856   8.555  12.791  1.00  0.00     0.074 A 
ATOM     37  C   UNL     1      -6.376   6.146  12.457  1.00  0.00     0.049 A 
ATOM     38  N   UNL     1      -6.642   8.681  14.074  1.00  0.00    -0.248 NA
ATOM     39  C   UNL     1      -7.243   9.810  12.123  1.00  0.00     0.031 C 
ATOM     40  C   UNL     1      -6.182   4.904  11.704  1.00  0.00     0.029 A 
ATOM     41  N   UNL     1      -6.110   5.790  13.754  1.00  0.00    -0.354 N 
ATOM     42  C   UNL     1      -6.858  10.024  14.362  1.00  0.00     0.074 A 
ATOM     43  C   UNL     1      -7.152  10.686  13.112  1.00  0.00     0.031 C 
ATOM     44  C   UNL     1      -5.864   3.917  12.557  1.00  0.00     0.029 A 
ATOM     45  C   UNL     1      -5.790   4.462  13.909  1.00  0.00     0.049 A 
ATOM     46  H   UNL     1      -6.144   6.427  14.505  1.00  0.00     0.167 HD
ATOM     47  C   UNL     1      -6.849  10.641  15.566  1.00  0.00     0.037 A 
ATOM     48  C   UNL     1      -5.473   3.764  15.017  1.00  0.00     0.037 A 
ATOM     49  C   UNL     1      -6.589   9.964  16.808  1.00  0.00     0.049 A 
ATOM     50  C   UNL     1      -5.454   4.476  16.342  1.00  0.00     0.074 A 
ATOM     51  C   UNL     1      -6.603  10.484  18.089  1.00  0.00     0.029 A 
ATOM     52  N   UNL     1      -6.271   8.618  16.924  1.00  0.00    -0.354 N 
ATOM     53  N   UNL     1      -5.713   5.736  16.604  1.00  0.00    -0.248 NA
ATOM     54  C   UNL     1      -5.103   3.676  17.523  1.00  0.00     0.031 C 
ATOM     55  C   UNL     1      -6.250   9.464  18.977  1.00  0.00     0.029 A 
ATOM     56  C   UNL     1      -6.065   8.295  18.254  1.00  0.00     0.049 A 
ATOM     57  H   UNL     1      -6.202   7.987  16.172  1.00  0.00     0.167 HD
ATOM     58  C   UNL     1      -5.576   5.875  17.980  1.00  0.00     0.074 A 
ATOM     59  C   UNL     1      -5.227   4.567  18.498  1.00  0.00     0.031 C 
ATOM     60  C   UNL     1      -5.722   6.984  18.747  1.00  0.00     0.037 A 
BRANCH  47  61
ATOM     61  C   UNL     1      -7.151  12.114  15.602  1.00  0.00     0.058 A 
ATOM     62  C   UNL     1      -8.440  12.604  15.335  1.00  0.00     0.135 A 
ATOM     63  C   UNL     1      -6.157  13.042  15.952  1.00  0.00     0.135 A 
ATOM     64  F   UNL     1      -9.423  11.764  14.976  1.00  0.00    -0.206 F 
ATOM     65  C   UNL     1      -8.728  13.963  15.395  1.00  0.00     0.059 A 
ATOM     66  C   UNL     1      -6.430  14.403  16.047  1.00  0.00     0.059 A 
ATOM     67  F   UNL     1      -4.907  12.628  16.211  1.00  0.00    -0.206 F 
ATOM     68  C   UNL     1      -7.717  14.855  15.758  1.00  0.00     0.060 A 
BRANCH  68  69
ATOM     69  S   UNL     1      -8.119  16.612  15.853  1.00  0.00     0.124 S 
ATOM     70  O   UNL     1      -8.325  16.941  14.446  1.00  0.00    -0.237 OA
ATOM     71  O   UNL     1      -9.318  16.610  16.685  1.00  0.00    -0.237 OA
ATOM     72  O   UNL     1      -6.933  17.201  16.467  1.00  0.00    -0.744 OA
ENDBRANCH  68  69
ENDBRANCH  47  61
BRANCH  48  73
ATOM     73  C   UNL     1      -5.184   2.308  14.919  1.00  0.00     0.058 A 
ATOM     74  C   UNL     1      -6.082   1.362  15.433  1.00  0.00     0.135 A 
ATOM     75  C   UNL     1      -4.026   1.832  14.284  1.00  0.00     0.135 A 
ATOM     76  F   UNL     1      -7.200   1.767  16.054  1.00  0.00    -0.206 F 
ATOM     77  C   UNL     1      -5.841  -0.004  15.330  1.00  0.00     0.059 A 
ATOM     78  C   UNL     1      -3.775   0.470  14.145  1.00  0.00     0.059 A 
ATOM     79  F   UNL     1      -3.143   2.696  13.759  1.00  0.00    -0.206 F 
ATOM     80  C   UNL     1      -4.686  -0.441  14.678  1.00  0.00     0.060 A 
BRANCH  80  81
ATOM     81  S   UNL     1      -4.415  -2.217  14.500  1.00  0.00     0.124 S 
ATOM     82  O   UNL     1      -4.140  -2.613  15.876  1.00  0.00    -0.237 OA
ATOM     83  O   UNL     1      -5.691  -2.665  13.948  1.00  0.00    -0.237 OA
ATOM     84  O   UNL     1      -3.283  -2.295  13.582  1.00  0.00    -0.744 OA
ENDBRANCH  80  81
ENDBRANCH  48  73
BRANCH  60  85
ATOM     85  C   UNL     1      -5.522   6.838  20.229  1.00  0.00     0.058 A 
ATOM     86  C   UNL     1      -4.243   6.673  20.782  1.00  0.00     0.135 A 
ATOM     87  C   UNL     1      -6.610   6.951  21.109  1.00  0.00     0.135 A 
ATOM     88  F   UNL     1      -3.171   6.553  19.983  1.00  0.00    -0.206 F 
ATOM     89  C   UNL     1      -4.051   6.614  22.157  1.00  0.00     0.059 A 
ATOM     90  C   UNL     1      -6.438   6.924  22.489  1.00  0.00     0.059 A 
ATOM     91  F   UNL     1      -7.853   7.121  20.630  1.00  0.00    -0.206 F 
ATOM     92  C   UNL     1      -5.154   6.749  23.003  1.00  0.00     0.060 A 
BRANCH  92  93
ATOM     93  S   UNL     1      -4.878   6.723  24.787  1.00  0.00     0.124 S 
ATOM     94  O   UNL     1      -4.526   5.325  25.010  1.00  0.00    -0.237 OA
ATOM     95  O   UNL     1      -3.791   7.684  24.946  1.00  0.00    -0.237 OA
ATOM     96  O   UNL     1      -6.164   7.142  25.337  1.00  0.00    -0.744 OA
ENDBRANCH  92  93
ENDBRANCH  60  85
ENDBRANCH  34  35
ENDBRANCH  26  29
ENDBRANCH   1  25
TORSDOF 14
