REMARK SMILES O=C(NCCCNC(=O)[C@H]1CC[C@H](CNC(=O)c2ccccc2O)O1)c1ccc(-c2c3nc(c(-c4c(F)cc(S(=O)(=O)[O-])cc4F)c4ccc([nH]4)c(-c4c(F)cc(S(=O)(=O)[O-])cc4F)c4nc(c(-c5c(F)cc(S(=O)(=O)[O-])cc5F)c5ccc2[nH]5)C=C4)C=C3)cc1
REMARK SMILES IDX 5 1 4 2 3 3 1 4 2 5 26 7 27 8 91 9 28 10 90 11 29 12 30 13
REMARK SMILES IDX 31 14 84 15 32 16 89 17 83 18 85 19 33 20 88 21 82 22 81 23
REMARK SMILES IDX 34 25 68 26 47 27 67 28 48 29 51 30 66 31 86 32 49 33 50 34
REMARK SMILES IDX 65 36 87 37 52 38 35 39 36 40 45 41 37 42 38 43 44 44 46 45
REMARK SMILES IDX 39 46 40 47 41 48 42 49 43 50 69 51 70 52 79 53 71 54 72 55
REMARK SMILES IDX 78 56 80 57 73 58 74 59 75 60 76 61 77 62 53 63 54 64 63 65
REMARK SMILES IDX 55 66 56 67 62 68 64 69 57 70 58 71 59 72 60 73 61 74 6 75
REMARK SMILES IDX 7 76 8 77 9 79 10 80 11 81 25 82 12 83 13 84 14 85 15 86
REMARK SMILES IDX 16 87 17 89 18 90 19 91 23 92 20 93 22 94 21 95 24 96
REMARK H PARENT 3 6 85 24 51 35 7 78 15 88 24 97
REMARK Flexibility Score: inf
ROOT
ATOM      1  C   UNL     1       4.411   0.855   8.824  1.00  0.00     0.042 C 
ENDROOT
BRANCH   1   2
ATOM      2  C   UNL     1       3.733   0.580  10.159  1.00  0.00     0.118 C 
BRANCH   2   3
ATOM      3  N   UNL     1       4.496   1.140  11.267  1.00  0.00    -0.352 N 
ATOM      4  O   UNL     1       5.072   2.683  12.794  1.00  0.00    -0.269 OA
ATOM      5  C   UNL     1       4.187   2.176  12.112  1.00  0.00     0.251 C 
ATOM      6  H   UNL     1       5.365   0.709  11.435  1.00  0.00     0.163 HD
BRANCH   5   7
ATOM      7  C   UNL     1       2.798   2.672  12.198  1.00  0.00     0.039 A 
ATOM      8  C   UNL     1       1.724   1.779  12.172  1.00  0.00     0.014 A 
ATOM      9  C   UNL     1       2.570   4.040  12.362  1.00  0.00     0.014 A 
ATOM     10  C   UNL     1       0.422   2.259  12.176  1.00  0.00     0.010 A 
ATOM     11  C   UNL     1       1.261   4.513  12.468  1.00  0.00     0.010 A 
ATOM     12  C   UNL     1       0.177   3.627  12.359  1.00  0.00    -0.014 A 
BRANCH  12  13
ATOM     13  C   UNL     1      -1.216   4.102  12.531  1.00  0.00     0.031 A 
ATOM     14  C   UNL     1      -1.829   5.064  11.557  1.00  0.00     0.074 A 
ATOM     15  C   UNL     1      -1.914   3.667  13.598  1.00  0.00     0.049 A 
ATOM     16  N   UNL     1      -3.005   5.633  11.594  1.00  0.00    -0.248 NA
ATOM     17  C   UNL     1      -1.010   5.447  10.397  1.00  0.00     0.031 C 
ATOM     18  C   UNL     1      -1.405   2.740  14.614  1.00  0.00     0.029 A 
ATOM     19  N   UNL     1      -3.188   3.947  14.016  1.00  0.00    -0.354 N 
ATOM     20  C   UNL     1      -3.061   6.463  10.482  1.00  0.00     0.074 A 
ATOM     21  C   UNL     1      -1.790   6.339   9.801  1.00  0.00     0.031 C 
ATOM     22  C   UNL     1      -2.359   2.519  15.527  1.00  0.00     0.029 A 
ATOM     23  C   UNL     1      -3.518   3.342  15.205  1.00  0.00     0.049 A 
ATOM     24  H   UNL     1      -3.807   4.525  13.513  1.00  0.00     0.167 HD
ATOM     25  C   UNL     1      -4.083   7.253  10.073  1.00  0.00     0.037 A 
ATOM     26  C   UNL     1      -4.611   3.469  15.980  1.00  0.00     0.037 A 
ATOM     27  C   UNL     1      -5.340   7.360  10.770  1.00  0.00     0.049 A 
ATOM     28  C   UNL     1      -5.719   4.370  15.524  1.00  0.00     0.074 A 
ATOM     29  C   UNL     1      -6.458   8.095  10.419  1.00  0.00     0.029 A 
ATOM     30  N   UNL     1      -5.639   6.727  11.970  1.00  0.00    -0.354 N 
ATOM     31  N   UNL     1      -5.778   5.113  14.445  1.00  0.00    -0.248 NA
ATOM     32  C   UNL     1      -6.906   4.453  16.382  1.00  0.00     0.031 C 
ATOM     33  C   UNL     1      -7.409   7.954  11.435  1.00  0.00     0.029 A 
ATOM     34  C   UNL     1      -6.911   7.080  12.389  1.00  0.00     0.049 A 
ATOM     35  H   UNL     1      -5.034   6.118  12.452  1.00  0.00     0.167 HD
ATOM     36  C   UNL     1      -7.016   5.740  14.482  1.00  0.00     0.074 A 
ATOM     37  C   UNL     1      -7.676   5.283  15.689  1.00  0.00     0.031 C 
ATOM     38  C   UNL     1      -7.555   6.611  13.595  1.00  0.00     0.037 A 
BRANCH  25  39
ATOM     39  C   UNL     1      -3.864   8.094   8.843  1.00  0.00     0.058 A 
ATOM     40  C   UNL     1      -3.744   7.528   7.563  1.00  0.00     0.135 A 
ATOM     41  C   UNL     1      -3.772   9.492   8.947  1.00  0.00     0.135 A 
ATOM     42  F   UNL     1      -3.813   6.197   7.402  1.00  0.00    -0.206 F 
ATOM     43  C   UNL     1      -3.490   8.312   6.441  1.00  0.00     0.059 A 
ATOM     44  C   UNL     1      -3.549  10.298   7.834  1.00  0.00     0.059 A 
ATOM     45  F   UNL     1      -3.885  10.090  10.143  1.00  0.00    -0.206 F 
ATOM     46  C   UNL     1      -3.385   9.696   6.588  1.00  0.00     0.060 A 
BRANCH  46  47
ATOM     47  S   UNL     1      -3.009  10.693   5.131  1.00  0.00     0.124 S 
ATOM     48  O   UNL     1      -1.602  10.368   4.914  1.00  0.00    -0.237 OA
ATOM     49  O   UNL     1      -3.940  10.164   4.141  1.00  0.00    -0.237 OA
ATOM     50  O   UNL     1      -3.277  12.058   5.574  1.00  0.00    -0.744 OA
ENDBRANCH  46  47
ENDBRANCH  25  39
BRANCH  26  51
ATOM     51  C   UNL     1      -4.668   2.732  17.269  1.00  0.00     0.058 A 
ATOM     52  C   UNL     1      -5.499   1.617  17.433  1.00  0.00     0.135 A 
ATOM     53  C   UNL     1      -3.811   3.073  18.329  1.00  0.00     0.135 A 
ATOM     54  F   UNL     1      -6.335   1.252  16.449  1.00  0.00    -0.206 F 
ATOM     55  C   UNL     1      -5.476   0.859  18.599  1.00  0.00     0.059 A 
ATOM     56  C   UNL     1      -3.749   2.316  19.493  1.00  0.00     0.059 A 
ATOM     57  F   UNL     1      -2.979   4.120  18.211  1.00  0.00    -0.206 F 
ATOM     58  C   UNL     1      -4.587   1.209  19.619  1.00  0.00     0.060 A 
BRANCH  58  59
ATOM     59  S   UNL     1      -4.496   0.161  21.086  1.00  0.00     0.124 S 
ATOM     60  O   UNL     1      -5.753   0.478  21.753  1.00  0.00    -0.237 OA
ATOM     61  O   UNL     1      -4.401  -1.174  20.502  1.00  0.00    -0.237 OA
ATOM     62  O   UNL     1      -3.288   0.628  21.759  1.00  0.00    -0.744 OA
ENDBRANCH  58  59
ENDBRANCH  26  51
BRANCH  38  63
ATOM     63  C   UNL     1      -8.946   7.109  13.868  1.00  0.00     0.058 A 
ATOM     64  C   UNL     1      -9.208   8.062  14.863  1.00  0.00     0.135 A 
ATOM     65  C   UNL     1     -10.015   6.691  13.059  1.00  0.00     0.135 A 
ATOM     66  F   UNL     1      -8.223   8.482  15.673  1.00  0.00    -0.206 F 
ATOM     67  C   UNL     1     -10.483   8.587  15.046  1.00  0.00     0.059 A 
ATOM     68  C   UNL     1     -11.292   7.223  13.205  1.00  0.00     0.059 A 
ATOM     69  F   UNL     1      -9.815   5.783  12.090  1.00  0.00    -0.206 F 
ATOM     70  C   UNL     1     -11.516   8.169  14.203  1.00  0.00     0.060 A 
BRANCH  70  71
ATOM     71  S   UNL     1     -13.147   8.918  14.398  1.00  0.00     0.124 S 
ATOM     72  O   UNL     1     -13.604   8.310  15.644  1.00  0.00    -0.237 OA
ATOM     73  O   UNL     1     -12.829  10.341  14.466  1.00  0.00    -0.237 OA
ATOM     74  O   UNL     1     -13.860   8.498  13.196  1.00  0.00    -0.744 OA
ENDBRANCH  70  71
ENDBRANCH  38  63
ENDBRANCH  12  13
ENDBRANCH   5   7
ENDBRANCH   2   3
ENDBRANCH   1   2
BRANCH   1  75
ATOM     75  C   UNL     1       5.720   0.090   8.676  1.00  0.00     0.117 C 
BRANCH  75  76
ATOM     76  N   UNL     1       5.490  -1.277   8.260  1.00  0.00    -0.354 N 
ATOM     77  C   UNL     1       5.636  -1.852   7.033  1.00  0.00     0.249 C 
ATOM     78  H   UNL     1       5.182  -1.883   8.972  1.00  0.00     0.163 HD
ATOM     79  O   UNL     1       5.341  -3.047   6.929  1.00  0.00    -0.272 OA
BRANCH  77  80
ATOM     80  C   UNL     1       6.153  -1.058   5.815  1.00  0.00     0.207 C 
ATOM     81  C   UNL     1       5.255   0.066   5.333  1.00  0.00     0.045 C 
ATOM     82  O   UNL     1       7.465  -0.535   6.019  1.00  0.00    -0.363 OA
ATOM     83  C   UNL     1       6.079   1.327   5.447  1.00  0.00     0.037 C 
ATOM     84  C   UNL     1       7.507   0.854   5.667  1.00  0.00     0.138 C 
BRANCH  84  85
ATOM     85  C   UNL     1       8.408   1.051   4.447  1.00  0.00     0.148 C 
BRANCH  85  86
ATOM     86  N   UNL     1       8.770   2.450   4.264  1.00  0.00    -0.349 N 
ATOM     87  C   UNL     1      10.006   2.984   4.006  1.00  0.00     0.255 C 
ATOM     88  H   UNL     1       8.030   3.096   4.336  1.00  0.00     0.163 HD
ATOM     89  O   UNL     1      10.164   4.202   4.015  1.00  0.00    -0.269 OA
BRANCH  87  90
ATOM     90  C   UNL     1      11.171   2.101   3.792  1.00  0.00     0.081 A 
ATOM     91  C   UNL     1      12.291   2.309   4.607  1.00  0.00     0.018 A 
ATOM     92  C   UNL     1      11.202   1.106   2.808  1.00  0.00     0.128 A 
ATOM     93  C   UNL     1      13.415   1.494   4.471  1.00  0.00     0.001 A 
ATOM     94  C   UNL     1      12.325   0.288   2.677  1.00  0.00     0.047 A 
ATOM     95  C   UNL     1      13.427   0.480   3.513  1.00  0.00     0.004 A 
BRANCH  92  96
ATOM     96  O   UNL     1      10.138   0.926   1.969  1.00  0.00    -0.507 OA
ATOM     97  H   UNL     1       9.380   1.470   2.050  1.00  0.00     0.293 HD
ENDBRANCH  92  96
ENDBRANCH  87  90
ENDBRANCH  85  86
ENDBRANCH  84  85
ENDBRANCH  77  80
ENDBRANCH  75  76
ENDBRANCH   1  75
TORSDOF 17
