REMARK SMILES CC[C@@](C)([NH2+]CC(=O)Nc1ccc(Br)cc1F)C(=O)NCCCNC(=O)c1ccc(-c2c3nc(c(-c4c(F)cc(S(=O)(=O)[O-])cc4F)c4ccc([nH]4)c(-c4c(F)cc(S(=O)(=O)[O-])cc4F)c4nc(c(-c5c(F)cc(S(=O)(=O)[O-])cc5F)c5ccc2[nH]5)C=C4)C=C3)cc1
REMARK SMILES IDX 21 1 20 2 18 3 19 4 3 6 4 7 2 8 1 9 5 10 6 13 7 14 8 15 9 16
REMARK SMILES IDX 10 18 11 19 16 20 12 21 15 22 17 23 13 24 14 25 22 26 23 27
REMARK SMILES IDX 24 28 25 29 26 31 27 32 28 33 92 34 29 35 91 36 30 37 31 38
REMARK SMILES IDX 32 39 85 40 33 41 90 42 84 43 86 44 34 45 89 46 83 47 82 48
REMARK SMILES IDX 35 50 69 51 48 52 68 53 49 54 52 55 67 56 87 57 50 58 51 59
REMARK SMILES IDX 66 61 88 62 53 63 36 64 37 65 46 66 38 67 39 68 45 69 47 70
REMARK SMILES IDX 40 71 41 72 42 73 43 74 44 75 70 76 71 77 80 78 72 79 73 80
REMARK SMILES IDX 79 81 81 82 74 83 75 84 76 85 77 86 78 87 54 88 55 89 64 90
REMARK SMILES IDX 56 91 57 92 63 93 65 94 58 95 59 96 60 97 61 98 62 99
REMARK H PARENT 20 5 5 11 5 12 9 17 24 30 86 49 52 60
REMARK Flexibility Score: inf
ROOT
ATOM      1  C   UNL     1       3.129   1.876   3.895  1.00  0.00     0.118 C 
ENDROOT
BRANCH   1   2
ATOM      2  N   UNL     1       2.774   0.635   3.204  1.00  0.00    -0.351 N 
ATOM      3  C   UNL     1       1.805   0.259   2.302  1.00  0.00     0.281 C 
ATOM      4  O   UNL     1       2.308  -0.376   1.361  1.00  0.00    -0.268 OA
ATOM      5  H   UNL     1       3.373  -0.109   3.442  1.00  0.00     0.163 HD
BRANCH   3   6
ATOM      6  C   UNL     1       0.181   0.325   2.493  1.00  0.00     0.172 C 
ATOM      7  C   UNL     1      -0.947   1.092   1.742  1.00  0.00     0.090 C 
BRANCH   6   8
ATOM      8  C   UNL     1      -0.232  -1.185   2.188  1.00  0.00     0.075 C 
ATOM      9  C   UNL     1      -0.164  -1.599   0.686  1.00  0.00     0.011 C 
ENDBRANCH   6   8
BRANCH   6  10
ATOM     10  N   UNL     1      -0.037   0.717   3.889  1.00  0.00    -0.326 N 
ATOM     11  H   UNL     1       0.667   0.240   4.452  1.00  0.00     0.347 HD
ATOM     12  H   UNL     1      -1.005   0.457   4.080  1.00  0.00     0.347 HD
BRANCH  10  13
ATOM     13  C   UNL     1       0.033   2.161   4.223  1.00  0.00     0.363 C 
BRANCH  13  14
ATOM     14  C   UNL     1      -0.087   3.364   3.229  1.00  0.00     0.279 C 
ATOM     15  O   UNL     1      -1.023   4.158   3.456  1.00  0.00    -0.268 OA
ATOM     16  N   UNL     1       0.770   3.834   2.259  1.00  0.00    -0.319 N 
ATOM     17  H   UNL     1       0.599   4.790   2.103  1.00  0.00     0.170 HD
BRANCH  16  18
ATOM     18  C   UNL     1       1.821   3.392   1.410  1.00  0.00     0.077 A 
ATOM     19  C   UNL     1       3.014   4.126   1.457  1.00  0.00     0.030 A 
ATOM     20  C   UNL     1       1.744   2.425   0.393  1.00  0.00     0.147 A 
ATOM     21  C   UNL     1       4.134   3.755   0.689  1.00  0.00     0.018 A 
ATOM     22  C   UNL     1       2.855   2.023  -0.354  1.00  0.00     0.057 A 
ATOM     23  F   UNL     1       0.591   1.877   0.008  1.00  0.00    -0.205 F 
ATOM     24  C   UNL     1       4.061   2.669  -0.177  1.00  0.00     0.021 A 
ATOM     25  Br  UNL     1       5.579   2.101  -1.144  1.00  0.00    -0.051 Br
ENDBRANCH  16  18
ENDBRANCH  13  14
ENDBRANCH  10  13
ENDBRANCH   6  10
ENDBRANCH   3   6
ENDBRANCH   1   2
BRANCH   1  26
ATOM     26  C   UNL     1       3.347   1.753   5.398  1.00  0.00     0.042 C 
BRANCH  26  27
ATOM     27  C   UNL     1       4.718   2.229   5.860  1.00  0.00     0.118 C 
BRANCH  27  28
ATOM     28  N   UNL     1       4.988   3.645   5.610  1.00  0.00    -0.352 N 
ATOM     29  C   UNL     1       5.558   4.596   6.428  1.00  0.00     0.251 C 
ATOM     30  H   UNL     1       4.720   3.968   4.719  1.00  0.00     0.163 HD
ATOM     31  O   UNL     1       5.644   5.757   6.027  1.00  0.00    -0.269 OA
BRANCH  29  32
ATOM     32  C   UNL     1       6.026   4.245   7.791  1.00  0.00     0.039 A 
ATOM     33  C   UNL     1       5.824   5.148   8.840  1.00  0.00     0.014 A 
ATOM     34  C   UNL     1       6.641   3.020   8.049  1.00  0.00     0.014 A 
ATOM     35  C   UNL     1       6.160   4.783  10.148  1.00  0.00     0.010 A 
ATOM     36  C   UNL     1       6.856   2.610   9.360  1.00  0.00     0.010 A 
ATOM     37  C   UNL     1       6.637   3.491  10.426  1.00  0.00    -0.014 A 
BRANCH  37  38
ATOM     38  C   UNL     1       6.943   3.050  11.813  1.00  0.00     0.031 A 
ATOM     39  C   UNL     1       8.336   2.592  12.168  1.00  0.00     0.074 A 
ATOM     40  C   UNL     1       5.958   2.996  12.733  1.00  0.00     0.049 A 
ATOM     41  N   UNL     1       8.789   2.123  13.302  1.00  0.00    -0.248 NA
ATOM     42  C   UNL     1       9.344   2.625  11.095  1.00  0.00     0.031 C 
ATOM     43  C   UNL     1       4.551   3.330  12.492  1.00  0.00     0.029 A 
ATOM     44  N   UNL     1       5.987   2.637  14.058  1.00  0.00    -0.354 N 
ATOM     45  C   UNL     1      10.118   1.785  13.070  1.00  0.00     0.074 A 
ATOM     46  C   UNL     1      10.378   2.032  11.670  1.00  0.00     0.031 C 
ATOM     47  C   UNL     1       3.864   3.203  13.639  1.00  0.00     0.029 A 
ATOM     48  C   UNL     1       4.769   2.748  14.688  1.00  0.00     0.049 A 
ATOM     49  H   UNL     1       6.803   2.329  14.514  1.00  0.00     0.167 HD
ATOM     50  C   UNL     1      11.050   1.347  13.948  1.00  0.00     0.037 A 
ATOM     51  C   UNL     1       4.425   2.519  15.971  1.00  0.00     0.037 A 
ATOM     52  C   UNL     1      10.798   1.154  15.351  1.00  0.00     0.049 A 
ATOM     53  C   UNL     1       5.490   2.085  16.942  1.00  0.00     0.074 A 
ATOM     54  C   UNL     1      11.687   0.784  16.345  1.00  0.00     0.029 A 
ATOM     55  N   UNL     1       9.563   1.326  15.961  1.00  0.00    -0.354 N 
ATOM     56  N   UNL     1       6.760   1.843  16.719  1.00  0.00    -0.248 NA
ATOM     57  C   UNL     1       5.080   1.909  18.341  1.00  0.00     0.031 C 
ATOM     58  C   UNL     1      10.982   0.700  17.551  1.00  0.00     0.029 A 
ATOM     59  C   UNL     1       9.664   1.061  17.316  1.00  0.00     0.049 A 
ATOM     60  H   UNL     1       8.738   1.597  15.498  1.00  0.00     0.167 HD
ATOM     61  C   UNL     1       7.306   1.511  17.954  1.00  0.00     0.074 A 
ATOM     62  C   UNL     1       6.231   1.600  18.921  1.00  0.00     0.031 C 
ATOM     63  C   UNL     1       8.581   1.162  18.261  1.00  0.00     0.037 A 
BRANCH  50  64
ATOM     64  C   UNL     1      12.433   1.073  13.419  1.00  0.00     0.058 A 
ATOM     65  C   UNL     1      13.271   2.111  12.977  1.00  0.00     0.135 A 
ATOM     66  C   UNL     1      12.935  -0.237  13.367  1.00  0.00     0.135 A 
ATOM     67  F   UNL     1      12.838   3.381  12.986  1.00  0.00    -0.206 F 
ATOM     68  C   UNL     1      14.541   1.856  12.470  1.00  0.00     0.059 A 
ATOM     69  C   UNL     1      14.215  -0.512  12.892  1.00  0.00     0.059 A 
ATOM     70  F   UNL     1      12.178  -1.268  13.775  1.00  0.00    -0.206 F 
ATOM     71  C   UNL     1      15.004   0.541  12.430  1.00  0.00     0.060 A 
BRANCH  71  72
ATOM     72  S   UNL     1      16.655   0.229  11.771  1.00  0.00     0.124 S 
ATOM     73  O   UNL     1      16.438   0.422  10.340  1.00  0.00    -0.237 OA
ATOM     74  O   UNL     1      17.455   1.254  12.434  1.00  0.00    -0.237 OA
ATOM     75  O   UNL     1      16.932  -1.143  12.184  1.00  0.00    -0.744 OA
ENDBRANCH  71  72
ENDBRANCH  50  64
BRANCH  51  76
ATOM     76  C   UNL     1       3.025   2.746  16.420  1.00  0.00     0.058 A 
ATOM     77  C   UNL     1       2.702   3.830  17.251  1.00  0.00     0.135 A 
ATOM     78  C   UNL     1       1.980   1.900  16.018  1.00  0.00     0.135 A 
ATOM     79  F   UNL     1       3.666   4.667  17.666  1.00  0.00    -0.206 F 
ATOM     80  C   UNL     1       1.400   4.056  17.685  1.00  0.00     0.059 A 
ATOM     81  C   UNL     1       0.665   2.120  16.418  1.00  0.00     0.059 A 
ATOM     82  F   UNL     1       2.231   0.860  15.208  1.00  0.00    -0.206 F 
ATOM     83  C   UNL     1       0.387   3.195  17.261  1.00  0.00     0.060 A 
BRANCH  83  84
ATOM     84  S   UNL     1      -1.309   3.526  17.790  1.00  0.00     0.124 S 
ATOM     85  O   UNL     1      -1.266   3.111  19.187  1.00  0.00    -0.237 OA
ATOM     86  O   UNL     1      -1.431   4.961  17.553  1.00  0.00    -0.237 OA
ATOM     87  O   UNL     1      -2.106   2.683  16.904  1.00  0.00    -0.744 OA
ENDBRANCH  83  84
ENDBRANCH  51  76
BRANCH  63  88
ATOM     88  C   UNL     1       8.886   0.883  19.706  1.00  0.00     0.058 A 
ATOM     89  C   UNL     1       8.433  -0.281  20.344  1.00  0.00     0.135 A 
ATOM     90  C   UNL     1       9.672   1.778  20.450  1.00  0.00     0.135 A 
ATOM     91  F   UNL     1       7.676  -1.167  19.677  1.00  0.00    -0.206 F 
ATOM     92  C   UNL     1       8.719  -0.533  21.681  1.00  0.00     0.059 A 
ATOM     93  C   UNL     1       9.994   1.533  21.780  1.00  0.00     0.059 A 
ATOM     94  F   UNL     1      10.142   2.900  19.881  1.00  0.00    -0.206 F 
ATOM     95  C   UNL     1       9.499   0.382  22.392  1.00  0.00     0.060 A 
BRANCH  95  96
ATOM     96  S   UNL     1       9.874   0.040  24.124  1.00  0.00     0.124 S 
ATOM     97  O   UNL     1       8.604   0.360  24.767  1.00  0.00    -0.237 OA
ATOM     98  O   UNL     1      10.230  -1.375  24.094  1.00  0.00    -0.237 OA
ATOM     99  O   UNL     1      10.976   0.951  24.419  1.00  0.00    -0.744 OA
ENDBRANCH  95  96
ENDBRANCH  63  88
ENDBRANCH  37  38
ENDBRANCH  29  32
ENDBRANCH  27  28
ENDBRANCH  26  27
ENDBRANCH   1  26
TORSDOF 18
