REMARK SMILES O=C(Cc1csc(NC(=O)[C@H]2CC(=O)N(C3CC3)C2)n1)NCCCNC(=O)c1ccc(-c2c3nc(c(-c4c(F)cc(S(=O)(=O)[O-])cc4F)c4ccc([nH]4)c(-c4c(F)cc(S(=O)(=O)[O-])cc4F)c4nc(c(-c5c(F)cc(S(=O)(=O)[O-])cc5F)c5ccc2[nH]5)C=C4)C=C3)cc1
REMARK SMILES IDX 22 1 21 2 1 3 2 4 3 6 4 7 5 8 20 9 6 10 7 11 8 12 9 13 10 15
REMARK SMILES IDX 11 16 12 17 19 18 13 19 15 20 14 21 16 22 17 23 18 24 23 25
REMARK SMILES IDX 24 26 25 27 26 28 27 30 28 31 29 32 93 33 30 34 92 35 31 36
REMARK SMILES IDX 32 37 33 38 86 39 34 40 91 41 85 42 87 43 35 44 90 45 84 46
REMARK SMILES IDX 83 47 36 49 70 50 49 51 69 52 50 53 53 54 68 55 88 56 51 57
REMARK SMILES IDX 52 58 67 60 89 61 54 62 37 63 38 64 47 65 39 66 40 67 46 68
REMARK SMILES IDX 48 69 41 70 42 71 43 72 44 73 45 74 71 75 72 76 81 77 73 78
REMARK SMILES IDX 74 79 80 80 82 81 75 82 76 83 77 84 78 85 79 86 55 87 56 88
REMARK SMILES IDX 65 89 57 90 58 91 64 92 66 93 59 94 60 95 61 96 62 97 63 98
REMARK H PARENT 21 5 8 14 25 29 87 48 53 59
REMARK Flexibility Score: inf
ROOT
ATOM      1  C   UNL     1       2.124  10.712   1.495  1.00  0.00     0.117 C 
ENDROOT
BRANCH   1   2
ATOM      2  N   UNL     1       2.656  10.624   0.150  1.00  0.00    -0.356 N 
ATOM      3  O   UNL     1       3.861  12.575   0.242  1.00  0.00    -0.275 OA
ATOM      4  C   UNL     1       3.544  11.552  -0.361  1.00  0.00     0.226 C 
ATOM      5  H   UNL     1       2.374   9.874  -0.423  1.00  0.00     0.163 HD
BRANCH   4   6
ATOM      6  C   UNL     1       4.027  11.290  -1.778  1.00  0.00     0.157 C 
BRANCH   6   7
ATOM      7  C   UNL     1       4.397   9.863  -2.012  1.00  0.00     0.063 A 
ATOM      8  C   UNL     1       3.776   9.001  -2.893  1.00  0.00     0.093 A 
ATOM      9  N   UNL     1       5.437   9.291  -1.289  1.00  0.00    -0.224 NA
ATOM     10  S   UNL     1       4.449   7.446  -2.735  1.00  0.00    -0.105 S 
ATOM     11  C   UNL     1       5.587   8.029  -1.614  1.00  0.00     0.189 A 
BRANCH  11  12
ATOM     12  N   UNL     1       6.558   7.263  -1.020  1.00  0.00    -0.302 N 
ATOM     13  C   UNL     1       7.013   5.993  -1.211  1.00  0.00     0.231 C 
ATOM     14  H   UNL     1       7.029   7.735  -0.295  1.00  0.00     0.172 HD
ATOM     15  O   UNL     1       7.859   5.560  -0.420  1.00  0.00    -0.274 OA
BRANCH  13  16
ATOM     16  C   UNL     1       6.564   5.148  -2.374  1.00  0.00     0.107 C 
ATOM     17  C   UNL     1       7.205   5.605  -3.683  1.00  0.00     0.115 C 
ATOM     18  C   UNL     1       7.002   3.693  -2.317  1.00  0.00     0.133 C 
ATOM     19  C   UNL     1       7.045   4.390  -4.554  1.00  0.00     0.223 C 
ATOM     20  N   UNL     1       6.896   3.292  -3.703  1.00  0.00    -0.339 N 
ATOM     21  O   UNL     1       7.074   4.416  -5.775  1.00  0.00    -0.275 OA
BRANCH  20  22
ATOM     22  C   UNL     1       6.684   1.929  -4.074  1.00  0.00     0.085 C 
ATOM     23  C   UNL     1       6.170   1.503  -5.423  1.00  0.00     0.027 C 
ATOM     24  C   UNL     1       7.600   1.239  -5.045  1.00  0.00     0.027 C 
ENDBRANCH  20  22
ENDBRANCH  13  16
ENDBRANCH  11  12
ENDBRANCH   6   7
ENDBRANCH   4   6
ENDBRANCH   1   2
BRANCH   1  25
ATOM     25  C   UNL     1       0.623  10.978   1.516  1.00  0.00     0.042 C 
BRANCH  25  26
ATOM     26  C   UNL     1      -0.235   9.877   0.896  1.00  0.00     0.118 C 
BRANCH  26  27
ATOM     27  N   UNL     1      -0.128   8.602   1.591  1.00  0.00    -0.352 N 
ATOM     28  C   UNL     1      -1.099   7.774   2.101  1.00  0.00     0.251 C 
ATOM     29  H   UNL     1       0.794   8.279   1.715  1.00  0.00     0.163 HD
ATOM     30  O   UNL     1      -0.752   6.803   2.771  1.00  0.00    -0.269 OA
BRANCH  28  31
ATOM     31  C   UNL     1      -2.541   8.041   1.883  1.00  0.00     0.039 A 
ATOM     32  C   UNL     1      -3.427   7.792   2.936  1.00  0.00     0.014 A 
ATOM     33  C   UNL     1      -3.039   8.490   0.657  1.00  0.00     0.014 A 
ATOM     34  C   UNL     1      -4.792   8.053   2.779  1.00  0.00     0.010 A 
ATOM     35  C   UNL     1      -4.389   8.826   0.528  1.00  0.00     0.010 A 
ATOM     36  C   UNL     1      -5.283   8.611   1.587  1.00  0.00    -0.014 A 
BRANCH  36  37
ATOM     37  C   UNL     1      -6.717   8.996   1.466  1.00  0.00     0.031 A 
ATOM     38  C   UNL     1      -7.617   8.341   0.451  1.00  0.00     0.074 A 
ATOM     39  C   UNL     1      -7.205   9.968   2.264  1.00  0.00     0.049 A 
ATOM     40  N   UNL     1      -8.893   8.539   0.232  1.00  0.00    -0.248 NA
ATOM     41  C   UNL     1      -7.004   7.355  -0.450  1.00  0.00     0.031 C 
ATOM     42  C   UNL     1      -6.424  10.728   3.243  1.00  0.00     0.029 A 
ATOM     43  N   UNL     1      -8.472  10.483   2.384  1.00  0.00    -0.354 N 
ATOM     44  C   UNL     1      -9.234   7.707  -0.829  1.00  0.00     0.074 A 
ATOM     45  C   UNL     1      -8.016   7.047  -1.249  1.00  0.00     0.031 C 
ATOM     46  C   UNL     1      -7.234  11.579   3.890  1.00  0.00     0.029 A 
ATOM     47  C   UNL     1      -8.584  11.457   3.350  1.00  0.00     0.049 A 
ATOM     48  H   UNL     1      -9.230  10.184   1.831  1.00  0.00     0.167 HD
ATOM     49  C   UNL     1     -10.451   7.493  -1.387  1.00  0.00     0.037 A 
ATOM     50  C   UNL     1      -9.651  12.171   3.759  1.00  0.00     0.037 A 
ATOM     51  C   UNL     1     -11.664   8.146  -0.959  1.00  0.00     0.049 A 
ATOM     52  C   UNL     1     -10.993  11.907   3.132  1.00  0.00     0.074 A 
ATOM     53  C   UNL     1     -12.954   7.959  -1.425  1.00  0.00     0.029 A 
ATOM     54  N   UNL     1     -11.738   9.118   0.030  1.00  0.00    -0.354 N 
ATOM     55  N   UNL     1     -11.308  11.062   2.179  1.00  0.00    -0.248 NA
ATOM     56  C   UNL     1     -12.128  12.683   3.648  1.00  0.00     0.031 C 
ATOM     57  C   UNL     1     -13.798   8.853  -0.758  1.00  0.00     0.029 A 
ATOM     58  C   UNL     1     -13.047   9.553   0.172  1.00  0.00     0.049 A 
ATOM     59  H   UNL     1     -10.974   9.449   0.554  1.00  0.00     0.167 HD
ATOM     60  C   UNL     1     -12.682  11.185   2.002  1.00  0.00     0.074 A 
ATOM     61  C   UNL     1     -13.138  12.169   2.962  1.00  0.00     0.031 C 
ATOM     62  C   UNL     1     -13.492  10.539   1.126  1.00  0.00     0.037 A 
BRANCH  49  63
ATOM     63  C   UNL     1     -10.538   6.507  -2.524  1.00  0.00     0.058 A 
ATOM     64  C   UNL     1     -10.344   5.130  -2.326  1.00  0.00     0.135 A 
ATOM     65  C   UNL     1     -10.866   6.937  -3.821  1.00  0.00     0.135 A 
ATOM     66  F   UNL     1     -10.016   4.661  -1.111  1.00  0.00    -0.206 F 
ATOM     67  C   UNL     1     -10.439   4.221  -3.375  1.00  0.00     0.059 A 
ATOM     68  C   UNL     1     -10.998   6.042  -4.879  1.00  0.00     0.059 A 
ATOM     69  F   UNL     1     -11.065   8.241  -4.072  1.00  0.00    -0.206 F 
ATOM     70  C   UNL     1     -10.768   4.686  -4.649  1.00  0.00     0.060 A 
BRANCH  70  71
ATOM     71  S   UNL     1     -10.894   3.491  -5.997  1.00  0.00     0.124 S 
ATOM     72  O   UNL     1      -9.493   3.132  -6.197  1.00  0.00    -0.237 OA
ATOM     73  O   UNL     1     -11.737   2.453  -5.414  1.00  0.00    -0.237 OA
ATOM     74  O   UNL     1     -11.504   4.259  -7.077  1.00  0.00    -0.744 OA
ENDBRANCH  70  71
ENDBRANCH  49  63
BRANCH  50  75
ATOM     75  C   UNL     1      -9.498  13.181   4.842  1.00  0.00     0.058 A 
ATOM     76  C   UNL     1     -10.070  12.980   6.107  1.00  0.00     0.135 A 
ATOM     77  C   UNL     1      -8.769  14.363   4.636  1.00  0.00     0.135 A 
ATOM     78  F   UNL     1     -10.781  11.869   6.353  1.00  0.00    -0.206 F 
ATOM     79  C   UNL     1      -9.944  13.922   7.123  1.00  0.00     0.059 A 
ATOM     80  C   UNL     1      -8.603  15.305   5.646  1.00  0.00     0.059 A 
ATOM     81  F   UNL     1      -8.186  14.596   3.450  1.00  0.00    -0.206 F 
ATOM     82  C   UNL     1      -9.204  15.081   6.883  1.00  0.00     0.060 A 
BRANCH  82  83
ATOM     83  S   UNL     1      -9.006  16.275   8.223  1.00  0.00     0.124 S 
ATOM     84  O   UNL     1     -10.341  16.856   8.299  1.00  0.00    -0.237 OA
ATOM     85  O   UNL     1      -8.616  15.419   9.340  1.00  0.00    -0.237 OA
ATOM     86  O   UNL     1      -7.958  17.162   7.729  1.00  0.00    -0.744 OA
ENDBRANCH  82  83
ENDBRANCH  50  75
BRANCH  62  87
ATOM     87  C   UNL     1     -14.964  10.853   1.194  1.00  0.00     0.058 A 
ATOM     88  C   UNL     1     -15.479  12.103   0.815  1.00  0.00     0.135 A 
ATOM     89  C   UNL     1     -15.875   9.885   1.651  1.00  0.00     0.135 A 
ATOM     90  F   UNL     1     -14.655  13.066   0.371  1.00  0.00    -0.206 F 
ATOM     91  C   UNL     1     -16.832  12.402   0.938  1.00  0.00     0.059 A 
ATOM     92  C   UNL     1     -17.238  10.150   1.748  1.00  0.00     0.059 A 
ATOM     93  F   UNL     1     -15.444   8.666   2.012  1.00  0.00    -0.206 F 
ATOM     94  C   UNL     1     -17.703  11.420   1.413  1.00  0.00     0.060 A 
BRANCH  94  95
ATOM     95  S   UNL     1     -19.453  11.825   1.588  1.00  0.00     0.124 S 
ATOM     96  O   UNL     1     -19.439  12.683   2.768  1.00  0.00    -0.237 OA
ATOM     97  O   UNL     1     -19.749  12.491   0.323  1.00  0.00    -0.237 OA
ATOM     98  O   UNL     1     -20.088  10.523   1.766  1.00  0.00    -0.744 OA
ENDBRANCH  94  95
ENDBRANCH  62  87
ENDBRANCH  36  37
ENDBRANCH  28  31
ENDBRANCH  26  27
ENDBRANCH  25  26
ENDBRANCH   1  25
TORSDOF 17
