REMARK SMILES Cc1cc(NS(=O)(=O)c2ccc(NC(=O)[C@@H]3CCCC[C@@H]3C(=O)NCCCNC(=O)c3ccc(-c4c5nc(c(-c6c(F)cc(S(=O)(=O)[O-])cc6F)c6ccc([nH]6)c(-c6c(F)cc(S(=O)(=O)[O-])cc6F)c6nc(c(-c7c(F)cc(S(=O)(=O)[O-])cc7F)c7ccc4[nH]7)C=C6)C=C5)cc3)cc2)no1
REMARK SMILES IDX 25 1 24 2 22 3 23 4 21 6 16 7 17 8 18 9 20 10 19 11 14 12
REMARK SMILES IDX 13 13 15 15 12 16 9 17 10 18 98 19 11 20 97 21 6 22 7 23
REMARK SMILES IDX 8 24 5 25 4 27 1 28 2 29 3 30 100 31 99 32 26 33 27 34 28 35
REMARK SMILES IDX 29 36 30 38 31 39 32 40 96 41 33 42 95 43 34 44 35 45 36 46
REMARK SMILES IDX 89 47 37 48 94 49 88 50 90 51 38 52 93 53 87 54 86 55 39 57
REMARK SMILES IDX 73 58 52 59 72 60 53 61 56 62 71 63 91 64 54 65 55 66 70 68
REMARK SMILES IDX 92 69 57 70 40 71 41 72 50 73 42 74 43 75 49 76 51 77 44 78
REMARK SMILES IDX 45 79 46 80 47 81 48 82 74 83 75 84 84 85 76 86 77 87 83 88
REMARK SMILES IDX 85 89 78 90 79 91 80 92 81 93 82 94 58 95 59 96 68 97 60 98
REMARK SMILES IDX 61 99 67 100 69 101 62 102 63 103 64 104 65 105 66 106
REMARK H PARENT 24 5 13 14 5 26 28 37 90 56 56 67
REMARK Flexibility Score: inf
ROOT
ATOM      1  C   UNL     1      -3.086   8.085   3.070  1.00  0.00     0.117 C 
ENDROOT
BRANCH   1   2
ATOM      2  N   UNL     1      -3.614   6.800   3.518  1.00  0.00    -0.356 N 
ATOM      3  C   UNL     1      -3.018   5.587   3.683  1.00  0.00     0.223 C 
ATOM      4  O   UNL     1      -3.702   4.673   4.148  1.00  0.00    -0.275 OA
ATOM      5  H   UNL     1      -4.573   6.813   3.739  1.00  0.00     0.163 HD
BRANCH   3   6
ATOM      6  C   UNL     1      -1.548   5.381   3.335  1.00  0.00     0.091 C 
ATOM      7  C   UNL     1      -1.292   4.791   1.928  1.00  0.00     0.091 C 
ATOM      8  C   UNL     1      -0.911   3.311   1.800  1.00  0.00     0.014 C 
ATOM      9  C   UNL     1      -0.183   2.730   3.004  1.00  0.00     0.001 C 
ATOM     10  C   UNL     1      -0.836   4.632   4.470  1.00  0.00     0.014 C 
ATOM     11  C   UNL     1      -0.859   3.121   4.307  1.00  0.00     0.001 C 
BRANCH   7  12
ATOM     12  C   UNL     1      -2.226   5.395   0.877  1.00  0.00     0.228 C 
ATOM     13  N   UNL     1      -3.323   4.849   0.295  1.00  0.00    -0.326 N 
ATOM     14  H   UNL     1      -3.833   5.497  -0.242  1.00  0.00     0.169 HD
ATOM     15  O   UNL     1      -1.940   6.539   0.484  1.00  0.00    -0.274 OA
BRANCH  13  16
ATOM     16  C   UNL     1      -3.893   3.569   0.285  1.00  0.00     0.041 A 
ATOM     17  C   UNL     1      -4.417   0.865  -0.091  1.00  0.00     0.088 A 
ATOM     18  C   UNL     1      -4.246   1.357   1.204  1.00  0.00     0.024 A 
ATOM     19  C   UNL     1      -4.542   1.742  -1.168  1.00  0.00     0.024 A 
ATOM     20  C   UNL     1      -4.006   2.726   1.387  1.00  0.00     0.027 A 
ATOM     21  C   UNL     1      -4.299   3.099  -0.971  1.00  0.00     0.027 A 
BRANCH  17  22
ATOM     22  S   UNL     1      -4.355  -0.878  -0.400  1.00  0.00     0.263 S 
ATOM     23  O   UNL     1      -4.559  -1.118  -1.815  1.00  0.00    -0.201 OA
ATOM     24  O   UNL     1      -5.209  -1.514   0.582  1.00  0.00    -0.201 OA
BRANCH  22  25
ATOM     25  N   UNL     1      -2.806  -1.376  -0.015  1.00  0.00    -0.261 N 
ATOM     26  H   UNL     1      -2.728  -2.239   0.452  1.00  0.00     0.182 HD
BRANCH  25  27
ATOM     27  C   UNL     1      -1.620  -0.711  -0.280  1.00  0.00     0.183 A 
ATOM     28  C   UNL     1       1.986  -0.029  -0.097  1.00  0.00     0.091 C 
ATOM     29  C   UNL     1       0.530  -0.212  -0.245  1.00  0.00     0.135 A 
ATOM     30  C   UNL     1      -0.348  -1.220   0.070  1.00  0.00     0.096 A 
ATOM     31  O   UNL     1      -0.165   0.820  -0.790  1.00  0.00    -0.360 OA
ATOM     32  N   UNL     1      -1.509   0.497  -0.833  1.00  0.00    -0.061 NA
ENDBRANCH  25  27
ENDBRANCH  22  25
ENDBRANCH  17  22
ENDBRANCH  13  16
ENDBRANCH   7  12
ENDBRANCH   3   6
ENDBRANCH   1   2
BRANCH   1  33
ATOM     33  C   UNL     1      -3.824   8.637   1.855  1.00  0.00     0.042 C 
BRANCH  33  34
ATOM     34  C   UNL     1      -5.306   8.896   2.070  1.00  0.00     0.118 C 
BRANCH  34  35
ATOM     35  N   UNL     1      -5.566  10.047   2.919  1.00  0.00    -0.352 N 
ATOM     36  C   UNL     1      -6.155  11.252   2.611  1.00  0.00     0.251 C 
ATOM     37  H   UNL     1      -5.278   9.950   3.856  1.00  0.00     0.163 HD
ATOM     38  O   UNL     1      -6.130  12.164   3.433  1.00  0.00    -0.269 OA
BRANCH  36  39
ATOM     39  C   UNL     1      -6.788  11.463   1.288  1.00  0.00     0.039 A 
ATOM     40  C   UNL     1      -6.562  12.668   0.615  1.00  0.00     0.014 A 
ATOM     41  C   UNL     1      -7.604  10.489   0.709  1.00  0.00     0.014 A 
ATOM     42  C   UNL     1      -7.090  12.861  -0.665  1.00  0.00     0.010 A 
ATOM     43  C   UNL     1      -8.054  10.645  -0.600  1.00  0.00     0.010 A 
ATOM     44  C   UNL     1      -7.806  11.835  -1.302  1.00  0.00    -0.014 A 
BRANCH  44  45
ATOM     45  C   UNL     1      -8.309  11.980  -2.694  1.00  0.00     0.031 A 
ATOM     46  C   UNL     1      -9.788  11.913  -2.973  1.00  0.00     0.074 A 
ATOM     47  C   UNL     1      -7.436  12.089  -3.716  1.00  0.00     0.049 A 
ATOM     48  N   UNL     1     -10.413  11.906  -4.121  1.00  0.00    -0.248 NA
ATOM     49  C   UNL     1     -10.678  11.807  -1.805  1.00  0.00     0.031 C 
ATOM     50  C   UNL     1      -5.978  12.115  -3.585  1.00  0.00     0.029 A 
ATOM     51  N   UNL     1      -7.647  12.180  -5.070  1.00  0.00    -0.354 N 
ATOM     52  C   UNL     1     -11.763  11.769  -3.818  1.00  0.00     0.074 A 
ATOM     53  C   UNL     1     -11.862  11.651  -2.380  1.00  0.00     0.031 C 
ATOM     54  C   UNL     1      -5.427  12.229  -4.805  1.00  0.00     0.029 A 
ATOM     55  C   UNL     1      -6.488  12.243  -5.808  1.00  0.00     0.049 A 
ATOM     56  H   UNL     1      -8.544  12.198  -5.475  1.00  0.00     0.167 HD
ATOM     57  C   UNL     1     -12.825  11.765  -4.658  1.00  0.00     0.037 A 
ATOM     58  C   UNL     1      -6.297  12.291  -7.141  1.00  0.00     0.037 A 
ATOM     59  C   UNL     1     -12.725  11.922  -6.085  1.00  0.00     0.049 A 
ATOM     60  C   UNL     1      -7.492  12.299  -8.055  1.00  0.00     0.074 A 
ATOM     61  C   UNL     1     -13.747  12.005  -7.015  1.00  0.00     0.029 A 
ATOM     62  N   UNL     1     -11.534  12.021  -6.790  1.00  0.00    -0.354 N 
ATOM     63  N   UNL     1      -8.766  12.236  -7.745  1.00  0.00    -0.248 NA
ATOM     64  C   UNL     1      -7.229  12.388  -9.498  1.00  0.00     0.031 C 
ATOM     65  C   UNL     1     -13.173  12.113  -8.286  1.00  0.00     0.029 A 
ATOM     66  C   UNL     1     -11.795  12.145  -8.145  1.00  0.00     0.049 A 
ATOM     67  H   UNL     1     -10.636  12.006  -6.386  1.00  0.00     0.167 HD
ATOM     68  C   UNL     1      -9.454  12.303  -8.951  1.00  0.00     0.074 A 
ATOM     69  C   UNL     1      -8.458  12.421  -9.996  1.00  0.00     0.031 C 
ATOM     70  C   UNL     1     -10.792  12.273  -9.172  1.00  0.00     0.037 A 
BRANCH  57  71
ATOM     71  C   UNL     1     -14.192  11.588  -4.054  1.00  0.00     0.058 A 
ATOM     72  C   UNL     1     -14.793  12.595  -3.282  1.00  0.00     0.135 A 
ATOM     73  C   UNL     1     -14.922  10.409  -4.274  1.00  0.00     0.135 A 
ATOM     74  F   UNL     1     -14.134  13.737  -3.029  1.00  0.00    -0.206 F 
ATOM     75  C   UNL     1     -16.055  12.426  -2.721  1.00  0.00     0.059 A 
ATOM     76  C   UNL     1     -16.198  10.229  -3.747  1.00  0.00     0.059 A 
ATOM     77  F   UNL     1     -14.396   9.414  -5.006  1.00  0.00    -0.206 F 
ATOM     78  C   UNL     1     -16.748  11.238  -2.957  1.00  0.00     0.060 A 
BRANCH  78  79
ATOM     79  S   UNL     1     -18.384  11.034  -2.220  1.00  0.00     0.124 S 
ATOM     80  O   UNL     1     -18.044  10.796  -0.821  1.00  0.00    -0.237 OA
ATOM     81  O   UNL     1     -19.020  12.315  -2.508  1.00  0.00    -0.237 OA
ATOM     82  O   UNL     1     -18.938   9.888  -2.935  1.00  0.00    -0.744 OA
ENDBRANCH  78  79
ENDBRANCH  57  71
BRANCH  58  83
ATOM     83  C   UNL     1      -4.916  12.351  -7.690  1.00  0.00     0.058 A 
ATOM     84  C   UNL     1      -4.421  13.528  -8.270  1.00  0.00     0.135 A 
ATOM     85  C   UNL     1      -4.057  11.242  -7.626  1.00  0.00     0.135 A 
ATOM     86  F   UNL     1      -5.206  14.612  -8.361  1.00  0.00    -0.206 F 
ATOM     87  C   UNL     1      -3.128  13.602  -8.779  1.00  0.00     0.059 A 
ATOM     88  C   UNL     1      -2.752  11.299  -8.107  1.00  0.00     0.059 A 
ATOM     89  F   UNL     1      -4.478  10.097  -7.066  1.00  0.00    -0.206 F 
ATOM     90  C   UNL     1      -2.300  12.482  -8.690  1.00  0.00     0.060 A 
BRANCH  90  91
ATOM     91  S   UNL     1      -0.606  12.607  -9.304  1.00  0.00     0.124 S 
ATOM     92  O   UNL     1      -0.814  12.581 -10.747  1.00  0.00    -0.237 OA
ATOM     93  O   UNL     1      -0.169  13.882  -8.744  1.00  0.00    -0.237 OA
ATOM     94  O   UNL     1       0.043  11.428  -8.737  1.00  0.00    -0.744 OA
ENDBRANCH  90  91
ENDBRANCH  58  83
BRANCH  70  95
ATOM     95  C   UNL     1     -11.267  12.401 -10.593  1.00  0.00     0.058 A 
ATOM     96  C   UNL     1     -11.158  11.340 -11.505  1.00  0.00     0.135 A 
ATOM     97  C   UNL     1     -11.906  13.575 -11.023  1.00  0.00     0.135 A 
ATOM     98  F   UNL     1     -10.549  10.200 -11.145  1.00  0.00    -0.206 F 
ATOM     99  C   UNL     1     -11.659  11.443 -12.799  1.00  0.00     0.059 A 
ATOM    100  C   UNL     1     -12.435  13.690 -12.304  1.00  0.00     0.059 A 
ATOM    101  F   UNL     1     -12.043  14.616 -10.186  1.00  0.00    -0.206 F 
ATOM    102  C   UNL     1     -12.300  12.620 -13.188  1.00  0.00     0.060 A 
BRANCH 102 103
ATOM    103  S   UNL     1     -12.994  12.720 -14.852  1.00  0.00     0.124 S 
ATOM    104  O   UNL     1     -11.792  12.885 -15.662  1.00  0.00    -0.237 OA
ATOM    105  O   UNL     1     -13.677  11.437 -14.984  1.00  0.00    -0.237 OA
ATOM    106  O   UNL     1     -13.872  13.885 -14.785  1.00  0.00    -0.744 OA
ENDBRANCH 102 103
ENDBRANCH  70  95
ENDBRANCH  44  45
ENDBRANCH  36  39
ENDBRANCH  34  35
ENDBRANCH  33  34
ENDBRANCH   1  33
TORSDOF 18
