REMARK SMILES O=C(NCCCNC(=O)C1CCN(c2ccnnc2)CC1)c1ccc(-c2c3nc(c(-c4c(F)cc(S(=O)(=O)[O-])cc4F)c4ccc([nH]4)c(-c4c(F)cc(S(=O)(=O)[O-])cc4F)c4nc(c(-c5c(F)cc(S(=O)(=O)[O-])cc5F)c5ccc2[nH]5)C=C4)C=C3)cc1
REMARK SMILES IDX 4 1 3 2 1 3 2 4 22 6 23 7 87 8 24 9 86 10 25 11 26 12 27 13
REMARK SMILES IDX 80 14 28 15 85 16 79 17 81 18 29 19 84 20 78 21 77 22 30 24
REMARK SMILES IDX 64 25 43 26 63 27 44 28 47 29 62 30 82 31 45 32 46 33 61 35
REMARK SMILES IDX 83 36 48 37 31 38 32 39 41 40 33 41 34 42 40 43 42 44 35 45
REMARK SMILES IDX 36 46 37 47 38 48 39 49 65 50 66 51 75 52 67 53 68 54 74 55
REMARK SMILES IDX 76 56 69 57 70 58 71 59 72 60 73 61 49 62 50 63 59 64 51 65
REMARK SMILES IDX 52 66 58 67 60 68 53 69 54 70 55 71 56 72 57 73 5 74 6 75
REMARK SMILES IDX 7 76 8 77 9 79 10 80 11 81 21 82 12 83 20 84 13 85 14 86
REMARK SMILES IDX 15 87 19 88 16 89 18 90 17 91
REMARK H PARENT 3 5 81 23 47 34 7 78
REMARK Flexibility Score: inf
ROOT
ATOM      1  C   UNL     1       4.506  -1.406   0.136  1.00  0.00     0.118 C 
ENDROOT
BRANCH   1   2
ATOM      2  N   UNL     1       3.092  -1.125  -0.077  1.00  0.00    -0.352 N 
ATOM      3  O   UNL     1       1.166   0.028   0.004  1.00  0.00    -0.269 OA
ATOM      4  C   UNL     1       2.395   0.051   0.039  1.00  0.00     0.251 C 
ATOM      5  H   UNL     1       2.551  -1.903  -0.347  1.00  0.00     0.163 HD
BRANCH   4   6
ATOM      6  C   UNL     1       3.108   1.334   0.217  1.00  0.00     0.039 A 
ATOM      7  C   UNL     1       4.253   1.629  -0.528  1.00  0.00     0.014 A 
ATOM      8  C   UNL     1       2.597   2.278   1.114  1.00  0.00     0.014 A 
ATOM      9  C   UNL     1       4.958   2.801  -0.280  1.00  0.00     0.010 A 
ATOM     10  C   UNL     1       3.264   3.492   1.303  1.00  0.00     0.010 A 
ATOM     11  C   UNL     1       4.466   3.752   0.628  1.00  0.00    -0.014 A 
BRANCH  11  12
ATOM     12  C   UNL     1       5.193   5.035   0.808  1.00  0.00     0.031 A 
ATOM     13  C   UNL     1       5.835   5.388   2.120  1.00  0.00     0.074 A 
ATOM     14  C   UNL     1       5.291   5.875  -0.241  1.00  0.00     0.049 A 
ATOM     15  N   UNL     1       6.531   6.450   2.436  1.00  0.00    -0.248 NA
ATOM     16  C   UNL     1       5.671   4.429   3.224  1.00  0.00     0.031 C 
ATOM     17  C   UNL     1       4.694   5.645  -1.560  1.00  0.00     0.029 A 
ATOM     18  N   UNL     1       5.936   7.077  -0.374  1.00  0.00    -0.354 N 
ATOM     19  C   UNL     1       6.874   6.300   3.775  1.00  0.00     0.074 A 
ATOM     20  C   UNL     1       6.285   5.054   4.220  1.00  0.00     0.031 C 
ATOM     21  C   UNL     1       5.040   6.648  -2.380  1.00  0.00     0.029 A 
ATOM     22  C   UNL     1       5.832   7.619  -1.633  1.00  0.00     0.049 A 
ATOM     23  H   UNL     1       6.427   7.510   0.361  1.00  0.00     0.167 HD
ATOM     24  C   UNL     1       7.617   7.121   4.556  1.00  0.00     0.037 A 
ATOM     25  C   UNL     1       6.310   8.774  -2.132  1.00  0.00     0.037 A 
ATOM     26  C   UNL     1       8.206   8.356   4.101  1.00  0.00     0.049 A 
ATOM     27  C   UNL     1       7.114   9.676  -1.242  1.00  0.00     0.074 A 
ATOM     28  C   UNL     1       9.007   9.239   4.804  1.00  0.00     0.029 A 
ATOM     29  N   UNL     1       8.052   8.887   2.828  1.00  0.00    -0.354 N 
ATOM     30  N   UNL     1       7.458   9.500   0.012  1.00  0.00    -0.248 NA
ATOM     31  C   UNL     1       7.590  10.934  -1.829  1.00  0.00     0.031 C 
ATOM     32  C   UNL     1       9.301  10.325   3.970  1.00  0.00     0.029 A 
ATOM     33  C   UNL     1       8.722  10.096   2.732  1.00  0.00     0.049 A 
ATOM     34  H   UNL     1       7.542   8.466   2.099  1.00  0.00     0.167 HD
ATOM     35  C   UNL     1       8.203  10.619   0.361  1.00  0.00     0.074 A 
ATOM     36  C   UNL     1       8.273  11.457  -0.819  1.00  0.00     0.031 C 
ATOM     37  C   UNL     1       8.776  10.924   1.552  1.00  0.00     0.037 A 
BRANCH  24  38
ATOM     38  C   UNL     1       7.816   6.721   5.993  1.00  0.00     0.058 A 
ATOM     39  C   UNL     1       8.643   5.645   6.354  1.00  0.00     0.135 A 
ATOM     40  C   UNL     1       7.188   7.436   7.026  1.00  0.00     0.135 A 
ATOM     41  F   UNL     1       9.258   4.918   5.408  1.00  0.00    -0.206 F 
ATOM     42  C   UNL     1       8.809   5.268   7.684  1.00  0.00     0.059 A 
ATOM     43  C   UNL     1       7.359   7.093   8.364  1.00  0.00     0.059 A 
ATOM     44  F   UNL     1       6.390   8.477   6.739  1.00  0.00    -0.206 F 
ATOM     45  C   UNL     1       8.156   5.995   8.682  1.00  0.00     0.060 A 
BRANCH  45  46
ATOM     46  S   UNL     1       8.359   5.478  10.400  1.00  0.00     0.124 S 
ATOM     47  O   UNL     1       7.523   4.282  10.443  1.00  0.00    -0.237 OA
ATOM     48  O   UNL     1       9.798   5.248  10.491  1.00  0.00    -0.237 OA
ATOM     49  O   UNL     1       7.861   6.620  11.160  1.00  0.00    -0.744 OA
ENDBRANCH  45  46
ENDBRANCH  24  38
BRANCH  25  50
ATOM     50  C   UNL     1       6.039   9.125  -3.550  1.00  0.00     0.058 A 
ATOM     51  C   UNL     1       7.058   9.079  -4.511  1.00  0.00     0.135 A 
ATOM     52  C   UNL     1       4.745   9.456  -3.980  1.00  0.00     0.135 A 
ATOM     53  F   UNL     1       8.312   8.772  -4.146  1.00  0.00    -0.206 F 
ATOM     54  C   UNL     1       6.804   9.349  -5.852  1.00  0.00     0.059 A 
ATOM     55  C   UNL     1       4.461   9.705  -5.318  1.00  0.00     0.059 A 
ATOM     56  F   UNL     1       3.733   9.495  -3.099  1.00  0.00    -0.206 F 
ATOM     57  C   UNL     1       5.500   9.653  -6.247  1.00  0.00     0.060 A 
BRANCH  57  58
ATOM     58  S   UNL     1       5.166   9.923  -8.001  1.00  0.00     0.124 S 
ATOM     59  O   UNL     1       5.730  11.251  -8.206  1.00  0.00    -0.237 OA
ATOM     60  O   UNL     1       5.888   8.818  -8.624  1.00  0.00    -0.237 OA
ATOM     61  O   UNL     1       3.711   9.834  -8.081  1.00  0.00    -0.744 OA
ENDBRANCH  57  58
ENDBRANCH  25  50
BRANCH  37  62
ATOM     62  C   UNL     1       9.545  12.212   1.630  1.00  0.00     0.058 A 
ATOM     63  C   UNL     1       8.895  13.455   1.670  1.00  0.00     0.135 A 
ATOM     64  C   UNL     1      10.947  12.201   1.703  1.00  0.00     0.135 A 
ATOM     65  F   UNL     1       7.556  13.521   1.593  1.00  0.00    -0.206 F 
ATOM     66  C   UNL     1       9.610  14.646   1.756  1.00  0.00     0.059 A 
ATOM     67  C   UNL     1      11.681  13.378   1.815  1.00  0.00     0.059 A 
ATOM     68  F   UNL     1      11.617  11.038   1.677  1.00  0.00    -0.206 F 
ATOM     69  C   UNL     1      11.003  14.596   1.828  1.00  0.00     0.060 A 
BRANCH  69  70
ATOM     70  S   UNL     1      11.920  16.145   1.969  1.00  0.00     0.124 S 
ATOM     71  O   UNL     1      11.839  16.659   0.605  1.00  0.00    -0.237 OA
ATOM     72  O   UNL     1      11.147  16.877   2.968  1.00  0.00    -0.237 OA
ATOM     73  O   UNL     1      13.246  15.716   2.402  1.00  0.00    -0.744 OA
ENDBRANCH  69  70
ENDBRANCH  37  62
ENDBRANCH  11  12
ENDBRANCH   4   6
ENDBRANCH   1   2
BRANCH   1  74
ATOM     74  C   UNL     1       4.740  -2.434   1.242  1.00  0.00     0.042 C 
BRANCH  74  75
ATOM     75  C   UNL     1       4.143  -3.806   0.938  1.00  0.00     0.117 C 
BRANCH  75  76
ATOM     76  N   UNL     1       4.756  -4.404  -0.236  1.00  0.00    -0.356 N 
ATOM     77  C   UNL     1       5.795  -5.278  -0.335  1.00  0.00     0.223 C 
ATOM     78  H   UNL     1       4.358  -4.133  -1.095  1.00  0.00     0.163 HD
ATOM     79  O   UNL     1       6.248  -5.510  -1.456  1.00  0.00    -0.275 OA
BRANCH  77  80
ATOM     80  C   UNL     1       6.293  -6.002   0.907  1.00  0.00     0.082 C 
ATOM     81  C   UNL     1       7.826  -6.062   0.956  1.00  0.00     0.035 C 
ATOM     82  C   UNL     1       5.639  -7.393   0.959  1.00  0.00     0.035 C 
ATOM     83  C   UNL     1       8.429  -7.127   0.046  1.00  0.00     0.117 C 
ATOM     84  C   UNL     1       6.296  -8.390  -0.001  1.00  0.00     0.117 C 
ATOM     85  N   UNL     1       7.728  -8.389   0.264  1.00  0.00    -0.370 N 
BRANCH  85  86
ATOM     86  C   UNL     1       8.442  -9.554   0.442  1.00  0.00     0.059 A 
ATOM     87  C   UNL     1       8.267 -10.668  -0.368  1.00  0.00     0.049 A 
ATOM     88  C   UNL     1       9.383  -9.693   1.458  1.00  0.00     0.161 A 
ATOM     89  C   UNL     1       9.022 -11.802  -0.121  1.00  0.00     0.138 A 
ATOM     90  N   UNL     1      10.099 -10.819   1.690  1.00  0.00    -0.157 NA
ATOM     91  N   UNL     1       9.916 -11.889   0.885  1.00  0.00    -0.159 NA
ENDBRANCH  85  86
ENDBRANCH  77  80
ENDBRANCH  75  76
ENDBRANCH  74  75
ENDBRANCH   1  74
TORSDOF 14
