REMARK SMILES Cc1c(CC(=O)NCCCNC(=O)c2ccc(-c3c4nc(c(-c5c(F)cc(S(=O)(=O)[O-])cc5F)c5ccc([nH]5)c(-c5c(F)cc(S(=O)(=O)[O-])cc5F)c5nc(c(-c6c(F)cc(S(=O)(=O)[O-])cc6F)c6ccc3[nH]6)C=C5)C=C4)cc2)cccc1-c1ccn(C(F)F)c(=O)c1
REMARK SMILES IDX 9 1 8 2 7 3 5 4 6 5 4 7 3 8 1 9 2 10 83 11 80 12 82 13 81 14
REMARK SMILES IDX 84 15 85 16 93 17 86 18 91 19 87 20 92 21 88 22 89 23 90 24
REMARK SMILES IDX 10 25 11 26 12 27 13 29 14 30 15 31 79 32 16 33 78 34 17 35
REMARK SMILES IDX 18 36 19 37 72 38 20 39 77 40 71 41 73 42 21 43 76 44 70 45
REMARK SMILES IDX 69 46 22 48 56 49 35 50 55 51 36 52 39 53 54 54 74 55 37 56
REMARK SMILES IDX 38 57 53 59 75 60 40 61 23 62 24 63 33 64 25 65 26 66 32 67
REMARK SMILES IDX 34 68 27 69 28 70 29 71 30 72 31 73 57 74 58 75 67 76 59 77
REMARK SMILES IDX 60 78 66 79 68 80 61 81 62 82 63 83 64 84 65 85 41 86 42 87
REMARK SMILES IDX 51 88 43 89 44 90 50 91 52 92 45 93 46 94 47 95 48 96 49 97
REMARK H PARENT 7 6 11 28 73 47 39 58
REMARK Flexibility Score: inf
ROOT
ATOM      1  C   UNL     1       1.418  -0.526   3.051  1.00  0.00     0.042 C 
ENDROOT
BRANCH   1   2
ATOM      2  C   UNL     1       2.063  -1.887   2.801  1.00  0.00     0.117 C 
BRANCH   2   3
ATOM      3  N   UNL     1       1.105  -2.919   2.432  1.00  0.00    -0.356 N 
ATOM      4  C   UNL     1       0.629  -3.266   1.199  1.00  0.00     0.224 C 
ATOM      5  O   UNL     1      -0.157  -4.213   1.110  1.00  0.00    -0.275 OA
ATOM      6  H   UNL     1       0.746  -3.445   3.183  1.00  0.00     0.163 HD
BRANCH   4   7
ATOM      7  C   UNL     1       1.063  -2.503  -0.050  1.00  0.00     0.135 C 
BRANCH   7   8
ATOM      8  C   UNL     1       0.388  -1.151  -0.197  1.00  0.00    -0.035 A 
ATOM      9  C   UNL     1       2.606   0.080  -0.430  1.00  0.00     0.045 C 
ATOM     10  C   UNL     1       1.101   0.073  -0.288  1.00  0.00    -0.040 A 
ATOM     11  C   UNL     1       0.373   1.294  -0.267  1.00  0.00    -0.015 A 
ATOM     12  C   UNL     1      -1.022  -1.128  -0.180  1.00  0.00     0.004 A 
ATOM     13  C   UNL     1      -1.031   1.276  -0.224  1.00  0.00     0.009 A 
ATOM     14  C   UNL     1      -1.724   0.071  -0.196  1.00  0.00     0.001 A 
BRANCH  11  15
ATOM     15  C   UNL     1       1.049   2.611  -0.213  1.00  0.00    -0.011 A 
ATOM     16  C   UNL     1       1.823   3.148  -1.315  1.00  0.00     0.027 A 
ATOM     17  C   UNL     1       1.000   3.292   0.947  1.00  0.00     0.080 A 
ATOM     18  C   UNL     1       2.565   4.248  -1.147  1.00  0.00     0.095 A 
ATOM     19  C   UNL     1       1.743   4.572   1.113  1.00  0.00     0.255 A 
ATOM     20  N   UNL     1       2.558   4.935   0.053  1.00  0.00    -0.258 N 
ATOM     21  O   UNL     1       1.605   5.210   2.151  1.00  0.00    -0.269 OA
BRANCH  20  22
ATOM     22  C   UNL     1       3.381   6.101   0.237  1.00  0.00     0.451 C 
ATOM     23  F   UNL     1       2.629   7.221   0.359  1.00  0.00    -0.185 F 
ATOM     24  F   UNL     1       4.161   5.992   1.340  1.00  0.00    -0.185 F 
ENDBRANCH  20  22
ENDBRANCH  11  15
ENDBRANCH   7   8
ENDBRANCH   4   7
ENDBRANCH   2   3
ENDBRANCH   1   2
BRANCH   1  25
ATOM     25  C   UNL     1       0.844  -0.384   4.454  1.00  0.00     0.118 C 
BRANCH  25  26
ATOM     26  N   UNL     1       1.385   0.761   5.176  1.00  0.00    -0.352 N 
ATOM     27  C   UNL     1       0.982   1.251   6.406  1.00  0.00     0.251 C 
ATOM     28  H   UNL     1       2.123   1.243   4.737  1.00  0.00     0.163 HD
ATOM     29  O   UNL     1       1.391   2.305   6.856  1.00  0.00    -0.269 OA
BRANCH  27  30
ATOM     30  C   UNL     1       0.117   0.370   7.215  1.00  0.00     0.039 A 
ATOM     31  C   UNL     1       0.696  -0.236   8.335  1.00  0.00     0.014 A 
ATOM     32  C   UNL     1      -1.108  -0.058   6.710  1.00  0.00     0.014 A 
ATOM     33  C   UNL     1       0.121  -1.391   8.858  1.00  0.00     0.010 A 
ATOM     34  C   UNL     1      -1.627  -1.250   7.177  1.00  0.00     0.010 A 
ATOM     35  C   UNL     1      -0.993  -1.940   8.223  1.00  0.00    -0.014 A 
BRANCH  35  36
ATOM     36  C   UNL     1      -1.505  -3.277   8.512  1.00  0.00     0.031 A 
ATOM     37  C   UNL     1      -2.815  -3.454   9.186  1.00  0.00     0.074 A 
ATOM     38  C   UNL     1      -0.827  -4.370   8.098  1.00  0.00     0.049 A 
ATOM     39  N   UNL     1      -3.179  -4.531   9.802  1.00  0.00    -0.248 NA
ATOM     40  C   UNL     1      -3.817  -2.396   9.251  1.00  0.00     0.031 C 
ATOM     41  C   UNL     1      -1.350  -5.727   7.975  1.00  0.00     0.029 A 
ATOM     42  N   UNL     1       0.537  -4.512   7.868  1.00  0.00    -0.354 N 
ATOM     43  C   UNL     1      -4.520  -4.420  10.091  1.00  0.00     0.074 A 
ATOM     44  C   UNL     1      -4.858  -3.052   9.772  1.00  0.00     0.031 C 
ATOM     45  C   UNL     1      -0.324  -6.590   7.917  1.00  0.00     0.029 A 
ATOM     46  C   UNL     1       0.895  -5.838   8.154  1.00  0.00     0.049 A 
ATOM     47  H   UNL     1       1.147  -3.804   7.558  1.00  0.00     0.167 HD
ATOM     48  C   UNL     1      -5.235  -5.529  10.443  1.00  0.00     0.037 A 
ATOM     49  C   UNL     1       1.809  -6.141   9.123  1.00  0.00     0.037 A 
ATOM     50  C   UNL     1      -4.385  -6.714  10.518  1.00  0.00     0.049 A 
ATOM     51  C   UNL     1       1.256  -6.958  10.269  1.00  0.00     0.074 A 
ATOM     52  C   UNL     1      -4.114  -7.728   9.613  1.00  0.00     0.029 A 
ATOM     53  N   UNL     1      -3.436  -6.824  11.527  1.00  0.00    -0.354 N 
ATOM     54  N   UNL     1      -0.017  -7.143  10.484  1.00  0.00    -0.248 NA
ATOM     55  C   UNL     1       2.086  -7.612  11.280  1.00  0.00     0.031 C 
ATOM     56  C   UNL     1      -2.962  -8.420  10.056  1.00  0.00     0.029 A 
ATOM     57  C   UNL     1      -2.540  -7.837  11.238  1.00  0.00     0.049 A 
ATOM     58  H   UNL     1      -3.405  -6.261  12.334  1.00  0.00     0.167 HD
ATOM     59  C   UNL     1      -0.192  -7.864  11.637  1.00  0.00     0.074 A 
ATOM     60  C   UNL     1       1.156  -8.165  12.079  1.00  0.00     0.031 C 
ATOM     61  C   UNL     1      -1.435  -8.136  12.136  1.00  0.00     0.037 A 
BRANCH  48  62
ATOM     62  C   UNL     1      -6.749  -5.577  10.406  1.00  0.00     0.058 A 
ATOM     63  C   UNL     1      -7.431  -6.741   9.987  1.00  0.00     0.135 A 
ATOM     64  C   UNL     1      -7.584  -4.484  10.710  1.00  0.00     0.135 A 
ATOM     65  F   UNL     1      -6.786  -7.894   9.767  1.00  0.00    -0.206 F 
ATOM     66  C   UNL     1      -8.807  -6.775   9.755  1.00  0.00     0.059 A 
ATOM     67  C   UNL     1      -8.956  -4.474  10.433  1.00  0.00     0.059 A 
ATOM     68  F   UNL     1      -7.098  -3.393  11.320  1.00  0.00    -0.206 F 
ATOM     69  C   UNL     1      -9.557  -5.623   9.937  1.00  0.00     0.060 A 
BRANCH  69  70
ATOM     70  S   UNL     1     -11.307  -5.652   9.503  1.00  0.00     0.124 S 
ATOM     71  O   UNL     1     -11.283  -6.204   8.152  1.00  0.00    -0.237 OA
ATOM     72  O   UNL     1     -11.862  -6.521  10.534  1.00  0.00    -0.237 OA
ATOM     73  O   UNL     1     -11.700  -4.248   9.587  1.00  0.00    -0.744 OA
ENDBRANCH  69  70
ENDBRANCH  48  62
BRANCH  49  74
ATOM     74  C   UNL     1       2.912  -5.148   9.219  1.00  0.00     0.058 A 
ATOM     75  C   UNL     1       3.827  -5.104   8.151  1.00  0.00     0.135 A 
ATOM     76  C   UNL     1       2.794  -4.008  10.026  1.00  0.00     0.135 A 
ATOM     77  F   UNL     1       3.994  -6.179   7.364  1.00  0.00    -0.206 F 
ATOM     78  C   UNL     1       4.456  -3.922   7.781  1.00  0.00     0.059 A 
ATOM     79  C   UNL     1       3.421  -2.811   9.676  1.00  0.00     0.059 A 
ATOM     80  F   UNL     1       1.944  -3.999  11.064  1.00  0.00    -0.206 F 
ATOM     81  C   UNL     1       4.182  -2.764   8.506  1.00  0.00     0.060 A 
BRANCH  81  82
ATOM     82  S   UNL     1       4.667  -1.185   7.771  1.00  0.00     0.124 S 
ATOM     83  O   UNL     1       6.103  -1.362   7.585  1.00  0.00    -0.237 OA
ATOM     84  O   UNL     1       3.871  -1.179   6.544  1.00  0.00    -0.237 OA
ATOM     85  O   UNL     1       4.275  -0.211   8.783  1.00  0.00    -0.744 OA
ENDBRANCH  81  82
ENDBRANCH  49  74
BRANCH  61  86
ATOM     86  C   UNL     1      -1.736  -8.778  13.468  1.00  0.00     0.058 A 
ATOM     87  C   UNL     1      -0.953  -8.602  14.620  1.00  0.00     0.135 A 
ATOM     88  C   UNL     1      -2.943  -9.497  13.653  1.00  0.00     0.135 A 
ATOM     89  F   UNL     1       0.161  -7.855  14.596  1.00  0.00    -0.206 F 
ATOM     90  C   UNL     1      -1.306  -9.149  15.856  1.00  0.00     0.059 A 
ATOM     91  C   UNL     1      -3.341 -10.006  14.886  1.00  0.00     0.059 A 
ATOM     92  F   UNL     1      -3.785  -9.721  12.632  1.00  0.00    -0.206 F 
ATOM     93  C   UNL     1      -2.503  -9.848  15.981  1.00  0.00     0.060 A 
BRANCH  93  94
ATOM     94  S   UNL     1      -3.011 -10.502  17.582  1.00  0.00     0.124 S 
ATOM     95  O   UNL     1      -2.551 -11.884  17.492  1.00  0.00    -0.237 OA
ATOM     96  O   UNL     1      -2.285  -9.659  18.528  1.00  0.00    -0.237 OA
ATOM     97  O   UNL     1      -4.458 -10.313  17.570  1.00  0.00    -0.744 OA
ENDBRANCH  93  94
ENDBRANCH  61  86
ENDBRANCH  35  36
ENDBRANCH  27  30
ENDBRANCH  25  26
ENDBRANCH   1  25
TORSDOF 16
