REMARK SMILES O=C(NCCCNC(=O)[C@@H]1CC[C@H](CNC(=O)C2CCOCC2)O1)c1ccc(-c2c3nc(c(-c4c(F)cc(S(=O)(=O)[O-])cc4F)c4ccc([nH]4)c(-c4c(F)cc(S(=O)(=O)[O-])cc4F)c4nc(c(-c5c(F)cc(S(=O)(=O)[O-])cc5F)c5ccc2[nH]5)C=C4)C=C3)cc1
REMARK SMILES IDX 5 1 4 2 3 3 1 4 2 5 25 7 26 8 90 9 27 10 89 11 28 12 29 13
REMARK SMILES IDX 30 14 83 15 31 16 88 17 82 18 84 19 32 20 87 21 81 22 80 23
REMARK SMILES IDX 33 25 67 26 46 27 66 28 47 29 50 30 65 31 85 32 48 33 49 34
REMARK SMILES IDX 64 36 86 37 51 38 34 39 35 40 44 41 36 42 37 43 43 44 45 45
REMARK SMILES IDX 38 46 39 47 40 48 41 49 42 50 68 51 69 52 78 53 70 54 71 55
REMARK SMILES IDX 77 56 79 57 72 58 73 59 74 60 75 61 76 62 52 63 53 64 62 65
REMARK SMILES IDX 54 66 55 67 61 68 63 69 56 70 57 71 58 72 59 73 60 74 6 75
REMARK SMILES IDX 7 76 8 77 9 79 10 80 11 81 24 82 12 83 13 84 14 85 15 86
REMARK SMILES IDX 16 87 17 89 18 90 19 91 23 92 20 93 22 94 21 95
REMARK H PARENT 3 6 84 24 50 35 7 78 15 88
REMARK Flexibility Score: inf
ROOT
ATOM      1  C   UNL     1       4.688   0.885  -2.436  1.00  0.00     0.042 C 
ENDROOT
BRANCH   1   2
ATOM      2  C   UNL     1       4.471   1.106  -0.950  1.00  0.00     0.118 C 
BRANCH   2   3
ATOM      3  N   UNL     1       3.062   0.975  -0.583  1.00  0.00    -0.352 N 
ATOM      4  O   UNL     1       1.209  -0.011   0.220  1.00  0.00    -0.269 OA
ATOM      5  C   UNL     1       2.437   0.062   0.232  1.00  0.00     0.251 C 
ATOM      6  H   UNL     1       2.467   1.649  -0.983  1.00  0.00     0.163 HD
BRANCH   5   7
ATOM      7  C   UNL     1       3.228  -0.831   1.106  1.00  0.00     0.039 A 
ATOM      8  C   UNL     1       4.393  -0.367   1.714  1.00  0.00     0.014 A 
ATOM      9  C   UNL     1       2.791  -2.138   1.351  1.00  0.00     0.014 A 
ATOM     10  C   UNL     1       5.208  -1.246   2.408  1.00  0.00     0.010 A 
ATOM     11  C   UNL     1       3.550  -2.988   2.164  1.00  0.00     0.010 A 
ATOM     12  C   UNL     1       4.781  -2.557   2.677  1.00  0.00    -0.014 A 
BRANCH  12  13
ATOM     13  C   UNL     1       5.620  -3.388   3.578  1.00  0.00     0.031 A 
ATOM     14  C   UNL     1       6.271  -4.656   3.106  1.00  0.00     0.074 A 
ATOM     15  C   UNL     1       5.860  -2.918   4.820  1.00  0.00     0.049 A 
ATOM     16  N   UNL     1       7.108  -5.433   3.745  1.00  0.00    -0.248 NA
ATOM     17  C   UNL     1       5.937  -5.124   1.751  1.00  0.00     0.031 C 
ATOM     18  C   UNL     1       5.253  -1.710   5.392  1.00  0.00     0.029 A 
ATOM     19  N   UNL     1       6.703  -3.357   5.806  1.00  0.00    -0.354 N 
ATOM     20  C   UNL     1       7.396  -6.482   2.881  1.00  0.00     0.074 A 
ATOM     21  C   UNL     1       6.619  -6.261   1.680  1.00  0.00     0.031 C 
ATOM     22  C   UNL     1       5.802  -1.462   6.588  1.00  0.00     0.029 A 
ATOM     23  C   UNL     1       6.740  -2.530   6.904  1.00  0.00     0.049 A 
ATOM     24  H   UNL     1       7.231  -4.185   5.736  1.00  0.00     0.167 HD
ATOM     25  C   UNL     1       8.238  -7.527   3.073  1.00  0.00     0.037 A 
ATOM     26  C   UNL     1       7.442  -2.623   8.049  1.00  0.00     0.037 A 
ATOM     27  C   UNL     1       9.012  -7.729   4.273  1.00  0.00     0.049 A 
ATOM     28  C   UNL     1       8.377  -3.781   8.225  1.00  0.00     0.074 A 
ATOM     29  C   UNL     1       9.894  -8.755   4.568  1.00  0.00     0.029 A 
ATOM     30  N   UNL     1       9.005  -6.885   5.375  1.00  0.00    -0.354 N 
ATOM     31  N   UNL     1       8.636  -4.761   7.392  1.00  0.00    -0.248 NA
ATOM     32  C   UNL     1       9.110  -3.853   9.494  1.00  0.00     0.031 C 
ATOM     33  C   UNL     1      10.393  -8.550   5.859  1.00  0.00     0.029 A 
ATOM     34  C   UNL     1       9.858  -7.371   6.354  1.00  0.00     0.049 A 
ATOM     35  H   UNL     1       8.472  -6.060   5.451  1.00  0.00     0.167 HD
ATOM     36  C   UNL     1       9.560  -5.571   8.038  1.00  0.00     0.074 A 
ATOM     37  C   UNL     1       9.844  -4.942   9.314  1.00  0.00     0.031 C 
ATOM     38  C   UNL     1      10.114  -6.736   7.622  1.00  0.00     0.037 A 
BRANCH  25  39
ATOM     39  C   UNL     1       8.365  -8.540   1.968  1.00  0.00     0.058 A 
ATOM     40  C   UNL     1       9.051  -8.249   0.778  1.00  0.00     0.135 A 
ATOM     41  C   UNL     1       7.847  -9.836   2.122  1.00  0.00     0.135 A 
ATOM     42  F   UNL     1       9.552  -7.021   0.570  1.00  0.00    -0.206 F 
ATOM     43  C   UNL     1       9.208  -9.202  -0.225  1.00  0.00     0.059 A 
ATOM     44  C   UNL     1       8.012 -10.812   1.144  1.00  0.00     0.059 A 
ATOM     45  F   UNL     1       7.179 -10.168   3.239  1.00  0.00    -0.206 F 
ATOM     46  C   UNL     1       8.687 -10.483  -0.031  1.00  0.00     0.060 A 
BRANCH  46  47
ATOM     47  S   UNL     1       8.921 -11.719  -1.327  1.00  0.00     0.124 S 
ATOM     48  O   UNL     1       7.986 -11.253  -2.346  1.00  0.00    -0.237 OA
ATOM     49  O   UNL     1      10.337 -11.571  -1.649  1.00  0.00    -0.237 OA
ATOM     50  O   UNL     1       8.559 -12.972  -0.672  1.00  0.00    -0.744 OA
ENDBRANCH  46  47
ENDBRANCH  25  39
BRANCH  26  51
ATOM     51  C   UNL     1       7.257  -1.603   9.114  1.00  0.00     0.058 A 
ATOM     52  C   UNL     1       8.278  -0.704   9.454  1.00  0.00     0.135 A 
ATOM     53  C   UNL     1       6.036  -1.496   9.800  1.00  0.00     0.135 A 
ATOM     54  F   UNL     1       9.463  -0.765   8.827  1.00  0.00    -0.206 F 
ATOM     55  C   UNL     1       8.103   0.253  10.449  1.00  0.00     0.059 A 
ATOM     56  C   UNL     1       5.826  -0.528  10.775  1.00  0.00     0.059 A 
ATOM     57  F   UNL     1       5.019  -2.318   9.496  1.00  0.00    -0.206 F 
ATOM     58  C   UNL     1       6.872   0.333  11.103  1.00  0.00     0.060 A 
BRANCH  58  59
ATOM     59  S   UNL     1       6.633   1.602  12.365  1.00  0.00     0.124 S 
ATOM     60  O   UNL     1       7.344   1.023  13.498  1.00  0.00    -0.237 OA
ATOM     61  O   UNL     1       7.253   2.771  11.749  1.00  0.00    -0.237 OA
ATOM     62  O   UNL     1       5.181   1.671  12.497  1.00  0.00    -0.744 OA
ENDBRANCH  58  59
ENDBRANCH  26  51
BRANCH  38  63
ATOM     63  C   UNL     1      11.083  -7.393   8.563  1.00  0.00     0.058 A 
ATOM     64  C   UNL     1      10.648  -8.022   9.741  1.00  0.00     0.135 A 
ATOM     65  C   UNL     1      12.459  -7.393   8.287  1.00  0.00     0.135 A 
ATOM     66  F   UNL     1       9.342  -8.042  10.053  1.00  0.00    -0.206 F 
ATOM     67  C   UNL     1      11.548  -8.591  10.634  1.00  0.00     0.059 A 
ATOM     68  C   UNL     1      13.375  -7.981   9.153  1.00  0.00     0.059 A 
ATOM     69  F   UNL     1      12.924  -6.813   7.169  1.00  0.00    -0.206 F 
ATOM     70  C   UNL     1      12.911  -8.559  10.334  1.00  0.00     0.060 A 
BRANCH  70  71
ATOM     71  S   UNL     1      14.072  -9.295  11.503  1.00  0.00     0.124 S 
ATOM     72  O   UNL     1      14.118  -8.279  12.549  1.00  0.00    -0.237 OA
ATOM     73  O   UNL     1      13.408 -10.545  11.862  1.00  0.00    -0.237 OA
ATOM     74  O   UNL     1      15.294  -9.445  10.718  1.00  0.00    -0.744 OA
ENDBRANCH  70  71
ENDBRANCH  38  63
ENDBRANCH  12  13
ENDBRANCH   5   7
ENDBRANCH   2   3
ENDBRANCH   1   2
BRANCH   1  75
ATOM     75  C   UNL     1       4.135   2.019  -3.285  1.00  0.00     0.117 C 
BRANCH  75  76
ATOM     76  N   UNL     1       5.033   3.151  -3.367  1.00  0.00    -0.354 N 
ATOM     77  C   UNL     1       5.974   3.432  -4.317  1.00  0.00     0.249 C 
ATOM     78  H   UNL     1       4.955   3.809  -2.639  1.00  0.00     0.163 HD
ATOM     79  O   UNL     1       6.590   4.497  -4.224  1.00  0.00    -0.272 OA
BRANCH  77  80
ATOM     80  C   UNL     1       6.212   2.480  -5.505  1.00  0.00     0.207 C 
ATOM     81  C   UNL     1       5.136   2.578  -6.571  1.00  0.00     0.045 C 
ATOM     82  O   UNL     1       6.307   1.095  -5.162  1.00  0.00    -0.363 OA
ATOM     83  C   UNL     1       5.295   1.270  -7.311  1.00  0.00     0.037 C 
ATOM     84  C   UNL     1       5.785   0.298  -6.244  1.00  0.00     0.138 C 
BRANCH  84  85
ATOM     85  C   UNL     1       4.689  -0.625  -5.684  1.00  0.00     0.147 C 
BRANCH  85  86
ATOM     86  N   UNL     1       4.450  -1.794  -6.502  1.00  0.00    -0.353 N 
ATOM     87  C   UNL     1       4.686  -3.110  -6.233  1.00  0.00     0.223 C 
ATOM     88  H   UNL     1       4.057  -1.613  -7.386  1.00  0.00     0.163 HD
ATOM     89  O   UNL     1       4.254  -3.921  -7.054  1.00  0.00    -0.275 OA
BRANCH  87  90
ATOM     90  C   UNL     1       5.415  -3.534  -4.953  1.00  0.00     0.083 C 
ATOM     91  C   UNL     1       6.857  -3.013  -4.909  1.00  0.00     0.042 C 
ATOM     92  C   UNL     1       5.417  -5.072  -4.845  1.00  0.00     0.042 C 
ATOM     93  C   UNL     1       7.632  -3.623  -3.749  1.00  0.00     0.161 C 
ATOM     94  C   UNL     1       6.304  -5.573  -3.715  1.00  0.00     0.161 C 
ATOM     95  O   UNL     1       7.619  -5.040  -3.841  1.00  0.00    -0.381 OA
ENDBRANCH  87  90
ENDBRANCH  85  86
ENDBRANCH  84  85
ENDBRANCH  77  80
ENDBRANCH  75  76
ENDBRANCH   1  75
TORSDOF 16
