REMARK SMILES O=C(NCCCNC(=O)[C@]1([NH2+]C2CC2)CCC[C@H](SC[C@H](O)CO)C1)c1ccc(-c2c3nc(c(-c4c(F)cc(S(=O)(=O)[O-])cc4F)c4ccc([nH]4)c(-c4c(F)cc(S(=O)(=O)[O-])cc4F)c4nc(c(-c5c(F)cc(S(=O)(=O)[O-])cc5F)c5ccc2[nH]5)C=C4)C=C3)cc1
REMARK SMILES IDX 6 1 5 2 4 3 3 4 1 5 2 6 26 8 27 9 91 10 28 11 90 12 29 13
REMARK SMILES IDX 30 14 31 15 84 16 32 17 89 18 83 19 85 20 33 21 88 22 82 23
REMARK SMILES IDX 81 24 34 26 68 27 47 28 67 29 48 30 51 31 66 32 86 33 49 34
REMARK SMILES IDX 50 35 65 37 87 38 52 39 35 40 36 41 45 42 37 43 38 44 44 45
REMARK SMILES IDX 46 46 39 47 40 48 41 49 42 50 43 51 69 52 70 53 79 54 71 55
REMARK SMILES IDX 72 56 78 57 80 58 73 59 74 60 75 61 76 62 77 63 53 64 54 65
REMARK SMILES IDX 63 66 55 67 56 68 62 69 64 70 57 71 58 72 59 73 60 74 61 75
REMARK SMILES IDX 7 76 8 77 9 79 10 80 15 81 25 82 16 83 18 84 17 85 11 86
REMARK SMILES IDX 12 89 13 90 14 91 19 92 20 93 21 94 23 95 24 96 22 98
REMARK H PARENT 3 7 85 25 51 36 7 78 11 87 11 88 24 97 22 99
REMARK Flexibility Score: inf
ROOT
ATOM      1  C   UNL     1       4.153  -9.684   5.009  1.00  0.00     0.118 C 
ENDROOT
BRANCH   1   2
ATOM      2  C   UNL     1       4.075  -8.372   4.263  1.00  0.00     0.042 C 
BRANCH   2   3
ATOM      3  C   UNL     1       3.275  -7.303   4.984  1.00  0.00     0.118 C 
BRANCH   3   4
ATOM      4  N   UNL     1       3.845  -6.905   6.271  1.00  0.00    -0.352 N 
ATOM      5  O   UNL     1       5.024  -5.797   7.820  1.00  0.00    -0.269 OA
ATOM      6  C   UNL     1       4.564  -5.803   6.684  1.00  0.00     0.251 C 
ATOM      7  H   UNL     1       3.681  -7.557   6.990  1.00  0.00     0.163 HD
BRANCH   6   8
ATOM      8  C   UNL     1       4.822  -4.652   5.785  1.00  0.00     0.039 A 
ATOM      9  C   UNL     1       3.901  -4.257   4.823  1.00  0.00     0.014 A 
ATOM     10  C   UNL     1       6.008  -3.918   5.929  1.00  0.00     0.014 A 
ATOM     11  C   UNL     1       4.253  -3.318   3.863  1.00  0.00     0.010 A 
ATOM     12  C   UNL     1       6.295  -2.860   5.055  1.00  0.00     0.010 A 
ATOM     13  C   UNL     1       5.442  -2.584   3.978  1.00  0.00    -0.014 A 
BRANCH  13  14
ATOM     14  C   UNL     1       5.721  -1.514   2.982  1.00  0.00     0.031 A 
ATOM     15  C   UNL     1       6.954  -1.553   2.119  1.00  0.00     0.074 A 
ATOM     16  C   UNL     1       4.811  -0.532   2.815  1.00  0.00     0.049 A 
ATOM     17  N   UNL     1       7.332  -0.713   1.188  1.00  0.00    -0.248 NA
ATOM     18  C   UNL     1       7.891  -2.668   2.330  1.00  0.00     0.031 C 
ATOM     19  C   UNL     1       3.581  -0.382   3.600  1.00  0.00     0.029 A 
ATOM     20  N   UNL     1       4.750   0.500   1.914  1.00  0.00    -0.354 N 
ATOM     21  C   UNL     1       8.561  -1.174   0.730  1.00  0.00     0.074 A 
ATOM     22  C   UNL     1       8.875  -2.361   1.496  1.00  0.00     0.031 C 
ATOM     23  C   UNL     1       2.854   0.625   3.098  1.00  0.00     0.029 A 
ATOM     24  C   UNL     1       3.602   1.250   2.015  1.00  0.00     0.049 A 
ATOM     25  H   UNL     1       5.461   0.686   1.259  1.00  0.00     0.167 HD
ATOM     26  C   UNL     1       9.350  -0.657  -0.244  1.00  0.00     0.037 A 
ATOM     27  C   UNL     1       3.198   2.336   1.330  1.00  0.00     0.037 A 
ATOM     28  C   UNL     1       9.011   0.506  -1.024  1.00  0.00     0.049 A 
ATOM     29  C   UNL     1       4.087   2.885   0.255  1.00  0.00     0.074 A 
ATOM     30  C   UNL     1       9.731   1.094  -2.050  1.00  0.00     0.029 A 
ATOM     31  N   UNL     1       7.853   1.255  -0.870  1.00  0.00    -0.354 N 
ATOM     32  N   UNL     1       5.246   2.434  -0.160  1.00  0.00    -0.248 NA
ATOM     33  C   UNL     1       3.623   4.095  -0.435  1.00  0.00     0.031 C 
ATOM     34  C   UNL     1       9.025   2.219  -2.491  1.00  0.00     0.029 A 
ATOM     35  C   UNL     1       7.845   2.308  -1.770  1.00  0.00     0.049 A 
ATOM     36  H   UNL     1       7.141   1.066  -0.216  1.00  0.00     0.167 HD
ATOM     37  C   UNL     1       5.651   3.303  -1.165  1.00  0.00     0.074 A 
ATOM     38  C   UNL     1       4.602   4.293  -1.309  1.00  0.00     0.031 C 
ATOM     39  C   UNL     1       6.792   3.285  -1.897  1.00  0.00     0.037 A 
BRANCH  26  40
ATOM     40  C   UNL     1      10.671  -1.331  -0.503  1.00  0.00     0.058 A 
ATOM     41  C   UNL     1      10.757  -2.577  -1.143  1.00  0.00     0.135 A 
ATOM     42  C   UNL     1      11.871  -0.705  -0.127  1.00  0.00     0.135 A 
ATOM     43  F   UNL     1       9.641  -3.227  -1.511  1.00  0.00    -0.206 F 
ATOM     44  C   UNL     1      11.984  -3.193  -1.373  1.00  0.00     0.059 A 
ATOM     45  C   UNL     1      13.110  -1.292  -0.369  1.00  0.00     0.059 A 
ATOM     46  F   UNL     1      11.848   0.489   0.487  1.00  0.00    -0.206 F 
ATOM     47  C   UNL     1      13.155  -2.545  -0.977  1.00  0.00     0.060 A 
BRANCH  47  48
ATOM     48  S   UNL     1      14.739  -3.363  -1.268  1.00  0.00     0.124 S 
ATOM     49  O   UNL     1      14.729  -4.389  -0.229  1.00  0.00    -0.237 OA
ATOM     50  O   UNL     1      14.595  -3.849  -2.636  1.00  0.00    -0.237 OA
ATOM     51  O   UNL     1      15.713  -2.293  -1.084  1.00  0.00    -0.744 OA
ENDBRANCH  47  48
ENDBRANCH  26  40
BRANCH  27  52
ATOM     52  C   UNL     1       1.897   2.971   1.667  1.00  0.00     0.058 A 
ATOM     53  C   UNL     1       0.801   2.883   0.798  1.00  0.00     0.135 A 
ATOM     54  C   UNL     1       1.710   3.627   2.894  1.00  0.00     0.135 A 
ATOM     55  F   UNL     1       0.932   2.271  -0.389  1.00  0.00    -0.206 F 
ATOM     56  C   UNL     1      -0.438   3.421   1.134  1.00  0.00     0.059 A 
ATOM     57  C   UNL     1       0.475   4.148   3.264  1.00  0.00     0.059 A 
ATOM     58  F   UNL     1       2.724   3.720   3.768  1.00  0.00    -0.206 F 
ATOM     59  C   UNL     1      -0.592   4.045   2.374  1.00  0.00     0.060 A 
BRANCH  59  60
ATOM     60  S   UNL     1      -2.222   4.669   2.839  1.00  0.00     0.124 S 
ATOM     61  O   UNL     1      -2.301   5.894   2.052  1.00  0.00    -0.237 OA
ATOM     62  O   UNL     1      -3.100   3.581   2.418  1.00  0.00    -0.237 OA
ATOM     63  O   UNL     1      -2.111   4.850   4.283  1.00  0.00    -0.744 OA
ENDBRANCH  59  60
ENDBRANCH  27  52
BRANCH  39  64
ATOM     64  C   UNL     1       6.952   4.359  -2.933  1.00  0.00     0.058 A 
ATOM     65  C   UNL     1       7.269   5.679  -2.579  1.00  0.00     0.135 A 
ATOM     66  C   UNL     1       6.825   4.054  -4.297  1.00  0.00     0.135 A 
ATOM     67  F   UNL     1       7.391   6.021  -1.286  1.00  0.00    -0.206 F 
ATOM     68  C   UNL     1       7.434   6.667  -3.543  1.00  0.00     0.059 A 
ATOM     69  C   UNL     1       7.009   5.021  -5.279  1.00  0.00     0.059 A 
ATOM     70  F   UNL     1       6.530   2.803  -4.686  1.00  0.00    -0.206 F 
ATOM     71  C   UNL     1       7.302   6.329  -4.891  1.00  0.00     0.060 A 
BRANCH  71  72
ATOM     72  S   UNL     1       7.550   7.612  -6.136  1.00  0.00     0.124 S 
ATOM     73  O   UNL     1       6.298   8.356  -6.042  1.00  0.00    -0.237 OA
ATOM     74  O   UNL     1       8.737   8.303  -5.643  1.00  0.00    -0.237 OA
ATOM     75  O   UNL     1       7.740   6.855  -7.369  1.00  0.00    -0.744 OA
ENDBRANCH  71  72
ENDBRANCH  39  64
ENDBRANCH  13  14
ENDBRANCH   6   8
ENDBRANCH   3   4
ENDBRANCH   2   3
ENDBRANCH   1   2
BRANCH   1  76
ATOM     76  N   UNL     1       2.972 -10.496   5.032  1.00  0.00    -0.351 N 
ATOM     77  C   UNL     1       2.920 -11.822   5.364  1.00  0.00     0.281 C 
ATOM     78  H   UNL     1       2.124 -10.061   4.787  1.00  0.00     0.163 HD
ATOM     79  O   UNL     1       1.911 -12.147   6.012  1.00  0.00    -0.268 OA
BRANCH  77  80
ATOM     80  C   UNL     1       3.914 -12.932   4.806  1.00  0.00     0.176 C 
ATOM     81  C   UNL     1       3.744 -14.216   5.670  1.00  0.00     0.079 C 
ATOM     82  C   UNL     1       5.448 -12.674   4.677  1.00  0.00     0.093 C 
ATOM     83  C   UNL     1       4.473 -14.109   7.009  1.00  0.00     0.008 C 
ATOM     84  C   UNL     1       6.328 -12.721   5.946  1.00  0.00     0.053 C 
ATOM     85  C   UNL     1       5.974 -13.949   6.796  1.00  0.00     0.015 C 
BRANCH  80  86
ATOM     86  N   UNL     1       3.464 -13.225   3.393  1.00  0.00    -0.331 N 
ATOM     87  H   UNL     1       4.038 -13.989   3.036  1.00  0.00     0.347 HD
ATOM     88  H   UNL     1       3.569 -12.346   2.887  1.00  0.00     0.347 HD
BRANCH  86  89
ATOM     89  C   UNL     1       2.052 -13.608   3.224  1.00  0.00     0.183 C 
ATOM     90  C   UNL     1       1.071 -12.613   2.675  1.00  0.00     0.071 C 
ATOM     91  C   UNL     1       1.525 -13.759   1.821  1.00  0.00     0.071 C 
ENDBRANCH  86  89
ENDBRANCH  80  86
BRANCH  84  92
ATOM     92  S   UNL     1       6.369 -11.253   7.049  1.00  0.00    -0.156 SA
BRANCH  92  93
ATOM     93  C   UNL     1       7.191  -9.989   6.003  1.00  0.00     0.104 C 
BRANCH  93  94
ATOM     94  C   UNL     1       8.685  -9.756   6.220  1.00  0.00     0.149 C 
BRANCH  94  95
ATOM     95  C   UNL     1       9.542 -10.914   5.715  1.00  0.00     0.188 C 
BRANCH  95  96
ATOM     96  O   UNL     1      10.915 -10.528   5.690  1.00  0.00    -0.394 OA
ATOM     97  H   UNL     1      11.027  -9.769   5.097  1.00  0.00     0.210 HD
ENDBRANCH  95  96
ENDBRANCH  94  95
BRANCH  94  98
ATOM     98  O   UNL     1       9.041  -8.582   5.465  1.00  0.00    -0.390 OA
ATOM     99  H   UNL     1       8.857  -8.734   4.525  1.00  0.00     0.211 HD
ENDBRANCH  94  98
ENDBRANCH  93  94
ENDBRANCH  92  93
ENDBRANCH  84  92
ENDBRANCH  77  80
ENDBRANCH   1  76
TORSDOF 21
