REMARK SMILES C[C@H]1[C@H](C(=O)NCCCNC(=O)c2ccc(-c3c4nc(c(-c5c(F)cc(S(=O)(=O)[O-])cc5F)c5ccc([nH]5)c(-c5c(F)cc(S(=O)(=O)[O-])cc5F)c5nc(c(-c6c(F)cc(S(=O)(=O)[O-])cc6F)c6ccc3[nH]6)C=C5)C=C4)cc2)CC[N@H+]1[C@@H]1CCCC1(C)C
REMARK SMILES IDX 9 1 8 2 7 3 6 4 4 5 5 6 3 8 1 9 2 10 81 11 79 12 80 13 82 15
REMARK SMILES IDX 83 16 86 17 84 18 85 19 87 20 88 21 10 22 11 23 12 25 13 26
REMARK SMILES IDX 14 27 78 28 15 29 77 30 16 31 17 32 18 33 71 34 19 35 76 36
REMARK SMILES IDX 70 37 72 38 20 39 75 40 69 41 68 42 21 44 55 45 34 46 54 47
REMARK SMILES IDX 35 48 38 49 53 50 73 51 36 52 37 53 52 55 74 56 39 57 22 58
REMARK SMILES IDX 23 59 32 60 24 61 25 62 31 63 33 64 26 65 27 66 28 67 29 68
REMARK SMILES IDX 30 69 56 70 57 71 66 72 58 73 59 74 65 75 67 76 60 77 61 78
REMARK SMILES IDX 62 79 63 80 64 81 40 82 41 83 50 84 42 85 43 86 49 87 51 88
REMARK SMILES IDX 44 89 45 90 46 91 47 92 48 93
REMARK H PARENT 6 7 81 14 10 24 72 43 38 54
REMARK Flexibility Score: inf
ROOT
ATOM      1  C   UNL     1      -4.066  -4.218  -2.950  1.00  0.00     0.118 C 
ENDROOT
BRANCH   1   2
ATOM      2  C   UNL     1      -3.453  -3.635  -1.685  1.00  0.00     0.042 C 
BRANCH   2   3
ATOM      3  C   UNL     1      -3.356  -4.628  -0.536  1.00  0.00     0.117 C 
BRANCH   3   4
ATOM      4  N   UNL     1      -2.459  -5.734  -0.835  1.00  0.00    -0.356 N 
ATOM      5  C   UNL     1      -1.259  -6.075  -0.295  1.00  0.00     0.229 C 
ATOM      6  O   UNL     1      -0.688  -7.069  -0.753  1.00  0.00    -0.275 OA
ATOM      7  H   UNL     1      -2.775  -6.337  -1.546  1.00  0.00     0.163 HD
BRANCH   5   8
ATOM      8  C   UNL     1      -0.632  -5.293   0.845  1.00  0.00     0.142 C 
ATOM      9  C   UNL     1       1.186  -3.719   0.142  1.00  0.00     0.076 C 
ATOM     10  C   UNL     1      -0.302  -3.838   0.486  1.00  0.00     0.193 C 
ATOM     11  N   UNL     1      -0.856  -3.015   1.576  1.00  0.00    -0.329 N 
ATOM     12  C   UNL     1      -1.485  -5.267   2.098  1.00  0.00     0.081 C 
ATOM     13  C   UNL     1      -1.330  -3.866   2.656  1.00  0.00     0.263 C 
ATOM     14  H   UNL     1      -1.678  -2.553   1.186  1.00  0.00     0.348 HD
BRANCH  11  15
ATOM     15  C   UNL     1      -0.203  -1.750   1.916  1.00  0.00     0.189 C 
ATOM     16  C   UNL     1       1.120  -1.850   2.706  1.00  0.00     0.066 C 
ATOM     17  C   UNL     1      -1.015  -0.651   2.682  1.00  0.00     0.017 C 
ATOM     18  C   UNL     1       1.290  -0.519   3.438  1.00  0.00     0.007 C 
ATOM     19  C   UNL     1       0.112   0.349   3.016  1.00  0.00     0.013 C 
ATOM     20  C   UNL     1      -2.076   0.009   1.792  1.00  0.00     0.017 C 
ATOM     21  C   UNL     1      -1.686  -1.097   3.993  1.00  0.00     0.017 C 
ENDBRANCH  11  15
ENDBRANCH   5   8
ENDBRANCH   3   4
ENDBRANCH   2   3
ENDBRANCH   1   2
BRANCH   1  22
ATOM     22  N   UNL     1      -5.440  -4.660  -2.752  1.00  0.00    -0.352 N 
ATOM     23  C   UNL     1      -6.593  -4.251  -3.369  1.00  0.00     0.251 C 
ATOM     24  H   UNL     1      -5.558  -5.361  -2.071  1.00  0.00     0.163 HD
ATOM     25  O   UNL     1      -7.680  -4.603  -2.908  1.00  0.00    -0.269 OA
BRANCH  23  26
ATOM     26  C   UNL     1      -6.541  -3.381  -4.563  1.00  0.00     0.039 A 
ATOM     27  C   UNL     1      -7.477  -2.353  -4.691  1.00  0.00     0.014 A 
ATOM     28  C   UNL     1      -5.586  -3.584  -5.564  1.00  0.00     0.014 A 
ATOM     29  C   UNL     1      -7.417  -1.495  -5.790  1.00  0.00     0.010 A 
ATOM     30  C   UNL     1      -5.468  -2.672  -6.608  1.00  0.00     0.010 A 
ATOM     31  C   UNL     1      -6.388  -1.623  -6.739  1.00  0.00    -0.014 A 
BRANCH  31  32
ATOM     32  C   UNL     1      -6.266  -0.668  -7.869  1.00  0.00     0.031 A 
ATOM     33  C   UNL     1      -6.385  -1.150  -9.290  1.00  0.00     0.074 A 
ATOM     34  C   UNL     1      -5.997   0.628  -7.614  1.00  0.00     0.049 A 
ATOM     35  N   UNL     1      -6.274  -0.471 -10.404  1.00  0.00    -0.248 NA
ATOM     36  C   UNL     1      -6.633  -2.587  -9.489  1.00  0.00     0.031 C 
ATOM     37  C   UNL     1      -5.797   1.203  -6.281  1.00  0.00     0.029 A 
ATOM     38  N   UNL     1      -5.839   1.696  -8.461  1.00  0.00    -0.354 N 
ATOM     39  C   UNL     1      -6.434  -1.395 -11.430  1.00  0.00     0.074 A 
ATOM     40  C   UNL     1      -6.582  -2.693 -10.808  1.00  0.00     0.031 C 
ATOM     41  C   UNL     1      -5.570   2.521  -6.399  1.00  0.00     0.029 A 
ATOM     42  C   UNL     1      -5.570   2.879  -7.814  1.00  0.00     0.049 A 
ATOM     43  H   UNL     1      -5.912   1.622  -9.440  1.00  0.00     0.167 HD
ATOM     44  C   UNL     1      -6.482  -1.179 -12.766  1.00  0.00     0.037 A 
ATOM     45  C   UNL     1      -5.342   4.113  -8.303  1.00  0.00     0.037 A 
ATOM     46  C   UNL     1      -6.345   0.118 -13.376  1.00  0.00     0.049 A 
ATOM     47  C   UNL     1      -5.403   4.330  -9.790  1.00  0.00     0.074 A 
ATOM     48  C   UNL     1      -6.427   0.453 -14.717  1.00  0.00     0.029 A 
ATOM     49  N   UNL     1      -6.095   1.297 -12.687  1.00  0.00    -0.354 N 
ATOM     50  N   UNL     1      -5.623   3.455 -10.743  1.00  0.00    -0.248 NA
ATOM     51  C   UNL     1      -5.196   5.703 -10.269  1.00  0.00     0.031 C 
ATOM     52  C   UNL     1      -6.178   1.824 -14.842  1.00  0.00     0.029 A 
ATOM     53  C   UNL     1      -5.998   2.356 -13.575  1.00  0.00     0.049 A 
ATOM     54  H   UNL     1      -6.000   1.370 -11.710  1.00  0.00     0.167 HD
ATOM     55  C   UNL     1      -5.602   4.174 -11.933  1.00  0.00     0.074 A 
ATOM     56  C   UNL     1      -5.369   5.559 -11.576  1.00  0.00     0.031 C 
ATOM     57  C   UNL     1      -5.760   3.729 -13.205  1.00  0.00     0.037 A 
BRANCH  44  58
ATOM     58  C   UNL     1      -6.698  -2.374 -13.657  1.00  0.00     0.058 A 
ATOM     59  C   UNL     1      -7.920  -3.067 -13.678  1.00  0.00     0.135 A 
ATOM     60  C   UNL     1      -5.684  -2.818 -14.522  1.00  0.00     0.135 A 
ATOM     61  F   UNL     1      -8.921  -2.697 -12.862  1.00  0.00    -0.206 F 
ATOM     62  C   UNL     1      -8.118  -4.174 -14.496  1.00  0.00     0.059 A 
ATOM     63  C   UNL     1      -5.870  -3.905 -15.372  1.00  0.00     0.059 A 
ATOM     64  F   UNL     1      -4.495  -2.195 -14.545  1.00  0.00    -0.206 F 
ATOM     65  C   UNL     1      -7.085  -4.586 -15.340  1.00  0.00     0.060 A 
BRANCH  65  66
ATOM     66  S   UNL     1      -7.360  -6.025 -16.395  1.00  0.00     0.124 S 
ATOM     67  O   UNL     1      -7.338  -7.110 -15.420  1.00  0.00    -0.237 OA
ATOM     68  O   UNL     1      -8.661  -5.733 -16.988  1.00  0.00    -0.237 OA
ATOM     69  O   UNL     1      -6.231  -5.989 -17.320  1.00  0.00    -0.744 OA
ENDBRANCH  65  66
ENDBRANCH  44  58
BRANCH  45  70
ATOM     70  C   UNL     1      -5.055   5.237  -7.372  1.00  0.00     0.058 A 
ATOM     71  C   UNL     1      -5.984   6.268  -7.171  1.00  0.00     0.135 A 
ATOM     72  C   UNL     1      -3.855   5.289  -6.645  1.00  0.00     0.135 A 
ATOM     73  F   UNL     1      -7.144   6.267  -7.846  1.00  0.00    -0.206 F 
ATOM     74  C   UNL     1      -5.730   7.319  -6.295  1.00  0.00     0.059 A 
ATOM     75  C   UNL     1      -3.590   6.313  -5.742  1.00  0.00     0.059 A 
ATOM     76  F   UNL     1      -2.941   4.317  -6.786  1.00  0.00    -0.206 F 
ATOM     77  C   UNL     1      -4.530   7.330  -5.581  1.00  0.00     0.060 A 
BRANCH  77  78
ATOM     78  S   UNL     1      -4.234   8.667  -4.405  1.00  0.00     0.124 S 
ATOM     79  O   UNL     1      -3.983   9.793  -5.296  1.00  0.00    -0.237 OA
ATOM     80  O   UNL     1      -5.491   8.706  -3.663  1.00  0.00    -0.237 OA
ATOM     81  O   UNL     1      -3.082   8.195  -3.643  1.00  0.00    -0.744 OA
ENDBRANCH  77  78
ENDBRANCH  45  70
BRANCH  57  82
ATOM     82  C   UNL     1      -5.710   4.757 -14.304  1.00  0.00     0.058 A 
ATOM     83  C   UNL     1      -4.513   5.397 -14.664  1.00  0.00     0.135 A 
ATOM     84  C   UNL     1      -6.870   5.084 -15.024  1.00  0.00     0.135 A 
ATOM     85  F   UNL     1      -3.376   5.125 -14.005  1.00  0.00    -0.206 F 
ATOM     86  C   UNL     1      -4.476   6.352 -15.675  1.00  0.00     0.059 A 
ATOM     87  C   UNL     1      -6.850   6.012 -16.061  1.00  0.00     0.059 A 
ATOM     88  F   UNL     1      -8.039   4.493 -14.730  1.00  0.00    -0.206 F 
ATOM     89  C   UNL     1      -5.651   6.654 -16.367  1.00  0.00     0.060 A 
BRANCH  89  90
ATOM     90  S   UNL     1      -5.586   7.887 -17.683  1.00  0.00     0.124 S 
ATOM     91  O   UNL     1      -5.458   9.124 -16.920  1.00  0.00    -0.237 OA
ATOM     92  O   UNL     1      -4.403   7.480 -18.435  1.00  0.00    -0.237 OA
ATOM     93  O   UNL     1      -6.857   7.708 -18.380  1.00  0.00    -0.744 OA
ENDBRANCH  89  90
ENDBRANCH  57  82
ENDBRANCH  31  32
ENDBRANCH  23  26
ENDBRANCH   1  22
TORSDOF 14
