REMARK SMILES Cc1ccccc1CNc1ccc(C(=O)NCCCNC(=O)c2ccc(-c3c4nc(c(-c5c(F)cc(S(=O)(=O)[O-])cc5F)c5ccc([nH]5)c(-c5c(F)cc(S(=O)(=O)[O-])cc5F)c5nc(c(-c6c(F)cc(S(=O)(=O)[O-])cc6F)c6ccc3[nH]6)C=C5)C=C4)cc2)c(F)c1F
REMARK SMILES IDX 18 1 17 2 16 3 14 4 15 5 13 7 10 8 11 9 91 10 12 11 89 12
REMARK SMILES IDX 92 13 90 14 9 15 8 17 7 18 1 19 2 20 3 21 4 22 6 23 5 24
REMARK SMILES IDX 19 25 20 26 21 27 22 29 23 30 24 31 88 32 25 33 87 34 26 35
REMARK SMILES IDX 27 36 28 37 81 38 29 39 86 40 80 41 82 42 30 43 85 44 79 45
REMARK SMILES IDX 78 46 31 48 65 49 44 50 64 51 45 52 48 53 63 54 83 55 46 56
REMARK SMILES IDX 47 57 62 59 84 60 49 61 32 62 33 63 42 64 34 65 35 66 41 67
REMARK SMILES IDX 43 68 36 69 37 70 38 71 39 72 40 73 66 74 67 75 76 76 68 77
REMARK SMILES IDX 69 78 75 79 77 80 70 81 71 82 72 83 73 84 74 85 50 86 51 87
REMARK SMILES IDX 60 88 52 89 53 90 59 91 61 92 54 93 55 94 56 95 57 96 58 97
REMARK H PARENT 16 6 9 16 20 28 82 47 48 58
REMARK Flexibility Score: inf
ROOT
ATOM      1  C   UNL     1       0.970   8.999   2.400  1.00  0.00     0.042 C 
ENDROOT
BRANCH   1   2
ATOM      2  C   UNL     1      -0.363   8.229   1.925  1.00  0.00     0.118 C 
BRANCH   2   3
ATOM      3  N   UNL     1      -1.027   8.648   0.666  1.00  0.00    -0.352 N 
ATOM      4  C   UNL     1      -1.432   8.056  -0.517  1.00  0.00     0.254 C 
ATOM      5  O   UNL     1      -2.271   8.581  -1.246  1.00  0.00    -0.269 OA
ATOM      6  H   UNL     1      -1.237   9.610   0.675  1.00  0.00     0.163 HD
BRANCH   4   7
ATOM      7  C   UNL     1      -0.836   6.789  -0.966  1.00  0.00     0.078 A 
ATOM      8  C   UNL     1       0.276   4.277  -1.509  1.00  0.00     0.074 A 
ATOM      9  C   UNL     1       1.024   5.258  -0.857  1.00  0.00     0.030 A 
ATOM     10  C   UNL     1      -0.979   4.631  -2.028  1.00  0.00     0.182 A 
ATOM     11  C   UNL     1       0.488   6.518  -0.625  1.00  0.00     0.019 A 
ATOM     12  C   UNL     1      -1.540   5.875  -1.757  1.00  0.00     0.173 A 
ATOM     13  F   UNL     1      -1.685   3.713  -2.713  1.00  0.00    -0.201 F 
ATOM     14  F   UNL     1      -2.776   6.128  -2.219  1.00  0.00    -0.203 F 
BRANCH   8  15
ATOM     15  N   UNL     1       0.697   2.945  -1.507  1.00  0.00    -0.379 N 
ATOM     16  H   UNL     1       0.780   2.424  -2.338  1.00  0.00     0.161 HD
BRANCH  15  17
ATOM     17  C   UNL     1       1.005   2.369  -0.201  1.00  0.00     0.149 C 
BRANCH  17  18
ATOM     18  C   UNL     1       0.338   1.018  -0.073  1.00  0.00    -0.026 A 
ATOM     19  C   UNL     1       2.529  -0.335  -0.060  1.00  0.00     0.044 C 
ATOM     20  C   UNL     1       1.031  -0.206  -0.026  1.00  0.00    -0.046 A 
ATOM     21  C   UNL     1       0.290  -1.403   0.036  1.00  0.00     0.004 A 
ATOM     22  C   UNL     1      -1.105  -1.395   0.067  1.00  0.00     0.000 A 
ATOM     23  C   UNL     1      -1.075   1.005  -0.019  1.00  0.00     0.006 A 
ATOM     24  C   UNL     1      -1.789  -0.188   0.047  1.00  0.00     0.000 A 
ENDBRANCH  17  18
ENDBRANCH  15  17
ENDBRANCH   8  15
ENDBRANCH   4   7
ENDBRANCH   2   3
ENDBRANCH   1   2
BRANCH   1  25
ATOM     25  C   UNL     1       0.780  10.143   3.499  1.00  0.00     0.118 C 
BRANCH  25  26
ATOM     26  N   UNL     1       1.924  11.059   4.055  1.00  0.00    -0.352 N 
ATOM     27  C   UNL     1       2.082  12.425   4.521  1.00  0.00     0.251 C 
ATOM     28  H   UNL     1       2.777  10.569   4.102  1.00  0.00     0.163 HD
ATOM     29  O   UNL     1       2.418  12.496   5.718  1.00  0.00    -0.269 OA
BRANCH  27  30
ATOM     30  C   UNL     1       1.983  13.832   3.821  1.00  0.00     0.039 A 
ATOM     31  C   UNL     1       1.428  14.954   4.519  1.00  0.00     0.014 A 
ATOM     32  C   UNL     1       2.265  14.108   2.491  1.00  0.00     0.014 A 
ATOM     33  C   UNL     1       0.698  15.987   3.814  1.00  0.00     0.010 A 
ATOM     34  C   UNL     1       1.543  15.125   1.791  1.00  0.00     0.010 A 
ATOM     35  C   UNL     1       0.575  15.926   2.416  1.00  0.00    -0.014 A 
BRANCH  35  36
ATOM     36  C   UNL     1      -0.620  16.436   1.626  1.00  0.00     0.031 A 
ATOM     37  C   UNL     1      -0.553  17.669   0.850  1.00  0.00     0.074 A 
ATOM     38  C   UNL     1      -1.809  15.806   1.387  1.00  0.00     0.049 A 
ATOM     39  N   UNL     1      -1.411  18.635   0.919  1.00  0.00    -0.248 NA
ATOM     40  C   UNL     1       0.453  17.813  -0.185  1.00  0.00     0.031 C 
ATOM     41  C   UNL     1      -2.977  16.117   0.543  1.00  0.00     0.029 A 
ATOM     42  N   UNL     1      -2.228  14.593   1.875  1.00  0.00    -0.354 N 
ATOM     43  C   UNL     1      -1.258  19.338  -0.259  1.00  0.00     0.074 A 
ATOM     44  C   UNL     1       0.029  18.926  -0.788  1.00  0.00     0.031 C 
ATOM     45  C   UNL     1      -4.030  15.353   0.920  1.00  0.00     0.029 A 
ATOM     46  C   UNL     1      -3.611  14.542   2.042  1.00  0.00     0.049 A 
ATOM     47  H   UNL     1      -1.622  13.845   2.083  1.00  0.00     0.167 HD
ATOM     48  C   UNL     1      -2.314  19.947  -0.882  1.00  0.00     0.037 A 
ATOM     49  C   UNL     1      -4.115  14.442   3.316  1.00  0.00     0.037 A 
ATOM     50  C   UNL     1      -3.611  19.513  -0.329  1.00  0.00     0.049 A 
ATOM     51  C   UNL     1      -4.699  15.779   3.733  1.00  0.00     0.074 A 
ATOM     52  C   UNL     1      -4.670  18.763  -0.828  1.00  0.00     0.029 A 
ATOM     53  N   UNL     1      -3.850  19.601   1.031  1.00  0.00    -0.354 N 
ATOM     54  N   UNL     1      -4.940  16.727   2.872  1.00  0.00    -0.248 NA
ATOM     55  C   UNL     1      -5.003  16.211   5.097  1.00  0.00     0.031 C 
ATOM     56  C   UNL     1      -5.553  18.441   0.245  1.00  0.00     0.029 A 
ATOM     57  C   UNL     1      -5.042  19.004   1.398  1.00  0.00     0.049 A 
ATOM     58  H   UNL     1      -3.239  20.039   1.667  1.00  0.00     0.167 HD
ATOM     59  C   UNL     1      -5.283  17.883   3.504  1.00  0.00     0.074 A 
ATOM     60  C   UNL     1      -5.360  17.498   4.904  1.00  0.00     0.031 C 
ATOM     61  C   UNL     1      -5.435  19.048   2.804  1.00  0.00     0.037 A 
BRANCH  48  62
ATOM     62  C   UNL     1      -2.176  20.701  -2.199  1.00  0.00     0.058 A 
ATOM     63  C   UNL     1      -3.286  20.973  -3.026  1.00  0.00     0.135 A 
ATOM     64  C   UNL     1      -0.960  21.247  -2.671  1.00  0.00     0.135 A 
ATOM     65  F   UNL     1      -4.535  20.672  -2.649  1.00  0.00    -0.206 F 
ATOM     66  C   UNL     1      -3.179  21.614  -4.263  1.00  0.00     0.059 A 
ATOM     67  C   UNL     1      -0.812  21.827  -3.934  1.00  0.00     0.059 A 
ATOM     68  F   UNL     1       0.128  21.312  -1.888  1.00  0.00    -0.206 F 
ATOM     69  C   UNL     1      -1.933  22.011  -4.726  1.00  0.00     0.060 A 
BRANCH  69  70
ATOM     70  S   UNL     1      -1.817  22.854  -6.313  1.00  0.00     0.124 S 
ATOM     71  O   UNL     1      -2.438  21.895  -7.221  1.00  0.00    -0.237 OA
ATOM     72  O   UNL     1      -2.574  24.076  -6.063  1.00  0.00    -0.237 OA
ATOM     73  O   UNL     1      -0.379  23.039  -6.497  1.00  0.00    -0.744 OA
ENDBRANCH  69  70
ENDBRANCH  48  62
BRANCH  49  74
ATOM     74  C   UNL     1      -3.367  13.424   4.217  1.00  0.00     0.058 A 
ATOM     75  C   UNL     1      -3.437  12.097   3.725  1.00  0.00     0.135 A 
ATOM     76  C   UNL     1      -2.075  13.813   4.524  1.00  0.00     0.135 A 
ATOM     77  F   UNL     1      -4.565  11.393   3.882  1.00  0.00    -0.206 F 
ATOM     78  C   UNL     1      -2.424  11.547   2.928  1.00  0.00     0.059 A 
ATOM     79  C   UNL     1      -1.057  13.279   3.721  1.00  0.00     0.059 A 
ATOM     80  F   UNL     1      -1.856  14.972   5.170  1.00  0.00    -0.206 F 
ATOM     81  C   UNL     1      -1.280  12.296   2.769  1.00  0.00     0.060 A 
BRANCH  81  82
ATOM     82  S   UNL     1      -0.269  12.168   1.140  1.00  0.00     0.124 S 
ATOM     83  O   UNL     1      -0.949  11.062   0.511  1.00  0.00    -0.237 OA
ATOM     84  O   UNL     1      -0.498  13.436   0.448  1.00  0.00    -0.237 OA
ATOM     85  O   UNL     1       1.104  11.904   1.498  1.00  0.00    -0.744 OA
ENDBRANCH  81  82
ENDBRANCH  49  74
BRANCH  61  86
ATOM     86  C   UNL     1      -5.940  20.352   3.369  1.00  0.00     0.058 A 
ATOM     87  C   UNL     1      -6.927  20.417   4.364  1.00  0.00     0.135 A 
ATOM     88  C   UNL     1      -5.552  21.599   2.818  1.00  0.00     0.135 A 
ATOM     89  F   UNL     1      -7.475  19.302   4.870  1.00  0.00    -0.206 F 
ATOM     90  C   UNL     1      -7.417  21.633   4.847  1.00  0.00     0.059 A 
ATOM     91  C   UNL     1      -6.059  22.816   3.249  1.00  0.00     0.059 A 
ATOM     92  F   UNL     1      -4.647  21.703   1.837  1.00  0.00    -0.206 F 
ATOM     93  C   UNL     1      -6.965  22.828   4.291  1.00  0.00     0.060 A 
BRANCH  93  94
ATOM     94  S   UNL     1      -7.574  24.396   4.927  1.00  0.00     0.124 S 
ATOM     95  O   UNL     1      -9.008  24.152   5.040  1.00  0.00    -0.237 OA
ATOM     96  O   UNL     1      -6.847  24.497   6.189  1.00  0.00    -0.237 OA
ATOM     97  O   UNL     1      -7.186  25.359   3.901  1.00  0.00    -0.744 OA
ENDBRANCH  93  94
ENDBRANCH  61  86
ENDBRANCH  35  36
ENDBRANCH  27  30
ENDBRANCH  25  26
ENDBRANCH   1  25
TORSDOF 16
