REMARK SMILES CN(Cc1csc(Br)c1)c1cccc(F)c1C(=O)NCCCNC(=O)c1ccc(-c2c3nc(c(-c4c(F)cc(S(=O)(=O)[O-])cc4F)c4ccc([nH]4)c(-c4c(F)cc(S(=O)(=O)[O-])cc4F)c4nc(c(-c5c(F)cc(S(=O)(=O)[O-])cc5F)c5ccc2[nH]5)C=C4)C=C3)cc1
REMARK SMILES IDX 21 1 20 2 19 3 17 4 18 5 16 7 10 8 11 9 12 10 14 11 13 12
REMARK SMILES IDX 15 13 2 14 1 15 3 16 4 17 5 18 9 19 6 20 7 21 8 22 22 23
REMARK SMILES IDX 23 24 24 25 25 27 26 28 27 29 91 30 28 31 90 32 29 33 30 34
REMARK SMILES IDX 31 35 84 36 32 37 89 38 83 39 85 40 33 41 88 42 82 43 81 44
REMARK SMILES IDX 34 46 68 47 47 48 67 49 48 50 51 51 66 52 86 53 49 54 50 55
REMARK SMILES IDX 65 57 87 58 52 59 35 60 36 61 45 62 37 63 38 64 44 65 46 66
REMARK SMILES IDX 39 67 40 68 41 69 42 70 43 71 69 72 70 73 79 74 71 75 72 76
REMARK SMILES IDX 78 77 80 78 73 79 74 80 75 81 76 82 77 83 53 84 54 85 63 86
REMARK SMILES IDX 55 87 56 88 62 89 64 90 57 91 58 92 59 93 60 94 61 95
REMARK H PARENT 19 6 23 26 85 45 51 56
REMARK Flexibility Score: inf
ROOT
ATOM      1  C   UNL     1      -2.298   6.111   3.257  1.00  0.00     0.042 C 
ENDROOT
BRANCH   1   2
ATOM      2  C   UNL     1      -1.843   4.791   3.865  1.00  0.00     0.118 C 
BRANCH   2   3
ATOM      3  N   UNL     1      -2.055   3.603   3.051  1.00  0.00    -0.352 N 
ATOM      4  C   UNL     1      -1.239   2.492   2.910  1.00  0.00     0.256 C 
ATOM      5  O   UNL     1      -1.761   1.382   2.809  1.00  0.00    -0.269 OA
ATOM      6  H   UNL     1      -2.891   3.587   2.532  1.00  0.00     0.163 HD
BRANCH   4   7
ATOM      7  C   UNL     1       0.234   2.611   2.807  1.00  0.00     0.098 A 
ATOM      8  C   UNL     1       0.938   2.113   1.679  1.00  0.00     0.053 A 
ATOM      9  C   UNL     1       2.348   2.209   1.690  1.00  0.00     0.027 A 
ATOM     10  C   UNL     1       3.045   2.747   2.772  1.00  0.00     0.005 A 
ATOM     11  C   UNL     1       0.956   3.066   3.916  1.00  0.00     0.138 A 
ATOM     12  C   UNL     1       2.344   3.169   3.892  1.00  0.00     0.040 A 
ATOM     13  F   UNL     1       0.339   3.366   5.069  1.00  0.00    -0.206 F 
BRANCH   8  14
ATOM     14  N   UNL     1       0.333   1.494   0.585  1.00  0.00    -0.370 N 
ATOM     15  C   UNL     1       0.720   0.125   0.275  1.00  0.00     0.144 C 
BRANCH  14  16
ATOM     16  C   UNL     1      -0.294   2.303  -0.461  1.00  0.00     0.152 C 
BRANCH  16  17
ATOM     17  C   UNL     1      -1.778   2.528  -0.353  1.00  0.00    -0.017 A 
ATOM     18  C   UNL     1      -2.406   3.751  -0.522  1.00  0.00     0.071 A 
ATOM     19  C   UNL     1      -2.742   1.505  -0.042  1.00  0.00     0.033 A 
ATOM     20  S   UNL     1      -4.099   3.664  -0.280  1.00  0.00    -0.136 S 
ATOM     21  C   UNL     1      -4.010   2.013   0.074  1.00  0.00     0.070 A 
ATOM     22  Br  UNL     1      -5.492   0.994   0.597  1.00  0.00    -0.039 Br
ENDBRANCH  16  17
ENDBRANCH  14  16
ENDBRANCH   8  14
ENDBRANCH   4   7
ENDBRANCH   2   3
ENDBRANCH   1   2
BRANCH   1  23
ATOM     23  C   UNL     1      -3.785   6.247   2.956  1.00  0.00     0.118 C 
BRANCH  23  24
ATOM     24  N   UNL     1      -4.644   6.106   4.125  1.00  0.00    -0.352 N 
ATOM     25  C   UNL     1      -5.382   7.020   4.837  1.00  0.00     0.251 C 
ATOM     26  H   UNL     1      -4.707   5.185   4.467  1.00  0.00     0.163 HD
ATOM     27  O   UNL     1      -5.926   6.656   5.883  1.00  0.00    -0.269 OA
BRANCH  25  28
ATOM     28  C   UNL     1      -5.520   8.430   4.402  1.00  0.00     0.039 A 
ATOM     29  C   UNL     1      -5.510   9.438   5.373  1.00  0.00     0.014 A 
ATOM     30  C   UNL     1      -5.704   8.774   3.062  1.00  0.00     0.014 A 
ATOM     31  C   UNL     1      -5.598  10.782   4.993  1.00  0.00     0.010 A 
ATOM     32  C   UNL     1      -5.697  10.114   2.675  1.00  0.00     0.010 A 
ATOM     33  C   UNL     1      -5.642  11.135   3.635  1.00  0.00    -0.014 A 
BRANCH  33  34
ATOM     34  C   UNL     1      -5.624  12.558   3.197  1.00  0.00     0.031 A 
ATOM     35  C   UNL     1      -6.773  13.126   2.405  1.00  0.00     0.074 A 
ATOM     36  C   UNL     1      -4.543  13.322   3.455  1.00  0.00     0.049 A 
ATOM     37  N   UNL     1      -6.894  14.308   1.858  1.00  0.00    -0.248 NA
ATOM     38  C   UNL     1      -7.926  12.240   2.174  1.00  0.00     0.031 C 
ATOM     39  C   UNL     1      -3.349  12.879   4.180  1.00  0.00     0.029 A 
ATOM     40  N   UNL     1      -4.264  14.628   3.132  1.00  0.00    -0.354 N 
ATOM     41  C   UNL     1      -8.125  14.305   1.212  1.00  0.00     0.074 A 
ATOM     42  C   UNL     1      -8.688  12.984   1.385  1.00  0.00     0.031 C 
ATOM     43  C   UNL     1      -2.484  13.901   4.274  1.00  0.00     0.029 A 
ATOM     44  C   UNL     1      -3.034  15.059   3.575  1.00  0.00     0.049 A 
ATOM     45  H   UNL     1      -4.886  15.202   2.630  1.00  0.00     0.167 HD
ATOM     46  C   UNL     1      -8.742  15.318   0.558  1.00  0.00     0.037 A 
ATOM     47  C   UNL     1      -2.413  16.246   3.429  1.00  0.00     0.037 A 
ATOM     48  C   UNL     1      -8.188  16.639   0.414  1.00  0.00     0.049 A 
ATOM     49  C   UNL     1      -3.109  17.350   2.681  1.00  0.00     0.074 A 
ATOM     50  C   UNL     1      -8.757  17.747  -0.189  1.00  0.00     0.029 A 
ATOM     51  N   UNL     1      -6.942  17.034   0.880  1.00  0.00    -0.354 N 
ATOM     52  N   UNL     1      -4.292  17.340   2.113  1.00  0.00    -0.248 NA
ATOM     53  C   UNL     1      -2.391  18.626   2.551  1.00  0.00     0.031 C 
ATOM     54  C   UNL     1      -7.836  18.797  -0.133  1.00  0.00     0.029 A 
ATOM     55  C   UNL     1      -6.715  18.361   0.557  1.00  0.00     0.049 A 
ATOM     56  H   UNL     1      -6.311  16.455   1.367  1.00  0.00     0.167 HD
ATOM     57  C   UNL     1      -4.470  18.613   1.582  1.00  0.00     0.074 A 
ATOM     58  C   UNL     1      -3.279  19.371   1.905  1.00  0.00     0.031 C 
ATOM     59  C   UNL     1      -5.526  19.107   0.890  1.00  0.00     0.037 A 
BRANCH  46  60
ATOM     60  C   UNL     1     -10.098  15.052  -0.040  1.00  0.00     0.058 A 
ATOM     61  C   UNL     1     -10.280  15.055  -1.432  1.00  0.00     0.135 A 
ATOM     62  C   UNL     1     -11.233  14.866   0.766  1.00  0.00     0.135 A 
ATOM     63  F   UNL     1      -9.231  15.223  -2.252  1.00  0.00    -0.206 F 
ATOM     64  C   UNL     1     -11.540  14.900  -2.002  1.00  0.00     0.059 A 
ATOM     65  C   UNL     1     -12.498  14.679   0.217  1.00  0.00     0.059 A 
ATOM     66  F   UNL     1     -11.114  14.834   2.103  1.00  0.00    -0.206 F 
ATOM     67  C   UNL     1     -12.644  14.714  -1.169  1.00  0.00     0.060 A 
BRANCH  67  68
ATOM     68  S   UNL     1     -14.268  14.492  -1.926  1.00  0.00     0.124 S 
ATOM     69  O   UNL     1     -14.525  15.816  -2.481  1.00  0.00    -0.237 OA
ATOM     70  O   UNL     1     -14.010  13.433  -2.897  1.00  0.00    -0.237 OA
ATOM     71  O   UNL     1     -15.116  14.106  -0.801  1.00  0.00    -0.744 OA
ENDBRANCH  67  68
ENDBRANCH  46  60
BRANCH  47  72
ATOM     72  C   UNL     1      -1.068  16.455   4.033  1.00  0.00     0.058 A 
ATOM     73  C   UNL     1       0.066  15.786   3.546  1.00  0.00     0.135 A 
ATOM     74  C   UNL     1      -0.900  17.299   5.141  1.00  0.00     0.135 A 
ATOM     75  F   UNL     1      -0.040  14.959   2.494  1.00  0.00    -0.206 F 
ATOM     76  C   UNL     1       1.310  15.923   4.152  1.00  0.00     0.059 A 
ATOM     77  C   UNL     1       0.340  17.475   5.748  1.00  0.00     0.059 A 
ATOM     78  F   UNL     1      -1.952  17.971   5.636  1.00  0.00    -0.206 F 
ATOM     79  C   UNL     1       1.436  16.767   5.256  1.00  0.00     0.060 A 
BRANCH  79  80
ATOM     80  S   UNL     1       3.057  16.915   6.040  1.00  0.00     0.124 S 
ATOM     81  O   UNL     1       3.225  15.583   6.614  1.00  0.00    -0.237 OA
ATOM     82  O   UNL     1       3.916  17.230   4.904  1.00  0.00    -0.237 OA
ATOM     83  O   UNL     1       2.870  17.995   7.003  1.00  0.00    -0.744 OA
ENDBRANCH  79  80
ENDBRANCH  47  72
BRANCH  59  84
ATOM     84  C   UNL     1      -5.467  20.544   0.448  1.00  0.00     0.058 A 
ATOM     85  C   UNL     1      -6.320  21.499   1.023  1.00  0.00     0.135 A 
ATOM     86  C   UNL     1      -4.639  20.955  -0.608  1.00  0.00     0.135 A 
ATOM     87  F   UNL     1      -7.137  21.158   2.033  1.00  0.00    -0.206 F 
ATOM     88  C   UNL     1      -6.373  22.806   0.551  1.00  0.00     0.059 A 
ATOM     89  C   UNL     1      -4.654  22.265  -1.077  1.00  0.00     0.059 A 
ATOM     90  F   UNL     1      -3.797  20.083  -1.185  1.00  0.00    -0.206 F 
ATOM     91  C   UNL     1      -5.539  23.178  -0.504  1.00  0.00     0.060 A 
BRANCH  91  92
ATOM     92  S   UNL     1      -5.624  24.878  -1.106  1.00  0.00     0.124 S 
ATOM     93  O   UNL     1      -6.939  24.907  -1.738  1.00  0.00    -0.237 OA
ATOM     94  O   UNL     1      -5.494  25.648   0.127  1.00  0.00    -0.237 OA
ATOM     95  O   UNL     1      -4.487  24.972  -2.018  1.00  0.00    -0.744 OA
ENDBRANCH  91  92
ENDBRANCH  59  84
ENDBRANCH  33  34
ENDBRANCH  25  28
ENDBRANCH  23  24
ENDBRANCH   1  23
TORSDOF 16
