REMARK SMILES O=C(NCCCNC(=O)[C@@]1([NH2+]C2CC2)CCC[C@@H]([NH+]2CCS(=O)(=O)CC2)C1)c1ccc(-c2c3nc(c(-c4c(F)cc(S(=O)(=O)[O-])cc4F)c4ccc([nH]4)c(-c4c(F)cc(S(=O)(=O)[O-])cc4F)c4nc(c(-c5c(F)cc(S(=O)(=O)[O-])cc5F)c5ccc2[nH]5)C=C4)C=C3)cc1
REMARK SMILES IDX 4 1 3 2 1 3 2 4 28 6 29 7 93 8 30 9 92 10 31 11 32 12 33 13
REMARK SMILES IDX 86 14 34 15 91 16 85 17 87 18 35 19 90 20 84 21 83 22 36 24
REMARK SMILES IDX 70 25 49 26 69 27 50 28 53 29 68 30 88 31 51 32 52 33 67 35
REMARK SMILES IDX 89 36 54 37 37 38 38 39 47 40 39 41 40 42 46 43 48 44 41 45
REMARK SMILES IDX 42 46 43 47 44 48 45 49 71 50 72 51 81 52 73 53 74 54 80 55
REMARK SMILES IDX 82 56 75 57 76 58 77 59 78 60 79 61 55 62 56 63 65 64 57 65
REMARK SMILES IDX 58 66 64 67 66 68 59 69 60 70 61 71 62 72 63 73 5 74 6 75
REMARK SMILES IDX 7 76 8 77 9 79 10 80 15 81 27 82 16 83 18 84 17 85 11 86
REMARK SMILES IDX 12 89 13 90 14 91 19 92 20 93 26 94 21 96 25 97 22 98 23 99
REMARK SMILES IDX 24 100
REMARK H PARENT 3 5 87 23 53 34 7 78 11 87 11 88 19 95
REMARK Flexibility Score: inf
ROOT
ATOM      1  C   UNL     1       4.431  -0.826   1.019  1.00  0.00     0.118 C 
ENDROOT
BRANCH   1   2
ATOM      2  N   UNL     1       3.033  -0.903   0.623  1.00  0.00    -0.352 N 
ATOM      3  O   UNL     1       1.084  -0.079  -0.127  1.00  0.00    -0.269 OA
ATOM      4  C   UNL     1       2.311  -0.059  -0.179  1.00  0.00     0.251 C 
ATOM      5  H   UNL     1       2.535  -1.672   0.983  1.00  0.00     0.163 HD
BRANCH   4   6
ATOM      6  C   UNL     1       3.005   0.858  -1.106  1.00  0.00     0.039 A 
ATOM      7  C   UNL     1       4.119   0.426  -1.834  1.00  0.00     0.014 A 
ATOM      8  C   UNL     1       2.487   2.139  -1.308  1.00  0.00     0.014 A 
ATOM      9  C   UNL     1       4.774   1.304  -2.691  1.00  0.00     0.010 A 
ATOM     10  C   UNL     1       3.099   2.994  -2.224  1.00  0.00     0.010 A 
ATOM     11  C   UNL     1       4.254   2.587  -2.913  1.00  0.00    -0.014 A 
BRANCH  11  12
ATOM     12  C   UNL     1       4.873   3.480  -3.921  1.00  0.00     0.031 A 
ATOM     13  C   UNL     1       5.495   4.779  -3.506  1.00  0.00     0.074 A 
ATOM     14  C   UNL     1       4.818   3.130  -5.220  1.00  0.00     0.049 A 
ATOM     15  N   UNL     1       5.980   5.737  -4.252  1.00  0.00    -0.248 NA
ATOM     16  C   UNL     1       5.569   5.043  -2.061  1.00  0.00     0.031 C 
ATOM     17  C   UNL     1       4.231   1.890  -5.733  1.00  0.00     0.029 A 
ATOM     18  N   UNL     1       5.239   3.790  -6.346  1.00  0.00    -0.354 N 
ATOM     19  C   UNL     1       6.394   6.730  -3.373  1.00  0.00     0.074 A 
ATOM     20  C   UNL     1       6.078   6.267  -2.038  1.00  0.00     0.031 C 
ATOM     21  C   UNL     1       4.325   1.880  -7.070  1.00  0.00     0.029 A 
ATOM     22  C   UNL     1       4.916   3.138  -7.512  1.00  0.00     0.049 A 
ATOM     23  H   UNL     1       5.724   4.646  -6.322  1.00  0.00     0.167 HD
ATOM     24  C   UNL     1       6.981   7.917  -3.660  1.00  0.00     0.037 A 
ATOM     25  C   UNL     1       5.038   3.526  -8.796  1.00  0.00     0.037 A 
ATOM     26  C   UNL     1       7.277   8.358  -5.000  1.00  0.00     0.049 A 
ATOM     27  C   UNL     1       5.654   4.861  -9.097  1.00  0.00     0.074 A 
ATOM     28  C   UNL     1       7.905   9.524  -5.402  1.00  0.00     0.029 A 
ATOM     29  N   UNL     1       6.946   7.664  -6.157  1.00  0.00    -0.354 N 
ATOM     30  N   UNL     1       6.081   5.774  -8.257  1.00  0.00    -0.248 NA
ATOM     31  C   UNL     1       5.809   5.222 -10.511  1.00  0.00     0.031 C 
ATOM     32  C   UNL     1       7.895   9.564  -6.800  1.00  0.00     0.029 A 
ATOM     33  C   UNL     1       7.328   8.390  -7.272  1.00  0.00     0.049 A 
ATOM     34  H   UNL     1       6.504   6.784  -6.180  1.00  0.00     0.167 HD
ATOM     35  C   UNL     1       6.583   6.806  -9.039  1.00  0.00     0.074 A 
ATOM     36  C   UNL     1       6.403   6.406 -10.421  1.00  0.00     0.031 C 
ATOM     37  C   UNL     1       7.152   7.972  -8.644  1.00  0.00     0.037 A 
BRANCH  24  38
ATOM     38  C   UNL     1       7.295   8.833  -2.507  1.00  0.00     0.058 A 
ATOM     39  C   UNL     1       8.269   8.519  -1.546  1.00  0.00     0.135 A 
ATOM     40  C   UNL     1       6.598  10.045  -2.356  1.00  0.00     0.135 A 
ATOM     41  F   UNL     1       8.961   7.372  -1.633  1.00  0.00    -0.206 F 
ATOM     42  C   UNL     1       8.500   9.341  -0.447  1.00  0.00     0.059 A 
ATOM     43  C   UNL     1       6.837  10.899  -1.282  1.00  0.00     0.059 A 
ATOM     44  F   UNL     1       5.661  10.403  -3.247  1.00  0.00    -0.206 F 
ATOM     45  C   UNL     1       7.770  10.523  -0.318  1.00  0.00     0.060 A 
BRANCH  45  46
ATOM     46  S   UNL     1       8.037  11.547   1.145  1.00  0.00     0.124 S 
ATOM     47  O   UNL     1       7.399  10.741   2.182  1.00  0.00    -0.237 OA
ATOM     48  O   UNL     1       9.493  11.624   1.210  1.00  0.00    -0.237 OA
ATOM     49  O   UNL     1       7.359  12.796   0.816  1.00  0.00    -0.744 OA
ENDBRANCH  45  46
ENDBRANCH  24  38
BRANCH  25  50
ATOM     50  C   UNL     1       4.546   2.623  -9.869  1.00  0.00     0.058 A 
ATOM     51  C   UNL     1       5.437   1.917 -10.688  1.00  0.00     0.135 A 
ATOM     52  C   UNL     1       3.172   2.377 -10.030  1.00  0.00     0.135 A 
ATOM     53  F   UNL     1       6.758   2.121 -10.575  1.00  0.00    -0.206 F 
ATOM     54  C   UNL     1       4.985   0.988 -11.620  1.00  0.00     0.059 A 
ATOM     55  C   UNL     1       2.698   1.435 -10.935  1.00  0.00     0.059 A 
ATOM     56  F   UNL     1       2.280   3.015  -9.255  1.00  0.00    -0.206 F 
ATOM     57  C   UNL     1       3.614   0.744 -11.726  1.00  0.00     0.060 A 
BRANCH  57  58
ATOM     58  S   UNL     1       3.050  -0.538 -12.867  1.00  0.00     0.124 S 
ATOM     59  O   UNL     1       3.306   0.086 -14.160  1.00  0.00    -0.237 OA
ATOM     60  O   UNL     1       3.917  -1.659 -12.517  1.00  0.00    -0.237 OA
ATOM     61  O   UNL     1       1.644  -0.708 -12.515  1.00  0.00    -0.744 OA
ENDBRANCH  57  58
ENDBRANCH  25  50
BRANCH  37  62
ATOM     62  C   UNL     1       7.678   8.893  -9.710  1.00  0.00     0.058 A 
ATOM     63  C   UNL     1       6.826   9.671 -10.508  1.00  0.00     0.135 A 
ATOM     64  C   UNL     1       9.063   9.081  -9.851  1.00  0.00     0.135 A 
ATOM     65  F   UNL     1       5.495   9.521 -10.423  1.00  0.00    -0.206 F 
ATOM     66  C   UNL     1       7.329  10.611 -11.402  1.00  0.00     0.059 A 
ATOM     67  C   UNL     1       9.587  10.033 -10.718  1.00  0.00     0.059 A 
ATOM     68  F   UNL     1       9.921   8.363  -9.108  1.00  0.00    -0.206 F 
ATOM     69  C   UNL     1       8.711  10.795 -11.489  1.00  0.00     0.060 A 
BRANCH  69  70
ATOM     70  S   UNL     1       9.347  12.084 -12.582  1.00  0.00     0.124 S 
ATOM     71  O   UNL     1       9.092  11.507 -13.898  1.00  0.00    -0.237 OA
ATOM     72  O   UNL     1       8.520  13.231 -12.222  1.00  0.00    -0.237 OA
ATOM     73  O   UNL     1      10.753  12.189 -12.204  1.00  0.00    -0.744 OA
ENDBRANCH  69  70
ENDBRANCH  37  62
ENDBRANCH  11  12
ENDBRANCH   4   6
ENDBRANCH   1   2
BRANCH   1  74
ATOM     74  C   UNL     1       4.563  -0.475   2.498  1.00  0.00     0.042 C 
BRANCH  74  75
ATOM     75  C   UNL     1       4.069  -1.597   3.405  1.00  0.00     0.118 C 
BRANCH  75  76
ATOM     76  N   UNL     1       5.005  -2.699   3.423  1.00  0.00    -0.351 N 
ATOM     77  C   UNL     1       6.101  -2.977   4.180  1.00  0.00     0.281 C 
ATOM     78  H   UNL     1       4.810  -3.390   2.749  1.00  0.00     0.163 HD
ATOM     79  O   UNL     1       6.659  -4.043   3.884  1.00  0.00    -0.268 OA
BRANCH  77  80
ATOM     80  C   UNL     1       6.519  -2.143   5.460  1.00  0.00     0.181 C 
ATOM     81  C   UNL     1       6.368  -0.610   5.447  1.00  0.00     0.079 C 
ATOM     82  C   UNL     1       5.605  -2.774   6.546  1.00  0.00     0.144 C 
ATOM     83  C   UNL     1       6.480   0.011   6.840  1.00  0.00     0.013 C 
ATOM     84  C   UNL     1       5.344  -2.027   7.863  1.00  0.00     0.190 C 
ATOM     85  C   UNL     1       5.335  -0.495   7.709  1.00  0.00     0.065 C 
BRANCH  80  86
ATOM     86  N   UNL     1       7.930  -2.458   5.811  1.00  0.00    -0.331 N 
ATOM     87  H   UNL     1       7.930  -3.400   6.203  1.00  0.00     0.347 HD
ATOM     88  H   UNL     1       8.191  -1.688   6.427  1.00  0.00     0.347 HD
BRANCH  86  89
ATOM     89  C   UNL     1       8.977  -2.429   4.779  1.00  0.00     0.183 C 
ATOM     90  C   UNL     1       8.841  -1.852   3.397  1.00  0.00     0.071 C 
ATOM     91  C   UNL     1       9.657  -1.133   4.426  1.00  0.00     0.071 C 
ENDBRANCH  86  89
ENDBRANCH  80  86
BRANCH  84  92
ATOM     92  N   UNL     1       4.165  -2.520   8.627  1.00  0.00    -0.331 N 
ATOM     93  C   UNL     1       4.161  -3.944   8.981  1.00  0.00     0.278 C 
ATOM     94  C   UNL     1       2.820  -2.056   8.271  1.00  0.00     0.278 C 
ATOM     95  H   UNL     1       4.375  -1.989   9.472  1.00  0.00     0.348 HD
ATOM     96  C   UNL     1       3.698  -4.924   7.914  1.00  0.00     0.198 C 
ATOM     97  C   UNL     1       2.216  -2.671   7.028  1.00  0.00     0.198 C 
ATOM     98  S   UNL     1       2.174  -4.442   7.142  1.00  0.00     0.161 S 
ATOM     99  O   UNL     1       2.192  -4.957   5.782  1.00  0.00    -0.228 OA
ATOM    100  O   UNL     1       1.093  -4.798   8.040  1.00  0.00    -0.228 OA
ENDBRANCH  84  92
ENDBRANCH  77  80
ENDBRANCH  75  76
ENDBRANCH  74  75
ENDBRANCH   1  74
TORSDOF 16
