REMARK SMILES C#CC[N@@H+](CC(=O)NCCCNC(=O)c1ccc(-c2c3nc(c(-c4c(F)cc(S(=O)(=O)[O-])cc4F)c4ccc([nH]4)c(-c4c(F)cc(S(=O)(=O)[O-])cc4F)c4nc(c(-c5c(F)cc(S(=O)(=O)[O-])cc5F)c5ccc2[nH]5)C=C4)C=C3)cc1)CC(=O)NC(=O)NC
REMARK SMILES IDX 10 1 9 2 8 3 6 4 7 5 5 7 4 8 3 10 2 11 1 12 81 13 82 14
REMARK SMILES IDX 83 15 84 16 85 17 86 19 87 20 88 21 11 23 12 24 13 25 14 27
REMARK SMILES IDX 15 28 16 29 80 30 17 31 79 32 18 33 19 34 20 35 73 36 21 37
REMARK SMILES IDX 78 38 72 39 74 40 22 41 77 42 71 43 70 44 23 46 57 47 36 48
REMARK SMILES IDX 56 49 37 50 40 51 55 52 75 53 38 54 39 55 54 57 76 58 41 59
REMARK SMILES IDX 24 60 25 61 34 62 26 63 27 64 33 65 35 66 28 67 29 68 30 69
REMARK SMILES IDX 31 70 32 71 58 72 59 73 68 74 60 75 61 76 67 77 69 78 62 79
REMARK SMILES IDX 63 80 64 81 65 82 66 83 42 84 43 85 52 86 44 87 45 88 51 89
REMARK SMILES IDX 53 90 46 91 47 92 48 93 49 94 50 95
REMARK H PARENT 8 6 4 9 84 18 87 22 12 26 74 45 40 56
REMARK Flexibility Score: inf
ROOT
ATOM      1  C   UNL     1      -2.753  -3.008   1.292  1.00  0.00     0.042 C 
ENDROOT
BRANCH   1   2
ATOM      2  C   UNL     1      -4.005  -2.403   0.633  1.00  0.00     0.118 C 
BRANCH   2   3
ATOM      3  N   UNL     1      -4.568  -1.240   1.310  1.00  0.00    -0.351 N 
ATOM      4  C   UNL     1      -4.733   0.072   0.983  1.00  0.00     0.275 C 
ATOM      5  O   UNL     1      -5.495   0.713   1.715  1.00  0.00    -0.269 OA
ATOM      6  H   UNL     1      -4.905  -1.452   2.211  1.00  0.00     0.163 HD
BRANCH   4   7
ATOM      7  C   UNL     1      -4.079   0.765  -0.233  1.00  0.00     0.364 C 
BRANCH   7   8
ATOM      8  N   UNL     1      -2.643   1.157  -0.111  1.00  0.00    -0.309 N 
ATOM      9  H   UNL     1      -2.412   1.637  -0.980  1.00  0.00     0.349 HD
BRANCH   8  10
ATOM     10  C   UNL     1      -1.876  -0.048   0.070  1.00  0.00     0.354 C 
BRANCH  10  11
ATOM     11  C   UNL     1      -0.356  -0.048   0.070  1.00  0.00    -0.047 C 
ATOM     12  C   UNL     1       0.948  -0.048   0.070  1.00  0.00     0.010 C 
ENDBRANCH  10  11
ENDBRANCH   8  10
BRANCH   8  13
ATOM     13  C   UNL     1      -2.287   2.205   0.865  1.00  0.00     0.365 C 
BRANCH  13  14
ATOM     14  C   UNL     1      -3.068   2.287   2.160  1.00  0.00     0.283 C 
ATOM     15  O   UNL     1      -2.888   1.456   3.057  1.00  0.00    -0.268 OA
ATOM     16  N   UNL     1      -3.943   3.337   2.382  1.00  0.00    -0.273 N 
ATOM     17  C   UNL     1      -5.026   3.763   1.676  1.00  0.00     0.321 C 
ATOM     18  H   UNL     1      -3.748   3.867   3.188  1.00  0.00     0.175 HD
ATOM     19  O   UNL     1      -6.134   3.782   2.216  1.00  0.00    -0.248 OA
ATOM     20  N   UNL     1      -4.946   4.215   0.412  1.00  0.00    -0.341 N 
ATOM     21  C   UNL     1      -3.845   4.761  -0.339  1.00  0.00     0.144 C 
ATOM     22  H   UNL     1      -5.791   4.163  -0.090  1.00  0.00     0.165 HD
ENDBRANCH  13  14
ENDBRANCH   8  13
ENDBRANCH   7   8
ENDBRANCH   4   7
ENDBRANCH   2   3
ENDBRANCH   1   2
BRANCH   1  23
ATOM     23  C   UNL     1      -2.808  -3.161   2.811  1.00  0.00     0.118 C 
BRANCH  23  24
ATOM     24  N   UNL     1      -3.395  -4.437   3.177  1.00  0.00    -0.352 N 
ATOM     25  C   UNL     1      -2.754  -5.586   3.575  1.00  0.00     0.251 C 
ATOM     26  H   UNL     1      -4.377  -4.486   3.136  1.00  0.00     0.163 HD
ATOM     27  O   UNL     1      -3.335  -6.663   3.476  1.00  0.00    -0.269 OA
BRANCH  25  28
ATOM     28  C   UNL     1      -1.377  -5.535   4.128  1.00  0.00     0.039 A 
ATOM     29  C   UNL     1      -0.469  -6.542   3.786  1.00  0.00     0.014 A 
ATOM     30  C   UNL     1      -1.011  -4.559   5.061  1.00  0.00     0.014 A 
ATOM     31  C   UNL     1       0.803  -6.566   4.370  1.00  0.00     0.010 A 
ATOM     32  C   UNL     1       0.278  -4.551   5.598  1.00  0.00     0.010 A 
ATOM     33  C   UNL     1       1.188  -5.572   5.283  1.00  0.00    -0.014 A 
BRANCH  33  34
ATOM     34  C   UNL     1       2.504  -5.626   5.974  1.00  0.00     0.031 A 
ATOM     35  C   UNL     1       2.559  -5.859   7.463  1.00  0.00     0.074 A 
ATOM     36  C   UNL     1       3.644  -5.428   5.284  1.00  0.00     0.049 A 
ATOM     37  N   UNL     1       3.595  -5.873   8.263  1.00  0.00    -0.248 NA
ATOM     38  C   UNL     1       1.274  -6.076   8.147  1.00  0.00     0.031 C 
ATOM     39  C   UNL     1       3.726  -5.155   3.848  1.00  0.00     0.029 A 
ATOM     40  N   UNL     1       4.952  -5.415   5.700  1.00  0.00    -0.354 N 
ATOM     41  C   UNL     1       3.086  -6.073   9.542  1.00  0.00     0.074 A 
ATOM     42  C   UNL     1       1.646  -6.132   9.417  1.00  0.00     0.031 C 
ATOM     43  C   UNL     1       5.016  -5.016   3.501  1.00  0.00     0.029 A 
ATOM     44  C   UNL     1       5.851  -5.163   4.691  1.00  0.00     0.049 A 
ATOM     45  H   UNL     1       5.221  -5.572   6.634  1.00  0.00     0.167 HD
ATOM     46  C   UNL     1       3.756  -6.215  10.711  1.00  0.00     0.037 A 
ATOM     47  C   UNL     1       7.194  -5.059   4.721  1.00  0.00     0.037 A 
ATOM     48  C   UNL     1       5.190  -6.201  10.827  1.00  0.00     0.049 A 
ATOM     49  C   UNL     1       7.920  -5.255   6.024  1.00  0.00     0.074 A 
ATOM     50  C   UNL     1       5.966  -6.401  11.956  1.00  0.00     0.029 A 
ATOM     51  N   UNL     1       6.066  -5.981   9.774  1.00  0.00    -0.354 N 
ATOM     52  N   UNL     1       7.425  -5.494   7.215  1.00  0.00    -0.248 NA
ATOM     53  C   UNL     1       9.388  -5.177   5.987  1.00  0.00     0.031 C 
ATOM     54  C   UNL     1       7.311  -6.276  11.589  1.00  0.00     0.029 A 
ATOM     55  C   UNL     1       7.373  -6.031  10.226  1.00  0.00     0.049 A 
ATOM     56  H   UNL     1       5.797  -5.814   8.842  1.00  0.00     0.167 HD
ATOM     57  C   UNL     1       8.519  -5.615   8.065  1.00  0.00     0.074 A 
ATOM     58  C   UNL     1       9.703  -5.435   7.250  1.00  0.00     0.031 C 
ATOM     59  C   UNL     1       8.541  -5.856   9.399  1.00  0.00     0.037 A 
BRANCH  46  60
ATOM     60  C   UNL     1       2.938  -6.405  11.960  1.00  0.00     0.058 A 
ATOM     61  C   UNL     1       2.245  -7.600  12.212  1.00  0.00     0.135 A 
ATOM     62  C   UNL     1       2.855  -5.386  12.922  1.00  0.00     0.135 A 
ATOM     63  F   UNL     1       2.279  -8.602  11.319  1.00  0.00    -0.206 F 
ATOM     64  C   UNL     1       1.470  -7.765  13.355  1.00  0.00     0.059 A 
ATOM     65  C   UNL     1       2.106  -5.538  14.086  1.00  0.00     0.059 A 
ATOM     66  F   UNL     1       3.500  -4.223  12.734  1.00  0.00    -0.206 F 
ATOM     67  C   UNL     1       1.401  -6.725  14.284  1.00  0.00     0.060 A 
BRANCH  67  68
ATOM     68  S   UNL     1       0.381  -6.947  15.757  1.00  0.00     0.124 S 
ATOM     69  O   UNL     1      -0.960  -6.753  15.213  1.00  0.00    -0.237 OA
ATOM     70  O   UNL     1       0.707  -8.309  16.165  1.00  0.00    -0.237 OA
ATOM     71  O   UNL     1       0.852  -5.897  16.656  1.00  0.00    -0.744 OA
ENDBRANCH  67  68
ENDBRANCH  46  60
BRANCH  47  72
ATOM     72  C   UNL     1       7.941  -4.784   3.466  1.00  0.00     0.058 A 
ATOM     73  C   UNL     1       8.682  -5.794   2.835  1.00  0.00     0.135 A 
ATOM     74  C   UNL     1       7.905  -3.521   2.857  1.00  0.00     0.135 A 
ATOM     75  F   UNL     1       8.752  -7.016   3.384  1.00  0.00    -0.206 F 
ATOM     76  C   UNL     1       9.368  -5.561   1.647  1.00  0.00     0.059 A 
ATOM     77  C   UNL     1       8.566  -3.268   1.659  1.00  0.00     0.059 A 
ATOM     78  F   UNL     1       7.197  -2.526   3.414  1.00  0.00    -0.206 F 
ATOM     79  C   UNL     1       9.300  -4.294   1.065  1.00  0.00     0.060 A 
BRANCH  79  80
ATOM     80  S   UNL     1      10.135  -4.019  -0.514  1.00  0.00     0.124 S 
ATOM     81  O   UNL     1      11.528  -3.913  -0.095  1.00  0.00    -0.237 OA
ATOM     82  O   UNL     1       9.783  -5.220  -1.263  1.00  0.00    -0.237 OA
ATOM     83  O   UNL     1       9.525  -2.785  -1.002  1.00  0.00    -0.744 OA
ENDBRANCH  79  80
ENDBRANCH  47  72
BRANCH  59  84
ATOM     84  C   UNL     1       9.886  -5.964  10.059  1.00  0.00     0.058 A 
ATOM     85  C   UNL     1      10.665  -4.829  10.327  1.00  0.00     0.135 A 
ATOM     86  C   UNL     1      10.374  -7.212  10.477  1.00  0.00     0.135 A 
ATOM     87  F   UNL     1      10.244  -3.614   9.943  1.00  0.00    -0.206 F 
ATOM     88  C   UNL     1      11.894  -4.929  10.971  1.00  0.00     0.059 A 
ATOM     89  C   UNL     1      11.591  -7.333  11.141  1.00  0.00     0.059 A 
ATOM     90  F   UNL     1       9.661  -8.327  10.252  1.00  0.00    -0.206 F 
ATOM     91  C   UNL     1      12.349  -6.186  11.374  1.00  0.00     0.060 A 
BRANCH  91  92
ATOM     92  S   UNL     1      13.928  -6.302  12.241  1.00  0.00     0.124 S 
ATOM     93  O   UNL     1      14.877  -6.164  11.141  1.00  0.00    -0.237 OA
ATOM     94  O   UNL     1      13.864  -5.176  13.167  1.00  0.00    -0.237 OA
ATOM     95  O   UNL     1      13.876  -7.621  12.865  1.00  0.00    -0.744 OA
ENDBRANCH  91  92
ENDBRANCH  59  84
ENDBRANCH  33  34
ENDBRANCH  25  28
ENDBRANCH  23  24
ENDBRANCH   1  23
TORSDOF 18
