REMARK SMILES Cc1c(C#N)c2ccccc2n1CC(=O)N1CC[C@H](O)C[C@@H]1C(=O)NCCCNC(=O)c1ccc(-c2c3nc(c(-c4c(F)cc(S(=O)(=O)[O-])cc4F)c4ccc([nH]4)c(-c4c(F)cc(S(=O)(=O)[O-])cc4F)c4nc(c(-c5c(F)cc(S(=O)(=O)[O-])cc5F)c5ccc2[nH]5)C=C4)C=C3)cc1
REMARK SMILES IDX 26 1 25 2 23 3 24 4 22 6 16 7 17 8 18 9 21 10 19 11 14 12
REMARK SMILES IDX 15 13 13 14 12 15 1 16 2 17 3 18 6 19 11 20 7 21 10 22 8 23
REMARK SMILES IDX 9 24 4 25 5 26 20 27 27 29 28 30 29 31 30 32 31 34 32 35
REMARK SMILES IDX 33 36 97 37 34 38 96 39 35 40 36 41 37 42 90 43 38 44 95 45
REMARK SMILES IDX 89 46 91 47 39 48 94 49 88 50 87 51 40 53 74 54 53 55 73 56
REMARK SMILES IDX 54 57 57 58 72 59 92 60 55 61 56 62 71 64 93 65 58 66 41 67
REMARK SMILES IDX 42 68 51 69 43 70 44 71 50 72 52 73 45 74 46 75 47 76 48 77
REMARK SMILES IDX 49 78 75 79 76 80 85 81 77 82 78 83 84 84 86 85 79 86 80 87
REMARK SMILES IDX 81 88 82 89 83 90 59 91 60 92 69 93 61 94 62 95 68 96 70 97
REMARK SMILES IDX 63 98 64 99 65 100 66 101 67 102
REMARK H PARENT 25 5 20 28 29 33 91 52 57 63
REMARK Flexibility Score: inf
ROOT
ATOM      1  C   UNL     1      -3.777   5.843   3.393  1.00  0.00     0.117 C 
ENDROOT
BRANCH   1   2
ATOM      2  N   UNL     1      -3.138   6.124   2.127  1.00  0.00    -0.354 N 
ATOM      3  C   UNL     1      -2.293   5.344   1.400  1.00  0.00     0.242 C 
ATOM      4  O   UNL     1      -1.904   5.830   0.329  1.00  0.00    -0.273 OA
ATOM      5  H   UNL     1      -3.344   7.003   1.735  1.00  0.00     0.163 HD
BRANCH   3   6
ATOM      6  C   UNL     1      -1.793   3.951   1.904  1.00  0.00     0.177 C 
ATOM      7  N   UNL     1      -1.089   3.276   0.776  1.00  0.00    -0.329 N 
ATOM      8  C   UNL     1      -1.973   2.852  -0.316  1.00  0.00     0.123 C 
ATOM      9  C   UNL     1      -3.071   1.917   0.187  1.00  0.00     0.053 C 
ATOM     10  C   UNL     1      -2.826   2.962   2.451  1.00  0.00     0.067 C 
ATOM     11  C   UNL     1      -3.810   2.494   1.386  1.00  0.00     0.118 C 
BRANCH   7  12
ATOM     12  C   UNL     1       0.275   3.063   0.890  1.00  0.00     0.243 C 
ATOM     13  O   UNL     1       0.824   3.135   1.998  1.00  0.00    -0.273 OA
BRANCH  12  14
ATOM     14  C   UNL     1       1.185   2.911  -0.321  1.00  0.00     0.222 C 
BRANCH  14  15
ATOM     15  N   UNL     1       0.819   1.940  -1.343  1.00  0.00    -0.334 N 
ATOM     16  C   UNL     1       1.116  -0.115   0.101  1.00  0.00     0.066 C 
ATOM     17  C   UNL     1       0.725   0.572  -1.165  1.00  0.00     0.034 A 
ATOM     18  C   UNL     1       0.176   0.053  -2.329  1.00  0.00     0.080 A 
ATOM     19  C   UNL     1      -0.004   1.119  -3.257  1.00  0.00     0.018 A 
ATOM     20  C   UNL     1       0.451   2.285  -2.638  1.00  0.00     0.050 A 
ATOM     21  C   UNL     1      -0.543   1.207  -4.559  1.00  0.00     0.012 A 
ATOM     22  C   UNL     1       0.394   3.535  -3.281  1.00  0.00     0.027 A 
ATOM     23  C   UNL     1      -0.613   2.449  -5.199  1.00  0.00     0.001 A 
ATOM     24  C   UNL     1      -0.147   3.596  -4.567  1.00  0.00     0.002 A 
BRANCH  18  25
ATOM     25  C   UNL     1      -0.183  -1.311  -2.545  1.00  0.00     0.102 C 
ATOM     26  N   UNL     1      -0.491  -2.422  -2.729  1.00  0.00    -0.192 NA
ENDBRANCH  18  25
ENDBRANCH  14  15
ENDBRANCH  12  14
ENDBRANCH   7  12
BRANCH  11  27
ATOM     27  O   UNL     1      -4.688   3.547   1.001  1.00  0.00    -0.393 OA
ATOM     28  H   UNL     1      -4.173   4.273   0.616  1.00  0.00     0.210 HD
ENDBRANCH  11  27
ENDBRANCH   3   6
ENDBRANCH   1   2
BRANCH   1  29
ATOM     29  C   UNL     1      -4.016   7.076   4.253  1.00  0.00     0.042 C 
BRANCH  29  30
ATOM     30  C   UNL     1      -4.923   8.143   3.651  1.00  0.00     0.118 C 
BRANCH  30  31
ATOM     31  N   UNL     1      -6.242   7.684   3.280  1.00  0.00    -0.352 N 
ATOM     32  C   UNL     1      -7.468   7.768   3.881  1.00  0.00     0.251 C 
ATOM     33  H   UNL     1      -6.263   7.213   2.415  1.00  0.00     0.163 HD
ATOM     34  O   UNL     1      -8.441   7.647   3.131  1.00  0.00    -0.269 OA
BRANCH  32  35
ATOM     35  C   UNL     1      -7.702   7.864   5.349  1.00  0.00     0.039 A 
ATOM     36  C   UNL     1      -6.718   7.931   6.334  1.00  0.00     0.014 A 
ATOM     37  C   UNL     1      -9.044   7.723   5.753  1.00  0.00     0.014 A 
ATOM     38  C   UNL     1      -7.047   7.644   7.660  1.00  0.00     0.010 A 
ATOM     39  C   UNL     1      -9.381   7.486   7.078  1.00  0.00     0.010 A 
ATOM     40  C   UNL     1      -8.372   7.340   8.016  1.00  0.00    -0.014 A 
BRANCH  40  41
ATOM     41  C   UNL     1      -8.706   7.080   9.420  1.00  0.00     0.031 A 
ATOM     42  C   UNL     1      -8.326   8.239  10.273  1.00  0.00     0.074 A 
ATOM     43  C   UNL     1      -9.347   5.974   9.880  1.00  0.00     0.049 A 
ATOM     44  N   UNL     1      -7.305   8.311  11.061  1.00  0.00    -0.248 NA
ATOM     45  C   UNL     1      -8.974   9.543  10.043  1.00  0.00     0.031 C 
ATOM     46  C   UNL     1      -9.924   4.869   9.104  1.00  0.00     0.029 A 
ATOM     47  N   UNL     1      -9.665   5.613  11.169  1.00  0.00    -0.354 N 
ATOM     48  C   UNL     1      -7.370   9.569  11.654  1.00  0.00     0.074 A 
ATOM     49  C   UNL     1      -8.264  10.345  10.842  1.00  0.00     0.031 C 
ATOM     50  C   UNL     1     -10.708   4.096   9.899  1.00  0.00     0.029 A 
ATOM     51  C   UNL     1     -10.578   4.546  11.274  1.00  0.00     0.049 A 
ATOM     52  H   UNL     1      -9.283   6.065  11.956  1.00  0.00     0.167 HD
ATOM     53  C   UNL     1      -6.923   9.738  12.931  1.00  0.00     0.037 A 
ATOM     54  C   UNL     1     -11.120   4.029  12.418  1.00  0.00     0.037 A 
ATOM     55  C   UNL     1      -6.117   8.608  13.320  1.00  0.00     0.049 A 
ATOM     56  C   UNL     1     -10.186   4.397  13.504  1.00  0.00     0.074 A 
ATOM     57  C   UNL     1      -4.852   8.136  13.044  1.00  0.00     0.029 A 
ATOM     58  N   UNL     1      -6.866   7.547  13.755  1.00  0.00    -0.354 N 
ATOM     59  N   UNL     1      -8.980   3.911  13.599  1.00  0.00    -0.248 NA
ATOM     60  C   UNL     1     -10.440   5.621  14.249  1.00  0.00     0.031 C 
ATOM     61  C   UNL     1      -4.932   6.714  13.150  1.00  0.00     0.029 A 
ATOM     62  C   UNL     1      -6.211   6.363  13.578  1.00  0.00     0.049 A 
ATOM     63  H   UNL     1      -7.766   7.629  14.146  1.00  0.00     0.167 HD
ATOM     64  C   UNL     1      -8.221   4.978  14.039  1.00  0.00     0.074 A 
ATOM     65  C   UNL     1      -9.184   5.950  14.557  1.00  0.00     0.031 C 
ATOM     66  C   UNL     1      -6.922   5.106  13.645  1.00  0.00     0.037 A 
BRANCH  53  67
ATOM     67  C   UNL     1      -7.622  10.590  13.977  1.00  0.00     0.058 A 
ATOM     68  C   UNL     1      -7.038  10.726  15.256  1.00  0.00     0.135 A 
ATOM     69  C   UNL     1      -8.963  11.024  13.882  1.00  0.00     0.135 A 
ATOM     70  F   UNL     1      -5.776  10.324  15.477  1.00  0.00    -0.206 F 
ATOM     71  C   UNL     1      -7.743  11.219  16.358  1.00  0.00     0.059 A 
ATOM     72  C   UNL     1      -9.671  11.558  14.956  1.00  0.00     0.059 A 
ATOM     73  F   UNL     1      -9.687  10.873  12.767  1.00  0.00    -0.206 F 
ATOM     74  C   UNL     1      -9.062  11.631  16.197  1.00  0.00     0.060 A 
BRANCH  74  75
ATOM     75  S   UNL     1      -9.978  12.247  17.621  1.00  0.00     0.124 S 
ATOM     76  O   UNL     1     -10.042  11.063  18.469  1.00  0.00    -0.237 OA
ATOM     77  O   UNL     1      -9.111  13.323  18.089  1.00  0.00    -0.237 OA
ATOM     78  O   UNL     1     -11.247  12.681  17.044  1.00  0.00    -0.744 OA
ENDBRANCH  74  75
ENDBRANCH  53  67
BRANCH  54  79
ATOM     79  C   UNL     1     -12.538   3.659  12.749  1.00  0.00     0.058 A 
ATOM     80  C   UNL     1     -12.878   3.112  14.011  1.00  0.00     0.135 A 
ATOM     81  C   UNL     1     -13.612   4.172  12.003  1.00  0.00     0.135 A 
ATOM     82  F   UNL     1     -11.926   2.582  14.795  1.00  0.00    -0.206 F 
ATOM     83  C   UNL     1     -14.177   3.177  14.543  1.00  0.00     0.059 A 
ATOM     84  C   UNL     1     -14.914   4.247  12.512  1.00  0.00     0.059 A 
ATOM     85  F   UNL     1     -13.404   4.710  10.793  1.00  0.00    -0.206 F 
ATOM     86  C   UNL     1     -15.182   3.787  13.798  1.00  0.00     0.060 A 
BRANCH  86  87
ATOM     87  S   UNL     1     -16.800   4.101  14.561  1.00  0.00     0.124 S 
ATOM     88  O   UNL     1     -17.334   2.752  14.713  1.00  0.00    -0.237 OA
ATOM     89  O   UNL     1     -16.432   4.782  15.797  1.00  0.00    -0.237 OA
ATOM     90  O   UNL     1     -17.482   4.934  13.574  1.00  0.00    -0.744 OA
ENDBRANCH  86  87
ENDBRANCH  54  79
BRANCH  66  91
ATOM     91  C   UNL     1      -6.210   3.875  13.164  1.00  0.00     0.058 A 
ATOM     92  C   UNL     1      -6.457   3.203  11.955  1.00  0.00     0.135 A 
ATOM     93  C   UNL     1      -5.141   3.422  13.949  1.00  0.00     0.135 A 
ATOM     94  F   UNL     1      -7.416   3.621  11.116  1.00  0.00    -0.206 F 
ATOM     95  C   UNL     1      -5.681   2.108  11.558  1.00  0.00     0.059 A 
ATOM     96  C   UNL     1      -4.340   2.357  13.561  1.00  0.00     0.059 A 
ATOM     97  F   UNL     1      -4.834   4.054  15.094  1.00  0.00    -0.206 F 
ATOM     98  C   UNL     1      -4.621   1.696  12.370  1.00  0.00     0.060 A 
BRANCH  98  99
ATOM     99  S   UNL     1      -3.579   0.318  11.844  1.00  0.00     0.124 S 
ATOM    100  O   UNL     1      -4.505  -0.808  11.902  1.00  0.00    -0.237 OA
ATOM    101  O   UNL     1      -3.165   0.731  10.506  1.00  0.00    -0.237 OA
ATOM    102  O   UNL     1      -2.510   0.298  12.840  1.00  0.00    -0.744 OA
ENDBRANCH  98  99
ENDBRANCH  66  91
ENDBRANCH  40  41
ENDBRANCH  32  35
ENDBRANCH  30  31
ENDBRANCH  29  30
ENDBRANCH   1  29
TORSDOF 18
