REMARK SMILES O=C(/C=C/c1cc(C(=O)Nc2ccc(F)cc2Cl)cs1)NCCCNC(=O)c1ccc(-c2c3nc(c(-c4c(F)cc(S(=O)(=O)[O-])cc4F)c4ccc([nH]4)c(-c4c(F)cc(S(=O)(=O)[O-])cc4F)c4nc(c(-c5c(F)cc(S(=O)(=O)[O-])cc5F)c5ccc2[nH]5)C=C4)C=C3)cc1
REMARK SMILES IDX 23 1 22 2 21 3 1 4 2 5 3 7 4 8 5 9 6 10 20 11 7 12 19 13
REMARK SMILES IDX 8 14 9 15 10 16 11 18 12 19 17 20 13 21 16 22 18 23 14 24
REMARK SMILES IDX 15 25 24 26 25 27 26 28 27 30 28 31 29 32 93 33 30 34 92 35
REMARK SMILES IDX 31 36 32 37 33 38 86 39 34 40 91 41 85 42 87 43 35 44 90 45
REMARK SMILES IDX 84 46 83 47 36 49 70 50 49 51 69 52 50 53 53 54 68 55 88 56
REMARK SMILES IDX 51 57 52 58 67 60 89 61 54 62 37 63 38 64 47 65 39 66 40 67
REMARK SMILES IDX 46 68 48 69 41 70 42 71 43 72 44 73 45 74 71 75 72 76 81 77
REMARK SMILES IDX 73 78 74 79 80 80 82 81 75 82 76 83 77 84 78 85 79 86 55 87
REMARK SMILES IDX 56 88 65 89 57 90 58 91 64 92 66 93 59 94 60 95 61 96 62 97
REMARK SMILES IDX 63 98
REMARK H PARENT 21 6 10 17 25 29 87 48 53 59
REMARK Flexibility Score: inf
ROOT
ATOM      1  C   UNL     1       2.451   2.997  -1.483  1.00  0.00     0.042 C 
ENDROOT
BRANCH   1   2
ATOM      2  C   UNL     1       2.277   1.511  -1.774  1.00  0.00     0.118 C 
BRANCH   2   3
ATOM      3  N   UNL     1       2.997   0.665  -0.843  1.00  0.00    -0.352 N 
ATOM      4  O   UNL     1       1.201   0.242   0.533  1.00  0.00    -0.270 OA
ATOM      5  C   UNL     1       2.381   0.098   0.242  1.00  0.00     0.244 C 
ATOM      6  H   UNL     1       3.954   0.493  -0.995  1.00  0.00     0.163 HD
BRANCH   5   7
ATOM      7  C   UNL     1       3.214  -0.859   1.005  1.00  0.00     0.072 C 
ATOM      8  C   UNL     1       4.517  -0.684   1.278  1.00  0.00     0.024 C 
BRANCH   8   9
ATOM      9  C   UNL     1       5.279  -1.706   1.921  1.00  0.00     0.028 A 
ATOM     10  C   UNL     1       4.872  -2.880   2.532  1.00  0.00     0.033 A 
ATOM     11  S   UNL     1       6.995  -1.595   1.984  1.00  0.00    -0.144 S 
ATOM     12  C   UNL     1       5.938  -3.820   2.754  1.00  0.00     0.051 A 
ATOM     13  C   UNL     1       7.153  -3.180   2.605  1.00  0.00     0.079 A 
BRANCH  12  14
ATOM     14  C   UNL     1       5.824  -5.224   3.157  1.00  0.00     0.256 C 
ATOM     15  O   UNL     1       6.693  -5.768   3.842  1.00  0.00    -0.269 OA
ATOM     16  N   UNL     1       4.689  -5.941   2.838  1.00  0.00    -0.321 N 
ATOM     17  H   UNL     1       4.544  -6.742   3.393  1.00  0.00     0.170 HD
BRANCH  16  18
ATOM     18  C   UNL     1       3.701  -5.727   1.853  1.00  0.00     0.060 A 
ATOM     19  C   UNL     1       3.983  -5.086   0.639  1.00  0.00     0.031 A 
ATOM     20  C   UNL     1       2.386  -6.166   2.097  1.00  0.00     0.067 A 
ATOM     21  C   UNL     1       2.954  -4.784  -0.256  1.00  0.00     0.041 A 
ATOM     22  C   UNL     1       1.357  -5.858   1.207  1.00  0.00     0.062 A 
ATOM     23  Cl  UNL     1       1.986  -7.027   3.542  1.00  0.00    -0.082 Cl
ATOM     24  C   UNL     1       1.650  -5.153   0.048  1.00  0.00     0.124 A 
ATOM     25  F   UNL     1       0.661  -4.830  -0.794  1.00  0.00    -0.207 F 
ENDBRANCH  16  18
ENDBRANCH  12  14
ENDBRANCH   8   9
ENDBRANCH   5   7
ENDBRANCH   2   3
ENDBRANCH   1   2
BRANCH   1  26
ATOM     26  C   UNL     1       3.890   3.500  -1.569  1.00  0.00     0.118 C 
BRANCH  26  27
ATOM     27  N   UNL     1       4.478   3.331  -2.889  1.00  0.00    -0.352 N 
ATOM     28  C   UNL     1       5.198   4.206  -3.664  1.00  0.00     0.251 C 
ATOM     29  H   UNL     1       4.336   2.445  -3.293  1.00  0.00     0.163 HD
ATOM     30  O   UNL     1       5.490   3.872  -4.811  1.00  0.00    -0.269 OA
BRANCH  28  31
ATOM     31  C   UNL     1       5.608   5.538  -3.158  1.00  0.00     0.039 A 
ATOM     32  C   UNL     1       5.588   6.618  -4.048  1.00  0.00     0.014 A 
ATOM     33  C   UNL     1       6.068   5.730  -1.853  1.00  0.00     0.014 A 
ATOM     34  C   UNL     1       5.985   7.889  -3.621  1.00  0.00     0.010 A 
ATOM     35  C   UNL     1       6.404   7.011  -1.409  1.00  0.00     0.010 A 
ATOM     36  C   UNL     1       6.379   8.101  -2.291  1.00  0.00    -0.014 A 
BRANCH  36  37
ATOM     37  C   UNL     1       6.794   9.450  -1.823  1.00  0.00     0.031 A 
ATOM     38  C   UNL     1       8.217   9.701  -1.399  1.00  0.00     0.074 A 
ATOM     39  C   UNL     1       5.885  10.441  -1.740  1.00  0.00     0.049 A 
ATOM     40  N   UNL     1       8.758  10.793  -0.924  1.00  0.00    -0.248 NA
ATOM     41  C   UNL     1       9.150   8.567  -1.501  1.00  0.00     0.031 C 
ATOM     42  C   UNL     1       4.465  10.317  -2.077  1.00  0.00     0.029 A 
ATOM     43  N   UNL     1       6.018  11.747  -1.341  1.00  0.00    -0.354 N 
ATOM     44  C   UNL     1      10.084  10.476  -0.654  1.00  0.00     0.074 A 
ATOM     45  C   UNL     1      10.255   9.075  -0.977  1.00  0.00     0.031 C 
ATOM     46  C   UNL     1       3.864  11.504  -1.889  1.00  0.00     0.029 A 
ATOM     47  C   UNL     1       4.846  12.464  -1.395  1.00  0.00     0.049 A 
ATOM     48  H   UNL     1       6.873  12.135  -1.044  1.00  0.00     0.167 HD
ATOM     49  C   UNL     1      11.076  11.280  -0.199  1.00  0.00     0.037 A 
ATOM     50  C   UNL     1       4.592  13.750  -1.085  1.00  0.00     0.037 A 
ATOM     51  C   UNL     1      10.915  12.681   0.089  1.00  0.00     0.049 A 
ATOM     52  C   UNL     1       5.716  14.633  -0.616  1.00  0.00     0.074 A 
ATOM     53  C   UNL     1      11.870  13.590   0.509  1.00  0.00     0.029 A 
ATOM     54  N   UNL     1       9.722  13.380  -0.021  1.00  0.00    -0.354 N 
ATOM     55  N   UNL     1       6.975  14.327  -0.413  1.00  0.00    -0.248 NA
ATOM     56  C   UNL     1       5.388  16.040  -0.346  1.00  0.00     0.031 C 
ATOM     57  C   UNL     1      11.250  14.834   0.676  1.00  0.00     0.029 A 
ATOM     58  C   UNL     1       9.915  14.706   0.326  1.00  0.00     0.049 A 
ATOM     59  H   UNL     1       8.863  12.989  -0.305  1.00  0.00     0.167 HD
ATOM     60  C   UNL     1       7.595  15.508  -0.022  1.00  0.00     0.074 A 
ATOM     61  C   UNL     1       6.574  16.536  -0.022  1.00  0.00     0.031 C 
ATOM     62  C   UNL     1       8.893  15.722   0.305  1.00  0.00     0.037 A 
BRANCH  49  63
ATOM     63  C   UNL     1      12.430  10.659   0.007  1.00  0.00     0.058 A 
ATOM     64  C   UNL     1      13.241  10.289  -1.077  1.00  0.00     0.135 A 
ATOM     65  C   UNL     1      12.931  10.451   1.302  1.00  0.00     0.135 A 
ATOM     66  F   UNL     1      12.802  10.453  -2.336  1.00  0.00    -0.206 F 
ATOM     67  C   UNL     1      14.487   9.702  -0.887  1.00  0.00     0.059 A 
ATOM     68  C   UNL     1      14.187   9.888   1.516  1.00  0.00     0.059 A 
ATOM     69  F   UNL     1      12.198  10.788   2.374  1.00  0.00    -0.206 F 
ATOM     70  C   UNL     1      14.949   9.501   0.415  1.00  0.00     0.060 A 
BRANCH  70  71
ATOM     71  S   UNL     1      16.564   8.728   0.649  1.00  0.00     0.124 S 
ATOM     72  O   UNL     1      16.257   7.327   0.377  1.00  0.00    -0.237 OA
ATOM     73  O   UNL     1      17.385   9.402  -0.352  1.00  0.00    -0.237 OA
ATOM     74  O   UNL     1      16.891   9.041   2.037  1.00  0.00    -0.744 OA
ENDBRANCH  70  71
ENDBRANCH  49  63
BRANCH  50  75
ATOM     75  C   UNL     1       3.218  14.293  -1.248  1.00  0.00     0.058 A 
ATOM     76  C   UNL     1       2.912  15.172  -2.297  1.00  0.00     0.135 A 
ATOM     77  C   UNL     1       2.185  13.935  -0.369  1.00  0.00     0.135 A 
ATOM     78  F   UNL     1       3.870  15.546  -3.158  1.00  0.00    -0.206 F 
ATOM     79  C   UNL     1       1.633  15.691  -2.462  1.00  0.00     0.059 A 
ATOM     80  C   UNL     1       0.892  14.425  -0.526  1.00  0.00     0.059 A 
ATOM     81  F   UNL     1       2.425  13.084   0.640  1.00  0.00    -0.206 F 
ATOM     82  C   UNL     1       0.628  15.311  -1.570  1.00  0.00     0.060 A 
BRANCH  82  83
ATOM     83  S   UNL     1      -1.042  15.951  -1.821  1.00  0.00     0.124 S 
ATOM     84  O   UNL     1      -0.913  17.313  -1.317  1.00  0.00    -0.237 OA
ATOM     85  O   UNL     1      -1.211  15.817  -3.264  1.00  0.00    -0.237 OA
ATOM     86  O   UNL     1      -1.867  15.053  -1.016  1.00  0.00    -0.744 OA
ENDBRANCH  82  83
ENDBRANCH  50  75
BRANCH  62  87
ATOM     87  C   UNL     1       9.296  17.128   0.647  1.00  0.00     0.058 A 
ATOM     88  C   UNL     1       8.958  17.715   1.876  1.00  0.00     0.135 A 
ATOM     89  C   UNL     1      10.065  17.884  -0.253  1.00  0.00     0.135 A 
ATOM     90  F   UNL     1       8.220  17.036   2.768  1.00  0.00    -0.206 F 
ATOM     91  C   UNL     1       9.349  19.012   2.193  1.00  0.00     0.059 A 
ATOM     92  C   UNL     1      10.485  19.174   0.052  1.00  0.00     0.059 A 
ATOM     93  F   UNL     1      10.422  17.364  -1.438  1.00  0.00    -0.206 F 
ATOM     94  C   UNL     1      10.110  19.735   1.272  1.00  0.00     0.060 A 
BRANCH  94  95
ATOM     95  S   UNL     1      10.636  21.409   1.701  1.00  0.00     0.124 S 
ATOM     96  O   UNL     1       9.413  22.169   1.464  1.00  0.00    -0.237 OA
ATOM     97  O   UNL     1      11.033  21.267   3.099  1.00  0.00    -0.237 OA
ATOM     98  O   UNL     1      11.729  21.669   0.770  1.00  0.00    -0.744 OA
ENDBRANCH  94  95
ENDBRANCH  62  87
ENDBRANCH  36  37
ENDBRANCH  28  31
ENDBRANCH  26  27
ENDBRANCH   1  26
TORSDOF 16
