REMARK SMILES Cc1ncccc1C(=O)N1CC[C@H](C(=O)NCCCNC(=O)c2ccc(-c3c4nc(c(-c5c(F)cc(S(=O)(=O)[O-])cc5F)c5ccc([nH]5)c(-c5c(F)cc(S(=O)(=O)[O-])cc5F)c5nc(c(-c6c(F)cc(S(=O)(=O)[O-])cc6F)c6ccc3[nH]6)C=C5)C=C4)cc2)C1
REMARK SMILES IDX 18 1 17 2 16 3 14 4 15 5 13 7 10 8 11 9 89 10 12 11 8 12
REMARK SMILES IDX 9 13 7 14 1 15 2 16 3 17 4 18 6 19 5 20 19 21 20 22 21 23
REMARK SMILES IDX 22 25 23 26 24 27 88 28 25 29 87 30 26 31 27 32 28 33 81 34
REMARK SMILES IDX 29 35 86 36 80 37 82 38 30 39 85 40 79 41 78 42 31 44 65 45
REMARK SMILES IDX 44 46 64 47 45 48 48 49 63 50 83 51 46 52 47 53 62 55 84 56
REMARK SMILES IDX 49 57 32 58 33 59 42 60 34 61 35 62 41 63 43 64 36 65 37 66
REMARK SMILES IDX 38 67 39 68 40 69 66 70 67 71 76 72 68 73 69 74 75 75 77 76
REMARK SMILES IDX 70 77 71 78 72 79 73 80 74 81 50 82 51 83 60 84 52 85 53 86
REMARK SMILES IDX 59 87 61 88 54 89 55 90 56 91 57 92 58 93
REMARK H PARENT 16 6 20 24 82 43 48 54
REMARK Flexibility Score: inf
ROOT
ATOM      1  C   UNL     1       3.730   0.478  -2.649  1.00  0.00     0.042 C 
ENDROOT
BRANCH   1   2
ATOM      2  C   UNL     1       3.554  -1.027  -2.807  1.00  0.00     0.117 C 
BRANCH   2   3
ATOM      3  N   UNL     1       4.812  -1.753  -2.731  1.00  0.00    -0.356 N 
ATOM      4  C   UNL     1       5.292  -2.678  -1.860  1.00  0.00     0.224 C 
ATOM      5  O   UNL     1       6.403  -3.153  -2.123  1.00  0.00    -0.275 OA
ATOM      6  H   UNL     1       5.441  -1.529  -3.454  1.00  0.00     0.163 HD
BRANCH   4   7
ATOM      7  C   UNL     1       4.585  -3.118  -0.584  1.00  0.00     0.099 C 
ATOM      8  N   UNL     1       2.380  -2.614   0.096  1.00  0.00    -0.338 N 
ATOM      9  C   UNL     1       3.227  -2.212   1.198  1.00  0.00     0.120 C 
ATOM     10  C   UNL     1       3.129  -3.537  -0.750  1.00  0.00     0.133 C 
ATOM     11  C   UNL     1       4.591  -2.061   0.533  1.00  0.00     0.037 C 
BRANCH   8  12
ATOM     12  C   UNL     1       1.051  -2.370  -0.189  1.00  0.00     0.255 C 
ATOM     13  O   UNL     1       0.452  -3.174  -0.914  1.00  0.00    -0.269 OA
BRANCH  12  14
ATOM     14  C   UNL     1       0.279  -1.154   0.228  1.00  0.00     0.061 A 
ATOM     15  C   UNL     1       2.146   0.626   0.393  1.00  0.00     0.067 C 
ATOM     16  C   UNL     1       0.729   0.164   0.375  1.00  0.00     0.050 A 
ATOM     17  N   UNL     1      -0.129   1.221   0.508  1.00  0.00    -0.261 NA
ATOM     18  C   UNL     1      -1.454   1.003   0.446  1.00  0.00     0.111 A 
ATOM     19  C   UNL     1      -1.123  -1.331   0.214  1.00  0.00     0.017 A 
ATOM     20  C   UNL     1      -1.998  -0.251   0.310  1.00  0.00     0.021 A 
ENDBRANCH  12  14
ENDBRANCH   8  12
ENDBRANCH   4   7
ENDBRANCH   2   3
ENDBRANCH   1   2
BRANCH   1  21
ATOM     21  C   UNL     1       4.349   1.176  -3.850  1.00  0.00     0.118 C 
BRANCH  21  22
ATOM     22  N   UNL     1       3.444   1.220  -4.989  1.00  0.00    -0.352 N 
ATOM     23  C   UNL     1       2.813   2.279  -5.596  1.00  0.00     0.251 C 
ATOM     24  H   UNL     1       3.251   0.343  -5.393  1.00  0.00     0.163 HD
ATOM     25  O   UNL     1       1.924   2.045  -6.413  1.00  0.00    -0.269 OA
BRANCH  23  26
ATOM     26  C   UNL     1       3.174   3.685  -5.288  1.00  0.00     0.039 A 
ATOM     27  C   UNL     1       2.166   4.657  -5.305  1.00  0.00     0.014 A 
ATOM     28  C   UNL     1       4.495   4.074  -5.059  1.00  0.00     0.014 A 
ATOM     29  C   UNL     1       2.476   5.998  -5.053  1.00  0.00     0.010 A 
ATOM     30  C   UNL     1       4.791   5.394  -4.721  1.00  0.00     0.010 A 
ATOM     31  C   UNL     1       3.790   6.377  -4.737  1.00  0.00    -0.014 A 
BRANCH  31  32
ATOM     32  C   UNL     1       4.151   7.795  -4.470  1.00  0.00     0.031 A 
ATOM     33  C   UNL     1       5.126   8.505  -5.376  1.00  0.00     0.074 A 
ATOM     34  C   UNL     1       3.659   8.427  -3.386  1.00  0.00     0.049 A 
ATOM     35  N   UNL     1       5.651   9.697  -5.256  1.00  0.00    -0.248 NA
ATOM     36  C   UNL     1       5.597   7.761  -6.556  1.00  0.00     0.031 C 
ATOM     37  C   UNL     1       2.740   7.841  -2.408  1.00  0.00     0.029 A 
ATOM     38  N   UNL     1       3.874   9.699  -2.917  1.00  0.00    -0.354 N 
ATOM     39  C   UNL     1       6.532   9.834  -6.324  1.00  0.00     0.074 A 
ATOM     40  C   UNL     1       6.506   8.586  -7.054  1.00  0.00     0.031 C 
ATOM     41  C   UNL     1       2.457   8.756  -1.467  1.00  0.00     0.029 A 
ATOM     42  C   UNL     1       3.199   9.980  -1.752  1.00  0.00     0.049 A 
ATOM     43  H   UNL     1       4.456  10.349  -3.373  1.00  0.00     0.167 HD
ATOM     44  C   UNL     1       7.277  10.908  -6.679  1.00  0.00     0.037 A 
ATOM     45  C   UNL     1       3.186  11.095  -0.996  1.00  0.00     0.037 A 
ATOM     46  C   UNL     1       7.264  12.166  -5.979  1.00  0.00     0.049 A 
ATOM     47  C   UNL     1       4.000  12.286  -1.424  1.00  0.00     0.074 A 
ATOM     48  C   UNL     1       7.936  13.334  -6.294  1.00  0.00     0.029 A 
ATOM     49  N   UNL     1       6.535  12.422  -4.827  1.00  0.00    -0.354 N 
ATOM     50  N   UNL     1       4.793  12.412  -2.462  1.00  0.00    -0.248 NA
ATOM     51  C   UNL     1       3.914  13.488  -0.584  1.00  0.00     0.031 C 
ATOM     52  C   UNL     1       7.636  14.288  -5.315  1.00  0.00     0.029 A 
ATOM     53  C   UNL     1       6.747  13.726  -4.413  1.00  0.00     0.049 A 
ATOM     54  H   UNL     1       5.952  11.773  -4.371  1.00  0.00     0.167 HD
ATOM     55  C   UNL     1       5.278  13.714  -2.414  1.00  0.00     0.074 A 
ATOM     56  C   UNL     1       4.683  14.339  -1.250  1.00  0.00     0.031 C 
ATOM     57  C   UNL     1       6.137  14.337  -3.259  1.00  0.00     0.037 A 
BRANCH  44  58
ATOM     58  C   UNL     1       8.163  10.772  -7.887  1.00  0.00     0.058 A 
ATOM     59  C   UNL     1       7.633  10.703  -9.186  1.00  0.00     0.135 A 
ATOM     60  C   UNL     1       9.560  10.735  -7.748  1.00  0.00     0.135 A 
ATOM     61  F   UNL     1       6.304  10.719  -9.375  1.00  0.00    -0.206 F 
ATOM     62  C   UNL     1       8.454  10.566 -10.300  1.00  0.00     0.059 A 
ATOM     63  C   UNL     1      10.402  10.626  -8.852  1.00  0.00     0.059 A 
ATOM     64  F   UNL     1      10.121  10.799  -6.530  1.00  0.00    -0.206 F 
ATOM     65  C   UNL     1       9.838  10.525 -10.123  1.00  0.00     0.060 A 
BRANCH  65  66
ATOM     66  S   UNL     1      10.892  10.343 -11.577  1.00  0.00     0.124 S 
ATOM     67  O   UNL     1      10.706   8.930 -11.895  1.00  0.00    -0.237 OA
ATOM     68  O   UNL     1      10.292  11.286 -12.519  1.00  0.00    -0.237 OA
ATOM     69  O   UNL     1      12.214  10.708 -11.087  1.00  0.00    -0.744 OA
ENDBRANCH  65  66
ENDBRANCH  44  58
BRANCH  45  70
ATOM     70  C   UNL     1       2.350  11.147   0.233  1.00  0.00     0.058 A 
ATOM     71  C   UNL     1       1.182  11.922   0.275  1.00  0.00     0.135 A 
ATOM     72  C   UNL     1       2.692  10.416   1.381  1.00  0.00     0.135 A 
ATOM     73  F   UNL     1       0.818  12.644  -0.796  1.00  0.00    -0.206 F 
ATOM     74  C   UNL     1       0.388  11.983   1.415  1.00  0.00     0.059 A 
ATOM     75  C   UNL     1       1.902  10.442   2.526  1.00  0.00     0.059 A 
ATOM     76  F   UNL     1       3.792   9.647   1.386  1.00  0.00    -0.206 F 
ATOM     77  C   UNL     1       0.756  11.237   2.537  1.00  0.00     0.060 A 
BRANCH  77  78
ATOM     78  S   UNL     1      -0.308  11.283   3.996  1.00  0.00     0.124 S 
ATOM     79  O   UNL     1       0.007  12.596   4.547  1.00  0.00    -0.237 OA
ATOM     80  O   UNL     1      -1.638  11.137   3.413  1.00  0.00    -0.237 OA
ATOM     81  O   UNL     1       0.152  10.141   4.781  1.00  0.00    -0.744 OA
ENDBRANCH  77  78
ENDBRANCH  45  70
BRANCH  57  82
ATOM     82  C   UNL     1       6.458  15.778  -2.980  1.00  0.00     0.058 A 
ATOM     83  C   UNL     1       7.310  16.154  -1.931  1.00  0.00     0.135 A 
ATOM     84  C   UNL     1       5.947  16.791  -3.808  1.00  0.00     0.135 A 
ATOM     85  F   UNL     1       7.819  15.224  -1.108  1.00  0.00    -0.206 F 
ATOM     86  C   UNL     1       7.630  17.488  -1.699  1.00  0.00     0.059 A 
ATOM     87  C   UNL     1       6.273  18.129  -3.609  1.00  0.00     0.059 A 
ATOM     88  F   UNL     1       5.136  16.483  -4.832  1.00  0.00    -0.206 F 
ATOM     89  C   UNL     1       7.107  18.468  -2.545  1.00  0.00     0.060 A 
BRANCH  89  90
ATOM     90  S   UNL     1       7.558  20.193  -2.256  1.00  0.00     0.124 S 
ATOM     91  O   UNL     1       6.729  20.523  -1.102  1.00  0.00    -0.237 OA
ATOM     92  O   UNL     1       8.992  20.105  -2.002  1.00  0.00    -0.237 OA
ATOM     93  O   UNL     1       7.188  20.853  -3.505  1.00  0.00    -0.744 OA
ENDBRANCH  89  90
ENDBRANCH  57  82
ENDBRANCH  31  32
ENDBRANCH  23  26
ENDBRANCH  21  22
ENDBRANCH   1  21
TORSDOF 15
