REMARK SMILES Cc1cccc(NC(=O)[C@H]2C=C[C@@H]([NH3+])C2)c1C(=O)NCCCNC(=O)c1ccc(-c2c3nc(c(-c4c(F)cc(S(=O)(=O)[O-])cc4F)c4ccc([nH]4)c(-c4c(F)cc(S(=O)(=O)[O-])cc4F)c4nc(c(-c5c(F)cc(S(=O)(=O)[O-])cc5F)c5ccc2[nH]5)C=C4)C=C3)cc1
REMARK SMILES IDX 21 1 20 2 19 3 17 4 18 5 16 7 1 8 2 9 3 10 4 11 6 12 5 13
REMARK SMILES IDX 7 14 8 15 9 17 10 18 11 19 15 20 12 21 13 22 14 23 22 27
REMARK SMILES IDX 23 28 24 29 25 31 26 32 27 33 91 34 28 35 90 36 29 37 30 38
REMARK SMILES IDX 31 39 84 40 32 41 89 42 83 43 85 44 33 45 88 46 82 47 81 48
REMARK SMILES IDX 34 50 68 51 47 52 67 53 48 54 51 55 66 56 86 57 49 58 50 59
REMARK SMILES IDX 65 61 87 62 52 63 35 64 36 65 45 66 37 67 38 68 44 69 46 70
REMARK SMILES IDX 39 71 40 72 41 73 42 74 43 75 69 76 70 77 79 78 71 79 72 80
REMARK SMILES IDX 78 81 80 82 73 83 74 84 75 85 76 86 77 87 53 88 54 89 63 90
REMARK SMILES IDX 55 91 56 92 62 93 64 94 57 95 58 96 59 97 60 98 61 99
REMARK H PARENT 19 6 7 16 14 24 14 25 14 26 23 30 85 49 51 60
REMARK Flexibility Score: inf
ROOT
ATOM      1  C   UNL     1       4.630  -0.100   0.471  1.00  0.00     0.042 C 
ENDROOT
BRANCH   1   2
ATOM      2  C   UNL     1       3.308   0.501   1.221  1.00  0.00     0.118 C 
BRANCH   2   3
ATOM      3  N   UNL     1       2.434   1.483   0.521  1.00  0.00    -0.352 N 
ATOM      4  C   UNL     1       1.119   1.583   0.086  1.00  0.00     0.253 C 
ATOM      5  O   UNL     1       0.645   2.699  -0.157  1.00  0.00    -0.269 OA
ATOM      6  H   UNL     1       2.936   2.301   0.302  1.00  0.00     0.163 HD
BRANCH   4   7
ATOM      7  C   UNL     1       0.201   0.417  -0.119  1.00  0.00     0.066 A 
ATOM      8  C   UNL     1       2.021  -1.191  -0.956  1.00  0.00     0.045 C 
ATOM      9  C   UNL     1       0.702  -0.883  -0.319  1.00  0.00    -0.036 A 
ATOM     10  C   UNL     1      -0.140  -1.988  -0.214  1.00  0.00     0.004 A 
ATOM     11  C   UNL     1      -1.469  -1.803  -0.478  1.00  0.00     0.002 A 
ATOM     12  C   UNL     1      -1.206   0.591  -0.267  1.00  0.00     0.054 A 
ATOM     13  C   UNL     1      -1.935  -0.513  -0.669  1.00  0.00     0.027 A 
BRANCH  12  14
ATOM     14  N   UNL     1      -1.892   1.814  -0.063  1.00  0.00    -0.325 N 
ATOM     15  C   UNL     1      -3.206   2.170   0.094  1.00  0.00     0.231 C 
ATOM     16  H   UNL     1      -1.284   2.587  -0.027  1.00  0.00     0.169 HD
ATOM     17  O   UNL     1      -3.416   3.387   0.264  1.00  0.00    -0.274 OA
BRANCH  15  18
ATOM     18  C   UNL     1      -4.488   1.276   0.043  1.00  0.00     0.107 C 
ATOM     19  C   UNL     1      -5.018   1.126  -1.357  1.00  0.00    -0.012 C 
ATOM     20  C   UNL     1      -4.626  -0.136   0.645  1.00  0.00     0.087 C 
ATOM     21  C   UNL     1      -5.504  -0.098  -1.592  1.00  0.00     0.033 C 
ATOM     22  C   UNL     1      -5.401  -0.991  -0.400  1.00  0.00     0.205 C 
BRANCH  22  23
ATOM     23  N   UNL     1      -4.771  -2.256  -0.762  1.00  0.00    -0.352 N 
ATOM     24  H   UNL     1      -3.854  -2.075  -1.169  1.00  0.00     0.345 HD
ATOM     25  H   UNL     1      -5.355  -2.744  -1.441  1.00  0.00     0.345 HD
ATOM     26  H   UNL     1      -4.665  -2.833   0.072  1.00  0.00     0.345 HD
ENDBRANCH  22  23
ENDBRANCH  15  18
ENDBRANCH  12  14
ENDBRANCH   4   7
ENDBRANCH   2   3
ENDBRANCH   1   2
BRANCH   1  27
ATOM     27  C   UNL     1       6.028   0.588   0.781  1.00  0.00     0.118 C 
BRANCH  27  28
ATOM     28  N   UNL     1       7.408   0.270   0.104  1.00  0.00    -0.352 N 
ATOM     29  C   UNL     1       8.634   0.989  -0.245  1.00  0.00     0.251 C 
ATOM     30  H   UNL     1       7.465  -0.677  -0.159  1.00  0.00     0.163 HD
ATOM     31  O   UNL     1       9.633   0.560   0.362  1.00  0.00    -0.269 OA
BRANCH  29  32
ATOM     32  C   UNL     1       8.990   2.151  -1.270  1.00  0.00     0.039 A 
ATOM     33  C   UNL     1       9.931   3.177  -0.930  1.00  0.00     0.014 A 
ATOM     34  C   UNL     1       8.411   2.369  -2.513  1.00  0.00     0.014 A 
ATOM     35  C   UNL     1       9.788   4.530  -1.448  1.00  0.00     0.010 A 
ATOM     36  C   UNL     1       8.258   3.699  -3.021  1.00  0.00     0.010 A 
ATOM     37  C   UNL     1       8.735   4.824  -2.332  1.00  0.00    -0.014 A 
BRANCH  37  38
ATOM     38  C   UNL     1       7.950   6.138  -2.368  1.00  0.00     0.031 A 
ATOM     39  C   UNL     1       8.158   7.101  -3.443  1.00  0.00     0.074 A 
ATOM     40  C   UNL     1       6.892   6.552  -1.597  1.00  0.00     0.049 A 
ATOM     41  N   UNL     1       8.365   8.368  -3.276  1.00  0.00    -0.248 NA
ATOM     42  C   UNL     1       8.010   6.676  -4.821  1.00  0.00     0.031 C 
ATOM     43  C   UNL     1       5.973   7.707  -1.660  1.00  0.00     0.029 A 
ATOM     44  N   UNL     1       6.317   5.915  -0.522  1.00  0.00    -0.354 N 
ATOM     45  C   UNL     1       8.048   8.946  -4.487  1.00  0.00     0.074 A 
ATOM     46  C   UNL     1       8.056   7.854  -5.444  1.00  0.00     0.031 C 
ATOM     47  C   UNL     1       5.312   7.834  -0.483  1.00  0.00     0.029 A 
ATOM     48  C   UNL     1       5.797   6.804   0.413  1.00  0.00     0.049 A 
ATOM     49  H   UNL     1       6.278   4.936  -0.424  1.00  0.00     0.167 HD
ATOM     50  C   UNL     1       7.497  10.197  -4.572  1.00  0.00     0.037 A 
ATOM     51  C   UNL     1       6.385   6.885   1.653  1.00  0.00     0.037 A 
ATOM     52  C   UNL     1       7.043  10.700  -3.259  1.00  0.00     0.049 A 
ATOM     53  C   UNL     1       7.151   8.179   1.754  1.00  0.00     0.074 A 
ATOM     54  C   UNL     1       5.794  10.962  -2.708  1.00  0.00     0.029 A 
ATOM     55  N   UNL     1       7.917  10.735  -2.185  1.00  0.00    -0.354 N 
ATOM     56  N   UNL     1       6.958   9.176   0.943  1.00  0.00    -0.248 NA
ATOM     57  C   UNL     1       8.252   8.429   2.683  1.00  0.00     0.031 C 
ATOM     58  C   UNL     1       5.942  11.176  -1.305  1.00  0.00     0.029 A 
ATOM     59  C   UNL     1       7.284  11.064  -0.997  1.00  0.00     0.049 A 
ATOM     60  H   UNL     1       8.880  10.546  -2.257  1.00  0.00     0.167 HD
ATOM     61  C   UNL     1       7.954  10.091   1.089  1.00  0.00     0.074 A 
ATOM     62  C   UNL     1       8.712   9.611   2.233  1.00  0.00     0.031 C 
ATOM     63  C   UNL     1       8.087  11.135   0.220  1.00  0.00     0.037 A 
BRANCH  50  64
ATOM     64  C   UNL     1       7.092  10.824  -5.900  1.00  0.00     0.058 A 
ATOM     65  C   UNL     1       6.179  11.896  -5.977  1.00  0.00     0.135 A 
ATOM     66  C   UNL     1       7.633  10.441  -7.150  1.00  0.00     0.135 A 
ATOM     67  F   UNL     1       5.697  12.489  -4.877  1.00  0.00    -0.206 F 
ATOM     68  C   UNL     1       5.750  12.450  -7.188  1.00  0.00     0.059 A 
ATOM     69  C   UNL     1       7.163  10.917  -8.376  1.00  0.00     0.059 A 
ATOM     70  F   UNL     1       8.711   9.646  -7.232  1.00  0.00    -0.206 F 
ATOM     71  C   UNL     1       6.224  11.934  -8.386  1.00  0.00     0.060 A 
BRANCH  71  72
ATOM     72  S   UNL     1       5.691  12.677  -9.938  1.00  0.00     0.124 S 
ATOM     73  O   UNL     1       4.238  12.571  -9.853  1.00  0.00    -0.237 OA
ATOM     74  O   UNL     1       6.238  14.025  -9.829  1.00  0.00    -0.237 OA
ATOM     75  O   UNL     1       6.315  11.832 -10.954  1.00  0.00    -0.744 OA
ENDBRANCH  71  72
ENDBRANCH  50  64
BRANCH  51  76
ATOM     76  C   UNL     1       6.853   5.549   2.291  1.00  0.00     0.058 A 
ATOM     77  C   UNL     1       5.801   4.657   2.574  1.00  0.00     0.135 A 
ATOM     78  C   UNL     1       7.871   4.951   1.574  1.00  0.00     0.135 A 
ATOM     79  F   UNL     1       5.130   4.766   3.727  1.00  0.00    -0.206 F 
ATOM     80  C   UNL     1       5.401   3.686   1.655  1.00  0.00     0.059 A 
ATOM     81  C   UNL     1       7.473   4.003   0.626  1.00  0.00     0.059 A 
ATOM     82  F   UNL     1       9.046   5.583   1.410  1.00  0.00    -0.206 F 
ATOM     83  C   UNL     1       6.177   3.536   0.525  1.00  0.00     0.060 A 
BRANCH  83  84
ATOM     84  S   UNL     1       5.330   3.043  -1.211  1.00  0.00     0.124 S 
ATOM     85  O   UNL     1       3.956   2.905  -0.753  1.00  0.00    -0.237 OA
ATOM     86  O   UNL     1       5.520   4.160  -2.095  1.00  0.00    -0.237 OA
ATOM     87  O   UNL     1       5.937   1.792  -1.658  1.00  0.00    -0.744 OA
ENDBRANCH  83  84
ENDBRANCH  51  76
BRANCH  63  88
ATOM     88  C   UNL     1       9.030  12.286   0.427  1.00  0.00     0.058 A 
ATOM     89  C   UNL     1       9.357  12.773   1.703  1.00  0.00     0.135 A 
ATOM     90  C   UNL     1       9.536  13.036  -0.660  1.00  0.00     0.135 A 
ATOM     91  F   UNL     1       8.806  12.253   2.811  1.00  0.00    -0.206 F 
ATOM     92  C   UNL     1      10.230  13.842   1.889  1.00  0.00     0.059 A 
ATOM     93  C   UNL     1      10.368  14.133  -0.499  1.00  0.00     0.059 A 
ATOM     94  F   UNL     1       9.247  12.742  -1.933  1.00  0.00    -0.206 F 
ATOM     95  C   UNL     1      10.743  14.505   0.779  1.00  0.00     0.060 A 
BRANCH  95  96
ATOM     96  S   UNL     1      11.877  15.876   1.017  1.00  0.00     0.124 S 
ATOM     97  O   UNL     1      11.236  16.628   2.092  1.00  0.00    -0.237 OA
ATOM     98  O   UNL     1      13.105  15.175   1.380  1.00  0.00    -0.237 OA
ATOM     99  O   UNL     1      11.892  16.540  -0.282  1.00  0.00    -0.744 OA
ENDBRANCH  95  96
ENDBRANCH  63  88
ENDBRANCH  37  38
ENDBRANCH  29  32
ENDBRANCH  27  28
ENDBRANCH   1  27
TORSDOF 16
