REMARK SMILES CCC1CN(c2cc(F)ccc2C(=O)NCCCNC(=O)c2ccc(-c3c4nc(c(-c5c(F)cc(S(=O)(=O)[O-])cc5F)c5ccc([nH]5)c(-c5c(F)cc(S(=O)(=O)[O-])cc5F)c5nc(c(-c6c(F)cc(S(=O)(=O)[O-])cc6F)c6ccc3[nH]6)C=C5)C=C4)cc2)C1
REMARK SMILES IDX 17 1 16 2 15 3 13 4 14 5 12 7 6 8 7 9 8 10 11 11 9 12 10 13
REMARK SMILES IDX 5 14 3 15 4 16 88 17 2 18 1 19 18 20 19 21 20 22 21 24 22 25
REMARK SMILES IDX 23 26 87 27 24 28 86 29 25 30 26 31 27 32 80 33 28 34 85 35
REMARK SMILES IDX 79 36 81 37 29 38 84 39 78 40 77 41 30 43 64 44 43 45 63 46
REMARK SMILES IDX 44 47 47 48 62 49 82 50 45 51 46 52 61 54 83 55 48 56 31 57
REMARK SMILES IDX 32 58 41 59 33 60 34 61 40 62 42 63 35 64 36 65 37 66 38 67
REMARK SMILES IDX 39 68 65 69 66 70 75 71 67 72 68 73 74 74 76 75 69 76 70 77
REMARK SMILES IDX 71 78 72 79 73 80 49 81 50 82 59 83 51 84 52 85 58 86 60 87
REMARK SMILES IDX 53 88 54 89 55 90 56 91 57 92
REMARK H PARENT 15 6 19 23 81 42 47 53
REMARK Flexibility Score: inf
ROOT
ATOM      1  C   UNL     1       4.003  -0.619  -0.239  1.00  0.00     0.042 C 
ENDROOT
BRANCH   1   2
ATOM      2  C   UNL     1       3.873  -0.060  -1.642  1.00  0.00     0.118 C 
BRANCH   2   3
ATOM      3  N   UNL     1       5.035   0.603  -2.179  1.00  0.00    -0.352 N 
ATOM      4  C   UNL     1       5.365   0.821  -3.494  1.00  0.00     0.253 C 
ATOM      5  O   UNL     1       6.363   1.514  -3.715  1.00  0.00    -0.269 OA
ATOM      6  H   UNL     1       5.677   0.943  -1.515  1.00  0.00     0.163 HD
BRANCH   4   7
ATOM      7  C   UNL     1       4.671   0.190  -4.662  1.00  0.00     0.063 A 
ATOM      8  C   UNL     1       3.280   0.043  -4.884  1.00  0.00     0.052 A 
ATOM      9  C   UNL     1       2.858  -0.558  -6.090  1.00  0.00     0.066 A 
ATOM     10  C   UNL     1       3.770  -1.006  -7.038  1.00  0.00     0.125 A 
ATOM     11  C   UNL     1       5.574  -0.275  -5.652  1.00  0.00     0.019 A 
ATOM     12  F   UNL     1       3.324  -1.572  -8.167  1.00  0.00    -0.207 F 
ATOM     13  C   UNL     1       5.128  -0.876  -6.828  1.00  0.00     0.040 A 
BRANCH   8  14
ATOM     14  N   UNL     1       2.285   0.410  -3.954  1.00  0.00    -0.370 N 
ATOM     15  C   UNL     1       0.443   0.932  -3.134  1.00  0.00     0.028 C 
ATOM     16  C   UNL     1       1.616   1.671  -3.820  1.00  0.00     0.122 C 
ATOM     17  C   UNL     1       1.137  -0.363  -3.575  1.00  0.00     0.122 C 
BRANCH  15  18
ATOM     18  C   UNL     1       0.219   1.223  -1.647  1.00  0.00     0.004 C 
ATOM     19  C   UNL     1      -0.145  -0.023  -0.852  1.00  0.00     0.004 C 
ENDBRANCH  15  18
ENDBRANCH   8  14
ENDBRANCH   4   7
ENDBRANCH   2   3
ENDBRANCH   1   2
BRANCH   1  20
ATOM     20  C   UNL     1       4.245   0.417   0.849  1.00  0.00     0.118 C 
BRANCH  20  21
ATOM     21  N   UNL     1       3.244   1.473   0.936  1.00  0.00    -0.352 N 
ATOM     22  C   UNL     1       2.119   1.704   1.698  1.00  0.00     0.251 C 
ATOM     23  H   UNL     1       3.413   2.199   0.293  1.00  0.00     0.163 HD
ATOM     24  O   UNL     1       1.479   2.722   1.462  1.00  0.00    -0.269 OA
BRANCH  22  25
ATOM     25  C   UNL     1       1.624   0.769   2.745  1.00  0.00     0.039 A 
ATOM     26  C   UNL     1       0.260   0.801   3.080  1.00  0.00     0.014 A 
ATOM     27  C   UNL     1       2.452  -0.094   3.450  1.00  0.00     0.014 A 
ATOM     28  C   UNL     1      -0.256  -0.050   4.068  1.00  0.00     0.010 A 
ATOM     29  C   UNL     1       1.922  -1.037   4.324  1.00  0.00     0.010 A 
ATOM     30  C   UNL     1       0.570  -1.000   4.681  1.00  0.00    -0.014 A 
BRANCH  30  31
ATOM     31  C   UNL     1       0.096  -1.906   5.763  1.00  0.00     0.031 A 
ATOM     32  C   UNL     1       0.791  -1.886   7.105  1.00  0.00     0.074 A 
ATOM     33  C   UNL     1      -0.880  -2.803   5.524  1.00  0.00     0.049 A 
ATOM     34  N   UNL     1       0.658  -2.699   8.122  1.00  0.00    -0.248 NA
ATOM     35  C   UNL     1       1.815  -0.846   7.309  1.00  0.00     0.031 C 
ATOM     36  C   UNL     1      -1.593  -2.965   4.255  1.00  0.00     0.029 A 
ATOM     37  N   UNL     1      -1.435  -3.757   6.338  1.00  0.00    -0.354 N 
ATOM     38  C   UNL     1       1.610  -2.297   9.055  1.00  0.00     0.074 A 
ATOM     39  C   UNL     1       2.360  -1.218   8.456  1.00  0.00     0.031 C 
ATOM     40  C   UNL     1      -2.514  -3.933   4.388  1.00  0.00     0.029 A 
ATOM     41  C   UNL     1      -2.431  -4.488   5.735  1.00  0.00     0.049 A 
ATOM     42  H   UNL     1      -1.147  -3.905   7.268  1.00  0.00     0.167 HD
ATOM     43  C   UNL     1       1.816  -2.757  10.312  1.00  0.00     0.037 A 
ATOM     44  C   UNL     1      -3.195  -5.489   6.216  1.00  0.00     0.037 A 
ATOM     45  C   UNL     1       1.010  -3.775  10.930  1.00  0.00     0.049 A 
ATOM     46  C   UNL     1      -3.001  -5.936   7.639  1.00  0.00     0.074 A 
ATOM     47  C   UNL     1       1.083  -4.267  12.221  1.00  0.00     0.029 A 
ATOM     48  N   UNL     1      -0.035  -4.440  10.305  1.00  0.00    -0.354 N 
ATOM     49  N   UNL     1      -2.117  -5.526   8.518  1.00  0.00    -0.248 NA
ATOM     50  C   UNL     1      -3.917  -6.968   8.143  1.00  0.00     0.031 C 
ATOM     51  C   UNL     1       0.097  -5.248  12.369  1.00  0.00     0.029 A 
ATOM     52  C   UNL     1      -0.618  -5.335  11.185  1.00  0.00     0.049 A 
ATOM     53  H   UNL     1      -0.320  -4.297   9.374  1.00  0.00     0.167 HD
ATOM     54  C   UNL     1      -2.388  -6.227   9.688  1.00  0.00     0.074 A 
ATOM     55  C   UNL     1      -3.524  -7.082   9.405  1.00  0.00     0.031 C 
ATOM     56  C   UNL     1      -1.757  -6.168  10.886  1.00  0.00     0.037 A 
BRANCH  43  57
ATOM     57  C   UNL     1       2.934  -2.138  11.110  1.00  0.00     0.058 A 
ATOM     58  C   UNL     1       4.069  -2.890  11.453  1.00  0.00     0.135 A 
ATOM     59  C   UNL     1       2.875  -0.807  11.556  1.00  0.00     0.135 A 
ATOM     60  F   UNL     1       4.185  -4.165  11.051  1.00  0.00    -0.206 F 
ATOM     61  C   UNL     1       5.103  -2.345  12.209  1.00  0.00     0.059 A 
ATOM     62  C   UNL     1       3.911  -0.232  12.286  1.00  0.00     0.059 A 
ATOM     63  F   UNL     1       1.824  -0.034  11.238  1.00  0.00    -0.206 F 
ATOM     64  C   UNL     1       5.017  -1.013  12.618  1.00  0.00     0.060 A 
BRANCH  64  65
ATOM     65  S   UNL     1       6.392  -0.301  13.546  1.00  0.00     0.124 S 
ATOM     66  O   UNL     1       6.238  -0.942  14.847  1.00  0.00    -0.237 OA
ATOM     67  O   UNL     1       7.546  -0.724  12.759  1.00  0.00    -0.237 OA
ATOM     68  O   UNL     1       6.115   1.132  13.512  1.00  0.00    -0.744 OA
ENDBRANCH  64  65
ENDBRANCH  43  57
BRANCH  44  69
ATOM     69  C   UNL     1      -4.257  -6.077   5.358  1.00  0.00     0.058 A 
ATOM     70  C   UNL     1      -3.947  -6.892   4.259  1.00  0.00     0.135 A 
ATOM     71  C   UNL     1      -5.608  -5.775   5.587  1.00  0.00     0.135 A 
ATOM     72  F   UNL     1      -2.669  -7.199   3.988  1.00  0.00    -0.206 F 
ATOM     73  C   UNL     1      -4.935  -7.364   3.401  1.00  0.00     0.059 A 
ATOM     74  C   UNL     1      -6.617  -6.254   4.757  1.00  0.00     0.059 A 
ATOM     75  F   UNL     1      -5.954  -5.007   6.631  1.00  0.00    -0.206 F 
ATOM     76  C   UNL     1      -6.268  -7.031   3.654  1.00  0.00     0.060 A 
BRANCH  76  77
ATOM     77  S   UNL     1      -7.532  -7.617   2.504  1.00  0.00     0.124 S 
ATOM     78  O   UNL     1      -7.230  -6.828   1.314  1.00  0.00    -0.237 OA
ATOM     79  O   UNL     1      -7.229  -9.041   2.417  1.00  0.00    -0.237 OA
ATOM     80  O   UNL     1      -8.782  -7.282   3.178  1.00  0.00    -0.744 OA
ENDBRANCH  76  77
ENDBRANCH  44  69
BRANCH  56  81
ATOM     81  C   UNL     1      -2.301  -7.016  12.001  1.00  0.00     0.058 A 
ATOM     82  C   UNL     1      -2.957  -6.418  13.088  1.00  0.00     0.135 A 
ATOM     83  C   UNL     1      -2.121  -8.407  12.026  1.00  0.00     0.135 A 
ATOM     84  F   UNL     1      -3.147  -5.089  13.117  1.00  0.00    -0.206 F 
ATOM     85  C   UNL     1      -3.410  -7.168  14.166  1.00  0.00     0.059 A 
ATOM     86  C   UNL     1      -2.590  -9.182  13.082  1.00  0.00     0.059 A 
ATOM     87  F   UNL     1      -1.505  -9.027  11.006  1.00  0.00    -0.206 F 
ATOM     88  C   UNL     1      -3.223  -8.551  14.154  1.00  0.00     0.060 A 
BRANCH  88  89
ATOM     89  S   UNL     1      -3.852  -9.517  15.542  1.00  0.00     0.124 S 
ATOM     90  O   UNL     1      -2.893  -9.192  16.592  1.00  0.00    -0.237 OA
ATOM     91  O   UNL     1      -5.195  -8.971  15.716  1.00  0.00    -0.237 OA
ATOM     92  O   UNL     1      -3.803 -10.890  15.048  1.00  0.00    -0.744 OA
ENDBRANCH  88  89
ENDBRANCH  56  81
ENDBRANCH  30  31
ENDBRANCH  22  25
ENDBRANCH  20  21
ENDBRANCH   1  20
TORSDOF 15
