REMARK SMILES CC[C@H]1CCCC[C@@H]1C1(C(=O)NCCCNC(=O)c2ccc(-c3c4nc(c(-c5c(F)cc(S(=O)(=O)[O-])cc5F)c5ccc([nH]5)c(-c5c(F)cc(S(=O)(=O)[O-])cc5F)c5nc(c(-c6c(F)cc(S(=O)(=O)[O-])cc6F)c6ccc3[nH]6)C=C5)C=C4)cc2)CC1
REMARK SMILES IDX 14 1 13 2 12 3 10 4 11 5 9 7 85 8 86 9 8 10 3 11 4 12 5 13
REMARK SMILES IDX 7 14 6 15 2 16 1 17 15 18 16 19 17 20 18 22 19 23 20 24
REMARK SMILES IDX 84 25 21 26 83 27 22 28 23 29 24 30 77 31 25 32 82 33 76 34
REMARK SMILES IDX 78 35 26 36 81 37 75 38 74 39 27 41 61 42 40 43 60 44 41 45
REMARK SMILES IDX 44 46 59 47 79 48 42 49 43 50 58 52 80 53 45 54 28 55 29 56
REMARK SMILES IDX 38 57 30 58 31 59 37 60 39 61 32 62 33 63 34 64 35 65 36 66
REMARK SMILES IDX 62 67 63 68 72 69 64 70 65 71 71 72 73 73 66 74 67 75 68 76
REMARK SMILES IDX 69 77 70 78 46 79 47 80 56 81 48 82 49 83 55 84 57 85 50 86
REMARK SMILES IDX 51 87 52 88 53 89 54 90
REMARK H PARENT 12 6 16 21 78 40 44 51
REMARK Flexibility Score: inf
ROOT
ATOM      1  C   UNL     1      -3.230   4.657   2.726  1.00  0.00     0.042 C 
ENDROOT
BRANCH   1   2
ATOM      2  C   UNL     1      -2.672   4.043   1.446  1.00  0.00     0.117 C 
BRANCH   2   3
ATOM      3  N   UNL     1      -1.225   4.041   1.409  1.00  0.00    -0.356 N 
ATOM      4  C   UNL     1      -0.249   3.105   1.571  1.00  0.00     0.226 C 
ATOM      5  O   UNL     1       0.889   3.479   1.277  1.00  0.00    -0.274 OA
ATOM      6  H   UNL     1      -0.856   4.935   1.222  1.00  0.00     0.163 HD
BRANCH   4   7
ATOM      7  C   UNL     1      -0.450   1.671   2.060  1.00  0.00     0.052 C 
ATOM      8  C   UNL     1      -1.329   0.815   1.141  1.00  0.00     0.018 C 
ATOM      9  C   UNL     1      -1.784   1.119   2.533  1.00  0.00     0.018 C 
BRANCH   7  10
ATOM     10  C   UNL     1       0.837   1.084   2.744  1.00  0.00     0.008 C 
ATOM     11  C   UNL     1       1.093  -0.449   2.690  1.00  0.00    -0.007 C 
ATOM     12  C   UNL     1       0.426  -1.218   3.847  1.00  0.00     0.004 C 
ATOM     13  C   UNL     1       0.650  -0.587   5.217  1.00  0.00     0.000 C 
ATOM     14  C   UNL     1       1.011   1.669   4.161  1.00  0.00     0.005 C 
ATOM     15  C   UNL     1       0.278   0.888   5.242  1.00  0.00     0.000 C 
BRANCH  11  16
ATOM     16  C   UNL     1       2.618  -0.764   2.693  1.00  0.00     0.000 C 
ATOM     17  C   UNL     1       3.330  -0.391   1.396  1.00  0.00     0.004 C 
ENDBRANCH  11  16
ENDBRANCH   7  10
ENDBRANCH   4   7
ENDBRANCH   2   3
ENDBRANCH   1   2
BRANCH   1  18
ATOM     18  C   UNL     1      -2.691   6.054   3.038  1.00  0.00     0.118 C 
BRANCH  18  19
ATOM     19  N   UNL     1      -2.808   6.978   1.914  1.00  0.00    -0.352 N 
ATOM     20  C   UNL     1      -3.574   8.105   1.759  1.00  0.00     0.251 C 
ATOM     21  H   UNL     1      -2.244   6.755   1.138  1.00  0.00     0.163 HD
ATOM     22  O   UNL     1      -3.670   8.629   0.651  1.00  0.00    -0.269 OA
BRANCH  20  23
ATOM     23  C   UNL     1      -4.299   8.670   2.912  1.00  0.00     0.039 A 
ATOM     24  C   UNL     1      -5.637   9.039   2.758  1.00  0.00     0.014 A 
ATOM     25  C   UNL     1      -3.660   8.824   4.144  1.00  0.00     0.014 A 
ATOM     26  C   UNL     1      -6.363   9.474   3.868  1.00  0.00     0.010 A 
ATOM     27  C   UNL     1      -4.404   9.181   5.263  1.00  0.00     0.010 A 
ATOM     28  C   UNL     1      -5.766   9.495   5.139  1.00  0.00    -0.014 A 
BRANCH  28  29
ATOM     29  C   UNL     1      -6.555   9.793   6.360  1.00  0.00     0.031 A 
ATOM     30  C   UNL     1      -6.225  10.990   7.206  1.00  0.00     0.074 A 
ATOM     31  C   UNL     1      -7.510   8.926   6.753  1.00  0.00     0.049 A 
ATOM     32  N   UNL     1      -6.748  11.366   8.344  1.00  0.00    -0.248 NA
ATOM     33  C   UNL     1      -5.148  11.866   6.720  1.00  0.00     0.031 C 
ATOM     34  C   UNL     1      -7.892   7.708   6.034  1.00  0.00     0.029 A 
ATOM     35  N   UNL     1      -8.326   8.929   7.855  1.00  0.00    -0.354 N 
ATOM     36  C   UNL     1      -6.053  12.508   8.722  1.00  0.00     0.074 A 
ATOM     37  C   UNL     1      -5.038  12.735   7.715  1.00  0.00     0.031 C 
ATOM     38  C   UNL     1      -8.890   7.102   6.695  1.00  0.00     0.029 A 
ATOM     39  C   UNL     1      -9.184   7.855   7.910  1.00  0.00     0.049 A 
ATOM     40  H   UNL     1      -8.300   9.633   8.543  1.00  0.00     0.167 HD
ATOM     41  C   UNL     1      -6.255  13.303   9.800  1.00  0.00     0.037 A 
ATOM     42  C   UNL     1     -10.098   7.511   8.837  1.00  0.00     0.037 A 
ATOM     43  C   UNL     1      -7.275  13.069  10.790  1.00  0.00     0.049 A 
ATOM     44  C   UNL     1     -10.276   8.387  10.047  1.00  0.00     0.074 A 
ATOM     45  C   UNL     1      -7.611  13.852  11.880  1.00  0.00     0.029 A 
ATOM     46  N   UNL     1      -8.112  11.962  10.821  1.00  0.00    -0.354 N 
ATOM     47  N   UNL     1      -9.666   9.508  10.349  1.00  0.00    -0.248 NA
ATOM     48  C   UNL     1     -11.261   7.948  11.044  1.00  0.00     0.031 C 
ATOM     49  C   UNL     1      -8.604  13.186  12.607  1.00  0.00     0.029 A 
ATOM     50  C   UNL     1      -8.933  12.018  11.936  1.00  0.00     0.049 A 
ATOM     51  H   UNL     1      -8.120  11.242  10.150  1.00  0.00     0.167 HD
ATOM     52  C   UNL     1     -10.213   9.925  11.558  1.00  0.00     0.074 A 
ATOM     53  C   UNL     1     -11.208   8.938  11.926  1.00  0.00     0.031 C 
ATOM     54  C   UNL     1      -9.918  11.025  12.293  1.00  0.00     0.037 A 
BRANCH  41  55
ATOM     55  C   UNL     1      -5.336  14.484   9.974  1.00  0.00     0.058 A 
ATOM     56  C   UNL     1      -5.355  15.577   9.091  1.00  0.00     0.135 A 
ATOM     57  C   UNL     1      -4.424  14.525  11.041  1.00  0.00     0.135 A 
ATOM     58  F   UNL     1      -6.200  15.590   8.047  1.00  0.00    -0.206 F 
ATOM     59  C   UNL     1      -4.469  16.641   9.229  1.00  0.00     0.059 A 
ATOM     60  C   UNL     1      -3.551  15.595  11.218  1.00  0.00     0.059 A 
ATOM     61  F   UNL     1      -4.364  13.511  11.919  1.00  0.00    -0.206 F 
ATOM     62  C   UNL     1      -3.565  16.637  10.293  1.00  0.00     0.060 A 
BRANCH  62  63
ATOM     63  S   UNL     1      -2.398  18.006  10.438  1.00  0.00     0.124 S 
ATOM     64  O   UNL     1      -1.484  17.726   9.334  1.00  0.00    -0.237 OA
ATOM     65  O   UNL     1      -3.261  19.171  10.266  1.00  0.00    -0.237 OA
ATOM     66  O   UNL     1      -1.837  17.836  11.775  1.00  0.00    -0.744 OA
ENDBRANCH  62  63
ENDBRANCH  41  55
BRANCH  42  67
ATOM     67  C   UNL     1     -10.937   6.301   8.635  1.00  0.00     0.058 A 
ATOM     68  C   UNL     1     -12.303   6.422   8.341  1.00  0.00     0.135 A 
ATOM     69  C   UNL     1     -10.392   5.008   8.689  1.00  0.00     0.135 A 
ATOM     70  F   UNL     1     -12.872   7.636   8.287  1.00  0.00    -0.206 F 
ATOM     71  C   UNL     1     -13.101   5.307   8.110  1.00  0.00     0.059 A 
ATOM     72  C   UNL     1     -11.165   3.878   8.436  1.00  0.00     0.059 A 
ATOM     73  F   UNL     1      -9.087   4.838   8.951  1.00  0.00    -0.206 F 
ATOM     74  C   UNL     1     -12.520   4.038   8.150  1.00  0.00     0.060 A 
BRANCH  74  75
ATOM     75  S   UNL     1     -13.552   2.605   7.774  1.00  0.00     0.124 S 
ATOM     76  O   UNL     1     -14.415   2.546   8.948  1.00  0.00    -0.237 OA
ATOM     77  O   UNL     1     -14.194   3.012   6.528  1.00  0.00    -0.237 OA
ATOM     78  O   UNL     1     -12.585   1.519   7.646  1.00  0.00    -0.744 OA
ENDBRANCH  74  75
ENDBRANCH  42  67
BRANCH  54  79
ATOM     79  C   UNL     1     -10.695  11.239  13.564  1.00  0.00     0.058 A 
ATOM     80  C   UNL     1     -10.480  10.446  14.702  1.00  0.00     0.135 A 
ATOM     81  C   UNL     1     -11.617  12.294  13.665  1.00  0.00     0.135 A 
ATOM     82  F   UNL     1      -9.619   9.418  14.657  1.00  0.00    -0.206 F 
ATOM     83  C   UNL     1     -11.163  10.682  15.892  1.00  0.00     0.059 A 
ATOM     84  C   UNL     1     -12.288  12.567  14.853  1.00  0.00     0.059 A 
ATOM     85  F   UNL     1     -11.856  13.087  12.609  1.00  0.00    -0.206 F 
ATOM     86  C   UNL     1     -12.059  11.751  15.959  1.00  0.00     0.060 A 
BRANCH  86  87
ATOM     87  S   UNL     1     -12.895  12.079  17.526  1.00  0.00     0.124 S 
ATOM     88  O   UNL     1     -13.832  10.963  17.599  1.00  0.00    -0.237 OA
ATOM     89  O   UNL     1     -11.791  12.044  18.480  1.00  0.00    -0.237 OA
ATOM     90  O   UNL     1     -13.498  13.392  17.322  1.00  0.00    -0.744 OA
ENDBRANCH  86  87
ENDBRANCH  54  79
ENDBRANCH  28  29
ENDBRANCH  20  23
ENDBRANCH  18  19
ENDBRANCH   1  18
TORSDOF 15
