REMARK SMILES Nc1ccc(O)c(C(=O)NCCCNC(=O)c2ccc(-c3c4nc(c(-c5c(F)cc(S(=O)(=O)[O-])cc5F)c5ccc([nH]5)c(-c5c(F)cc(S(=O)(=O)[O-])cc5F)c5nc(c(-c6c(F)cc(S(=O)(=O)[O-])cc6F)c6ccc3[nH]6)C=C5)C=C4)cc2)c1
REMARK SMILES IDX 13 1 12 2 11 3 10 4 8 5 9 6 7 8 2 9 3 10 83 11 4 12 5 13
REMARK SMILES IDX 1 14 6 17 14 19 15 20 16 22 17 23 18 24 82 25 19 26 81 27
REMARK SMILES IDX 20 28 21 29 22 30 75 31 23 32 80 33 74 34 76 35 24 36 79 37
REMARK SMILES IDX 73 38 72 39 25 41 59 42 38 43 58 44 39 45 42 46 57 47 77 48
REMARK SMILES IDX 40 49 41 50 56 52 78 53 43 54 26 55 27 56 36 57 28 58 29 59
REMARK SMILES IDX 35 60 37 61 30 62 31 63 32 64 33 65 34 66 60 67 61 68 70 69
REMARK SMILES IDX 62 70 63 71 69 72 71 73 64 74 65 75 66 76 67 77 68 78 44 79
REMARK SMILES IDX 45 80 54 81 46 82 47 83 53 84 55 85 48 86 49 87 50 88 51 89
REMARK SMILES IDX 52 90
REMARK H PARENT 10 7 1 15 1 16 6 18 14 21 76 40 42 51
REMARK Flexibility Score: inf
ROOT
ATOM      1  C   UNL     1      -0.877  -5.971  -1.024  1.00  0.00     0.118 C 
ENDROOT
BRANCH   1   2
ATOM      2  C   UNL     1      -1.340  -4.552  -0.697  1.00  0.00     0.042 C 
BRANCH   2   3
ATOM      3  C   UNL     1      -0.651  -3.977   0.539  1.00  0.00     0.118 C 
BRANCH   3   4
ATOM      4  N   UNL     1       0.703  -3.558   0.226  1.00  0.00    -0.352 N 
ATOM      5  C   UNL     1       1.276  -2.346  -0.052  1.00  0.00     0.255 C 
ATOM      6  O   UNL     1       2.498  -2.345  -0.243  1.00  0.00    -0.269 OA
ATOM      7  H   UNL     1       1.345  -4.304   0.210  1.00  0.00     0.163 HD
BRANCH   5   8
ATOM      8  C   UNL     1       0.563  -1.036  -0.076  1.00  0.00     0.083 A 
ATOM      9  C   UNL     1      -1.447   0.356  -0.168  1.00  0.00     0.032 A 
ATOM     10  C   UNL     1      -0.667   1.493   0.036  1.00  0.00     0.029 A 
ATOM     11  C   UNL     1      -0.821  -0.896  -0.242  1.00  0.00     0.043 A 
ATOM     12  C   UNL     1       0.720   1.390   0.125  1.00  0.00     0.049 A 
ATOM     13  C   UNL     1       1.326   0.138   0.072  1.00  0.00     0.128 A 
BRANCH   9  14
ATOM     14  N   UNL     1      -2.830   0.447  -0.167  1.00  0.00    -0.399 N 
ATOM     15  H   UNL     1      -3.265   1.329  -0.114  1.00  0.00     0.156 HD
ATOM     16  H   UNL     1      -3.377  -0.369  -0.218  1.00  0.00     0.156 HD
ENDBRANCH   9  14
BRANCH  13  17
ATOM     17  O   UNL     1       2.694   0.145   0.180  1.00  0.00    -0.507 OA
ATOM     18  H   UNL     1       3.152   0.957   0.277  1.00  0.00     0.293 HD
ENDBRANCH  13  17
ENDBRANCH   5   8
ENDBRANCH   3   4
ENDBRANCH   2   3
ENDBRANCH   1   2
BRANCH   1  19
ATOM     19  N   UNL     1      -1.318  -6.929  -0.015  1.00  0.00    -0.352 N 
ATOM     20  C   UNL     1      -2.138  -8.024  -0.142  1.00  0.00     0.251 C 
ATOM     21  H   UNL     1      -0.977  -6.766   0.894  1.00  0.00     0.163 HD
ATOM     22  O   UNL     1      -2.595  -8.561   0.861  1.00  0.00    -0.269 OA
BRANCH  20  23
ATOM     23  C   UNL     1      -2.471  -8.544  -1.485  1.00  0.00     0.039 A 
ATOM     24  C   UNL     1      -3.787  -8.922  -1.764  1.00  0.00     0.014 A 
ATOM     25  C   UNL     1      -1.479  -8.670  -2.460  1.00  0.00     0.014 A 
ATOM     26  C   UNL     1      -4.122  -9.360  -3.047  1.00  0.00     0.010 A 
ATOM     27  C   UNL     1      -1.829  -9.033  -3.756  1.00  0.00     0.010 A 
ATOM     28  C   UNL     1      -3.153  -9.380  -4.064  1.00  0.00    -0.014 A 
BRANCH  28  29
ATOM     29  C   UNL     1      -3.493  -9.748  -5.462  1.00  0.00     0.031 A 
ATOM     30  C   UNL     1      -2.844 -10.946  -6.099  1.00  0.00     0.074 A 
ATOM     31  C   UNL     1      -4.303  -8.948  -6.183  1.00  0.00     0.049 A 
ATOM     32  N   UNL     1      -2.896 -11.350  -7.342  1.00  0.00    -0.248 NA
ATOM     33  C   UNL     1      -2.001 -11.784  -5.230  1.00  0.00     0.031 C 
ATOM     34  C   UNL     1      -4.960  -7.738  -5.683  1.00  0.00     0.029 A 
ATOM     35  N   UNL     1      -4.697  -9.019  -7.496  1.00  0.00    -0.354 N 
ATOM     36  C   UNL     1      -2.078 -12.473  -7.409  1.00  0.00     0.074 A 
ATOM     37  C   UNL     1      -1.504 -12.657  -6.094  1.00  0.00     0.031 C 
ATOM     38  C   UNL     1      -5.681  -7.187  -6.673  1.00  0.00     0.029 A 
ATOM     39  C   UNL     1      -5.500  -7.973  -7.889  1.00  0.00     0.049 A 
ATOM     40  H   UNL     1      -4.429  -9.749  -8.100  1.00  0.00     0.167 HD
ATOM     41  C   UNL     1      -1.845 -13.285  -8.467  1.00  0.00     0.037 A 
ATOM     42  C   UNL     1      -6.014  -7.669  -9.097  1.00  0.00     0.037 A 
ATOM     43  C   UNL     1      -2.441 -13.103  -9.764  1.00  0.00     0.049 A 
ATOM     44  C   UNL     1      -5.725  -8.577 -10.262  1.00  0.00     0.074 A 
ATOM     45  C   UNL     1      -2.315 -13.902 -10.887  1.00  0.00     0.029 A 
ATOM     46  N   UNL     1      -3.270 -12.047 -10.115  1.00  0.00    -0.354 N 
ATOM     47  N   UNL     1      -4.998  -9.669 -10.295  1.00  0.00    -0.248 NA
ATOM     48  C   UNL     1      -6.326  -8.217 -11.554  1.00  0.00     0.031 C 
ATOM     49  C   UNL     1      -3.024 -13.301 -11.931  1.00  0.00     0.029 A 
ATOM     50  C   UNL     1      -3.643 -12.160 -11.444  1.00  0.00     0.049 A 
ATOM     51  H   UNL     1      -3.551 -11.324  -9.509  1.00  0.00     0.167 HD
ATOM     52  C   UNL     1      -5.082 -10.143 -11.599  1.00  0.00     0.074 A 
ATOM     53  C   UNL     1      -5.934  -9.223 -12.324  1.00  0.00     0.031 C 
ATOM     54  C   UNL     1      -4.508 -11.243 -12.146  1.00  0.00     0.037 A 
BRANCH  41  55
ATOM     55  C   UNL     1      -0.905 -14.444  -8.268  1.00  0.00     0.058 A 
ATOM     56  C   UNL     1      -1.244 -15.541  -7.458  1.00  0.00     0.135 A 
ATOM     57  C   UNL     1       0.335 -14.479  -8.927  1.00  0.00     0.135 A 
ATOM     58  F   UNL     1      -2.410 -15.556  -6.793  1.00  0.00    -0.206 F 
ATOM     59  C   UNL     1      -0.377 -16.614  -7.285  1.00  0.00     0.059 A 
ATOM     60  C   UNL     1       1.205 -15.557  -8.793  1.00  0.00     0.059 A 
ATOM     61  F   UNL     1       0.712 -13.458  -9.713  1.00  0.00    -0.206 F 
ATOM     62  C   UNL     1       0.846 -16.613  -7.958  1.00  0.00     0.060 A 
BRANCH  62  63
ATOM     63  S   UNL     1       1.955 -18.018  -7.727  1.00  0.00     0.124 S 
ATOM     64  O   UNL     1       2.409 -17.808  -6.355  1.00  0.00    -0.237 OA
ATOM     65  O   UNL     1       1.064 -19.156  -7.931  1.00  0.00    -0.237 OA
ATOM     66  O   UNL     1       2.969 -17.826  -8.759  1.00  0.00    -0.744 OA
ENDBRANCH  62  63
ENDBRANCH  41  55
BRANCH  42  67
ATOM     67  C   UNL     1      -6.861  -6.457  -9.261  1.00  0.00     0.058 A 
ATOM     68  C   UNL     1      -8.236  -6.567  -9.514  1.00  0.00     0.135 A 
ATOM     69  C   UNL     1      -6.319  -5.166  -9.153  1.00  0.00     0.135 A 
ATOM     70  F   UNL     1      -8.801  -7.778  -9.633  1.00  0.00    -0.206 F 
ATOM     71  C   UNL     1      -9.042  -5.444  -9.671  1.00  0.00     0.059 A 
ATOM     72  C   UNL     1      -7.109  -4.027  -9.278  1.00  0.00     0.059 A 
ATOM     73  F   UNL     1      -5.012  -5.004  -8.894  1.00  0.00    -0.206 F 
ATOM     74  C   UNL     1      -8.469  -4.177  -9.547  1.00  0.00     0.060 A 
BRANCH  74  75
ATOM     75  S   UNL     1      -9.534  -2.727  -9.703  1.00  0.00     0.124 S 
ATOM     76  O   UNL     1      -9.827  -2.730 -11.131  1.00  0.00    -0.237 OA
ATOM     77  O   UNL     1     -10.645  -3.068  -8.821  1.00  0.00    -0.237 OA
ATOM     78  O   UNL     1      -8.685  -1.635  -9.234  1.00  0.00    -0.744 OA
ENDBRANCH  74  75
ENDBRANCH  42  67
BRANCH  54  79
ATOM     79  C   UNL     1      -4.814 -11.551 -13.586  1.00  0.00     0.058 A 
ATOM     80  C   UNL     1      -4.265 -10.800 -14.637  1.00  0.00     0.135 A 
ATOM     81  C   UNL     1      -5.598 -12.668 -13.918  1.00  0.00     0.135 A 
ATOM     82  F   UNL     1      -3.517  -9.716 -14.375  1.00  0.00    -0.206 F 
ATOM     83  C   UNL     1      -4.490 -11.142 -15.966  1.00  0.00     0.059 A 
ATOM     84  C   UNL     1      -5.811 -13.046 -15.239  1.00  0.00     0.059 A 
ATOM     85  F   UNL     1      -6.140 -13.425 -12.950  1.00  0.00    -0.206 F 
ATOM     86  C   UNL     1      -5.256 -12.273 -16.257  1.00  0.00     0.060 A 
BRANCH  86  87
ATOM     87  S   UNL     1      -5.482 -12.742 -17.986  1.00  0.00     0.124 S 
ATOM     88  O   UNL     1      -6.392 -11.703 -18.457  1.00  0.00    -0.237 OA
ATOM     89  O   UNL     1      -4.120 -12.676 -18.506  1.00  0.00    -0.237 OA
ATOM     90  O   UNL     1      -6.052 -14.084 -17.903  1.00  0.00    -0.744 OA
ENDBRANCH  86  87
ENDBRANCH  54  79
ENDBRANCH  28  29
ENDBRANCH  20  23
ENDBRANCH   1  19
TORSDOF 15
