REMARK SMILES COc1ccc(CSc2ncccc2C(=O)NCCCNC(=O)c2ccc(-c3c4nc(c(-c5c(F)cc(S(=O)(=O)[O-])cc5F)c5ccc([nH]5)c(-c5c(F)cc(S(=O)(=O)[O-])cc5F)c5nc(c(-c6c(F)cc(S(=O)(=O)[O-])cc6F)c6ccc3[nH]6)C=C5)C=C4)cc2)cc1
REMARK SMILES IDX 18 1 17 2 15 3 16 4 14 6 9 7 10 8 11 9 13 10 12 11 8 12 7 13
REMARK SMILES IDX 6 14 3 15 4 16 91 17 5 18 90 19 2 20 1 21 19 22 20 23 21 24
REMARK SMILES IDX 22 25 23 27 24 28 25 29 89 30 26 31 88 32 27 33 28 34 29 35
REMARK SMILES IDX 82 36 30 37 87 38 81 39 83 40 31 41 86 42 80 43 79 44 32 46
REMARK SMILES IDX 66 47 45 48 65 49 46 50 49 51 64 52 84 53 47 54 48 55 63 57
REMARK SMILES IDX 85 58 50 59 33 60 34 61 43 62 35 63 36 64 42 65 44 66 37 67
REMARK SMILES IDX 38 68 39 69 40 70 41 71 67 72 68 73 77 74 69 75 70 76 76 77
REMARK SMILES IDX 78 78 71 79 72 80 73 81 74 82 75 83 51 84 52 85 61 86 53 87
REMARK SMILES IDX 54 88 60 89 62 90 55 91 56 92 57 93 58 94 59 95
REMARK H PARENT 17 5 21 26 83 45 49 56
REMARK Flexibility Score: inf
ROOT
ATOM      1  C   UNL     1       6.003   1.730   4.231  1.00  0.00     0.118 C 
ENDROOT
BRANCH   1   2
ATOM      2  N   UNL     1       5.499   1.086   5.438  1.00  0.00    -0.352 N 
ATOM      3  C   UNL     1       4.695   1.530   6.457  1.00  0.00     0.254 C 
ATOM      4  O   UNL     1       4.586   0.810   7.451  1.00  0.00    -0.269 OA
ATOM      5  H   UNL     1       5.793   0.152   5.542  1.00  0.00     0.163 HD
BRANCH   3   6
ATOM      6  C   UNL     1       3.952   2.804   6.379  1.00  0.00     0.072 A 
ATOM      7  C   UNL     1       2.605   2.920   6.746  1.00  0.00     0.109 A 
ATOM      8  N   UNL     1       1.955   4.121   6.681  1.00  0.00    -0.249 NA
ATOM      9  C   UNL     1       2.641   5.216   6.298  1.00  0.00     0.112 A 
ATOM     10  C   UNL     1       4.643   3.977   6.032  1.00  0.00     0.018 A 
ATOM     11  C   UNL     1       3.980   5.198   5.978  1.00  0.00     0.021 A 
BRANCH   7  12
ATOM     12  S   UNL     1       1.546   1.692   7.492  1.00  0.00    -0.101 SA
BRANCH  12  13
ATOM     13  C   UNL     1       1.676   0.241   6.414  1.00  0.00     0.112 C 
BRANCH  13  14
ATOM     14  C   UNL     1       1.337   0.460   4.963  1.00  0.00    -0.037 A 
ATOM     15  C   UNL     1       0.666   0.668   2.236  1.00  0.00     0.118 A 
ATOM     16  C   UNL     1      -0.239   1.070   3.220  1.00  0.00     0.047 A 
ATOM     17  C   UNL     1       1.919   0.189   2.614  1.00  0.00     0.047 A 
ATOM     18  C   UNL     1       0.087   0.958   4.573  1.00  0.00     0.008 A 
ATOM     19  C   UNL     1       2.249   0.081   3.968  1.00  0.00     0.008 A 
BRANCH  15  20
ATOM     20  O   UNL     1       0.221   0.800   0.949  1.00  0.00    -0.497 OA
ATOM     21  C   UNL     1       0.898   0.013  -0.024  1.00  0.00     0.278 C 
ENDBRANCH  15  20
ENDBRANCH  13  14
ENDBRANCH  12  13
ENDBRANCH   7  12
ENDBRANCH   3   6
ENDBRANCH   1   2
BRANCH   1  22
ATOM     22  C   UNL     1       7.472   2.123   4.414  1.00  0.00     0.042 C 
BRANCH  22  23
ATOM     23  C   UNL     1       8.422   0.925   4.457  1.00  0.00     0.118 C 
BRANCH  23  24
ATOM     24  N   UNL     1       8.628   0.342   3.140  1.00  0.00    -0.352 N 
ATOM     25  C   UNL     1       9.804  -0.015   2.531  1.00  0.00     0.251 C 
ATOM     26  H   UNL     1       7.812   0.182   2.614  1.00  0.00     0.163 HD
ATOM     27  O   UNL     1       9.798  -0.313   1.334  1.00  0.00    -0.269 OA
BRANCH  25  28
ATOM     28  C   UNL     1      11.074  -0.027   3.290  1.00  0.00     0.039 A 
ATOM     29  C   UNL     1      12.216   0.528   2.705  1.00  0.00     0.014 A 
ATOM     30  C   UNL     1      11.152  -0.611   4.558  1.00  0.00     0.014 A 
ATOM     31  C   UNL     1      13.424   0.539   3.408  1.00  0.00     0.010 A 
ATOM     32  C   UNL     1      12.346  -0.555   5.278  1.00  0.00     0.010 A 
ATOM     33  C   UNL     1      13.494   0.017   4.709  1.00  0.00    -0.014 A 
BRANCH  33  34
ATOM     34  C   UNL     1      14.758   0.064   5.489  1.00  0.00     0.031 A 
ATOM     35  C   UNL     1      15.478  -1.208   5.844  1.00  0.00     0.074 A 
ATOM     36  C   UNL     1      15.224   1.248   5.931  1.00  0.00     0.049 A 
ATOM     37  N   UNL     1      16.549  -1.374   6.577  1.00  0.00    -0.248 NA
ATOM     38  C   UNL     1      14.906  -2.461   5.325  1.00  0.00     0.031 C 
ATOM     39  C   UNL     1      14.594   2.548   5.689  1.00  0.00     0.029 A 
ATOM     40  N   UNL     1      16.329   1.551   6.687  1.00  0.00    -0.354 N 
ATOM     41  C   UNL     1      16.767  -2.746   6.628  1.00  0.00     0.074 A 
ATOM     42  C   UNL     1      15.697  -3.370   5.878  1.00  0.00     0.031 C 
ATOM     43  C   UNL     1      15.330   3.508   6.271  1.00  0.00     0.029 A 
ATOM     44  C   UNL     1      16.465   2.893   6.953  1.00  0.00     0.049 A 
ATOM     45  H   UNL     1      16.964   0.871   7.008  1.00  0.00     0.167 HD
ATOM     46  C   UNL     1      17.773  -3.422   7.232  1.00  0.00     0.037 A 
ATOM     47  C   UNL     1      17.395   3.553   7.670  1.00  0.00     0.037 A 
ATOM     48  C   UNL     1      18.855  -2.796   7.946  1.00  0.00     0.049 A 
ATOM     49  C   UNL     1      18.516   2.783   8.310  1.00  0.00     0.074 A 
ATOM     50  C   UNL     1      19.958  -3.392   8.534  1.00  0.00     0.029 A 
ATOM     51  N   UNL     1      18.973  -1.432   8.169  1.00  0.00    -0.354 N 
ATOM     52  N   UNL     1      18.735   1.490   8.303  1.00  0.00    -0.248 NA
ATOM     53  C   UNL     1      19.519   3.561   9.051  1.00  0.00     0.031 C 
ATOM     54  C   UNL     1      20.727  -2.391   9.138  1.00  0.00     0.029 A 
ATOM     55  C   UNL     1      20.122  -1.168   8.896  1.00  0.00     0.049 A 
ATOM     56  H   UNL     1      18.334  -0.752   7.856  1.00  0.00     0.167 HD
ATOM     57  C   UNL     1      19.912   1.301   9.018  1.00  0.00     0.074 A 
ATOM     58  C   UNL     1      20.363   2.612   9.437  1.00  0.00     0.031 C 
ATOM     59  C   UNL     1      20.561   0.144   9.301  1.00  0.00     0.037 A 
BRANCH  46  60
ATOM     60  C   UNL     1      17.754  -4.923   7.144  1.00  0.00     0.058 A 
ATOM     61  C   UNL     1      18.055  -5.593   5.947  1.00  0.00     0.135 A 
ATOM     62  C   UNL     1      17.464  -5.701   8.276  1.00  0.00     0.135 A 
ATOM     63  F   UNL     1      18.326  -4.897   4.832  1.00  0.00    -0.206 F 
ATOM     64  C   UNL     1      18.040  -6.982   5.869  1.00  0.00     0.059 A 
ATOM     65  C   UNL     1      17.466  -7.092   8.226  1.00  0.00     0.059 A 
ATOM     66  F   UNL     1      17.170  -5.110   9.445  1.00  0.00    -0.206 F 
ATOM     67  C   UNL     1      17.741  -7.723   7.013  1.00  0.00     0.060 A 
BRANCH  67  68
ATOM     68  S   UNL     1      17.724  -9.525   6.898  1.00  0.00     0.124 S 
ATOM     69  O   UNL     1      16.454  -9.759   6.217  1.00  0.00    -0.237 OA
ATOM     70  O   UNL     1      18.923  -9.801   6.113  1.00  0.00    -0.237 OA
ATOM     71  O   UNL     1      17.779  -9.955   8.291  1.00  0.00    -0.744 OA
ENDBRANCH  67  68
ENDBRANCH  46  60
BRANCH  47  72
ATOM     72  C   UNL     1      17.318   5.032   7.792  1.00  0.00     0.058 A 
ATOM     73  C   UNL     1      18.205   5.856   7.085  1.00  0.00     0.135 A 
ATOM     74  C   UNL     1      16.340   5.649   8.587  1.00  0.00     0.135 A 
ATOM     75  F   UNL     1      19.160   5.310   6.317  1.00  0.00    -0.206 F 
ATOM     76  C   UNL     1      18.130   7.243   7.164  1.00  0.00     0.059 A 
ATOM     77  C   UNL     1      16.233   7.034   8.667  1.00  0.00     0.059 A 
ATOM     78  F   UNL     1      15.459   4.902   9.269  1.00  0.00    -0.206 F 
ATOM     79  C   UNL     1      17.137   7.822   7.955  1.00  0.00     0.060 A 
BRANCH  79  80
ATOM     80  S   UNL     1      17.000   9.623   7.994  1.00  0.00     0.124 S 
ATOM     81  O   UNL     1      18.111   9.983   8.867  1.00  0.00    -0.237 OA
ATOM     82  O   UNL     1      17.154   9.975   6.586  1.00  0.00    -0.237 OA
ATOM     83  O   UNL     1      15.665   9.844   8.543  1.00  0.00    -0.744 OA
ENDBRANCH  79  80
ENDBRANCH  47  72
BRANCH  59  84
ATOM     84  C   UNL     1      21.842   0.244  10.077  1.00  0.00     0.058 A 
ATOM     85  C   UNL     1      21.847   0.494  11.457  1.00  0.00     0.135 A 
ATOM     86  C   UNL     1      23.077   0.037   9.441  1.00  0.00     0.135 A 
ATOM     87  F   UNL     1      20.693   0.707  12.109  1.00  0.00    -0.206 F 
ATOM     88  C   UNL     1      23.034   0.553  12.180  1.00  0.00     0.059 A 
ATOM     89  C   UNL     1      24.275   0.070  10.148  1.00  0.00     0.059 A 
ATOM     90  F   UNL     1      23.124  -0.214   8.123  1.00  0.00    -0.206 F 
ATOM     91  C   UNL     1      24.244   0.340  11.515  1.00  0.00     0.060 A 
BRANCH  91  92
ATOM     92  S   UNL     1      25.777   0.382  12.467  1.00  0.00     0.124 S 
ATOM     93  O   UNL     1      25.976   1.817  12.639  1.00  0.00    -0.237 OA
ATOM     94  O   UNL     1      25.420  -0.357  13.675  1.00  0.00    -0.237 OA
ATOM     95  O   UNL     1      26.737  -0.286  11.593  1.00  0.00    -0.744 OA
ENDBRANCH  91  92
ENDBRANCH  59  84
ENDBRANCH  33  34
ENDBRANCH  25  28
ENDBRANCH  23  24
ENDBRANCH  22  23
ENDBRANCH   1  22
TORSDOF 17
