REMARK SMILES Cc1c(NCc2ccccn2)cccc1C(=O)N1CCOC[C@@H]1CC(=O)NCCCNC(=O)c1ccc(-c2c3nc(c(-c4c(F)cc(S(=O)(=O)[O-])cc4F)c4ccc([nH]4)c(-c4c(F)cc(S(=O)(=O)[O-])cc4F)c4nc(c(-c5c(F)cc(S(=O)(=O)[O-])cc5F)c5ccc2[nH]5)C=C4)C=C3)cc1
REMARK SMILES IDX 25 1 26 2 27 3 24 5 23 6 18 7 19 8 20 9 22 10 21 11 16 12
REMARK SMILES IDX 17 13 15 14 1 15 2 16 3 17 12 18 14 19 13 20 4 21 5 23 6 24
REMARK SMILES IDX 7 25 11 26 8 27 10 28 9 29 28 30 29 31 30 32 31 33 32 34
REMARK SMILES IDX 33 36 34 37 35 38 99 39 36 40 98 41 37 42 38 43 39 44 92 45
REMARK SMILES IDX 40 46 97 47 91 48 93 49 41 50 96 51 90 52 89 53 42 55 76 56
REMARK SMILES IDX 55 57 75 58 56 59 59 60 74 61 94 62 57 63 58 64 73 66 95 67
REMARK SMILES IDX 60 68 43 69 44 70 53 71 45 72 46 73 52 74 54 75 47 76 48 77
REMARK SMILES IDX 49 78 50 79 51 80 77 81 78 82 87 83 79 84 80 85 86 86 88 87
REMARK SMILES IDX 81 88 82 89 83 90 84 91 85 92 61 93 62 94 71 95 63 96 64 97
REMARK SMILES IDX 70 98 72 99 65 100 66 101 67 102 68 103 69 104
REMARK H PARENT 27 4 4 22 31 35 93 54 59 65
REMARK Flexibility Score: inf
ROOT
ATOM      1  C   UNL     1       3.245   2.676   2.883  1.00  0.00     0.222 C 
ATOM      2  O   UNL     1       3.427   2.631   4.093  1.00  0.00    -0.275 OA
ATOM      3  N   UNL     1       3.496   1.568   2.057  1.00  0.00    -0.356 N 
ATOM      4  H   UNL     1       4.323   1.036   2.113  1.00  0.00     0.163 HD
ENDROOT
BRANCH   1   5
ATOM      5  C   UNL     1       2.704   3.923   2.184  1.00  0.00     0.127 C 
BRANCH   5   6
ATOM      6  C   UNL     1       3.085   3.962   0.705  1.00  0.00     0.120 C 
ATOM      7  N   UNL     1       2.188   3.256  -0.354  1.00  0.00    -0.331 N 
ATOM      8  C   UNL     1       2.854   3.473  -1.695  1.00  0.00     0.148 C 
ATOM      9  C   UNL     1       4.329   2.923  -1.652  1.00  0.00     0.181 C 
ATOM     10  C   UNL     1       4.630   3.578   0.553  1.00  0.00     0.185 C 
ATOM     11  O   UNL     1       5.113   3.751  -0.780  1.00  0.00    -0.377 OA
BRANCH   7  12
ATOM     12  C   UNL     1       0.708   2.643  -0.294  1.00  0.00     0.254 C 
ATOM     13  O   UNL     1      -0.113   3.278  -0.909  1.00  0.00    -0.269 OA
BRANCH  12  14
ATOM     14  C   UNL     1       0.132   1.076   0.537  1.00  0.00     0.045 A 
ATOM     15  C   UNL     1       2.233  -1.177   0.958  1.00  0.00     0.047 C 
ATOM     16  C   UNL     1       0.716  -0.461   0.901  1.00  0.00    -0.015 A 
ATOM     17  C   UNL     1       0.000  -1.449   1.552  1.00  0.00     0.038 A 
ATOM     18  C   UNL     1      -1.183  -0.951   2.083  1.00  0.00     0.026 A 
ATOM     19  C   UNL     1      -1.177   1.282   0.944  1.00  0.00     0.014 A 
ATOM     20  C   UNL     1      -1.789   0.299   1.736  1.00  0.00     0.003 A 
BRANCH  17  21
ATOM     21  N   UNL     1       0.475  -2.744   1.764  1.00  0.00    -0.379 N 
ATOM     22  H   UNL     1       0.456  -2.942   2.728  1.00  0.00     0.160 HD
BRANCH  21  23
ATOM     23  C   UNL     1       1.029  -3.990   0.996  1.00  0.00     0.169 C 
BRANCH  23  24
ATOM     24  C   UNL     1       1.020  -4.475  -0.500  1.00  0.00     0.059 A 
ATOM     25  C   UNL     1       1.431  -3.795  -1.642  1.00  0.00     0.026 A 
ATOM     26  N   UNL     1       0.777  -5.809  -0.663  1.00  0.00    -0.259 NA
ATOM     27  C   UNL     1       1.375  -4.368  -2.931  1.00  0.00     0.004 A 
ATOM     28  C   UNL     1       0.824  -6.388  -1.899  1.00  0.00     0.111 A 
ATOM     29  C   UNL     1       1.073  -5.705  -3.067  1.00  0.00     0.020 A 
ENDBRANCH  23  24
ENDBRANCH  21  23
ENDBRANCH  17  21
ENDBRANCH  12  14
ENDBRANCH   7  12
ENDBRANCH   5   6
ENDBRANCH   1   5
BRANCH   3  30
ATOM     30  C   UNL     1       2.443   1.277   1.125  1.00  0.00     0.117 C 
BRANCH  30  31
ATOM     31  C   UNL     1       2.339   0.638  -0.688  1.00  0.00     0.042 C 
BRANCH  31  32
ATOM     32  C   UNL     1       1.086  -0.218  -1.737  1.00  0.00     0.118 C 
BRANCH  32  33
ATOM     33  N   UNL     1      -0.459  -0.237  -1.883  1.00  0.00    -0.352 N 
ATOM     34  C   UNL     1      -1.242  -1.232  -2.639  1.00  0.00     0.251 C 
ATOM     35  H   UNL     1      -0.961   0.479  -1.430  1.00  0.00     0.163 HD
ATOM     36  O   UNL     1      -1.022  -1.494  -3.817  1.00  0.00    -0.269 OA
BRANCH  34  37
ATOM     37  C   UNL     1      -2.170  -2.164  -1.789  1.00  0.00     0.039 A 
ATOM     38  C   UNL     1      -3.389  -2.875  -1.890  1.00  0.00     0.014 A 
ATOM     39  C   UNL     1      -1.466  -2.547  -0.703  1.00  0.00     0.014 A 
ATOM     40  C   UNL     1      -3.897  -3.763  -0.801  1.00  0.00     0.010 A 
ATOM     41  C   UNL     1      -1.951  -3.361   0.299  1.00  0.00     0.010 A 
ATOM     42  C   UNL     1      -3.167  -3.966   0.363  1.00  0.00    -0.014 A 
BRANCH  42  43
ATOM     43  C   UNL     1      -3.220  -4.621   1.727  1.00  0.00     0.031 A 
ATOM     44  C   UNL     1      -2.342  -5.815   2.066  1.00  0.00     0.074 A 
ATOM     45  C   UNL     1      -3.324  -3.730   2.761  1.00  0.00     0.049 A 
ATOM     46  N   UNL     1      -2.076  -6.237   3.263  1.00  0.00    -0.248 NA
ATOM     47  C   UNL     1      -1.626  -6.590   1.063  1.00  0.00     0.031 C 
ATOM     48  C   UNL     1      -2.638  -3.687   4.073  1.00  0.00     0.029 A 
ATOM     49  N   UNL     1      -4.082  -2.572   2.805  1.00  0.00    -0.354 N 
ATOM     50  C   UNL     1      -0.997  -7.108   3.224  1.00  0.00     0.074 A 
ATOM     51  C   UNL     1      -0.813  -7.354   1.814  1.00  0.00     0.031 C 
ATOM     52  C   UNL     1      -3.209  -2.753   4.855  1.00  0.00     0.029 A 
ATOM     53  C   UNL     1      -4.385  -2.291   4.150  1.00  0.00     0.049 A 
ATOM     54  H   UNL     1      -4.361  -2.036   2.028  1.00  0.00     0.167 HD
ATOM     55  C   UNL     1      -0.355  -7.453   4.391  1.00  0.00     0.037 A 
ATOM     56  C   UNL     1      -5.677  -2.547   4.538  1.00  0.00     0.037 A 
ATOM     57  C   UNL     1      -1.046  -6.872   5.547  1.00  0.00     0.049 A 
ATOM     58  C   UNL     1      -5.808  -3.802   5.397  1.00  0.00     0.074 A 
ATOM     59  C   UNL     1      -0.789  -5.883   6.480  1.00  0.00     0.029 A 
ATOM     60  N   UNL     1      -2.352  -7.263   5.761  1.00  0.00    -0.354 N 
ATOM     61  N   UNL     1      -4.806  -4.475   5.902  1.00  0.00    -0.248 NA
ATOM     62  C   UNL     1      -7.091  -4.430   5.712  1.00  0.00     0.031 C 
ATOM     63  C   UNL     1      -2.020  -5.604   7.161  1.00  0.00     0.029 A 
ATOM     64  C   UNL     1      -2.994  -6.461   6.678  1.00  0.00     0.049 A 
ATOM     65  H   UNL     1      -2.776  -8.027   5.309  1.00  0.00     0.167 HD
ATOM     66  C   UNL     1      -5.256  -5.655   6.433  1.00  0.00     0.074 A 
ATOM     67  C   UNL     1      -6.702  -5.558   6.332  1.00  0.00     0.031 C 
ATOM     68  C   UNL     1      -4.426  -6.653   6.867  1.00  0.00     0.037 A 
BRANCH  55  69
ATOM     69  C   UNL     1       0.919  -8.282   4.598  1.00  0.00     0.058 A 
ATOM     70  C   UNL     1       1.282  -8.711   5.904  1.00  0.00     0.135 A 
ATOM     71  C   UNL     1       1.858  -8.628   3.605  1.00  0.00     0.135 A 
ATOM     72  F   UNL     1       0.479  -8.491   6.956  1.00  0.00    -0.206 F 
ATOM     73  C   UNL     1       2.481  -9.373   6.203  1.00  0.00     0.059 A 
ATOM     74  C   UNL     1       3.050  -9.325   3.875  1.00  0.00     0.059 A 
ATOM     75  F   UNL     1       1.694  -8.268   2.328  1.00  0.00    -0.206 F 
ATOM     76  C   UNL     1       3.370  -9.668   5.181  1.00  0.00     0.060 A 
BRANCH  76  77
ATOM     77  S   UNL     1       4.944 -10.457   5.588  1.00  0.00     0.124 S 
ATOM     78  O   UNL     1       5.616  -9.412   6.354  1.00  0.00    -0.237 OA
ATOM     79  O   UNL     1       4.525 -11.630   6.346  1.00  0.00    -0.237 OA
ATOM     80  O   UNL     1       5.532 -10.741   4.280  1.00  0.00    -0.744 OA
ENDBRANCH  76  77
ENDBRANCH  55  69
BRANCH  56  81
ATOM     81  C   UNL     1      -6.603  -2.091   3.430  1.00  0.00     0.058 A 
ATOM     82  C   UNL     1      -6.582  -0.701   3.162  1.00  0.00     0.135 A 
ATOM     83  C   UNL     1      -6.851  -2.951   2.340  1.00  0.00     0.135 A 
ATOM     84  F   UNL     1      -6.338   0.167   4.159  1.00  0.00    -0.206 F 
ATOM     85  C   UNL     1      -6.563  -0.209   1.859  1.00  0.00     0.059 A 
ATOM     86  C   UNL     1      -6.840  -2.470   1.024  1.00  0.00     0.059 A 
ATOM     87  F   UNL     1      -6.859  -4.280   2.522  1.00  0.00    -0.206 F 
ATOM     88  C   UNL     1      -6.619  -1.110   0.797  1.00  0.00     0.060 A 
BRANCH  88  89
ATOM     89  S   UNL     1      -6.206  -0.487  -0.854  1.00  0.00     0.124 S 
ATOM     90  O   UNL     1      -7.174   0.592  -1.020  1.00  0.00    -0.237 OA
ATOM     91  O   UNL     1      -4.819  -0.066  -0.667  1.00  0.00    -0.237 OA
ATOM     92  O   UNL     1      -6.407  -1.645  -1.719  1.00  0.00    -0.744 OA
ENDBRANCH  88  89
ENDBRANCH  56  81
BRANCH  68  93
ATOM     93  C   UNL     1      -4.944  -7.933   7.474  1.00  0.00     0.058 A 
ATOM     94  C   UNL     1      -5.923  -7.915   8.480  1.00  0.00     0.135 A 
ATOM     95  C   UNL     1      -4.410  -9.203   7.157  1.00  0.00     0.135 A 
ATOM     96  F   UNL     1      -6.440  -6.753   8.909  1.00  0.00    -0.206 F 
ATOM     97  C   UNL     1      -6.398  -9.081   9.077  1.00  0.00     0.059 A 
ATOM     98  C   UNL     1      -4.822 -10.375   7.786  1.00  0.00     0.059 A 
ATOM     99  F   UNL     1      -3.492  -9.362   6.192  1.00  0.00    -0.206 F 
ATOM    100  C   UNL     1      -5.844 -10.308   8.721  1.00  0.00     0.060 A 
BRANCH 100 101
ATOM    101  S   UNL     1      -6.469 -11.813   9.489  1.00  0.00     0.124 S 
ATOM    102  O   UNL     1      -6.673 -11.400  10.875  1.00  0.00    -0.237 OA
ATOM    103  O   UNL     1      -7.684 -12.048   8.716  1.00  0.00    -0.237 OA
ATOM    104  O   UNL     1      -5.393 -12.776   9.280  1.00  0.00    -0.744 OA
ENDBRANCH 100 101
ENDBRANCH  68  93
ENDBRANCH  42  43
ENDBRANCH  34  37
ENDBRANCH  32  33
ENDBRANCH  31  32
ENDBRANCH  30  31
ENDBRANCH   3  30
TORSDOF 19
