REMARK SMILES O=C(NCc1ccc(C(=O)NCCCNC(=O)c2ccc(-c3c4nc(c(-c5c(F)cc(S(=O)(=O)[O-])cc5F)c5ccc([nH]5)c(-c5c(F)cc(S(=O)(=O)[O-])cc5F)c5nc(c(-c6c(F)cc(S(=O)(=O)[O-])cc6F)c6ccc3[nH]6)C=C5)C=C4)cc2)o1)Nc1ccc(F)c(Cl)c1
REMARK SMILES IDX 13 1 12 2 11 3 9 4 10 5 8 7 5 8 6 9 84 10 7 11 4 12 3 13
REMARK SMILES IDX 1 14 2 15 85 16 86 19 87 20 93 21 88 22 91 23 89 24 92 25
REMARK SMILES IDX 90 26 14 27 15 28 16 29 17 31 18 32 19 33 83 34 20 35 82 36
REMARK SMILES IDX 21 37 22 38 23 39 76 40 24 41 81 42 75 43 77 44 25 45 80 46
REMARK SMILES IDX 74 47 73 48 26 50 60 51 39 52 59 53 40 54 43 55 58 56 78 57
REMARK SMILES IDX 41 58 42 59 57 61 79 62 44 63 27 64 28 65 37 66 29 67 30 68
REMARK SMILES IDX 36 69 38 70 31 71 32 72 33 73 34 74 35 75 61 76 62 77 71 78
REMARK SMILES IDX 63 79 64 80 70 81 72 82 65 83 66 84 67 85 68 86 69 87 45 88
REMARK SMILES IDX 46 89 55 90 47 91 48 92 54 93 56 94 49 95 50 96 51 97 52 98
REMARK SMILES IDX 53 99
REMARK H PARENT 11 6 3 17 85 18 15 30 77 49 43 60
REMARK Flexibility Score: inf
ROOT
ATOM      1  C   UNL     1       7.476  -7.072   0.338  1.00  0.00     0.042 C 
ENDROOT
BRANCH   1   2
ATOM      2  C   UNL     1       6.978  -6.645  -1.040  1.00  0.00     0.118 C 
BRANCH   2   3
ATOM      3  N   UNL     1       5.536  -6.518  -1.088  1.00  0.00    -0.349 N 
ATOM      4  C   UNL     1       4.728  -5.404  -1.103  1.00  0.00     0.286 C 
ATOM      5  O   UNL     1       3.536  -5.613  -1.337  1.00  0.00    -0.266 OA
ATOM      6  H   UNL     1       5.051  -7.375  -1.113  1.00  0.00     0.163 HD
BRANCH   4   7
ATOM      7  C   UNL     1       5.263  -4.073  -0.875  1.00  0.00     0.191 A 
ATOM      8  C   UNL     1       5.111  -1.859  -0.954  1.00  0.00     0.124 A 
ATOM      9  C   UNL     1       6.318  -2.142  -0.356  1.00  0.00     0.048 A 
ATOM     10  O   UNL     1       4.481  -3.020  -1.290  1.00  0.00    -0.454 OA
ATOM     11  C   UNL     1       6.403  -3.556  -0.284  1.00  0.00     0.056 A 
BRANCH   8  12
ATOM     12  C   UNL     1       4.413  -0.593  -1.294  1.00  0.00     0.193 C 
BRANCH  12  13
ATOM     13  N   UNL     1       3.006  -0.721  -0.978  1.00  0.00    -0.331 N 
ATOM     14  O   UNL     1       1.069  -0.565   0.077  1.00  0.00    -0.248 OA
ATOM     15  C   UNL     1       2.231  -0.177  -0.007  1.00  0.00     0.319 C 
ATOM     16  N   UNL     1       2.808   0.776   0.784  1.00  0.00    -0.308 N 
ATOM     17  H   UNL     1       2.516  -1.320  -1.587  1.00  0.00     0.165 HD
ATOM     18  H   UNL     1       3.699   1.095   0.512  1.00  0.00     0.171 HD
BRANCH  16  19
ATOM     19  C   UNL     1       2.260   1.351   1.952  1.00  0.00     0.044 A 
ATOM     20  C   UNL     1       2.914   2.471   2.486  1.00  0.00     0.029 A 
ATOM     21  C   UNL     1       1.127   0.850   2.604  1.00  0.00     0.049 A 
ATOM     22  C   UNL     1       2.428   3.097   3.637  1.00  0.00     0.043 A 
ATOM     23  C   UNL     1       0.646   1.473   3.760  1.00  0.00     0.078 A 
ATOM     24  C   UNL     1       1.295   2.595   4.266  1.00  0.00     0.141 A 
ATOM     25  Cl  UNL     1      -0.748   0.840   4.550  1.00  0.00    -0.081 Cl
ATOM     26  F   UNL     1       0.843   3.213   5.368  1.00  0.00    -0.205 F 
ENDBRANCH  16  19
ENDBRANCH  12  13
ENDBRANCH   8  12
ENDBRANCH   4   7
ENDBRANCH   2   3
ENDBRANCH   1   2
BRANCH   1  27
ATOM     27  C   UNL     1       7.264  -8.557   0.636  1.00  0.00     0.118 C 
BRANCH  27  28
ATOM     28  N   UNL     1       8.062  -9.410  -0.234  1.00  0.00    -0.352 N 
ATOM     29  C   UNL     1       9.009 -10.358   0.059  1.00  0.00     0.251 C 
ATOM     30  H   UNL     1       7.894  -9.284  -1.196  1.00  0.00     0.163 HD
ATOM     31  O   UNL     1       9.713 -10.788  -0.853  1.00  0.00    -0.269 OA
BRANCH  29  32
ATOM     32  C   UNL     1       9.200 -10.865   1.438  1.00  0.00     0.039 A 
ATOM     33  C   UNL     1      10.496 -11.181   1.859  1.00  0.00     0.014 A 
ATOM     34  C   UNL     1       8.118 -11.104   2.290  1.00  0.00     0.014 A 
ATOM     35  C   UNL     1      10.710 -11.694   3.141  1.00  0.00     0.010 A 
ATOM     36  C   UNL     1       8.340 -11.550   3.594  1.00  0.00     0.010 A 
ATOM     37  C   UNL     1       9.636 -11.860   4.030  1.00  0.00    -0.014 A 
BRANCH  37  38
ATOM     38  C   UNL     1       9.860 -12.360   5.412  1.00  0.00     0.031 A 
ATOM     39  C   UNL     1       9.277 -13.677   5.853  1.00  0.00     0.074 A 
ATOM     40  C   UNL     1      10.549 -11.600   6.287  1.00  0.00     0.049 A 
ATOM     41  N   UNL     1       9.337 -14.255   7.026  1.00  0.00    -0.248 NA
ATOM     42  C   UNL     1       8.504 -14.432   4.854  1.00  0.00     0.031 C 
ATOM     43  C   UNL     1      11.113 -10.280   5.998  1.00  0.00     0.029 A 
ATOM     44  N   UNL     1      10.885 -11.823   7.599  1.00  0.00    -0.354 N 
ATOM     45  C   UNL     1       8.598 -15.428   6.912  1.00  0.00     0.074 A 
ATOM     46  C   UNL     1       8.060 -15.456   5.569  1.00  0.00     0.031 C 
ATOM     47  C   UNL     1      11.742  -9.820   7.091  1.00  0.00     0.029 A 
ATOM     48  C   UNL     1      11.601 -10.795   8.168  1.00  0.00     0.049 A 
ATOM     49  H   UNL     1      10.638 -12.641   8.087  1.00  0.00     0.167 HD
ATOM     50  C   UNL     1       8.403 -16.401   7.834  1.00  0.00     0.037 A 
ATOM     51  C   UNL     1      12.088 -10.653   9.415  1.00  0.00     0.037 A 
ATOM     52  C   UNL     1       8.967 -16.382   9.160  1.00  0.00     0.049 A 
ATOM     53  C   UNL     1      11.889 -11.764  10.410  1.00  0.00     0.074 A 
ATOM     54  C   UNL     1       8.882 -17.349  10.147  1.00  0.00     0.029 A 
ATOM     55  N   UNL     1       9.721 -15.343   9.685  1.00  0.00    -0.354 N 
ATOM     56  N   UNL     1      11.244 -12.897  10.262  1.00  0.00    -0.248 NA
ATOM     57  C   UNL     1      12.497 -11.585  11.735  1.00  0.00     0.031 C 
ATOM     58  C   UNL     1       9.552 -16.878  11.281  1.00  0.00     0.029 A 
ATOM     59  C   UNL     1      10.097 -15.639  10.986  1.00  0.00     0.049 A 
ATOM     60  H   UNL     1       9.956 -14.516   9.204  1.00  0.00     0.167 HD
ATOM     61  C   UNL     1      11.392 -13.578  11.465  1.00  0.00     0.074 A 
ATOM     62  C   UNL     1      12.200 -12.736  12.323  1.00  0.00     0.031 C 
ATOM     63  C   UNL     1      10.905 -14.791  11.826  1.00  0.00     0.037 A 
BRANCH  50  64
ATOM     64  C   UNL     1       7.547 -17.576   7.441  1.00  0.00     0.058 A 
ATOM     65  C   UNL     1       7.986 -18.530   6.509  1.00  0.00     0.135 A 
ATOM     66  C   UNL     1       6.289 -17.774   8.034  1.00  0.00     0.135 A 
ATOM     67  F   UNL     1       9.174 -18.385   5.901  1.00  0.00    -0.206 F 
ATOM     68  C   UNL     1       7.197 -19.621   6.156  1.00  0.00     0.059 A 
ATOM     69  C   UNL     1       5.495 -18.873   7.717  1.00  0.00     0.059 A 
ATOM     70  F   UNL     1       5.819 -16.894   8.932  1.00  0.00    -0.206 F 
ATOM     71  C   UNL     1       5.952 -19.783   6.766  1.00  0.00     0.060 A 
BRANCH  71  72
ATOM     72  S   UNL     1       4.944 -21.209   6.303  1.00  0.00     0.124 S 
ATOM     73  O   UNL     1       4.485 -20.820   4.973  1.00  0.00    -0.237 OA
ATOM     74  O   UNL     1       5.910 -22.302   6.345  1.00  0.00    -0.237 OA
ATOM     75  O   UNL     1       3.914 -21.247   7.336  1.00  0.00    -0.744 OA
ENDBRANCH  71  72
ENDBRANCH  50  64
BRANCH  51  76
ATOM     76  C   UNL     1      12.837  -9.422   9.783  1.00  0.00     0.058 A 
ATOM     77  C   UNL     1      14.223  -9.457   9.996  1.00  0.00     0.135 A 
ATOM     78  C   UNL     1      12.187  -8.186   9.913  1.00  0.00     0.135 A 
ATOM     79  F   UNL     1      14.890 -10.616   9.888  1.00  0.00    -0.206 F 
ATOM     80  C   UNL     1      14.936  -8.314  10.343  1.00  0.00     0.059 A 
ATOM     81  C   UNL     1      12.882  -7.024  10.233  1.00  0.00     0.059 A 
ATOM     82  F   UNL     1      10.865  -8.095   9.699  1.00  0.00    -0.206 F 
ATOM     83  C   UNL     1      14.256  -7.100  10.457  1.00  0.00     0.060 A 
BRANCH  83  84
ATOM     84  S   UNL     1      15.197  -5.612  10.856  1.00  0.00     0.124 S 
ATOM     85  O   UNL     1      15.467  -5.806  12.276  1.00  0.00    -0.237 OA
ATOM     86  O   UNL     1      16.347  -5.727   9.964  1.00  0.00    -0.237 OA
ATOM     87  O   UNL     1      14.270  -4.532  10.531  1.00  0.00    -0.744 OA
ENDBRANCH  83  84
ENDBRANCH  51  76
BRANCH  63  88
ATOM     88  C   UNL     1      11.268 -15.296  13.196  1.00  0.00     0.058 A 
ATOM     89  C   UNL     1      10.718 -14.738  14.361  1.00  0.00     0.135 A 
ATOM     90  C   UNL     1      12.165 -16.366  13.342  1.00  0.00     0.135 A 
ATOM     91  F   UNL     1       9.858 -13.710  14.277  1.00  0.00    -0.206 F 
ATOM     92  C   UNL     1      11.075 -15.197  15.624  1.00  0.00     0.059 A 
ATOM     93  C   UNL     1      12.515 -16.860  14.595  1.00  0.00     0.059 A 
ATOM     94  F   UNL     1      12.710 -16.945  12.260  1.00  0.00    -0.206 F 
ATOM     95  C   UNL     1      11.979 -16.256  15.731  1.00  0.00     0.060 A 
BRANCH  95  96
ATOM     96  S   UNL     1      12.437 -16.844  17.375  1.00  0.00     0.124 S 
ATOM     97  O   UNL     1      13.356 -15.799  17.814  1.00  0.00    -0.237 OA
ATOM     98  O   UNL     1      11.151 -16.888  18.063  1.00  0.00    -0.237 OA
ATOM     99  O   UNL     1      13.044 -18.145  17.112  1.00  0.00    -0.744 OA
ENDBRANCH  95  96
ENDBRANCH  63  88
ENDBRANCH  37  38
ENDBRANCH  29  32
ENDBRANCH  27  28
ENDBRANCH   1  27
TORSDOF 16
