REMARK SMILES C[C@H]1[C@H](C(=O)NCCCNC(=O)c2ccc(-c3c4nc(c(-c5c(F)cc(S(=O)(=O)[O-])cc5F)c5ccc([nH]5)c(-c5c(F)cc(S(=O)(=O)[O-])cc5F)c5nc(c(-c6c(F)cc(S(=O)(=O)[O-])cc6F)c6ccc3[nH]6)C=C5)C=C4)cc2)CCN1C(=O)NCc1cnn(C)c1
REMARK SMILES IDX 8 1 7 2 6 3 4 4 5 5 3 7 1 8 2 9 81 10 79 11 80 12 82 13
REMARK SMILES IDX 83 14 84 15 85 17 86 18 87 19 91 20 88 21 89 22 90 23 9 24
REMARK SMILES IDX 10 25 11 26 12 28 13 29 14 30 78 31 15 32 77 33 16 34 17 35
REMARK SMILES IDX 18 36 71 37 19 38 76 39 70 40 72 41 20 42 75 43 69 44 68 45
REMARK SMILES IDX 21 47 55 48 34 49 54 50 35 51 38 52 53 53 73 54 36 55 37 56
REMARK SMILES IDX 52 58 74 59 39 60 22 61 23 62 32 63 24 64 25 65 31 66 33 67
REMARK SMILES IDX 26 68 27 69 28 70 29 71 30 72 56 73 57 74 66 75 58 76 59 77
REMARK SMILES IDX 65 78 67 79 60 80 61 81 62 82 63 83 64 84 40 85 41 86 50 87
REMARK SMILES IDX 42 88 43 89 49 90 51 91 44 92 45 93 46 94 47 95 48 96
REMARK H PARENT 6 6 84 16 10 27 72 46 38 57
REMARK Flexibility Score: inf
ROOT
ATOM      1  C   UNL     1      -0.404  -0.052   3.838  1.00  0.00     0.042 C 
ENDROOT
BRANCH   1   2
ATOM      2  C   UNL     1      -1.316   0.637   2.834  1.00  0.00     0.117 C 
BRANCH   2   3
ATOM      3  N   UNL     1      -0.773   1.897   2.351  1.00  0.00    -0.356 N 
ATOM      4  C   UNL     1      -0.280   2.272   1.144  1.00  0.00     0.225 C 
ATOM      5  O   UNL     1       0.115   3.438   1.039  1.00  0.00    -0.275 OA
ATOM      6  H   UNL     1      -0.761   2.612   3.027  1.00  0.00     0.163 HD
BRANCH   4   7
ATOM      7  C   UNL     1      -0.168   1.338  -0.051  1.00  0.00     0.102 C 
ATOM      8  C   UNL     1       1.898   0.263  -0.984  1.00  0.00     0.032 C 
ATOM      9  C   UNL     1       0.876   0.229   0.161  1.00  0.00     0.096 C 
ATOM     10  N   UNL     1       0.120  -1.018   0.137  1.00  0.00    -0.321 N 
ATOM     11  C   UNL     1      -1.465   0.657  -0.478  1.00  0.00     0.037 C 
ATOM     12  C   UNL     1      -1.136  -0.825  -0.571  1.00  0.00     0.122 C 
BRANCH  10  13
ATOM     13  C   UNL     1       0.391  -2.245   0.654  1.00  0.00     0.317 C 
ATOM     14  O   UNL     1      -0.431  -3.163   0.559  1.00  0.00    -0.249 OA
ATOM     15  N   UNL     1       1.522  -2.553   1.301  1.00  0.00    -0.334 N 
ATOM     16  H   UNL     1       1.457  -3.437   1.730  1.00  0.00     0.165 HD
BRANCH  15  17
ATOM     17  C   UNL     1       2.814  -1.948   1.546  1.00  0.00     0.157 C 
BRANCH  17  18
ATOM     18  C   UNL     1       3.045  -1.847   3.007  1.00  0.00     0.009 A 
ATOM     19  C   UNL     1       3.286  -0.670   3.754  1.00  0.00     0.140 A 
ATOM     20  C   UNL     1       3.120  -2.854   3.951  1.00  0.00     0.113 A 
ATOM     21  N   UNL     1       3.449  -0.906   5.056  1.00  0.00    -0.181 NA
ATOM     22  N   UNL     1       3.378  -2.248   5.147  1.00  0.00    -0.275 N 
ATOM     23  C   UNL     1       3.560  -2.889   6.428  1.00  0.00     0.173 C 
ENDBRANCH  17  18
ENDBRANCH  15  17
ENDBRANCH  10  13
ENDBRANCH   4   7
ENDBRANCH   2   3
ENDBRANCH   1   2
BRANCH   1  24
ATOM     24  C   UNL     1      -0.198   0.707   5.145  1.00  0.00     0.118 C 
BRANCH  24  25
ATOM     25  N   UNL     1      -1.435   0.878   5.894  1.00  0.00    -0.352 N 
ATOM     26  C   UNL     1      -1.773   0.474   7.160  1.00  0.00     0.251 C 
ATOM     27  H   UNL     1      -2.144   1.363   5.413  1.00  0.00     0.163 HD
ATOM     28  O   UNL     1      -2.950   0.561   7.516  1.00  0.00    -0.269 OA
BRANCH  26  29
ATOM     29  C   UNL     1      -0.764  -0.072   8.096  1.00  0.00     0.039 A 
ATOM     30  C   UNL     1      -1.136  -1.122   8.943  1.00  0.00     0.014 A 
ATOM     31  C   UNL     1       0.520   0.470   8.193  1.00  0.00     0.014 A 
ATOM     32  C   UNL     1      -0.211  -1.659   9.843  1.00  0.00     0.010 A 
ATOM     33  C   UNL     1       1.464  -0.113   9.039  1.00  0.00     0.010 A 
ATOM     34  C   UNL     1       1.107  -1.179   9.878  1.00  0.00    -0.014 A 
BRANCH  34  35
ATOM     35  C   UNL     1       2.123  -1.784  10.778  1.00  0.00     0.031 A 
ATOM     36  C   UNL     1       2.742  -0.973  11.886  1.00  0.00     0.074 A 
ATOM     37  C   UNL     1       2.537  -3.047  10.558  1.00  0.00     0.049 A 
ATOM     38  N   UNL     1       3.680  -1.314  12.733  1.00  0.00    -0.248 NA
ATOM     39  C   UNL     1       2.253   0.404  12.055  1.00  0.00     0.031 C 
ATOM     40  C   UNL     1       2.041  -3.928   9.498  1.00  0.00     0.029 A 
ATOM     41  N   UNL     1       3.486  -3.804  11.198  1.00  0.00    -0.354 N 
ATOM     42  C   UNL     1       3.891  -0.199  13.536  1.00  0.00     0.074 A 
ATOM     43  C   UNL     1       3.027   0.849  13.035  1.00  0.00     0.031 C 
ATOM     44  C   UNL     1       2.699  -5.097   9.551  1.00  0.00     0.029 A 
ATOM     45  C   UNL     1       3.670  -5.046  10.640  1.00  0.00     0.049 A 
ATOM     46  H   UNL     1       3.987  -3.487  11.984  1.00  0.00     0.167 HD
ATOM     47  C   UNL     1       4.707  -0.067  14.610  1.00  0.00     0.037 A 
ATOM     48  C   UNL     1       4.525  -6.035  10.963  1.00  0.00     0.037 A 
ATOM     49  C   UNL     1       5.556  -1.115  15.114  1.00  0.00     0.049 A 
ATOM     50  C   UNL     1       5.428  -5.867  12.152  1.00  0.00     0.074 A 
ATOM     51  C   UNL     1       6.379  -1.098  16.228  1.00  0.00     0.029 A 
ATOM     52  N   UNL     1       5.696  -2.369  14.537  1.00  0.00    -0.354 N 
ATOM     53  N   UNL     1       5.564  -4.828  12.941  1.00  0.00    -0.248 NA
ATOM     54  C   UNL     1       6.275  -7.012  12.510  1.00  0.00     0.031 C 
ATOM     55  C   UNL     1       7.043  -2.329  16.302  1.00  0.00     0.029 A 
ATOM     56  C   UNL     1       6.602  -3.127  15.259  1.00  0.00     0.049 A 
ATOM     57  H   UNL     1       5.220  -2.675  13.731  1.00  0.00     0.167 HD
ATOM     58  C   UNL     1       6.492  -5.203  13.905  1.00  0.00     0.074 A 
ATOM     59  C   UNL     1       6.875  -6.568  13.606  1.00  0.00     0.031 C 
ATOM     60  C   UNL     1       6.979  -4.484  14.947  1.00  0.00     0.037 A 
BRANCH  47  61
ATOM     61  C   UNL     1       4.708   1.259  15.321  1.00  0.00     0.058 A 
ATOM     62  C   UNL     1       3.607   1.681  16.086  1.00  0.00     0.135 A 
ATOM     63  C   UNL     1       5.826   2.106  15.264  1.00  0.00     0.135 A 
ATOM     64  F   UNL     1       2.507   0.915  16.166  1.00  0.00    -0.206 F 
ATOM     65  C   UNL     1       3.602   2.908  16.740  1.00  0.00     0.059 A 
ATOM     66  C   UNL     1       5.853   3.328  15.932  1.00  0.00     0.059 A 
ATOM     67  F   UNL     1       6.907   1.753  14.550  1.00  0.00    -0.206 F 
ATOM     68  C   UNL     1       4.729   3.727  16.655  1.00  0.00     0.060 A 
BRANCH  68  69
ATOM     69  S   UNL     1       4.706   5.319  17.506  1.00  0.00     0.124 S 
ATOM     70  O   UNL     1       3.829   6.100  16.639  1.00  0.00    -0.237 OA
ATOM     71  O   UNL     1       4.154   4.968  18.812  1.00  0.00    -0.237 OA
ATOM     72  O   UNL     1       6.107   5.723  17.511  1.00  0.00    -0.744 OA
ENDBRANCH  68  69
ENDBRANCH  47  61
BRANCH  48  73
ATOM     73  C   UNL     1       4.540  -7.283  10.158  1.00  0.00     0.058 A 
ATOM     74  C   UNL     1       4.004  -8.476  10.663  1.00  0.00     0.135 A 
ATOM     75  C   UNL     1       5.059  -7.297   8.854  1.00  0.00     0.135 A 
ATOM     76  F   UNL     1       3.496  -8.510  11.904  1.00  0.00    -0.206 F 
ATOM     77  C   UNL     1       3.993  -9.645   9.910  1.00  0.00     0.059 A 
ATOM     78  C   UNL     1       5.043  -8.449   8.074  1.00  0.00     0.059 A 
ATOM     79  F   UNL     1       5.557  -6.172   8.315  1.00  0.00    -0.206 F 
ATOM     80  C   UNL     1       4.513  -9.620   8.614  1.00  0.00     0.060 A 
BRANCH  80  81
ATOM     81  S   UNL     1       4.437 -11.126   7.620  1.00  0.00     0.124 S 
ATOM     82  O   UNL     1       5.489 -11.932   8.227  1.00  0.00    -0.237 OA
ATOM     83  O   UNL     1       3.069 -11.578   7.854  1.00  0.00    -0.237 OA
ATOM     84  O   UNL     1       4.707 -10.646   6.268  1.00  0.00    -0.744 OA
ENDBRANCH  80  81
ENDBRANCH  48  73
BRANCH  60  85
ATOM     85  C   UNL     1       7.963  -5.170  15.853  1.00  0.00     0.058 A 
ATOM     86  C   UNL     1       9.282  -5.426  15.447  1.00  0.00     0.135 A 
ATOM     87  C   UNL     1       7.590  -5.553  17.151  1.00  0.00     0.135 A 
ATOM     88  F   UNL     1       9.688  -5.085  14.213  1.00  0.00    -0.206 F 
ATOM     89  C   UNL     1      10.188  -6.068  16.285  1.00  0.00     0.059 A 
ATOM     90  C   UNL     1       8.486  -6.173  18.015  1.00  0.00     0.059 A 
ATOM     91  F   UNL     1       6.343  -5.322  17.592  1.00  0.00    -0.206 F 
ATOM     92  C   UNL     1       9.779  -6.441  17.567  1.00  0.00     0.060 A 
BRANCH  92  93
ATOM     93  S   UNL     1      10.966  -7.262  18.651  1.00  0.00     0.124 S 
ATOM     94  O   UNL     1      10.984  -8.612  18.096  1.00  0.00    -0.237 OA
ATOM     95  O   UNL     1      12.178  -6.476  18.445  1.00  0.00    -0.237 OA
ATOM     96  O   UNL     1      10.362  -7.135  19.974  1.00  0.00    -0.744 OA
ENDBRANCH  92  93
ENDBRANCH  60  85
ENDBRANCH  34  35
ENDBRANCH  26  29
ENDBRANCH  24  25
ENDBRANCH   1  24
TORSDOF 16
