REMARK SMILES COC(=O)c1ccc(C)c2c1[C@H]1C=CC[C@H]1[C@@H](c1ccc(C(=O)NCCCNC(=O)c3ccc(-c4c5nc(c(-c6c(F)cc(S(=O)(=O)[O-])cc6F)c6ccc([nH]6)c(-c6c(F)cc(S(=O)(=O)[O-])cc6F)c6nc(c(-c7c(F)cc(S(=O)(=O)[O-])cc7F)c7ccc4[nH]7)C=C6)C=C5)cc3)cc1)N2
REMARK SMILES IDX 26 1 25 2 24 3 22 4 23 5 21 7 18 8 19 9 98 10 20 11 97 12
REMARK SMILES IDX 17 13 5 14 6 15 11 16 7 17 10 18 12 19 8 20 99 21 13 22
REMARK SMILES IDX 16 23 9 24 14 26 15 27 3 28 4 29 2 30 1 31 27 32 28 33 29 34
REMARK SMILES IDX 30 36 31 37 32 38 96 39 33 40 95 41 34 42 35 43 36 44 89 45
REMARK SMILES IDX 37 46 94 47 88 48 90 49 38 50 93 51 87 52 86 53 39 55 73 56
REMARK SMILES IDX 52 57 72 58 53 59 56 60 71 61 91 62 54 63 55 64 70 66 92 67
REMARK SMILES IDX 57 68 40 69 41 70 50 71 42 72 43 73 49 74 51 75 44 76 45 77
REMARK SMILES IDX 46 78 47 79 48 80 74 81 75 82 84 83 76 84 77 85 83 86 85 87
REMARK SMILES IDX 78 88 79 89 80 90 81 91 82 92 58 93 59 94 68 95 60 96 61 97
REMARK SMILES IDX 67 98 69 99 62 100 63 101 64 102 65 103 66 104
REMARK H PARENT 24 6 99 25 28 35 90 54 56 65
REMARK Flexibility Score: inf
ROOT
ATOM      1  C   UNL     1       7.521   9.209  -0.565  1.00  0.00     0.042 C 
ENDROOT
BRANCH   1   2
ATOM      2  C   UNL     1       6.101   9.748  -0.731  1.00  0.00     0.118 C 
BRANCH   2   3
ATOM      3  N   UNL     1       5.325   8.868  -1.577  1.00  0.00    -0.352 N 
ATOM      4  C   UNL     1       4.456   7.853  -1.294  1.00  0.00     0.251 C 
ATOM      5  O   UNL     1       3.945   7.274  -2.255  1.00  0.00    -0.269 OA
ATOM      6  H   UNL     1       5.446   9.033  -2.540  1.00  0.00     0.163 HD
BRANCH   4   7
ATOM      7  C   UNL     1       4.072   7.452   0.087  1.00  0.00     0.039 A 
ATOM      8  C   UNL     1       3.184   6.470   2.607  1.00  0.00    -0.025 A 
ATOM      9  C   UNL     1       2.432   6.282   1.438  1.00  0.00     0.006 A 
ATOM     10  C   UNL     1       4.368   7.209   2.493  1.00  0.00     0.006 A 
ATOM     11  C   UNL     1       2.865   6.761   0.203  1.00  0.00     0.014 A 
ATOM     12  C   UNL     1       4.824   7.657   1.246  1.00  0.00     0.014 A 
BRANCH   8  13
ATOM     13  C   UNL     1       2.845   5.810   3.947  1.00  0.00     0.114 C 
ATOM     14  C   UNL     1       0.296   2.772   2.417  1.00  0.00     0.065 A 
ATOM     15  C   UNL     1      -1.033   3.106   2.137  1.00  0.00     0.016 A 
ATOM     16  C   UNL     1       1.128   3.658   3.136  1.00  0.00    -0.003 A 
ATOM     17  C   UNL     1      -1.554   4.316   2.578  1.00  0.00     0.006 A 
ATOM     18  C   UNL     1       0.585   4.887   3.601  1.00  0.00     0.042 A 
ATOM     19  C   UNL     1       2.587   3.322   3.397  1.00  0.00     0.050 C 
ATOM     20  C   UNL     1      -0.760   5.217   3.305  1.00  0.00    -0.028 A 
ATOM     21  N   UNL     1       1.414   5.824   4.203  1.00  0.00    -0.377 N 
ATOM     22  C   UNL     1       3.474   3.170   2.183  1.00  0.00    -0.023 C 
ATOM     23  C   UNL     1       3.373   4.381   4.200  1.00  0.00     0.031 C 
ATOM     24  C   UNL     1      -1.402   6.530   3.676  1.00  0.00     0.046 C 
ATOM     25  H   UNL     1       1.031   6.500   4.807  1.00  0.00     0.161 HD
ATOM     26  C   UNL     1       4.715   3.618   2.415  1.00  0.00    -0.030 C 
ATOM     27  C   UNL     1       4.841   4.165   3.799  1.00  0.00     0.034 C 
BRANCH  14  28
ATOM     28  C   UNL     1       0.787   1.457   1.940  1.00  0.00     0.338 C 
ATOM     29  O   UNL     1       1.369   0.642   2.629  1.00  0.00    -0.246 OA
BRANCH  28  30
ATOM     30  O   UNL     1       0.507   1.348   0.614  1.00  0.00    -0.465 OA
ATOM     31  C   UNL     1       1.009   0.152   0.017  1.00  0.00     0.282 C 
ENDBRANCH  28  30
ENDBRANCH  14  28
ENDBRANCH   8  13
ENDBRANCH   4   7
ENDBRANCH   2   3
ENDBRANCH   1   2
BRANCH   1  32
ATOM     32  C   UNL     1       8.351   9.382  -1.834  1.00  0.00     0.118 C 
BRANCH  32  33
ATOM     33  N   UNL     1       8.543  10.794  -2.136  1.00  0.00    -0.352 N 
ATOM     34  C   UNL     1       9.658  11.566  -1.940  1.00  0.00     0.251 C 
ATOM     35  H   UNL     1       7.770  11.255  -2.534  1.00  0.00     0.163 HD
ATOM     36  O   UNL     1       9.554  12.787  -1.871  1.00  0.00    -0.269 OA
BRANCH  34  37
ATOM     37  C   UNL     1      10.979  10.918  -1.845  1.00  0.00     0.039 A 
ATOM     38  C   UNL     1      11.909  11.382  -0.911  1.00  0.00     0.014 A 
ATOM     39  C   UNL     1      11.315   9.895  -2.738  1.00  0.00     0.014 A 
ATOM     40  C   UNL     1      13.179  10.805  -0.863  1.00  0.00     0.010 A 
ATOM     41  C   UNL     1      12.557   9.283  -2.651  1.00  0.00     0.010 A 
ATOM     42  C   UNL     1      13.507   9.756  -1.734  1.00  0.00    -0.014 A 
BRANCH  42  43
ATOM     43  C   UNL     1      14.877   9.204  -1.800  1.00  0.00     0.031 A 
ATOM     44  C   UNL     1      15.717   9.501  -3.010  1.00  0.00     0.074 A 
ATOM     45  C   UNL     1      15.333   8.405  -0.818  1.00  0.00     0.049 A 
ATOM     46  N   UNL     1      16.887   9.024  -3.342  1.00  0.00    -0.248 NA
ATOM     47  C   UNL     1      15.152  10.447  -3.990  1.00  0.00     0.031 C 
ATOM     48  C   UNL     1      14.600   8.054   0.399  1.00  0.00     0.029 A 
ATOM     49  N   UNL     1      16.521   7.733  -0.699  1.00  0.00    -0.354 N 
ATOM     50  C   UNL     1      17.198   9.610  -4.563  1.00  0.00     0.074 A 
ATOM     51  C   UNL     1      16.070  10.431  -4.944  1.00  0.00     0.031 C 
ATOM     52  C   UNL     1      15.359   7.235   1.146  1.00  0.00     0.029 A 
ATOM     53  C   UNL     1      16.612   6.974   0.443  1.00  0.00     0.049 A 
ATOM     54  H   UNL     1      17.241   7.788  -1.368  1.00  0.00     0.167 HD
ATOM     55  C   UNL     1      18.335   9.494  -5.287  1.00  0.00     0.037 A 
ATOM     56  C   UNL     1      17.594   6.151   0.860  1.00  0.00     0.037 A 
ATOM     57  C   UNL     1      19.455   8.682  -4.893  1.00  0.00     0.049 A 
ATOM     58  C   UNL     1      18.822   5.990   0.001  1.00  0.00     0.074 A 
ATOM     59  C   UNL     1      20.662   8.505  -5.544  1.00  0.00     0.029 A 
ATOM     60  N   UNL     1      19.505   7.912  -3.739  1.00  0.00    -0.354 N 
ATOM     61  N   UNL     1      19.113   6.566  -1.142  1.00  0.00    -0.248 NA
ATOM     62  C   UNL     1      19.854   5.066   0.490  1.00  0.00     0.031 C 
ATOM     63  C   UNL     1      21.425   7.594  -4.807  1.00  0.00     0.029 A 
ATOM     64  C   UNL     1      20.715   7.242  -3.670  1.00  0.00     0.049 A 
ATOM     65  H   UNL     1      18.787   7.851  -3.069  1.00  0.00     0.167 HD
ATOM     66  C   UNL     1      20.372   6.091  -1.497  1.00  0.00     0.074 A 
ATOM     67  C   UNL     1      20.795   5.202  -0.434  1.00  0.00     0.031 C 
ATOM     68  C   UNL     1      21.111   6.358  -2.603  1.00  0.00     0.037 A 
BRANCH  55  69
ATOM     69  C   UNL     1      18.432  10.274  -6.568  1.00  0.00     0.058 A 
ATOM     70  C   UNL     1      18.568  11.672  -6.565  1.00  0.00     0.135 A 
ATOM     71  C   UNL     1      18.448   9.618  -7.809  1.00  0.00     0.135 A 
ATOM     72  F   UNL     1      18.533  12.352  -5.407  1.00  0.00    -0.206 F 
ATOM     73  C   UNL     1      18.708  12.392  -7.745  1.00  0.00     0.059 A 
ATOM     74  C   UNL     1      18.615  10.316  -9.002  1.00  0.00     0.059 A 
ATOM     75  F   UNL     1      18.311   8.284  -7.871  1.00  0.00    -0.206 F 
ATOM     76  C   UNL     1      18.740  11.704  -8.959  1.00  0.00     0.060 A 
BRANCH  76  77
ATOM     77  S   UNL     1      18.968  12.655 -10.476  1.00  0.00     0.124 S 
ATOM     78  O   UNL     1      17.710  13.391 -10.553  1.00  0.00    -0.237 OA
ATOM     79  O   UNL     1      20.151  13.452 -10.165  1.00  0.00    -0.237 OA
ATOM     80  O   UNL     1      19.156  11.629 -11.497  1.00  0.00    -0.744 OA
ENDBRANCH  76  77
ENDBRANCH  55  69
BRANCH  56  81
ATOM     81  C   UNL     1      17.470   5.428   2.154  1.00  0.00     0.058 A 
ATOM     82  C   UNL     1      18.307   5.745   3.234  1.00  0.00     0.135 A 
ATOM     83  C   UNL     1      16.528   4.404   2.337  1.00  0.00     0.135 A 
ATOM     84  F   UNL     1      19.230   6.711   3.106  1.00  0.00    -0.206 F 
ATOM     85  C   UNL     1      18.232   5.059   4.442  1.00  0.00     0.059 A 
ATOM     86  C   UNL     1      16.414   3.722   3.546  1.00  0.00     0.059 A 
ATOM     87  F   UNL     1      15.693   4.070   1.341  1.00  0.00    -0.206 F 
ATOM     88  C   UNL     1      17.279   4.049   4.588  1.00  0.00     0.060 A 
BRANCH  88  89
ATOM     89  S   UNL     1      17.172   3.191   6.173  1.00  0.00     0.124 S 
ATOM     90  O   UNL     1      18.417   2.432   6.183  1.00  0.00    -0.237 OA
ATOM     91  O   UNL     1      17.093   4.303   7.115  1.00  0.00    -0.237 OA
ATOM     92  O   UNL     1      15.951   2.400   6.045  1.00  0.00    -0.744 OA
ENDBRANCH  88  89
ENDBRANCH  56  81
BRANCH  68  93
ATOM     93  C   UNL     1      22.456   5.691  -2.709  1.00  0.00     0.058 A 
ATOM     94  C   UNL     1      22.574   4.311  -2.940  1.00  0.00     0.135 A 
ATOM     95  C   UNL     1      23.638   6.442  -2.611  1.00  0.00     0.135 A 
ATOM     96  F   UNL     1      21.475   3.546  -3.040  1.00  0.00    -0.206 F 
ATOM     97  C   UNL     1      23.817   3.694  -3.029  1.00  0.00     0.059 A 
ATOM     98  C   UNL     1      24.891   5.851  -2.732  1.00  0.00     0.059 A 
ATOM     99  F   UNL     1      23.582   7.768  -2.407  1.00  0.00    -0.206 F 
ATOM    100  C   UNL     1      24.970   4.473  -2.922  1.00  0.00     0.060 A 
BRANCH 100 101
ATOM    101  S   UNL     1      26.575   3.655  -3.040  1.00  0.00     0.124 S 
ATOM    102  O   UNL     1      26.625   2.923  -1.779  1.00  0.00    -0.237 OA
ATOM    103  O   UNL     1      26.420   2.840  -4.241  1.00  0.00    -0.237 OA
ATOM    104  O   UNL     1      27.515   4.766  -3.159  1.00  0.00    -0.744 OA
ENDBRANCH 100 101
ENDBRANCH  68  93
ENDBRANCH  42  43
ENDBRANCH  34  37
ENDBRANCH  32  33
ENDBRANCH   1  32
TORSDOF 16
