REMARK SMILES O=C(NCCCNC(=O)[C@H]1[C@H]2CC[C@H](CC2)[C@@H]1C(=O)Nc1sc2c(c1C(=O)N1CCCCC1)CCCC2)c1ccc(-c2c3nc(c(-c4c(F)cc(S(=O)(=O)[O-])cc4F)c4ccc([nH]4)c(-c4c(F)cc(S(=O)(=O)[O-])cc4F)c4nc(c(-c5c(F)cc(S(=O)(=O)[O-])cc5F)c5ccc2[nH]5)C=C4)C=C3)cc1
REMARK SMILES IDX 5 1 4 2 3 3 1 4 2 5 38 7 39 8 103 9 40 10 102 11 41 12 42 13
REMARK SMILES IDX 43 14 96 15 44 16 101 17 95 18 97 19 45 20 100 21 94 22
REMARK SMILES IDX 93 23 46 25 80 26 59 27 79 28 60 29 63 30 78 31 98 32 61 33
REMARK SMILES IDX 62 34 77 36 99 37 64 38 47 39 48 40 57 41 49 42 50 43 56 44
REMARK SMILES IDX 58 45 51 46 52 47 53 48 54 49 55 50 81 51 82 52 91 53 83 54
REMARK SMILES IDX 84 55 90 56 92 57 85 58 86 59 87 60 88 61 89 62 65 63 66 64
REMARK SMILES IDX 75 65 67 66 68 67 74 68 76 69 69 70 70 71 71 72 72 73 73 74
REMARK SMILES IDX 6 75 7 76 8 77 9 79 10 80 11 81 17 82 12 83 16 84 14 85
REMARK SMILES IDX 13 86 15 87 18 88 19 89 20 90 21 92 22 93 25 94 23 95 24 96
REMARK SMILES IDX 37 97 34 98 36 99 35 100 26 101 27 102 28 103 29 104 33 105
REMARK SMILES IDX 30 106 32 107 31 108
REMARK H PARENT 3 6 97 24 63 35 7 78 20 91
REMARK Flexibility Score: inf
ROOT
ATOM      1  C   UNL     1       4.945   2.005   1.427  1.00  0.00     0.042 C 
ENDROOT
BRANCH   1   2
ATOM      2  C   UNL     1       4.481   0.555   1.451  1.00  0.00     0.118 C 
BRANCH   2   3
ATOM      3  N   UNL     1       3.054   0.403   1.205  1.00  0.00    -0.352 N 
ATOM      4  O   UNL     1       1.142   0.125   0.067  1.00  0.00    -0.269 OA
ATOM      5  C   UNL     1       2.363  -0.002   0.089  1.00  0.00     0.251 C 
ATOM      6  H   UNL     1       2.483   0.630   1.975  1.00  0.00     0.163 HD
BRANCH   5   7
ATOM      7  C   UNL     1       3.068  -0.568  -1.082  1.00  0.00     0.039 A 
ATOM      8  C   UNL     1       4.123  -1.467  -0.923  1.00  0.00     0.014 A 
ATOM      9  C   UNL     1       2.621  -0.244  -2.368  1.00  0.00     0.014 A 
ATOM     10  C   UNL     1       4.823  -1.923  -2.034  1.00  0.00     0.010 A 
ATOM     11  C   UNL     1       3.261  -0.784  -3.487  1.00  0.00     0.010 A 
ATOM     12  C   UNL     1       4.381  -1.615  -3.329  1.00  0.00    -0.014 A 
BRANCH  12  13
ATOM     13  C   UNL     1       5.031  -2.267  -4.494  1.00  0.00     0.031 A 
ATOM     14  C   UNL     1       5.755  -1.463  -5.536  1.00  0.00     0.074 A 
ATOM     15  C   UNL     1       4.949  -3.609  -4.600  1.00  0.00     0.049 A 
ATOM     16  N   UNL     1       6.346  -1.879  -6.626  1.00  0.00    -0.248 NA
ATOM     17  C   UNL     1       5.821  -0.006  -5.339  1.00  0.00     0.031 C 
ATOM     18  C   UNL     1       4.252  -4.487  -3.654  1.00  0.00     0.029 A 
ATOM     19  N   UNL     1       5.448  -4.473  -5.541  1.00  0.00    -0.354 N 
ATOM     20  C   UNL     1       6.832  -0.741  -7.259  1.00  0.00     0.074 A 
ATOM     21  C   UNL     1       6.457   0.389  -6.435  1.00  0.00     0.031 C 
ATOM     22  C   UNL     1       4.388  -5.760  -4.048  1.00  0.00     0.029 A 
ATOM     23  C   UNL     1       5.115  -5.787  -5.311  1.00  0.00     0.049 A 
ATOM     24  H   UNL     1       5.992  -4.181  -6.307  1.00  0.00     0.167 HD
ATOM     25  C   UNL     1       7.525  -0.655  -8.419  1.00  0.00     0.037 A 
ATOM     26  C   UNL     1       5.331  -6.891  -6.051  1.00  0.00     0.037 A 
ATOM     27  C   UNL     1       7.910  -1.794  -9.214  1.00  0.00     0.049 A 
ATOM     28  C   UNL     1       6.075  -6.757  -7.348  1.00  0.00     0.074 A 
ATOM     29  C   UNL     1       8.682  -1.817 -10.363  1.00  0.00     0.029 A 
ATOM     30  N   UNL     1       7.540  -3.107  -8.957  1.00  0.00    -0.354 N 
ATOM     31  N   UNL     1       6.592  -5.681  -7.891  1.00  0.00    -0.248 NA
ATOM     32  C   UNL     1       6.259  -7.981  -8.139  1.00  0.00     0.031 C 
ATOM     33  C   UNL     1       8.724  -3.131 -10.836  1.00  0.00     0.029 A 
ATOM     34  C   UNL     1       8.028  -3.939  -9.951  1.00  0.00     0.049 A 
ATOM     35  H   UNL     1       7.008  -3.402  -8.183  1.00  0.00     0.167 HD
ATOM     36  C   UNL     1       7.172  -6.099  -9.082  1.00  0.00     0.074 A 
ATOM     37  C   UNL     1       6.964  -7.530  -9.168  1.00  0.00     0.031 C 
ATOM     38  C   UNL     1       7.812  -5.363 -10.022  1.00  0.00     0.037 A 
BRANCH  25  39
ATOM     39  C   UNL     1       7.902   0.710  -8.929  1.00  0.00     0.058 A 
ATOM     40  C   UNL     1       8.918   1.473  -8.333  1.00  0.00     0.135 A 
ATOM     41  C   UNL     1       7.300   1.218 -10.092  1.00  0.00     0.135 A 
ATOM     42  F   UNL     1       9.520   1.042  -7.213  1.00  0.00    -0.206 F 
ATOM     43  C   UNL     1       9.317   2.695  -8.867  1.00  0.00     0.059 A 
ATOM     44  C   UNL     1       7.699   2.426 -10.657  1.00  0.00     0.059 A 
ATOM     45  F   UNL     1       6.323   0.529 -10.703  1.00  0.00    -0.206 F 
ATOM     46  C   UNL     1       8.706   3.161 -10.033  1.00  0.00     0.060 A 
BRANCH  46  47
ATOM     47  S   UNL     1       9.261   4.731 -10.731  1.00  0.00     0.124 S 
ATOM     48  O   UNL     1       8.738   5.684  -9.757  1.00  0.00    -0.237 OA
ATOM     49  O   UNL     1      10.711   4.570 -10.744  1.00  0.00    -0.237 OA
ATOM     50  O   UNL     1       8.625   4.766 -12.044  1.00  0.00    -0.744 OA
ENDBRANCH  46  47
ENDBRANCH  25  39
BRANCH  26  51
ATOM     51  C   UNL     1       4.791  -8.202  -5.603  1.00  0.00     0.058 A 
ATOM     52  C   UNL     1       5.641  -9.245  -5.212  1.00  0.00     0.135 A 
ATOM     53  C   UNL     1       3.406  -8.433  -5.554  1.00  0.00     0.135 A 
ATOM     54  F   UNL     1       6.971  -9.074  -5.244  1.00  0.00    -0.206 F 
ATOM     55  C   UNL     1       5.140 -10.479  -4.810  1.00  0.00     0.059 A 
ATOM     56  C   UNL     1       2.881  -9.647  -5.125  1.00  0.00     0.059 A 
ATOM     57  F   UNL     1       2.547  -7.461  -5.899  1.00  0.00    -0.206 F 
ATOM     58  C   UNL     1       3.757 -10.670  -4.770  1.00  0.00     0.060 A 
BRANCH  58  59
ATOM     59  S   UNL     1       3.117 -12.267  -4.224  1.00  0.00     0.124 S 
ATOM     60  O   UNL     1       3.413 -13.109  -5.377  1.00  0.00    -0.237 OA
ATOM     61  O   UNL     1       3.909 -12.521  -3.025  1.00  0.00    -0.237 OA
ATOM     62  O   UNL     1       1.702 -11.996  -3.985  1.00  0.00    -0.744 OA
ENDBRANCH  58  59
ENDBRANCH  26  51
BRANCH  38  63
ATOM     63  C   UNL     1       8.348  -6.092 -11.222  1.00  0.00     0.058 A 
ATOM     64  C   UNL     1       7.496  -6.573 -12.228  1.00  0.00     0.135 A 
ATOM     65  C   UNL     1       9.732  -6.250 -11.401  1.00  0.00     0.135 A 
ATOM     66  F   UNL     1       6.165  -6.459 -12.098  1.00  0.00    -0.206 F 
ATOM     67  C   UNL     1       7.997  -7.195 -13.366  1.00  0.00     0.059 A 
ATOM     68  C   UNL     1      10.256  -6.843 -12.544  1.00  0.00     0.059 A 
ATOM     69  F   UNL     1      10.590  -5.803 -10.470  1.00  0.00    -0.206 F 
ATOM     70  C   UNL     1       9.379  -7.318 -13.519  1.00  0.00     0.060 A 
BRANCH  70  71
ATOM     71  S   UNL     1      10.016  -8.073 -15.030  1.00  0.00     0.124 S 
ATOM     72  O   UNL     1       9.675  -9.477 -14.825  1.00  0.00    -0.237 OA
ATOM     73  O   UNL     1       9.257  -7.381 -16.067  1.00  0.00    -0.237 OA
ATOM     74  O   UNL     1      11.442  -7.761 -14.991  1.00  0.00    -0.744 OA
ENDBRANCH  70  71
ENDBRANCH  38  63
ENDBRANCH  12  13
ENDBRANCH   5   7
ENDBRANCH   2   3
ENDBRANCH   1   2
BRANCH   1  75
ATOM     75  C   UNL     1       4.222   2.926   2.394  1.00  0.00     0.117 C 
BRANCH  75  76
ATOM     76  N   UNL     1       4.178   2.448   3.762  1.00  0.00    -0.356 N 
ATOM     77  C   UNL     1       4.817   2.895   4.878  1.00  0.00     0.224 C 
ATOM     78  H   UNL     1       3.590   1.672   3.909  1.00  0.00     0.163 HD
ATOM     79  O   UNL     1       4.408   2.475   5.963  1.00  0.00    -0.275 OA
BRANCH  77  80
ATOM     80  C   UNL     1       5.975   3.892   4.758  1.00  0.00     0.094 C 
ATOM     81  C   UNL     1       5.379   5.317   4.580  1.00  0.00     0.002 C 
ATOM     82  C   UNL     1       6.891   3.856   6.023  1.00  0.00     0.094 C 
ATOM     83  C   UNL     1       4.543   5.706   5.816  1.00  0.00     0.005 C 
ATOM     84  C   UNL     1       6.540   6.311   4.438  1.00  0.00     0.005 C 
ATOM     85  C   UNL     1       6.854   5.266   6.710  1.00  0.00     0.002 C 
ATOM     86  C   UNL     1       5.387   5.567   7.088  1.00  0.00     0.005 C 
ATOM     87  C   UNL     1       7.299   6.403   5.762  1.00  0.00     0.005 C 
BRANCH  82  88
ATOM     88  C   UNL     1       8.353   3.418   5.747  1.00  0.00     0.229 C 
ATOM     89  O   UNL     1       9.180   4.205   5.278  1.00  0.00    -0.274 OA
ATOM     90  N   UNL     1       8.812   2.195   6.178  1.00  0.00    -0.317 N 
ATOM     91  H   UNL     1       9.774   2.155   6.387  1.00  0.00     0.170 HD
BRANCH  90  92
ATOM     92  C   UNL     1       8.117   1.017   6.359  1.00  0.00     0.108 A 
ATOM     93  S   UNL     1       6.954   0.612   5.197  1.00  0.00    -0.122 S 
ATOM     94  C   UNL     1       8.352  -0.024   7.260  1.00  0.00     0.078 A 
ATOM     95  C   UNL     1       6.358  -0.633   6.163  1.00  0.00     0.011 A 
ATOM     96  C   UNL     1       7.247  -0.980   7.165  1.00  0.00    -0.019 A 
ATOM     97  C   UNL     1       5.037  -1.278   5.881  1.00  0.00     0.047 C 
ATOM     98  C   UNL     1       6.951  -2.164   8.035  1.00  0.00     0.037 C 
ATOM     99  C   UNL     1       4.593  -2.122   7.082  1.00  0.00     0.006 C 
ATOM    100  C   UNL     1       5.743  -2.995   7.577  1.00  0.00     0.005 C 
BRANCH  94 101
ATOM    101  C   UNL     1       9.476   0.054   8.221  1.00  0.00     0.257 C 
ATOM    102  O   UNL     1      10.280   0.987   8.192  1.00  0.00    -0.269 OA
ATOM    103  N   UNL     1       9.522  -0.880   9.255  1.00  0.00    -0.339 N 
ATOM    104  C   UNL     1       9.789  -0.363  10.587  1.00  0.00     0.120 C 
ATOM    105  C   UNL     1      10.070  -2.213   9.025  1.00  0.00     0.120 C 
ATOM    106  C   UNL     1       9.125  -1.260  11.621  1.00  0.00     0.022 C 
ATOM    107  C   UNL     1       9.539  -3.219  10.056  1.00  0.00     0.022 C 
ATOM    108  C   UNL     1       9.621  -2.701  11.494  1.00  0.00     0.004 C 
ENDBRANCH  94 101
ENDBRANCH  90  92
ENDBRANCH  82  88
ENDBRANCH  77  80
ENDBRANCH  75  76
ENDBRANCH   1  75
TORSDOF 16
