REMARK SMILES CC1(C)NC(=O)N(CCC(=O)N2CCC[C@H]2C(=O)NCCCNC(=O)c2ccc(-c3c4nc(c(-c5c(F)cc(S(=O)(=O)[O-])cc5F)c5ccc([nH]5)c(-c5c(F)cc(S(=O)(=O)[O-])cc5F)c5nc(c(-c6c(F)cc(S(=O)(=O)[O-])cc6F)c6ccc3[nH]6)C=C5)C=C4)cc2)C1=O
REMARK SMILES IDX 20 1 19 2 17 3 18 4 16 6 12 7 13 8 14 9 15 10 10 11 11 12
REMARK SMILES IDX 9 13 8 14 7 15 1 16 2 17 3 18 4 19 92 20 5 21 93 23 6 24
REMARK SMILES IDX 21 25 22 26 23 27 24 28 25 30 26 31 27 32 91 33 28 34 90 35
REMARK SMILES IDX 29 36 30 37 31 38 84 39 32 40 89 41 83 42 85 43 33 44 88 45
REMARK SMILES IDX 82 46 81 47 34 49 68 50 47 51 67 52 48 53 51 54 66 55 86 56
REMARK SMILES IDX 49 57 50 58 65 60 87 61 52 62 35 63 36 64 45 65 37 66 38 67
REMARK SMILES IDX 44 68 46 69 39 70 40 71 41 72 42 73 43 74 69 75 70 76 79 77
REMARK SMILES IDX 71 78 72 79 78 80 80 81 73 82 74 83 75 84 76 85 77 86 53 87
REMARK SMILES IDX 54 88 63 89 55 90 56 91 62 92 64 93 57 94 58 95 59 96 60 97
REMARK SMILES IDX 61 98
REMARK H PARENT 19 5 4 22 23 29 85 48 51 59
REMARK Flexibility Score: inf
ROOT
ATOM      1  C   UNL     1      -3.851  -3.862   1.150  1.00  0.00     0.117 C 
ENDROOT
BRANCH   1   2
ATOM      2  N   UNL     1      -2.726  -2.956   1.067  1.00  0.00    -0.354 N 
ATOM      3  C   UNL     1      -1.469  -3.262   1.474  1.00  0.00     0.242 C 
ATOM      4  O   UNL     1      -0.969  -2.501   2.303  1.00  0.00    -0.273 OA
ATOM      5  H   UNL     1      -2.883  -2.059   0.692  1.00  0.00     0.163 HD
BRANCH   3   6
ATOM      6  C   UNL     1      -0.707  -4.474   0.931  1.00  0.00     0.174 C 
ATOM      7  N   UNL     1      -0.458  -5.571   1.843  1.00  0.00    -0.331 N 
ATOM      8  C   UNL     1      -1.230  -6.729   1.440  1.00  0.00     0.120 C 
ATOM      9  C   UNL     1      -1.509  -6.551  -0.047  1.00  0.00     0.024 C 
ATOM     10  C   UNL     1      -1.198  -5.095  -0.372  1.00  0.00     0.037 C 
BRANCH   7  11
ATOM     11  C   UNL     1       0.584  -5.675   2.746  1.00  0.00     0.225 C 
ATOM     12  O   UNL     1       0.985  -6.782   3.121  1.00  0.00    -0.275 OA
BRANCH  11  13
ATOM     13  C   UNL     1       1.196  -4.424   3.375  1.00  0.00     0.122 C 
BRANCH  13  14
ATOM     14  C   UNL     1       2.427  -3.815   2.693  1.00  0.00     0.140 C 
BRANCH  14  15
ATOM     15  N   UNL     1       2.139  -2.762   1.725  1.00  0.00    -0.262 N 
ATOM     16  C   UNL     1       2.410   0.442   0.464  1.00  0.00     0.045 C 
ATOM     17  C   UNL     1       1.460  -0.719   0.717  1.00  0.00     0.115 C 
ATOM     18  C   UNL     1       0.003  -0.256   0.676  1.00  0.00     0.045 C 
ATOM     19  N   UNL     1       1.732  -1.779  -0.230  1.00  0.00    -0.324 N 
ATOM     20  C   UNL     1       1.806  -1.464   2.030  1.00  0.00     0.255 C 
ATOM     21  C   UNL     1       2.214  -2.915   0.375  1.00  0.00     0.325 C 
ATOM     22  H   UNL     1       1.588  -1.695  -1.200  1.00  0.00     0.166 HD
ATOM     23  O   UNL     1       1.816  -0.957   3.144  1.00  0.00    -0.272 OA
ATOM     24  O   UNL     1       2.578  -3.901  -0.247  1.00  0.00    -0.248 OA
ENDBRANCH  14  15
ENDBRANCH  13  14
ENDBRANCH  11  13
ENDBRANCH   7  11
ENDBRANCH   3   6
ENDBRANCH   1   2
BRANCH   1  25
ATOM     25  C   UNL     1      -4.264  -4.086   2.602  1.00  0.00     0.042 C 
BRANCH  25  26
ATOM     26  C   UNL     1      -4.434  -2.795   3.401  1.00  0.00     0.118 C 
BRANCH  26  27
ATOM     27  N   UNL     1      -5.353  -1.870   2.749  1.00  0.00    -0.352 N 
ATOM     28  C   UNL     1      -6.643  -1.554   3.084  1.00  0.00     0.251 C 
ATOM     29  H   UNL     1      -4.996  -1.407   1.957  1.00  0.00     0.163 HD
ATOM     30  O   UNL     1      -7.367  -0.991   2.269  1.00  0.00    -0.269 OA
BRANCH  28  31
ATOM     31  C   UNL     1      -7.145  -1.902   4.426  1.00  0.00     0.039 A 
ATOM     32  C   UNL     1      -8.410  -2.477   4.554  1.00  0.00     0.014 A 
ATOM     33  C   UNL     1      -6.362  -1.642   5.554  1.00  0.00     0.014 A 
ATOM     34  C   UNL     1      -8.874  -2.829   5.821  1.00  0.00     0.010 A 
ATOM     35  C   UNL     1      -6.790  -2.070   6.803  1.00  0.00     0.010 A 
ATOM     36  C   UNL     1      -8.060  -2.645   6.950  1.00  0.00    -0.014 A 
BRANCH  36  37
ATOM     37  C   UNL     1      -8.537  -3.002   8.306  1.00  0.00     0.031 A 
ATOM     38  C   UNL     1      -8.730  -1.920   9.334  1.00  0.00     0.074 A 
ATOM     39  C   UNL     1      -8.737  -4.295   8.624  1.00  0.00     0.049 A 
ATOM     40  N   UNL     1      -9.082  -2.026  10.589  1.00  0.00    -0.248 NA
ATOM     41  C   UNL     1      -8.459  -0.538   8.903  1.00  0.00     0.031 C 
ATOM     42  C   UNL     1      -8.519  -5.431   7.725  1.00  0.00     0.029 A 
ATOM     43  N   UNL     1      -9.159  -4.873   9.793  1.00  0.00    -0.354 N 
ATOM     44  C   UNL     1      -9.056  -0.733  11.098  1.00  0.00     0.074 A 
ATOM     45  C   UNL     1      -8.596   0.133  10.036  1.00  0.00     0.031 C 
ATOM     46  C   UNL     1      -8.829  -6.567   8.370  1.00  0.00     0.029 A 
ATOM     47  C   UNL     1      -9.242  -6.243   9.732  1.00  0.00     0.049 A 
ATOM     48  H   UNL     1      -9.383  -4.355  10.599  1.00  0.00     0.167 HD
ATOM     49  C   UNL     1      -9.411  -0.303  12.332  1.00  0.00     0.037 A 
ATOM     50  C   UNL     1      -9.611  -7.135  10.671  1.00  0.00     0.037 A 
ATOM     51  C   UNL     1      -9.900  -1.170  13.370  1.00  0.00     0.049 A 
ATOM     52  C   UNL     1     -10.042  -6.631  12.021  1.00  0.00     0.074 A 
ATOM     53  C   UNL     1     -10.341  -0.836  14.637  1.00  0.00     0.029 A 
ATOM     54  N   UNL     1     -10.019  -2.548  13.254  1.00  0.00    -0.354 N 
ATOM     55  N   UNL     1     -10.071  -5.397  12.468  1.00  0.00    -0.248 NA
ATOM     56  C   UNL     1     -10.506  -7.634  12.988  1.00  0.00     0.031 C 
ATOM     57  C   UNL     1     -10.700  -2.016  15.299  1.00  0.00     0.029 A 
ATOM     58  C   UNL     1     -10.521  -3.080  14.429  1.00  0.00     0.049 A 
ATOM     59  H   UNL     1      -9.782  -3.071  12.454  1.00  0.00     0.167 HD
ATOM     60  C   UNL     1     -10.577  -5.473  13.761  1.00  0.00     0.074 A 
ATOM     61  C   UNL     1     -10.854  -6.873  14.016  1.00  0.00     0.031 C 
ATOM     62  C   UNL     1     -10.794  -4.478  14.656  1.00  0.00     0.037 A 
BRANCH  49  63
ATOM     63  C   UNL     1      -9.296   1.171  12.611  1.00  0.00     0.058 A 
ATOM     64  C   UNL     1     -10.156   2.102  12.006  1.00  0.00     0.135 A 
ATOM     65  C   UNL     1      -8.325   1.659  13.498  1.00  0.00     0.135 A 
ATOM     66  F   UNL     1     -11.092   1.692  11.134  1.00  0.00    -0.206 F 
ATOM     67  C   UNL     1     -10.034   3.467  12.242  1.00  0.00     0.059 A 
ATOM     68  C   UNL     1      -8.202   3.019  13.771  1.00  0.00     0.059 A 
ATOM     69  F   UNL     1      -7.475   0.814  14.104  1.00  0.00    -0.206 F 
ATOM     70  C   UNL     1      -9.051   3.917  13.124  1.00  0.00     0.060 A 
BRANCH  70  71
ATOM     71  S   UNL     1      -8.901   5.692  13.417  1.00  0.00     0.124 S 
ATOM     72  O   UNL     1      -8.262   6.137  12.182  1.00  0.00    -0.237 OA
ATOM     73  O   UNL     1     -10.292   6.099  13.592  1.00  0.00    -0.237 OA
ATOM     74  O   UNL     1      -8.073   5.770  14.616  1.00  0.00    -0.744 OA
ENDBRANCH  70  71
ENDBRANCH  49  63
BRANCH  50  75
ATOM     75  C   UNL     1      -9.626  -8.585  10.349  1.00  0.00     0.058 A 
ATOM     76  C   UNL     1     -10.837  -9.271  10.173  1.00  0.00     0.135 A 
ATOM     77  C   UNL     1      -8.435  -9.307  10.179  1.00  0.00     0.135 A 
ATOM     78  F   UNL     1     -12.002  -8.624  10.326  1.00  0.00    -0.206 F 
ATOM     79  C   UNL     1     -10.868 -10.625   9.854  1.00  0.00     0.059 A 
ATOM     80  C   UNL     1      -8.440 -10.656   9.838  1.00  0.00     0.059 A 
ATOM     81  F   UNL     1      -7.250  -8.691  10.315  1.00  0.00    -0.206 F 
ATOM     82  C   UNL     1      -9.663 -11.309   9.686  1.00  0.00     0.060 A 
BRANCH  82  83
ATOM     83  S   UNL     1      -9.715 -13.051   9.214  1.00  0.00     0.124 S 
ATOM     84  O   UNL     1     -10.102 -13.684  10.470  1.00  0.00    -0.237 OA
ATOM     85  O   UNL     1     -10.723 -13.055   8.159  1.00  0.00    -0.237 OA
ATOM     86  O   UNL     1      -8.351 -13.317   8.767  1.00  0.00    -0.744 OA
ENDBRANCH  82  83
ENDBRANCH  50  75
BRANCH  62  87
ATOM     87  C   UNL     1     -11.386  -4.864  15.981  1.00  0.00     0.058 A 
ATOM     88  C   UNL     1     -10.627  -5.521  16.962  1.00  0.00     0.135 A 
ATOM     89  C   UNL     1     -12.715  -4.534  16.287  1.00  0.00     0.135 A 
ATOM     90  F   UNL     1      -9.353  -5.863  16.715  1.00  0.00    -0.206 F 
ATOM     91  C   UNL     1     -11.176  -5.862  18.193  1.00  0.00     0.059 A 
ATOM     92  C   UNL     1     -13.276  -4.843  17.521  1.00  0.00     0.059 A 
ATOM     93  F   UNL     1     -13.478  -3.895  15.386  1.00  0.00    -0.206 F 
ATOM     94  C   UNL     1     -12.502  -5.519  18.463  1.00  0.00     0.060 A 
BRANCH  94  95
ATOM     95  S   UNL     1     -13.197  -5.945  20.073  1.00  0.00     0.124 S 
ATOM     96  O   UNL     1     -13.438  -7.376  19.919  1.00  0.00    -0.237 OA
ATOM     97  O   UNL     1     -12.121  -5.578  20.988  1.00  0.00    -0.237 OA
ATOM     98  O   UNL     1     -14.393  -5.112  20.157  1.00  0.00    -0.744 OA
ENDBRANCH  94  95
ENDBRANCH  62  87
ENDBRANCH  36  37
ENDBRANCH  28  31
ENDBRANCH  26  27
ENDBRANCH  25  26
ENDBRANCH   1  25
TORSDOF 17
