REMARK SMILES CC(C)[C@H](C[NH+](C)C)NC(=O)c1csc(/C=C/C(=O)NCCCNC(=O)c2ccc(-c3c4nc(c(-c5c(F)cc(S(=O)(=O)[O-])cc5F)c5ccc([nH]5)c(-c5c(F)cc(S(=O)(=O)[O-])cc5F)c5nc(c(-c6c(F)cc(S(=O)(=O)[O-])cc6F)c6ccc3[nH]6)C=C5)C=C4)cc2)c1
REMARK SMILES IDX 21 1 20 2 18 3 19 4 17 6 16 7 15 8 12 9 13 10 93 11 14 12
REMARK SMILES IDX 10 13 9 14 11 16 4 17 2 18 1 19 3 20 5 21 6 22 7 23 8 24
REMARK SMILES IDX 22 26 23 27 24 28 25 29 26 31 27 32 28 33 92 34 29 35 91 36
REMARK SMILES IDX 30 37 31 38 32 39 85 40 33 41 90 42 84 43 86 44 34 45 89 46
REMARK SMILES IDX 83 47 82 48 35 50 69 51 48 52 68 53 49 54 52 55 67 56 87 57
REMARK SMILES IDX 50 58 51 59 66 61 88 62 53 63 36 64 37 65 46 66 38 67 39 68
REMARK SMILES IDX 45 69 47 70 40 71 41 72 42 73 43 74 44 75 70 76 71 77 80 78
REMARK SMILES IDX 72 79 73 80 79 81 81 82 74 83 75 84 76 85 77 86 78 87 54 88
REMARK SMILES IDX 55 89 64 90 56 91 57 92 63 93 65 94 58 95 59 96 60 97 61 98
REMARK SMILES IDX 62 99
REMARK H PARENT 20 5 9 15 6 25 24 30 86 49 52 60
REMARK Flexibility Score: inf
ROOT
ATOM      1  C   UNL     1      -2.562  -4.020   7.960  1.00  0.00     0.118 C 
ENDROOT
BRANCH   1   2
ATOM      2  N   UNL     1      -2.564  -2.672   8.506  1.00  0.00    -0.352 N 
ATOM      3  C   UNL     1      -2.858  -1.482   7.917  1.00  0.00     0.244 C 
ATOM      4  O   UNL     1      -2.932  -0.462   8.598  1.00  0.00    -0.270 OA
ATOM      5  H   UNL     1      -2.313  -2.611   9.456  1.00  0.00     0.163 HD
BRANCH   3   6
ATOM      6  C   UNL     1      -3.187  -1.420   6.478  1.00  0.00     0.072 C 
ATOM      7  C   UNL     1      -2.404  -1.948   5.526  1.00  0.00     0.024 C 
BRANCH   7   8
ATOM      8  C   UNL     1      -2.723  -1.922   4.136  1.00  0.00     0.028 A 
ATOM      9  C   UNL     1      -2.721  -2.495   1.844  1.00  0.00     0.051 A 
ATOM     10  C   UNL     1      -3.579  -1.415   1.864  1.00  0.00     0.079 A 
ATOM     11  C   UNL     1      -2.268  -2.803   3.167  1.00  0.00     0.033 A 
ATOM     12  S   UNL     1      -3.740  -0.733   3.417  1.00  0.00    -0.144 S 
BRANCH   9  13
ATOM     13  C   UNL     1      -2.390  -3.248   0.645  1.00  0.00     0.252 C 
ATOM     14  N   UNL     1      -1.714  -2.610  -0.363  1.00  0.00    -0.343 N 
ATOM     15  H   UNL     1      -1.647  -3.110  -1.208  1.00  0.00     0.164 HD
ATOM     16  O   UNL     1      -2.687  -4.432   0.524  1.00  0.00    -0.269 OA
BRANCH  14  17
ATOM     17  C   UNL     1      -1.074  -1.288  -0.366  1.00  0.00     0.139 C 
BRANCH  17  18
ATOM     18  C   UNL     1      -1.621  -0.326  -1.467  1.00  0.00     0.011 C 
ATOM     19  C   UNL     1      -2.632  -0.963  -2.424  1.00  0.00     0.010 C 
ATOM     20  C   UNL     1      -2.250   0.922  -0.834  1.00  0.00     0.010 C 
ENDBRANCH  17  18
BRANCH  17  21
ATOM     21  C   UNL     1       0.486  -1.407  -0.360  1.00  0.00     0.287 C 
BRANCH  21  22
ATOM     22  N   UNL     1       1.175  -1.514  -1.663  1.00  0.00    -0.338 N 
ATOM     23  C   UNL     1       2.620  -1.333  -1.472  1.00  0.00     0.332 C 
ATOM     24  C   UNL     1       0.938  -2.789  -2.337  1.00  0.00     0.332 C 
ATOM     25  H   UNL     1       0.790  -0.781  -2.260  1.00  0.00     0.347 HD
ENDBRANCH  21  22
ENDBRANCH  17  21
ENDBRANCH  14  17
ENDBRANCH   9  13
ENDBRANCH   7   8
ENDBRANCH   3   6
ENDBRANCH   1   2
BRANCH   1  26
ATOM     26  C   UNL     1      -1.146  -4.584   7.856  1.00  0.00     0.042 C 
BRANCH  26  27
ATOM     27  C   UNL     1      -0.542  -4.971   9.204  1.00  0.00     0.118 C 
BRANCH  27  28
ATOM     28  N   UNL     1      -1.206  -6.127   9.790  1.00  0.00    -0.352 N 
ATOM     29  C   UNL     1      -0.688  -7.331  10.197  1.00  0.00     0.251 C 
ATOM     30  H   UNL     1      -2.177  -6.029   9.914  1.00  0.00     0.163 HD
ATOM     31  O   UNL     1      -1.456  -8.251  10.467  1.00  0.00    -0.269 OA
BRANCH  29  32
ATOM     32  C   UNL     1       0.775  -7.534  10.305  1.00  0.00     0.039 A 
ATOM     33  C   UNL     1       1.315  -8.757   9.894  1.00  0.00     0.014 A 
ATOM     34  C   UNL     1       1.607  -6.555  10.855  1.00  0.00     0.014 A 
ATOM     35  C   UNL     1       2.691  -8.979   9.989  1.00  0.00     0.010 A 
ATOM     36  C   UNL     1       2.987  -6.754  10.891  1.00  0.00     0.010 A 
ATOM     37  C   UNL     1       3.542  -7.970  10.465  1.00  0.00    -0.014 A 
BRANCH  37  38
ATOM     38  C   UNL     1       5.013  -8.168  10.528  1.00  0.00     0.031 A 
ATOM     39  C   UNL     1       5.718  -8.188  11.857  1.00  0.00     0.074 A 
ATOM     40  C   UNL     1       5.721  -8.264   9.386  1.00  0.00     0.049 A 
ATOM     41  N   UNL     1       6.999  -8.264  12.112  1.00  0.00    -0.248 NA
ATOM     42  C   UNL     1       4.873  -8.085  13.058  1.00  0.00     0.031 C 
ATOM     43  C   UNL     1       5.157  -8.215   8.035  1.00  0.00     0.029 A 
ATOM     44  N   UNL     1       7.069  -8.409   9.176  1.00  0.00    -0.354 N 
ATOM     45  C   UNL     1       7.117  -8.197  13.495  1.00  0.00     0.074 A 
ATOM     46  C   UNL     1       5.779  -8.033  14.024  1.00  0.00     0.031 C 
ATOM     47  C   UNL     1       6.149  -8.342   7.139  1.00  0.00     0.029 A 
ATOM     48  C   UNL     1       7.420  -8.447   7.848  1.00  0.00     0.049 A 
ATOM     49  H   UNL     1       7.723  -8.478   9.909  1.00  0.00     0.167 HD
ATOM     50  C   UNL     1       8.235  -8.282  14.256  1.00  0.00     0.037 A 
ATOM     51  C   UNL     1       8.631  -8.547   7.265  1.00  0.00     0.037 A 
ATOM     52  C   UNL     1       9.559  -8.477  13.726  1.00  0.00     0.049 A 
ATOM     53  C   UNL     1       9.856  -8.658   8.130  1.00  0.00     0.074 A 
ATOM     54  C   UNL     1      10.749  -8.635  14.416  1.00  0.00     0.029 A 
ATOM     55  N   UNL     1       9.870  -8.543  12.376  1.00  0.00    -0.354 N 
ATOM     56  N   UNL     1       9.943  -8.644   9.439  1.00  0.00    -0.248 NA
ATOM     57  C   UNL     1      11.146  -8.803   7.442  1.00  0.00     0.031 C 
ATOM     58  C   UNL     1      11.783  -8.764  13.482  1.00  0.00     0.029 A 
ATOM     59  C   UNL     1      11.233  -8.726  12.211  1.00  0.00     0.049 A 
ATOM     60  H   UNL     1       9.217  -8.470  11.642  1.00  0.00     0.167 HD
ATOM     61  C   UNL     1      11.293  -8.802   9.731  1.00  0.00     0.074 A 
ATOM     62  C   UNL     1      11.983  -8.919   8.463  1.00  0.00     0.031 C 
ATOM     63  C   UNL     1      11.904  -8.846  10.941  1.00  0.00     0.037 A 
BRANCH  50  64
ATOM     64  C   UNL     1       8.071  -8.169  15.747  1.00  0.00     0.058 A 
ATOM     65  C   UNL     1       7.481  -9.195  16.503  1.00  0.00     0.135 A 
ATOM     66  C   UNL     1       8.530  -7.033  16.433  1.00  0.00     0.135 A 
ATOM     67  F   UNL     1       7.012 -10.297  15.896  1.00  0.00    -0.206 F 
ATOM     68  C   UNL     1       7.322  -9.085  17.880  1.00  0.00     0.059 A 
ATOM     69  C   UNL     1       8.405  -6.913  17.814  1.00  0.00     0.059 A 
ATOM     70  F   UNL     1       9.103  -6.023  15.760  1.00  0.00    -0.206 F 
ATOM     71  C   UNL     1       7.784  -7.938  18.527  1.00  0.00     0.060 A 
BRANCH  71  72
ATOM     72  S   UNL     1       7.565  -7.806  20.314  1.00  0.00     0.124 S 
ATOM     73  O   UNL     1       6.141  -7.502  20.410  1.00  0.00    -0.237 OA
ATOM     74  O   UNL     1       7.962  -9.132  20.778  1.00  0.00    -0.237 OA
ATOM     75  O   UNL     1       8.466  -6.720  20.687  1.00  0.00    -0.744 OA
ENDBRANCH  71  72
ENDBRANCH  50  64
BRANCH  51  76
ATOM     76  C   UNL     1       8.737  -8.572   5.783  1.00  0.00     0.058 A 
ATOM     77  C   UNL     1       9.048  -9.758   5.104  1.00  0.00     0.135 A 
ATOM     78  C   UNL     1       8.501  -7.420   5.016  1.00  0.00     0.135 A 
ATOM     79  F   UNL     1       9.287 -10.883   5.795  1.00  0.00    -0.206 F 
ATOM     80  C   UNL     1       9.133  -9.803   3.716  1.00  0.00     0.059 A 
ATOM     81  C   UNL     1       8.558  -7.444   3.626  1.00  0.00     0.059 A 
ATOM     82  F   UNL     1       8.182  -6.264   5.619  1.00  0.00    -0.206 F 
ATOM     83  C   UNL     1       8.882  -8.640   2.985  1.00  0.00     0.060 A 
BRANCH  83  84
ATOM     84  S   UNL     1       8.931  -8.720   1.182  1.00  0.00     0.124 S 
ATOM     85  O   UNL     1      10.366  -8.760   0.928  1.00  0.00    -0.237 OA
ATOM     86  O   UNL     1       8.198  -9.953   0.908  1.00  0.00    -0.237 OA
ATOM     87  O   UNL     1       8.251  -7.494   0.775  1.00  0.00    -0.744 OA
ENDBRANCH  83  84
ENDBRANCH  51  76
BRANCH  63  88
ATOM     88  C   UNL     1      13.391  -9.059  10.954  1.00  0.00     0.058 A 
ATOM     89  C   UNL     1      14.283  -8.032  10.610  1.00  0.00     0.135 A 
ATOM     90  C   UNL     1      13.930 -10.289  11.363  1.00  0.00     0.135 A 
ATOM     91  F   UNL     1      13.818  -6.839  10.206  1.00  0.00    -0.206 F 
ATOM     92  C   UNL     1      15.661  -8.223  10.653  1.00  0.00     0.059 A 
ATOM     93  C   UNL     1      15.303 -10.496  11.435  1.00  0.00     0.059 A 
ATOM     94  F   UNL     1      13.118 -11.300  11.710  1.00  0.00    -0.206 F 
ATOM     95  C   UNL     1      16.161  -9.459  11.067  1.00  0.00     0.060 A 
BRANCH  95  96
ATOM     96  S   UNL     1      17.950  -9.686  11.153  1.00  0.00     0.124 S 
ATOM     97  O   UNL     1      18.293  -9.850   9.745  1.00  0.00    -0.237 OA
ATOM     98  O   UNL     1      18.396  -8.442  11.773  1.00  0.00    -0.237 OA
ATOM     99  O   UNL     1      18.101 -10.880  11.980  1.00  0.00    -0.744 OA
ENDBRANCH  95  96
ENDBRANCH  63  88
ENDBRANCH  37  38
ENDBRANCH  29  32
ENDBRANCH  27  28
ENDBRANCH  26  27
ENDBRANCH   1  26
TORSDOF 19
