REMARK SMILES Cc1ccc(C#N)cc1S(=O)(=O)Nc1cccc(C(=O)NCCCNC(=O)c2ccc(-c3c4nc(c(-c5c(F)cc(S(=O)(=O)[O-])cc5F)c5ccc([nH]5)c(-c5c(F)cc(S(=O)(=O)[O-])cc5F)c5nc(c(-c6c(F)cc(S(=O)(=O)[O-])cc6F)c6ccc3[nH]6)C=C5)C=C4)cc2)c1
REMARK SMILES IDX 22 1 21 2 19 3 20 4 18 6 14 7 15 8 94 9 16 10 17 11 13 12
REMARK SMILES IDX 10 14 11 15 12 16 9 17 1 18 2 19 3 20 4 21 8 22 5 23 6 24
REMARK SMILES IDX 7 25 23 26 24 27 25 28 26 29 27 31 28 32 29 33 93 34 30 35
REMARK SMILES IDX 92 36 31 37 32 38 33 39 86 40 34 41 91 42 85 43 87 44 35 45
REMARK SMILES IDX 90 46 84 47 83 48 36 50 70 51 49 52 69 53 50 54 53 55 68 56
REMARK SMILES IDX 88 57 51 58 52 59 67 61 89 62 54 63 37 64 38 65 47 66 39 67
REMARK SMILES IDX 40 68 46 69 48 70 41 71 42 72 43 73 44 74 45 75 71 76 72 77
REMARK SMILES IDX 81 78 73 79 74 80 80 81 82 82 75 83 76 84 77 85 78 86 79 87
REMARK SMILES IDX 55 88 56 89 65 90 57 91 58 92 64 93 66 94 59 95 60 96 61 97
REMARK SMILES IDX 62 98 63 99
REMARK H PARENT 21 5 13 13 25 30 87 49 53 60
REMARK Flexibility Score: inf
ROOT
ATOM      1  C   UNL     1      -1.022  -0.221   4.410  1.00  0.00     0.118 C 
ENDROOT
BRANCH   1   2
ATOM      2  N   UNL     1      -1.079  -1.559   3.853  1.00  0.00    -0.352 N 
ATOM      3  C   UNL     1      -0.288  -2.271   2.989  1.00  0.00     0.251 C 
ATOM      4  O   UNL     1      -0.600  -3.456   2.834  1.00  0.00    -0.269 OA
ATOM      5  H   UNL     1      -1.860  -2.071   4.165  1.00  0.00     0.163 HD
BRANCH   3   6
ATOM      6  C   UNL     1       0.847  -1.721   2.173  1.00  0.00     0.041 A 
ATOM      7  C   UNL     1       2.124   0.083   1.155  1.00  0.00     0.050 A 
ATOM      8  C   UNL     1       2.625  -0.780   0.189  1.00  0.00     0.027 A 
ATOM      9  C   UNL     1       1.329  -0.406   2.199  1.00  0.00     0.040 A 
ATOM     10  C   UNL     1       2.270  -2.125   0.218  1.00  0.00     0.003 A 
ATOM     11  C   UNL     1       1.360  -2.581   1.179  1.00  0.00     0.014 A 
BRANCH   7  12
ATOM     12  N   UNL     1       2.384   1.481   1.002  1.00  0.00    -0.280 N 
ATOM     13  H   UNL     1       3.240   1.853   1.317  1.00  0.00     0.180 HD
BRANCH  12  14
ATOM     14  S   UNL     1       1.224   2.520   0.278  1.00  0.00     0.262 S 
ATOM     15  O   UNL     1       1.987   3.722  -0.001  1.00  0.00    -0.201 OA
ATOM     16  O   UNL     1       0.091   2.581   1.174  1.00  0.00    -0.201 OA
BRANCH  14  17
ATOM     17  C   UNL     1       0.661   1.888  -1.312  1.00  0.00     0.092 A 
ATOM     18  C   UNL     1      -0.777  -0.030  -0.358  1.00  0.00     0.046 C 
ATOM     19  C   UNL     1      -0.140   0.743  -1.468  1.00  0.00    -0.030 A 
ATOM     20  C   UNL     1      -0.440   0.286  -2.767  1.00  0.00     0.006 A 
ATOM     21  C   UNL     1      -0.161   1.065  -3.883  1.00  0.00     0.020 A 
ATOM     22  C   UNL     1       0.883   2.704  -2.445  1.00  0.00     0.042 A 
ATOM     23  C   UNL     1       0.430   2.314  -3.715  1.00  0.00     0.053 A 
BRANCH  23  24
ATOM     24  C   UNL     1       0.513   3.193  -4.850  1.00  0.00     0.099 C 
ATOM     25  N   UNL     1       0.538   3.862  -5.793  1.00  0.00    -0.192 NA
ENDBRANCH  23  24
ENDBRANCH  14  17
ENDBRANCH  12  14
ENDBRANCH   7  12
ENDBRANCH   3   6
ENDBRANCH   1   2
BRANCH   1  26
ATOM     26  C   UNL     1      -2.375   0.449   4.561  1.00  0.00     0.042 C 
BRANCH  26  27
ATOM     27  C   UNL     1      -3.315  -0.227   5.538  1.00  0.00     0.118 C 
BRANCH  27  28
ATOM     28  N   UNL     1      -2.854  -0.170   6.922  1.00  0.00    -0.352 N 
ATOM     29  C   UNL     1      -3.249   0.632   7.971  1.00  0.00     0.251 C 
ATOM     30  H   UNL     1      -2.141  -0.811   7.143  1.00  0.00     0.163 HD
ATOM     31  O   UNL     1      -2.612   0.616   9.021  1.00  0.00    -0.269 OA
BRANCH  29  32
ATOM     32  C   UNL     1      -4.405   1.543   7.816  1.00  0.00     0.039 A 
ATOM     33  C   UNL     1      -5.542   1.127   7.131  1.00  0.00     0.014 A 
ATOM     34  C   UNL     1      -4.338   2.845   8.320  1.00  0.00     0.014 A 
ATOM     35  C   UNL     1      -6.470   2.066   6.709  1.00  0.00     0.010 A 
ATOM     36  C   UNL     1      -5.360   3.755   8.027  1.00  0.00     0.010 A 
ATOM     37  C   UNL     1      -6.402   3.392   7.161  1.00  0.00    -0.014 A 
BRANCH  37  38
ATOM     38  C   UNL     1      -7.444   4.362   6.726  1.00  0.00     0.031 A 
ATOM     39  C   UNL     1      -7.074   5.612   5.971  1.00  0.00     0.074 A 
ATOM     40  C   UNL     1      -8.740   4.075   6.963  1.00  0.00     0.049 A 
ATOM     41  N   UNL     1      -7.855   6.565   5.526  1.00  0.00    -0.248 NA
ATOM     42  C   UNL     1      -5.648   5.828   5.679  1.00  0.00     0.031 C 
ATOM     43  C   UNL     1      -9.225   2.878   7.658  1.00  0.00     0.029 A 
ATOM     44  N   UNL     1      -9.888   4.743   6.625  1.00  0.00    -0.354 N 
ATOM     45  C   UNL     1      -7.019   7.493   4.914  1.00  0.00     0.074 A 
ATOM     46  C   UNL     1      -5.665   7.014   5.087  1.00  0.00     0.031 C 
ATOM     47  C   UNL     1     -10.563   2.862   7.631  1.00  0.00     0.029 A 
ATOM     48  C   UNL     1     -11.037   4.092   7.008  1.00  0.00     0.049 A 
ATOM     49  H   UNL     1      -9.890   5.607   6.152  1.00  0.00     0.167 HD
ATOM     50  C   UNL     1      -7.353   8.629   4.254  1.00  0.00     0.037 A 
ATOM     51  C   UNL     1     -12.329   4.449   6.898  1.00  0.00     0.037 A 
ATOM     52  C   UNL     1      -8.707   9.094   4.086  1.00  0.00     0.049 A 
ATOM     53  C   UNL     1     -12.665   5.759   6.247  1.00  0.00     0.074 A 
ATOM     54  C   UNL     1      -9.150  10.237   3.443  1.00  0.00     0.029 A 
ATOM     55  N   UNL     1      -9.838   8.443   4.561  1.00  0.00    -0.354 N 
ATOM     56  N   UNL     1     -11.860   6.631   5.689  1.00  0.00    -0.248 NA
ATOM     57  C   UNL     1     -14.083   6.139   6.218  1.00  0.00     0.031 C 
ATOM     58  C   UNL     1     -10.539  10.308   3.581  1.00  0.00     0.029 A 
ATOM     59  C   UNL     1     -10.973   9.173   4.247  1.00  0.00     0.049 A 
ATOM     60  H   UNL     1      -9.834   7.588   5.049  1.00  0.00     0.167 HD
ATOM     61  C   UNL     1     -12.677   7.651   5.216  1.00  0.00     0.074 A 
ATOM     62  C   UNL     1     -14.039   7.279   5.542  1.00  0.00     0.031 C 
ATOM     63  C   UNL     1     -12.327   8.791   4.571  1.00  0.00     0.037 A 
BRANCH  50  64
ATOM     64  C   UNL     1      -6.238   9.460   3.670  1.00  0.00     0.058 A 
ATOM     65  C   UNL     1      -5.476   9.012   2.578  1.00  0.00     0.135 A 
ATOM     66  C   UNL     1      -5.960  10.743   4.172  1.00  0.00     0.135 A 
ATOM     67  F   UNL     1      -5.687   7.790   2.062  1.00  0.00    -0.206 F 
ATOM     68  C   UNL     1      -4.463   9.790   2.026  1.00  0.00     0.059 A 
ATOM     69  C   UNL     1      -4.975  11.553   3.614  1.00  0.00     0.059 A 
ATOM     70  F   UNL     1      -6.657  11.227   5.213  1.00  0.00    -0.206 F 
ATOM     71  C   UNL     1      -4.222  11.062   2.550  1.00  0.00     0.060 A 
BRANCH  71  72
ATOM     72  S   UNL     1      -2.901  12.054   1.821  1.00  0.00     0.124 S 
ATOM     73  O   UNL     1      -1.718  11.283   2.194  1.00  0.00    -0.237 OA
ATOM     74  O   UNL     1      -3.248  12.037   0.405  1.00  0.00    -0.237 OA
ATOM     75  O   UNL     1      -3.038  13.347   2.485  1.00  0.00    -0.744 OA
ENDBRANCH  71  72
ENDBRANCH  50  64
BRANCH  51  76
ATOM     76  C   UNL     1     -13.390   3.541   7.411  1.00  0.00     0.058 A 
ATOM     77  C   UNL     1     -14.270   2.897   6.530  1.00  0.00     0.135 A 
ATOM     78  C   UNL     1     -13.514   3.259   8.782  1.00  0.00     0.135 A 
ATOM     79  F   UNL     1     -14.195   3.138   5.212  1.00  0.00    -0.206 F 
ATOM     80  C   UNL     1     -15.238   2.010   6.987  1.00  0.00     0.059 A 
ATOM     81  C   UNL     1     -14.451   2.349   9.260  1.00  0.00     0.059 A 
ATOM     82  F   UNL     1     -12.685   3.836   9.666  1.00  0.00    -0.206 F 
ATOM     83  C   UNL     1     -15.313   1.734   8.354  1.00  0.00     0.060 A 
BRANCH  83  84
ATOM     84  S   UNL     1     -16.533   0.532   8.922  1.00  0.00     0.124 S 
ATOM     85  O   UNL     1     -17.784   1.224   8.635  1.00  0.00    -0.237 OA
ATOM     86  O   UNL     1     -16.233  -0.622   8.081  1.00  0.00    -0.237 OA
ATOM     87  O   UNL     1     -16.213   0.369  10.337  1.00  0.00    -0.744 OA
ENDBRANCH  83  84
ENDBRANCH  51  76
BRANCH  63  88
ATOM     88  C   UNL     1     -13.434   9.713   4.137  1.00  0.00     0.058 A 
ATOM     89  C   UNL     1     -14.182  10.459   5.061  1.00  0.00     0.135 A 
ATOM     90  C   UNL     1     -13.705   9.903   2.771  1.00  0.00     0.135 A 
ATOM     91  F   UNL     1     -13.971  10.311   6.379  1.00  0.00    -0.206 F 
ATOM     92  C   UNL     1     -15.173  11.344   4.649  1.00  0.00     0.059 A 
ATOM     93  C   UNL     1     -14.666  10.809   2.335  1.00  0.00     0.059 A 
ATOM     94  F   UNL     1     -13.014   9.222   1.843  1.00  0.00    -0.206 F 
ATOM     95  C   UNL     1     -15.402  11.518   3.283  1.00  0.00     0.060 A 
BRANCH  95  96
ATOM     96  S   UNL     1     -16.665  12.699   2.767  1.00  0.00     0.124 S 
ATOM     97  O   UNL     1     -17.886  12.049   3.231  1.00  0.00    -0.237 OA
ATOM     98  O   UNL     1     -16.273  13.905   3.490  1.00  0.00    -0.237 OA
ATOM     99  O   UNL     1     -16.502  12.763   1.317  1.00  0.00    -0.744 OA
ENDBRANCH  95  96
ENDBRANCH  63  88
ENDBRANCH  37  38
ENDBRANCH  29  32
ENDBRANCH  27  28
ENDBRANCH  26  27
ENDBRANCH   1  26
TORSDOF 17
