REMARK SMILES CCc1nc(-c2cccnc2)nc(Oc2ccc(C(=O)NCCCNC(=O)c3ccc(-c4c5nc(c(-c6c(F)cc(S(=O)(=O)[O-])cc6F)c6ccc([nH]6)c(-c6c(F)cc(S(=O)(=O)[O-])cc6F)c6nc(c(-c7c(F)cc(S(=O)(=O)[O-])cc7F)c7ccc4[nH]7)C=C6)C=C5)cc3)cc2)c1C
REMARK SMILES IDX 23 1 22 2 21 3 19 4 20 5 18 7 15 8 16 9 95 10 17 11 94 12
REMARK SMILES IDX 14 13 13 14 3 15 4 16 96 17 5 18 97 19 12 20 2 21 1 22 6 23
REMARK SMILES IDX 7 24 11 25 8 26 10 27 9 28 24 29 25 30 26 31 27 33 28 34
REMARK SMILES IDX 29 35 93 36 30 37 92 38 31 39 32 40 33 41 86 42 34 43 91 44
REMARK SMILES IDX 85 45 87 46 35 47 90 48 84 49 83 50 36 52 70 53 49 54 69 55
REMARK SMILES IDX 50 56 53 57 68 58 88 59 51 60 52 61 67 63 89 64 54 65 37 66
REMARK SMILES IDX 38 67 47 68 39 69 40 70 46 71 48 72 41 73 42 74 43 75 44 76
REMARK SMILES IDX 45 77 71 78 72 79 81 80 73 81 74 82 80 83 82 84 75 85 76 86
REMARK SMILES IDX 77 87 78 88 79 89 55 90 56 91 65 92 57 93 58 94 64 95 66 96
REMARK SMILES IDX 59 97 60 98 61 99 62 100 63 101
REMARK H PARENT 21 6 25 32 87 51 53 62
REMARK Flexibility Score: inf
ROOT
ATOM      1  C   UNL     1       4.360  -7.860   0.394  1.00  0.00     0.042 C 
ENDROOT
BRANCH   1   2
ATOM      2  C   UNL     1       2.870  -7.581   0.575  1.00  0.00     0.118 C 
BRANCH   2   3
ATOM      3  N   UNL     1       2.286  -8.482   1.554  1.00  0.00    -0.352 N 
ATOM      4  C   UNL     1       1.933  -8.310   2.868  1.00  0.00     0.251 C 
ATOM      5  O   UNL     1       1.401  -9.253   3.453  1.00  0.00    -0.269 OA
ATOM      6  H   UNL     1       2.110  -9.386   1.209  1.00  0.00     0.163 HD
BRANCH   4   7
ATOM      7  C   UNL     1       2.067  -7.007   3.569  1.00  0.00     0.040 A 
ATOM      8  C   UNL     1       1.957  -4.458   4.692  1.00  0.00     0.129 A 
ATOM      9  C   UNL     1       1.007  -5.412   5.057  1.00  0.00     0.048 A 
ATOM     10  C   UNL     1       3.059  -4.819   3.920  1.00  0.00     0.048 A 
ATOM     11  C   UNL     1       1.050  -6.678   4.477  1.00  0.00     0.017 A 
ATOM     12  C   UNL     1       3.117  -6.103   3.368  1.00  0.00     0.017 A 
BRANCH   8  13
ATOM     13  O   UNL     1       1.750  -3.179   5.128  1.00  0.00    -0.439 OA
BRANCH  13  14
ATOM     14  C   UNL     1       1.572  -2.154   4.220  1.00  0.00     0.226 A 
ATOM     15  C   UNL     1       0.946  -1.046   2.231  1.00  0.00     0.051 A 
ATOM     16  N   UNL     1       1.228   0.140   2.801  1.00  0.00    -0.233 NA
ATOM     17  C   UNL     1       1.010  -2.248   2.941  1.00  0.00     0.033 A 
ATOM     18  C   UNL     1       1.693   0.131   4.055  1.00  0.00     0.165 A 
ATOM     19  C   UNL     1       0.498  -3.505   2.304  1.00  0.00     0.052 C 
ATOM     20  N   UNL     1       1.915  -0.972   4.777  1.00  0.00    -0.193 NA
BRANCH  15  21
ATOM     21  C   UNL     1       0.486  -0.985   0.788  1.00  0.00     0.053 C 
ATOM     22  C   UNL     1       0.982   0.240   0.026  1.00  0.00     0.011 C 
ENDBRANCH  15  21
BRANCH  18  23
ATOM     23  C   UNL     1       1.933   1.428   4.671  1.00  0.00     0.038 A 
ATOM     24  C   UNL     1       3.147   1.765   5.279  1.00  0.00     0.015 A 
ATOM     25  C   UNL     1       0.951   2.419   4.653  1.00  0.00     0.123 A 
ATOM     26  C   UNL     1       3.334   3.042   5.807  1.00  0.00     0.021 A 
ATOM     27  N   UNL     1       1.092   3.665   5.175  1.00  0.00    -0.264 NA
ATOM     28  C   UNL     1       2.287   3.946   5.734  1.00  0.00     0.111 A 
ENDBRANCH  18  23
ENDBRANCH  13  14
ENDBRANCH   8  13
ENDBRANCH   4   7
ENDBRANCH   2   3
ENDBRANCH   1   2
BRANCH   1  29
ATOM     29  C   UNL     1       4.647  -9.172  -0.334  1.00  0.00     0.118 C 
BRANCH  29  30
ATOM     30  N   UNL     1       4.303  -9.102  -1.746  1.00  0.00    -0.352 N 
ATOM     31  C   UNL     1       5.087  -9.307  -2.855  1.00  0.00     0.251 C 
ATOM     32  H   UNL     1       3.365  -8.872  -1.936  1.00  0.00     0.163 HD
ATOM     33  O   UNL     1       4.656  -8.986  -3.959  1.00  0.00    -0.269 OA
BRANCH  31  34
ATOM     34  C   UNL     1       6.442  -9.892  -2.730  1.00  0.00     0.039 A 
ATOM     35  C   UNL     1       7.473  -9.373  -3.520  1.00  0.00     0.014 A 
ATOM     36  C   UNL     1       6.695 -10.972  -1.879  1.00  0.00     0.014 A 
ATOM     37  C   UNL     1       8.764  -9.899  -3.416  1.00  0.00     0.010 A 
ATOM     38  C   UNL     1       7.996 -11.451  -1.728  1.00  0.00     0.010 A 
ATOM     39  C   UNL     1       9.044 -10.923  -2.497  1.00  0.00    -0.014 A 
BRANCH  39  40
ATOM     40  C   UNL     1      10.425 -11.446  -2.322  1.00  0.00     0.031 A 
ATOM     41  C   UNL     1      10.744 -12.879  -2.659  1.00  0.00     0.074 A 
ATOM     42  C   UNL     1      11.374 -10.650  -1.791  1.00  0.00     0.049 A 
ATOM     43  N   UNL     1      11.865 -13.534  -2.499  1.00  0.00    -0.248 NA
ATOM     44  C   UNL     1       9.653 -13.690  -3.224  1.00  0.00     0.031 C 
ATOM     45  C   UNL     1      11.175  -9.260  -1.371  1.00  0.00     0.029 A 
ATOM     46  N   UNL     1      12.692 -10.898  -1.493  1.00  0.00    -0.354 N 
ATOM     47  C   UNL     1      11.610 -14.835  -2.916  1.00  0.00     0.074 A 
ATOM     48  C   UNL     1      10.218 -14.887  -3.307  1.00  0.00     0.031 C 
ATOM     49  C   UNL     1      12.328  -8.779  -0.878  1.00  0.00     0.029 A 
ATOM     50  C   UNL     1      13.338  -9.831  -0.913  1.00  0.00     0.049 A 
ATOM     51  H   UNL     1      13.132 -11.759  -1.678  1.00  0.00     0.167 HD
ATOM     52  C   UNL     1      12.463 -15.886  -2.981  1.00  0.00     0.037 A 
ATOM     53  C   UNL     1      14.598  -9.717  -0.448  1.00  0.00     0.037 A 
ATOM     54  C   UNL     1      13.859 -15.815  -2.635  1.00  0.00     0.049 A 
ATOM     55  C   UNL     1      15.532 -10.891  -0.562  1.00  0.00     0.074 A 
ATOM     56  C   UNL     1      14.825 -16.799  -2.759  1.00  0.00     0.029 A 
ATOM     57  N   UNL     1      14.488 -14.704  -2.095  1.00  0.00    -0.354 N 
ATOM     58  N   UNL     1      15.295 -12.088  -1.043  1.00  0.00    -0.248 NA
ATOM     59  C   UNL     1      16.907 -10.698  -0.079  1.00  0.00     0.031 C 
ATOM     60  C   UNL     1      16.028 -16.297  -2.252  1.00  0.00     0.029 A 
ATOM     61  C   UNL     1      15.823 -14.986  -1.857  1.00  0.00     0.049 A 
ATOM     62  H   UNL     1      14.050 -13.842  -1.908  1.00  0.00     0.167 HD
ATOM     63  C   UNL     1      16.497 -12.781  -0.945  1.00  0.00     0.074 A 
ATOM     64  C   UNL     1      17.462 -11.866  -0.372  1.00  0.00     0.031 C 
ATOM     65  C   UNL     1      16.775 -14.060  -1.297  1.00  0.00     0.037 A 
BRANCH  52  66
ATOM     66  C   UNL     1      11.922 -17.209  -3.448  1.00  0.00     0.058 A 
ATOM     67  C   UNL     1      11.586 -17.438  -4.792  1.00  0.00     0.135 A 
ATOM     68  C   UNL     1      11.808 -18.285  -2.553  1.00  0.00     0.135 A 
ATOM     69  F   UNL     1      11.662 -16.441  -5.687  1.00  0.00    -0.206 F 
ATOM     70  C   UNL     1      11.141 -18.682  -5.228  1.00  0.00     0.059 A 
ATOM     71  C   UNL     1      11.390 -19.545  -2.972  1.00  0.00     0.059 A 
ATOM     72  F   UNL     1      12.116 -18.121  -1.256  1.00  0.00    -0.206 F 
ATOM     73  C   UNL     1      11.050 -19.731  -4.311  1.00  0.00     0.060 A 
BRANCH  73  74
ATOM     74  S   UNL     1      10.502 -21.347  -4.901  1.00  0.00     0.124 S 
ATOM     75  O   UNL     1       9.076 -21.113  -5.109  1.00  0.00    -0.237 OA
ATOM     76  O   UNL     1      11.297 -21.523  -6.112  1.00  0.00    -0.237 OA
ATOM     77  O   UNL     1      10.837 -22.243  -3.799  1.00  0.00    -0.744 OA
ENDBRANCH  73  74
ENDBRANCH  52  66
BRANCH  53  78
ATOM     78  C   UNL     1      15.054  -8.442   0.168  1.00  0.00     0.058 A 
ATOM     79  C   UNL     1      15.991  -7.621  -0.477  1.00  0.00     0.135 A 
ATOM     80  C   UNL     1      14.568  -8.023   1.416  1.00  0.00     0.135 A 
ATOM     81  F   UNL     1      16.488  -7.981  -1.670  1.00  0.00    -0.206 F 
ATOM     82  C   UNL     1      16.453  -6.445   0.105  1.00  0.00     0.059 A 
ATOM     83  C   UNL     1      14.994  -6.838   2.007  1.00  0.00     0.059 A 
ATOM     84  F   UNL     1      13.655  -8.762   2.065  1.00  0.00    -0.206 F 
ATOM     85  C   UNL     1      15.949  -6.063   1.350  1.00  0.00     0.060 A 
BRANCH  85  86
ATOM     86  S   UNL     1      16.532  -4.520   2.086  1.00  0.00     0.124 S 
ATOM     87  O   UNL     1      17.860  -4.901   2.551  1.00  0.00    -0.237 OA
ATOM     88  O   UNL     1      16.490  -3.602   0.953  1.00  0.00    -0.237 OA
ATOM     89  O   UNL     1      15.547  -4.257   3.131  1.00  0.00    -0.744 OA
ENDBRANCH  85  86
ENDBRANCH  53  78
BRANCH  65  90
ATOM     90  C   UNL     1      18.188 -14.539  -1.109  1.00  0.00     0.058 A 
ATOM     91  C   UNL     1      18.709 -14.819   0.163  1.00  0.00     0.135 A 
ATOM     92  C   UNL     1      19.013 -14.768  -2.222  1.00  0.00     0.135 A 
ATOM     93  F   UNL     1      17.963 -14.610   1.260  1.00  0.00    -0.206 F 
ATOM     94  C   UNL     1      20.007 -15.290   0.328  1.00  0.00     0.059 A 
ATOM     95  C   UNL     1      20.305 -15.264  -2.082  1.00  0.00     0.059 A 
ATOM     96  F   UNL     1      18.559 -14.526  -3.462  1.00  0.00    -0.206 F 
ATOM     97  C   UNL     1      20.797 -15.511  -0.802  1.00  0.00     0.060 A 
BRANCH  97  98
ATOM     98  S   UNL     1      22.469 -16.155  -0.578  1.00  0.00     0.124 S 
ATOM     99  O   UNL     1      23.177 -14.973  -0.098  1.00  0.00    -0.237 OA
ATOM    100  O   UNL     1      22.268 -17.216   0.404  1.00  0.00    -0.237 OA
ATOM    101  O   UNL     1      22.840 -16.610  -1.915  1.00  0.00    -0.744 OA
ENDBRANCH  97  98
ENDBRANCH  65  90
ENDBRANCH  39  40
ENDBRANCH  31  34
ENDBRANCH  29  30
ENDBRANCH   1  29
TORSDOF 17
