REMARK SMILES Cn1c(=O)c(=O)n(C)c2cc(S(=O)(=O)N3CCC[C@H]3C(=O)NCCCNC(=O)c3ccc(-c4c5nc(c(-c6c(F)cc(S(=O)(=O)[O-])cc6F)c6ccc([nH]6)c(-c6c(F)cc(S(=O)(=O)[O-])cc6F)c6nc(c(-c7c(F)cc(S(=O)(=O)[O-])cc7F)c7ccc4[nH]7)C=C6)C=C5)cc3)ccc21
REMARK SMILES IDX 24 1 23 2 22 3 20 4 21 5 19 7 15 8 16 9 17 10 18 11 12 12
REMARK SMILES IDX 13 13 14 14 11 15 1 16 2 17 3 18 97 19 4 20 5 21 9 22 96 23
REMARK SMILES IDX 6 24 7 25 10 26 95 27 8 28 25 29 26 30 27 31 28 33 29 34
REMARK SMILES IDX 30 35 94 36 31 37 93 38 32 39 33 40 34 41 87 42 35 43 92 44
REMARK SMILES IDX 86 45 88 46 36 47 91 48 85 49 84 50 37 52 71 53 50 54 70 55
REMARK SMILES IDX 51 56 54 57 69 58 89 59 52 60 53 61 68 63 90 64 55 65 38 66
REMARK SMILES IDX 39 67 48 68 40 69 41 70 47 71 49 72 42 73 43 74 44 75 45 76
REMARK SMILES IDX 46 77 72 78 73 79 82 80 74 81 75 82 81 83 83 84 76 85 77 86
REMARK SMILES IDX 78 87 79 88 80 89 56 90 57 91 66 92 58 93 59 94 65 95 67 96
REMARK SMILES IDX 60 97 61 98 62 99 63 100 64 101
REMARK H PARENT 22 6 26 32 88 51 54 62
REMARK Flexibility Score: inf
ROOT
ATOM      1  C   UNL     1      -5.827   4.355  -2.712  1.00  0.00     0.042 C 
ENDROOT
BRANCH   1   2
ATOM      2  C   UNL     1      -4.837   4.684  -3.813  1.00  0.00     0.117 C 
BRANCH   2   3
ATOM      3  N   UNL     1      -4.305   6.031  -3.749  1.00  0.00    -0.355 N 
ATOM      4  C   UNL     1      -3.020   6.448  -3.557  1.00  0.00     0.238 C 
ATOM      5  O   UNL     1      -2.780   7.647  -3.731  1.00  0.00    -0.273 OA
ATOM      6  H   UNL     1      -4.968   6.751  -3.860  1.00  0.00     0.163 HD
BRANCH   4   7
ATOM      7  C   UNL     1      -1.934   5.455  -3.116  1.00  0.00     0.162 C 
ATOM      8  N   UNL     1      -1.099   5.033  -4.268  1.00  0.00    -0.185 NA
ATOM      9  C   UNL     1       0.157   5.792  -4.278  1.00  0.00     0.103 C 
ATOM     10  C   UNL     1       0.435   6.084  -2.820  1.00  0.00     0.019 C 
ATOM     11  C   UNL     1      -0.939   6.167  -2.164  1.00  0.00     0.032 C 
BRANCH   8  12
ATOM     12  S   UNL     1      -1.198   3.532  -5.002  1.00  0.00     0.243 S 
ATOM     13  O   UNL     1      -0.229   3.501  -6.074  1.00  0.00    -0.207 OA
ATOM     14  O   UNL     1      -2.591   3.236  -5.264  1.00  0.00    -0.207 OA
BRANCH  12  15
ATOM     15  C   UNL     1      -0.663   2.299  -3.828  1.00  0.00     0.084 A 
ATOM     16  C   UNL     1       1.024  -0.455   0.158  1.00  0.00     0.154 C 
ATOM     17  N   UNL     1       0.660  -0.768  -1.216  1.00  0.00    -0.305 N 
ATOM     18  C   UNL     1       0.846  -2.079  -1.648  1.00  0.00     0.316 A 
ATOM     19  C   UNL     1       0.195   0.245  -2.095  1.00  0.00     0.068 A 
ATOM     20  O   UNL     1       1.362  -2.953  -0.955  1.00  0.00    -0.263 OA
ATOM     21  C   UNL     1       0.401  -2.434  -3.072  1.00  0.00     0.316 A 
ATOM     22  C   UNL     1      -0.171  -0.065  -3.417  1.00  0.00     0.069 A 
ATOM     23  C   UNL     1       0.107   1.577  -1.662  1.00  0.00     0.030 A 
ATOM     24  O   UNL     1       0.518  -3.597  -3.450  1.00  0.00    -0.263 OA
ATOM     25  N   UNL     1      -0.097  -1.408  -3.876  1.00  0.00    -0.305 N 
ATOM     26  C   UNL     1      -0.601   0.971  -4.272  1.00  0.00     0.050 A 
ATOM     27  C   UNL     1      -0.318   2.591  -2.519  1.00  0.00     0.024 A 
ATOM     28  C   UNL     1      -0.546  -1.756  -5.215  1.00  0.00     0.154 C 
ENDBRANCH  12  15
ENDBRANCH   8  12
ENDBRANCH   4   7
ENDBRANCH   2   3
ENDBRANCH   1   2
BRANCH   1  29
ATOM     29  C   UNL     1      -7.038   5.270  -2.635  1.00  0.00     0.118 C 
BRANCH  29  30
ATOM     30  N   UNL     1      -7.874   5.244  -3.827  1.00  0.00    -0.352 N 
ATOM     31  C   UNL     1      -9.201   4.912  -3.984  1.00  0.00     0.251 C 
ATOM     32  H   UNL     1      -7.415   5.508  -4.657  1.00  0.00     0.163 HD
ATOM     33  O   UNL     1      -9.681   4.873  -5.114  1.00  0.00    -0.269 OA
BRANCH  31  34
ATOM     34  C   UNL     1     -10.038   4.557  -2.814  1.00  0.00     0.039 A 
ATOM     35  C   UNL     1      -9.948   5.263  -1.616  1.00  0.00     0.014 A 
ATOM     36  C   UNL     1     -10.926   3.481  -2.918  1.00  0.00     0.014 A 
ATOM     37  C   UNL     1     -10.572   4.770  -0.475  1.00  0.00     0.010 A 
ATOM     38  C   UNL     1     -11.640   3.052  -1.793  1.00  0.00     0.010 A 
ATOM     39  C   UNL     1     -11.423   3.655  -0.545  1.00  0.00    -0.014 A 
BRANCH  39  40
ATOM     40  C   UNL     1     -12.057   3.139   0.699  1.00  0.00     0.031 A 
ATOM     41  C   UNL     1     -11.743   1.754   1.207  1.00  0.00     0.074 A 
ATOM     42  C   UNL     1     -12.863   3.949   1.414  1.00  0.00     0.049 A 
ATOM     43  N   UNL     1     -12.178   1.155   2.287  1.00  0.00    -0.248 NA
ATOM     44  C   UNL     1     -10.826   0.932   0.400  1.00  0.00     0.031 C 
ATOM     45  C   UNL     1     -13.233   5.315   1.036  1.00  0.00     0.029 A 
ATOM     46  N   UNL     1     -13.489   3.759   2.619  1.00  0.00    -0.354 N 
ATOM     47  C   UNL     1     -11.603  -0.111   2.283  1.00  0.00     0.074 A 
ATOM     48  C   UNL     1     -10.814  -0.209   1.075  1.00  0.00     0.031 C 
ATOM     49  C   UNL     1     -13.963   5.861   2.019  1.00  0.00     0.029 A 
ATOM     50  C   UNL     1     -14.172   4.866   3.065  1.00  0.00     0.049 A 
ATOM     51  H   UNL     1     -13.453   2.911   3.118  1.00  0.00     0.167 HD
ATOM     52  C   UNL     1     -11.707  -1.094   3.209  1.00  0.00     0.037 A 
ATOM     53  C   UNL     1     -14.896   5.060   4.184  1.00  0.00     0.037 A 
ATOM     54  C   UNL     1     -12.476  -0.987   4.422  1.00  0.00     0.049 A 
ATOM     55  C   UNL     1     -15.038   3.936   5.170  1.00  0.00     0.074 A 
ATOM     56  C   UNL     1     -12.636  -1.928   5.426  1.00  0.00     0.029 A 
ATOM     57  N   UNL     1     -13.211   0.127   4.801  1.00  0.00    -0.354 N 
ATOM     58  N   UNL     1     -14.492   2.744   5.142  1.00  0.00    -0.248 NA
ATOM     59  C   UNL     1     -15.906   4.177   6.330  1.00  0.00     0.031 C 
ATOM     60  C   UNL     1     -13.496  -1.397   6.392  1.00  0.00     0.029 A 
ATOM     61  C   UNL     1     -13.839  -0.109   6.013  1.00  0.00     0.049 A 
ATOM     62  H   UNL     1     -13.276   0.963   4.284  1.00  0.00     0.167 HD
ATOM     63  C   UNL     1     -14.944   2.095   6.284  1.00  0.00     0.074 A 
ATOM     64  C   UNL     1     -15.792   3.033   6.992  1.00  0.00     0.031 C 
ATOM     65  C   UNL     1     -14.683   0.833   6.705  1.00  0.00     0.037 A 
BRANCH  52  66
ATOM     66  C   UNL     1     -10.973  -2.381   2.950  1.00  0.00     0.058 A 
ATOM     67  C   UNL     1      -9.577  -2.467   3.070  1.00  0.00     0.135 A 
ATOM     68  C   UNL     1     -11.675  -3.555   2.631  1.00  0.00     0.135 A 
ATOM     69  F   UNL     1      -8.854  -1.372   3.357  1.00  0.00    -0.206 F 
ATOM     70  C   UNL     1      -8.901  -3.665   2.863  1.00  0.00     0.059 A 
ATOM     71  C   UNL     1     -11.023  -4.770   2.442  1.00  0.00     0.059 A 
ATOM     72  F   UNL     1     -13.012  -3.529   2.505  1.00  0.00    -0.206 F 
ATOM     73  C   UNL     1      -9.634  -4.812   2.550  1.00  0.00     0.060 A 
BRANCH  73  74
ATOM     74  S   UNL     1      -8.739  -6.359   2.291  1.00  0.00     0.124 S 
ATOM     75  O   UNL     1      -8.082  -6.102   1.013  1.00  0.00    -0.237 OA
ATOM     76  O   UNL     1      -7.861  -6.407   3.456  1.00  0.00    -0.237 OA
ATOM     77  O   UNL     1      -9.796  -7.364   2.263  1.00  0.00    -0.744 OA
ENDBRANCH  73  74
ENDBRANCH  52  66
BRANCH  53  78
ATOM     78  C   UNL     1     -15.535   6.380   4.427  1.00  0.00     0.058 A 
ATOM     79  C   UNL     1     -15.060   7.235   5.430  1.00  0.00     0.135 A 
ATOM     80  C   UNL     1     -16.604   6.828   3.635  1.00  0.00     0.135 A 
ATOM     81  F   UNL     1     -14.045   6.847   6.218  1.00  0.00    -0.206 F 
ATOM     82  C   UNL     1     -15.620   8.491   5.641  1.00  0.00     0.059 A 
ATOM     83  C   UNL     1     -17.164   8.089   3.809  1.00  0.00     0.059 A 
ATOM     84  F   UNL     1     -17.085   6.051   2.652  1.00  0.00    -0.206 F 
ATOM     85  C   UNL     1     -16.668   8.911   4.819  1.00  0.00     0.060 A 
BRANCH  85  86
ATOM     86  S   UNL     1     -17.339  10.571   5.056  1.00  0.00     0.124 S 
ATOM     87  O   UNL     1     -18.073  10.415   6.306  1.00  0.00    -0.237 OA
ATOM     88  O   UNL     1     -16.128  11.383   5.122  1.00  0.00    -0.237 OA
ATOM     89  O   UNL     1     -18.157  10.775   3.864  1.00  0.00    -0.744 OA
ENDBRANCH  85  86
ENDBRANCH  53  78
BRANCH  65  90
ATOM     90  C   UNL     1     -15.312   0.388   7.994  1.00  0.00     0.058 A 
ATOM     91  C   UNL     1     -16.675   0.064   8.068  1.00  0.00     0.135 A 
ATOM     92  C   UNL     1     -14.532   0.220   9.149  1.00  0.00     0.135 A 
ATOM     93  F   UNL     1     -17.466   0.217   6.993  1.00  0.00    -0.206 F 
ATOM     94  C   UNL     1     -17.247  -0.403   9.246  1.00  0.00     0.059 A 
ATOM     95  C   UNL     1     -15.078  -0.268  10.332  1.00  0.00     0.059 A 
ATOM     96  F   UNL     1     -13.221   0.510   9.127  1.00  0.00    -0.206 F 
ATOM     97  C   UNL     1     -16.438  -0.570  10.373  1.00  0.00     0.060 A 
BRANCH  97  98
ATOM     98  S   UNL     1     -17.185  -1.224  11.881  1.00  0.00     0.124 S 
ATOM     99  O   UNL     1     -17.981  -0.087  12.332  1.00  0.00    -0.237 OA
ATOM    100  O   UNL     1     -17.940  -2.369  11.384  1.00  0.00    -0.237 OA
ATOM    101  O   UNL     1     -16.033  -1.553  12.715  1.00  0.00    -0.744 OA
ENDBRANCH  97  98
ENDBRANCH  65  90
ENDBRANCH  39  40
ENDBRANCH  31  34
ENDBRANCH  29  30
ENDBRANCH   1  29
TORSDOF 15
