REMARK SMILES CCN(C(=O)Cc1c(C(=O)NCCCNC(=O)c2ccc(-c3c4nc(c(-c5c(F)cc(S(=O)(=O)[O-])cc5F)c5ccc([nH]5)c(-c5c(F)cc(S(=O)(=O)[O-])cc5F)c5nc(c(-c6c(F)cc(S(=O)(=O)[O-])cc6F)c6ccc3[nH]6)C=C5)C=C4)cc2)[nH]c2ccc(Cl)cc12)c1ccc(C)c(C)c1
REMARK SMILES IDX 12 1 11 2 9 3 10 4 8 6 7 7 91 8 84 9 85 10 90 11 86 13 88 14
REMARK SMILES IDX 87 15 89 16 6 17 4 18 5 19 3 20 2 21 1 22 92 23 93 24 99 25
REMARK SMILES IDX 94 26 97 27 95 28 98 29 96 30 13 31 14 32 15 33 16 34 17 36
REMARK SMILES IDX 18 37 19 38 83 39 20 40 82 41 21 42 22 43 23 44 76 45 24 46
REMARK SMILES IDX 81 47 75 48 77 49 25 50 80 51 74 52 73 53 26 55 60 56 39 57
REMARK SMILES IDX 59 58 40 59 43 60 58 61 78 62 41 63 42 64 57 66 79 67 44 68
REMARK SMILES IDX 27 69 28 70 37 71 29 72 30 73 36 74 38 75 31 76 32 77 33 78
REMARK SMILES IDX 34 79 35 80 61 81 62 82 71 83 63 84 64 85 70 86 72 87 65 88
REMARK SMILES IDX 66 89 67 90 68 91 69 92 45 93 46 94 55 95 47 96 48 97 54 98
REMARK SMILES IDX 56 99 49 100 50 101 51 102 52 103 53 104
REMARK H PARENT 11 5 84 12 15 35 77 54 43 65
REMARK Flexibility Score: inf
ROOT
ATOM      1  C   UNL     1      -1.243  -2.113  -2.371  1.00  0.00     0.118 C 
ENDROOT
BRANCH   1   2
ATOM      2  N   UNL     1      -1.883  -0.859  -2.042  1.00  0.00    -0.351 N 
ATOM      3  C   UNL     1      -2.223  -0.154  -0.930  1.00  0.00     0.268 C 
ATOM      4  O   UNL     1      -2.632   0.986  -1.185  1.00  0.00    -0.268 OA
ATOM      5  H   UNL     1      -2.150  -0.377  -2.858  1.00  0.00     0.163 HD
BRANCH   3   6
ATOM      6  C   UNL     1      -2.149  -0.575   0.463  1.00  0.00     0.109 A 
ATOM      7  C   UNL     1      -1.767  -1.665   1.257  1.00  0.00    -0.000 A 
ATOM      8  C   UNL     1      -2.263  -1.398   2.595  1.00  0.00     0.005 A 
ATOM      9  N   UNL     1      -2.543   0.404   1.369  1.00  0.00    -0.350 N 
ATOM     10  C   UNL     1      -2.685  -0.079   2.635  1.00  0.00     0.046 A 
ATOM     11  C   UNL     1      -2.403  -2.171   3.770  1.00  0.00     0.031 A 
ATOM     12  H   UNL     1      -2.701   1.344   1.122  1.00  0.00     0.167 HD
ATOM     13  C   UNL     1      -3.177   0.548   3.784  1.00  0.00     0.028 A 
ATOM     14  C   UNL     1      -2.959  -1.582   4.912  1.00  0.00     0.041 A 
ATOM     15  C   UNL     1      -3.320  -0.237   4.928  1.00  0.00     0.022 A 
ATOM     16  Cl  UNL     1      -3.225  -2.541   6.319  1.00  0.00    -0.084 Cl
BRANCH   7  17
ATOM     17  C   UNL     1      -1.111  -2.966   0.914  1.00  0.00     0.139 C 
BRANCH  17  18
ATOM     18  C   UNL     1       0.385  -3.125   1.246  1.00  0.00     0.231 C 
ATOM     19  O   UNL     1       0.695  -4.113   1.931  1.00  0.00    -0.274 OA
BRANCH  18  20
ATOM     20  N   UNL     1       1.365  -2.258   0.738  1.00  0.00    -0.312 N 
BRANCH  20  21
ATOM     21  C   UNL     1       1.118  -1.056  -0.073  1.00  0.00     0.122 C 
ATOM     22  C   UNL     1       1.274   0.297   0.600  1.00  0.00     0.028 C 
ENDBRANCH  20  21
BRANCH  20  23
ATOM     23  C   UNL     1       2.749  -2.635   0.809  1.00  0.00     0.044 A 
ATOM     24  C   UNL     1       3.179  -3.898   0.400  1.00  0.00     0.026 A 
ATOM     25  C   UNL     1       3.716  -1.692   1.170  1.00  0.00     0.030 A 
ATOM     26  C   UNL     1       4.547  -4.184   0.319  1.00  0.00     0.006 A 
ATOM     27  C   UNL     1       5.092  -1.950   1.072  1.00  0.00    -0.046 A 
ATOM     28  C   UNL     1       5.516  -3.217   0.642  1.00  0.00    -0.048 A 
ATOM     29  C   UNL     1       6.046  -0.852   1.449  1.00  0.00     0.044 C 
ATOM     30  C   UNL     1       6.965  -3.603   0.543  1.00  0.00     0.044 C 
ENDBRANCH  20  23
ENDBRANCH  18  20
ENDBRANCH  17  18
ENDBRANCH   7  17
ENDBRANCH   3   6
ENDBRANCH   1   2
BRANCH   1  31
ATOM     31  C   UNL     1      -2.231  -3.216  -2.701  1.00  0.00     0.042 C 
BRANCH  31  32
ATOM     32  C   UNL     1      -1.927  -3.810  -4.063  1.00  0.00     0.118 C 
BRANCH  32  33
ATOM     33  N   UNL     1      -0.623  -4.462  -4.143  1.00  0.00    -0.352 N 
ATOM     34  C   UNL     1      -0.261  -5.497  -4.978  1.00  0.00     0.251 C 
ATOM     35  H   UNL     1       0.074  -4.126  -3.534  1.00  0.00     0.163 HD
ATOM     36  O   UNL     1       0.853  -6.004  -4.905  1.00  0.00    -0.269 OA
BRANCH  34  37
ATOM     37  C   UNL     1      -1.274  -6.015  -5.919  1.00  0.00     0.039 A 
ATOM     38  C   UNL     1      -1.583  -7.375  -5.903  1.00  0.00     0.014 A 
ATOM     39  C   UNL     1      -2.008  -5.125  -6.706  1.00  0.00     0.014 A 
ATOM     40  C   UNL     1      -2.694  -7.830  -6.614  1.00  0.00     0.010 A 
ATOM     41  C   UNL     1      -3.173  -5.561  -7.318  1.00  0.00     0.010 A 
ATOM     42  C   UNL     1      -3.527  -6.919  -7.283  1.00  0.00    -0.014 A 
BRANCH  42  43
ATOM     43  C   UNL     1      -4.766  -7.351  -7.977  1.00  0.00     0.031 A 
ATOM     44  C   UNL     1      -4.910  -7.089  -9.453  1.00  0.00     0.074 A 
ATOM     45  C   UNL     1      -5.788  -7.877  -7.271  1.00  0.00     0.049 A 
ATOM     46  N   UNL     1      -5.956  -7.243 -10.220  1.00  0.00    -0.248 NA
ATOM     47  C   UNL     1      -3.736  -6.533 -10.147  1.00  0.00     0.031 C 
ATOM     48  C   UNL     1      -5.794  -8.110  -5.824  1.00  0.00     0.029 A 
ATOM     49  N   UNL     1      -7.030  -8.296  -7.675  1.00  0.00    -0.354 N 
ATOM     50  C   UNL     1      -5.579  -6.767 -11.470  1.00  0.00     0.074 A 
ATOM     51  C   UNL     1      -4.228  -6.269 -11.348  1.00  0.00     0.031 C 
ATOM     52  C   UNL     1      -6.972  -8.649  -5.467  1.00  0.00     0.029 A 
ATOM     53  C   UNL     1      -7.818  -8.767  -6.649  1.00  0.00     0.049 A 
ATOM     54  H   UNL     1      -7.331  -8.264  -8.612  1.00  0.00     0.167 HD
ATOM     55  C   UNL     1      -6.284  -6.774 -12.624  1.00  0.00     0.037 A 
ATOM     56  C   UNL     1      -9.082  -9.234  -6.664  1.00  0.00     0.037 A 
ATOM     57  C   UNL     1      -7.597  -7.344 -12.754  1.00  0.00     0.049 A 
ATOM     58  C   UNL     1      -9.819  -9.293  -7.975  1.00  0.00     0.074 A 
ATOM     59  C   UNL     1      -8.363  -7.488 -13.897  1.00  0.00     0.029 A 
ATOM     60  N   UNL     1      -8.330  -7.882 -11.707  1.00  0.00    -0.354 N 
ATOM     61  N   UNL     1      -9.421  -8.901  -9.162  1.00  0.00    -0.248 NA
ATOM     62  C   UNL     1     -11.173  -9.865  -7.954  1.00  0.00     0.031 C 
ATOM     63  C   UNL     1      -9.572  -8.091 -13.536  1.00  0.00     0.029 A 
ATOM     64  C   UNL     1      -9.543  -8.354 -12.176  1.00  0.00     0.049 A 
ATOM     65  H   UNL     1      -8.032  -7.922 -10.770  1.00  0.00     0.167 HD
ATOM     66  C   UNL     1     -10.462  -9.204 -10.032  1.00  0.00     0.074 A 
ATOM     67  C   UNL     1     -11.503  -9.823  -9.238  1.00  0.00     0.031 C 
ATOM     68  C   UNL     1     -10.551  -8.989 -11.367  1.00  0.00     0.037 A 
BRANCH  55  69
ATOM     69  C   UNL     1      -5.642  -6.176 -13.844  1.00  0.00     0.058 A 
ATOM     70  C   UNL     1      -4.572  -6.809 -14.497  1.00  0.00     0.135 A 
ATOM     71  C   UNL     1      -6.131  -4.980 -14.394  1.00  0.00     0.135 A 
ATOM     72  F   UNL     1      -4.052  -7.942 -14.000  1.00  0.00    -0.206 F 
ATOM     73  C   UNL     1      -3.998  -6.268 -15.641  1.00  0.00     0.059 A 
ATOM     74  C   UNL     1      -5.589  -4.435 -15.554  1.00  0.00     0.059 A 
ATOM     75  F   UNL     1      -7.148  -4.331 -13.805  1.00  0.00    -0.206 F 
ATOM     76  C   UNL     1      -4.516  -5.082 -16.165  1.00  0.00     0.060 A 
BRANCH  76  77
ATOM     77  S   UNL     1      -3.778  -4.411 -17.669  1.00  0.00     0.124 S 
ATOM     78  O   UNL     1      -2.523  -3.868 -17.160  1.00  0.00    -0.237 OA
ATOM     79  O   UNL     1      -3.659  -5.595 -18.514  1.00  0.00    -0.237 OA
ATOM     80  O   UNL     1      -4.755  -3.422 -18.114  1.00  0.00    -0.744 OA
ENDBRANCH  76  77
ENDBRANCH  55  69
BRANCH  56  81
ATOM     81  C   UNL     1      -9.727  -9.702  -5.408  1.00  0.00     0.058 A 
ATOM     82  C   UNL     1      -9.981 -11.065  -5.194  1.00  0.00     0.135 A 
ATOM     83  C   UNL     1     -10.117  -8.800  -4.406  1.00  0.00     0.135 A 
ATOM     84  F   UNL     1      -9.629 -11.966  -6.124  1.00  0.00    -0.206 F 
ATOM     85  C   UNL     1     -10.627 -11.517  -4.047  1.00  0.00     0.059 A 
ATOM     86  C   UNL     1     -10.743  -9.230  -3.239  1.00  0.00     0.059 A 
ATOM     87  F   UNL     1      -9.877  -7.488  -4.552  1.00  0.00    -0.206 F 
ATOM     88  C   UNL     1     -11.009 -10.589  -3.077  1.00  0.00     0.060 A 
BRANCH  88  89
ATOM     89  S   UNL     1     -11.833 -11.184  -1.583  1.00  0.00     0.124 S 
ATOM     90  O   UNL     1     -13.177 -11.455  -2.080  1.00  0.00    -0.237 OA
ATOM     91  O   UNL     1     -11.033 -12.354  -1.234  1.00  0.00    -0.237 OA
ATOM     92  O   UNL     1     -11.713 -10.055  -0.665  1.00  0.00    -0.744 OA
ENDBRANCH  88  89
ENDBRANCH  56  81
BRANCH  68  93
ATOM     93  C   UNL     1     -11.793  -9.463 -12.063  1.00  0.00     0.058 A 
ATOM     94  C   UNL     1     -13.009  -8.774 -11.946  1.00  0.00     0.135 A 
ATOM     95  C   UNL     1     -11.745 -10.580 -12.913  1.00  0.00     0.135 A 
ATOM     96  F   UNL     1     -13.105  -7.704 -11.141  1.00  0.00    -0.206 F 
ATOM     97  C   UNL     1     -14.142  -9.184 -12.639  1.00  0.00     0.059 A 
ATOM     98  C   UNL     1     -12.860 -10.993 -13.634  1.00  0.00     0.059 A 
ATOM     99  F   UNL     1     -10.601 -11.265 -13.066  1.00  0.00    -0.206 F 
ATOM    100  C   UNL     1     -14.057 -10.293 -13.483  1.00  0.00     0.060 A 
BRANCH 100 101
ATOM    101  S   UNL     1     -15.521 -10.787 -14.415  1.00  0.00     0.124 S 
ATOM    102  O   UNL     1     -16.320 -11.439 -13.382  1.00  0.00    -0.237 OA
ATOM    103  O   UNL     1     -16.032  -9.508 -14.899  1.00  0.00    -0.237 OA
ATOM    104  O   UNL     1     -14.985 -11.671 -15.446  1.00  0.00    -0.744 OA
ENDBRANCH 100 101
ENDBRANCH  68  93
ENDBRANCH  42  43
ENDBRANCH  34  37
ENDBRANCH  32  33
ENDBRANCH  31  32
ENDBRANCH   1  31
TORSDOF 18
