REMARK SMILES CN(CCS(C)(=O)=O)S(=O)(=O)c1cc(C(=O)NCCCNC(=O)c2ccc(-c3c4nc(c(-c5c(F)cc(S(=O)(=O)[O-])cc5F)c5ccc([nH]5)c(-c5c(F)cc(S(=O)(=O)[O-])cc5F)c5nc(c(-c6c(F)cc(S(=O)(=O)[O-])cc6F)c6ccc3[nH]6)C=C5)C=C4)cc2)ccc1F
REMARK SMILES IDX 18 1 17 2 15 3 16 4 14 6 12 7 13 8 92 9 91 10 93 11 90 12
REMARK SMILES IDX 9 13 10 14 11 15 2 16 1 17 3 18 4 19 5 20 6 21 7 22 8 23
REMARK SMILES IDX 19 24 20 25 21 26 22 27 23 29 24 30 25 31 89 32 26 33 88 34
REMARK SMILES IDX 27 35 28 36 29 37 82 38 30 39 87 40 81 41 83 42 31 43 86 44
REMARK SMILES IDX 80 45 79 46 32 48 66 49 45 50 65 51 46 52 49 53 64 54 84 55
REMARK SMILES IDX 47 56 48 57 63 59 85 60 50 61 33 62 34 63 43 64 35 65 36 66
REMARK SMILES IDX 42 67 44 68 37 69 38 70 39 71 40 72 41 73 67 74 68 75 77 76
REMARK SMILES IDX 69 77 70 78 76 79 78 80 71 81 72 82 73 83 74 84 75 85 51 86
REMARK SMILES IDX 52 87 61 88 53 89 54 90 60 91 62 92 55 93 56 94 57 95 58 96
REMARK SMILES IDX 59 97
REMARK H PARENT 17 5 21 28 83 47 49 58
REMARK Flexibility Score: inf
ROOT
ATOM      1  C   UNL     1      -0.917   6.340   6.833  1.00  0.00     0.118 C 
ENDROOT
BRANCH   1   2
ATOM      2  N   UNL     1      -1.313   4.943   6.783  1.00  0.00    -0.352 N 
ATOM      3  C   UNL     1      -0.965   3.906   5.958  1.00  0.00     0.251 C 
ATOM      4  O   UNL     1      -1.383   2.785   6.249  1.00  0.00    -0.269 OA
ATOM      5  H   UNL     1      -1.960   4.691   7.481  1.00  0.00     0.163 HD
BRANCH   3   6
ATOM      6  C   UNL     1      -0.142   4.050   4.721  1.00  0.00     0.041 A 
ATOM      7  C   UNL     1       1.142   2.924   2.981  1.00  0.00     0.119 A 
ATOM      8  C   UNL     1       0.503   2.897   4.229  1.00  0.00     0.038 A 
ATOM      9  C   UNL     1       1.215   4.107   2.259  1.00  0.00     0.143 A 
ATOM     10  C   UNL     1       0.601   5.255   2.744  1.00  0.00     0.041 A 
ATOM     11  F   UNL     1       1.803   4.163   1.058  1.00  0.00    -0.206 F 
ATOM     12  C   UNL     1      -0.108   5.217   3.950  1.00  0.00     0.017 A 
BRANCH   7  13
ATOM     13  S   UNL     1       1.754   1.449   2.230  1.00  0.00     0.245 S 
ATOM     14  O   UNL     1       1.689   0.368   3.190  1.00  0.00    -0.207 OA
ATOM     15  O   UNL     1       3.008   1.757   1.585  1.00  0.00    -0.207 OA
BRANCH  13  16
ATOM     16  N   UNL     1       0.588   1.121   1.030  1.00  0.00    -0.200 NA
ATOM     17  C   UNL     1       1.017   0.195  -0.035  1.00  0.00     0.124 C 
BRANCH  16  18
ATOM     18  C   UNL     1      -0.866   1.095   1.361  1.00  0.00     0.118 C 
BRANCH  18  19
ATOM     19  C   UNL     1      -1.465  -0.229   1.798  1.00  0.00     0.153 C 
BRANCH  19  20
ATOM     20  S   UNL     1      -1.928  -0.383   3.518  1.00  0.00     0.148 S 
ATOM     21  C   UNL     1      -2.858   1.071   3.944  1.00  0.00     0.158 C 
ATOM     22  O   UNL     1      -2.852  -1.502   3.594  1.00  0.00    -0.229 OA
ATOM     23  O   UNL     1      -0.731  -0.385   4.328  1.00  0.00    -0.229 OA
ENDBRANCH  19  20
ENDBRANCH  18  19
ENDBRANCH  16  18
ENDBRANCH  13  16
ENDBRANCH   7  13
ENDBRANCH   3   6
ENDBRANCH   1   2
BRANCH   1  24
ATOM     24  C   UNL     1      -2.049   7.271   6.390  1.00  0.00     0.042 C 
BRANCH  24  25
ATOM     25  C   UNL     1      -3.111   7.516   7.464  1.00  0.00     0.118 C 
BRANCH  25  26
ATOM     26  N   UNL     1      -2.575   8.235   8.613  1.00  0.00    -0.352 N 
ATOM     27  C   UNL     1      -2.864   9.482   9.110  1.00  0.00     0.251 C 
ATOM     28  H   UNL     1      -1.889   7.743   9.119  1.00  0.00     0.163 HD
ATOM     29  O   UNL     1      -2.108   9.977   9.942  1.00  0.00    -0.269 OA
BRANCH  27  30
ATOM     30  C   UNL     1      -4.058  10.233   8.661  1.00  0.00     0.039 A 
ATOM     31  C   UNL     1      -3.957  11.619   8.495  1.00  0.00     0.014 A 
ATOM     32  C   UNL     1      -5.288   9.600   8.465  1.00  0.00     0.014 A 
ATOM     33  C   UNL     1      -5.068  12.354   8.072  1.00  0.00     0.010 A 
ATOM     34  C   UNL     1      -6.376  10.323   7.976  1.00  0.00     0.010 A 
ATOM     35  C   UNL     1      -6.277  11.707   7.770  1.00  0.00    -0.014 A 
BRANCH  35  36
ATOM     36  C   UNL     1      -7.433  12.456   7.209  1.00  0.00     0.031 A 
ATOM     37  C   UNL     1      -8.729  12.550   7.968  1.00  0.00     0.074 A 
ATOM     38  C   UNL     1      -7.330  13.002   5.980  1.00  0.00     0.049 A 
ATOM     39  N   UNL     1      -9.859  13.098   7.603  1.00  0.00    -0.248 NA
ATOM     40  C   UNL     1      -8.767  11.928   9.301  1.00  0.00     0.031 C 
ATOM     41  C   UNL     1      -6.137  12.948   5.132  1.00  0.00     0.029 A 
ATOM     42  N   UNL     1      -8.239  13.703   5.227  1.00  0.00    -0.354 N 
ATOM     43  C   UNL     1     -10.743  12.884   8.653  1.00  0.00     0.074 A 
ATOM     44  C   UNL     1     -10.034  12.108   9.648  1.00  0.00     0.031 C 
ATOM     45  C   UNL     1      -6.377  13.611   3.991  1.00  0.00     0.029 A 
ATOM     46  C   UNL     1      -7.754  14.097   4.001  1.00  0.00     0.049 A 
ATOM     47  H   UNL     1      -9.152  13.904   5.535  1.00  0.00     0.167 HD
ATOM     48  C   UNL     1     -12.021  13.315   8.786  1.00  0.00     0.037 A 
ATOM     49  C   UNL     1      -8.349  14.764   2.993  1.00  0.00     0.037 A 
ATOM     50  C   UNL     1     -12.713  14.102   7.797  1.00  0.00     0.049 A 
ATOM     51  C   UNL     1      -9.777  15.206   3.149  1.00  0.00     0.074 A 
ATOM     52  C   UNL     1     -13.990  14.630   7.861  1.00  0.00     0.029 A 
ATOM     53  N   UNL     1     -12.190  14.471   6.565  1.00  0.00    -0.354 N 
ATOM     54  N   UNL     1     -10.582  15.039   4.172  1.00  0.00    -0.248 NA
ATOM     55  C   UNL     1     -10.382  15.925   2.019  1.00  0.00     0.031 C 
ATOM     56  C   UNL     1     -14.261  15.270   6.648  1.00  0.00     0.029 A 
ATOM     57  C   UNL     1     -13.131  15.193   5.848  1.00  0.00     0.049 A 
ATOM     58  H   UNL     1     -11.285  14.252   6.247  1.00  0.00     0.167 HD
ATOM     59  C   UNL     1     -11.781  15.645   3.817  1.00  0.00     0.074 A 
ATOM     60  C   UNL     1     -11.592  16.198   2.491  1.00  0.00     0.031 C 
ATOM     61  C   UNL     1     -12.933  15.734   4.526  1.00  0.00     0.037 A 
BRANCH  48  62
ATOM     62  C   UNL     1     -12.760  12.956  10.048  1.00  0.00     0.058 A 
ATOM     63  C   UNL     1     -13.858  12.082  10.011  1.00  0.00     0.135 A 
ATOM     64  C   UNL     1     -12.422  13.528  11.286  1.00  0.00     0.135 A 
ATOM     65  F   UNL     1     -14.225  11.504   8.857  1.00  0.00    -0.206 F 
ATOM     66  C   UNL     1     -14.602  11.797  11.152  1.00  0.00     0.059 A 
ATOM     67  C   UNL     1     -13.134  13.234  12.446  1.00  0.00     0.059 A 
ATOM     68  F   UNL     1     -11.371  14.357  11.383  1.00  0.00    -0.206 F 
ATOM     69  C   UNL     1     -14.232  12.378  12.366  1.00  0.00     0.060 A 
BRANCH  69  70
ATOM     70  S   UNL     1     -15.184  11.968  13.844  1.00  0.00     0.124 S 
ATOM     71  O   UNL     1     -16.456  12.628  13.575  1.00  0.00    -0.237 OA
ATOM     72  O   UNL     1     -15.201  10.508  13.800  1.00  0.00    -0.237 OA
ATOM     73  O   UNL     1     -14.391  12.543  14.927  1.00  0.00    -0.744 OA
ENDBRANCH  69  70
ENDBRANCH  48  62
BRANCH  49  74
ATOM     74  C   UNL     1      -7.574  15.071   1.760  1.00  0.00     0.058 A 
ATOM     75  C   UNL     1      -7.171  14.055   0.880  1.00  0.00     0.135 A 
ATOM     76  C   UNL     1      -7.168  16.383   1.474  1.00  0.00     0.135 A 
ATOM     77  F   UNL     1      -7.523  12.781   1.113  1.00  0.00    -0.206 F 
ATOM     78  C   UNL     1      -6.363  14.322  -0.219  1.00  0.00     0.059 A 
ATOM     79  C   UNL     1      -6.381  16.680   0.365  1.00  0.00     0.059 A 
ATOM     80  F   UNL     1      -7.540  17.389   2.280  1.00  0.00    -0.206 F 
ATOM     81  C   UNL     1      -5.965  15.638  -0.463  1.00  0.00     0.060 A 
BRANCH  81  82
ATOM     82  S   UNL     1      -4.880  15.954  -1.871  1.00  0.00     0.124 S 
ATOM     83  O   UNL     1      -3.652  15.288  -1.446  1.00  0.00    -0.237 OA
ATOM     84  O   UNL     1      -5.604  15.314  -2.963  1.00  0.00    -0.237 OA
ATOM     85  O   UNL     1      -4.816  17.411  -1.928  1.00  0.00    -0.744 OA
ENDBRANCH  81  82
ENDBRANCH  49  74
BRANCH  61  86
ATOM     86  C   UNL     1     -14.091  16.458   3.894  1.00  0.00     0.058 A 
ATOM     87  C   UNL     1     -14.528  17.689   4.409  1.00  0.00     0.135 A 
ATOM     88  C   UNL     1     -14.825  15.890   2.842  1.00  0.00     0.135 A 
ATOM     89  F   UNL     1     -13.865  18.275   5.419  1.00  0.00    -0.206 F 
ATOM     90  C   UNL     1     -15.668  18.318   3.921  1.00  0.00     0.059 A 
ATOM     91  C   UNL     1     -15.953  16.516   2.318  1.00  0.00     0.059 A 
ATOM     92  F   UNL     1     -14.441  14.721   2.305  1.00  0.00    -0.206 F 
ATOM     93  C   UNL     1     -16.377  17.721   2.878  1.00  0.00     0.060 A 
BRANCH  93  94
ATOM     94  S   UNL     1     -17.858  18.549   2.261  1.00  0.00     0.124 S 
ATOM     95  O   UNL     1     -18.775  18.400   3.386  1.00  0.00    -0.237 OA
ATOM     96  O   UNL     1     -17.371  19.903   2.013  1.00  0.00    -0.237 OA
ATOM     97  O   UNL     1     -18.201  17.785   1.065  1.00  0.00    -0.744 OA
ENDBRANCH  93  94
ENDBRANCH  61  86
ENDBRANCH  35  36
ENDBRANCH  27  30
ENDBRANCH  25  26
ENDBRANCH  24  25
ENDBRANCH   1  24
TORSDOF 18
