REMARK SMILES COc1cc2cc(C(=O)NCCCNC(=O)c3ccc(-c4c5nc(c(-c6c(F)cc(S(=O)(=O)[O-])cc6F)c6ccc([nH]6)c(-c6c(F)cc(S(=O)(=O)[O-])cc6F)c6nc(c(-c7c(F)cc(S(=O)(=O)[O-])cc7F)c7ccc4[nH]7)C=C6)C=C5)cc3)n(Cc3ccccc3)c2c(OC)c1OC
REMARK SMILES IDX 12 1 11 2 10 3 8 4 9 5 7 7 3 8 4 9 95 10 5 11 92 12 6 13
REMARK SMILES IDX 91 14 83 15 2 16 1 17 96 18 97 19 93 20 94 21 84 22 85 23
REMARK SMILES IDX 86 24 90 25 87 26 89 27 88 28 13 29 14 30 15 31 16 33 17 34
REMARK SMILES IDX 18 35 82 36 19 37 81 38 20 39 21 40 22 41 75 42 23 43 80 44
REMARK SMILES IDX 74 45 76 46 24 47 79 48 73 49 72 50 25 52 59 53 38 54 58 55
REMARK SMILES IDX 39 56 42 57 57 58 77 59 40 60 41 61 56 63 78 64 43 65 26 66
REMARK SMILES IDX 27 67 36 68 28 69 29 70 35 71 37 72 30 73 31 74 32 75 33 76
REMARK SMILES IDX 34 77 60 78 61 79 70 80 62 81 63 82 69 83 71 84 64 85 65 86
REMARK SMILES IDX 66 87 67 88 68 89 44 90 45 91 54 92 46 93 47 94 53 95 55 96
REMARK SMILES IDX 48 97 49 98 50 99 51 100 52 101
REMARK H PARENT 10 6 14 32 76 51 42 62
REMARK Flexibility Score: inf
ROOT
ATOM      1  C   UNL     1       3.364   4.520   9.060  1.00  0.00     0.042 C 
ENDROOT
BRANCH   1   2
ATOM      2  C   UNL     1       2.256   3.488   8.818  1.00  0.00     0.118 C 
BRANCH   2   3
ATOM      3  N   UNL     1       1.016   4.076   8.344  1.00  0.00    -0.351 N 
ATOM      4  C   UNL     1       0.256   3.971   7.211  1.00  0.00     0.267 C 
ATOM      5  O   UNL     1      -0.879   4.448   7.340  1.00  0.00    -0.268 OA
ATOM      6  H   UNL     1       0.627   4.703   8.996  1.00  0.00     0.163 HD
BRANCH   4   7
ATOM      7  C   UNL     1       0.659   3.370   5.945  1.00  0.00     0.108 A 
ATOM      8  C   UNL     1       0.982   1.616   1.632  1.00  0.00     0.165 A 
ATOM      9  C   UNL     1      -0.002   2.044   2.546  1.00  0.00     0.061 A 
ATOM     10  C   UNL     1       2.334   1.517   2.004  1.00  0.00     0.205 A 
ATOM     11  C   UNL     1       0.394   2.485   3.822  1.00  0.00     0.008 A 
ATOM     12  C   UNL     1       2.720   1.854   3.321  1.00  0.00     0.189 A 
ATOM     13  C   UNL     1      -0.271   2.987   4.968  1.00  0.00     0.042 A 
ATOM     14  C   UNL     1       1.740   2.459   4.148  1.00  0.00     0.096 A 
ATOM     15  N   UNL     1       1.883   3.247   5.302  1.00  0.00    -0.329 N 
BRANCH   8  16
ATOM     16  O   UNL     1       0.585   1.448   0.326  1.00  0.00    -0.493 OA
ATOM     17  C   UNL     1      -0.037   0.182   0.113  1.00  0.00     0.278 C 
ENDBRANCH   8  16
BRANCH  10  18
ATOM     18  O   UNL     1       3.363   1.255   1.140  1.00  0.00    -0.490 OA
ATOM     19  C   UNL     1       3.166   0.390   0.040  1.00  0.00     0.278 C 
ENDBRANCH  10  18
BRANCH  12  20
ATOM     20  O   UNL     1       3.937   1.669   3.911  1.00  0.00    -0.491 OA
ATOM     21  C   UNL     1       5.050   1.182   3.173  1.00  0.00     0.278 C 
ENDBRANCH  12  20
BRANCH  15  22
ATOM     22  C   UNL     1       3.169   3.890   5.584  1.00  0.00     0.158 C 
BRANCH  22  23
ATOM     23  C   UNL     1       3.261   5.392   5.750  1.00  0.00    -0.028 A 
ATOM     24  C   UNL     1       2.198   6.280   5.931  1.00  0.00     0.005 A 
ATOM     25  C   UNL     1       4.575   5.905   5.839  1.00  0.00     0.005 A 
ATOM     26  C   UNL     1       2.440   7.605   6.309  1.00  0.00     0.000 A 
ATOM     27  C   UNL     1       4.816   7.230   6.193  1.00  0.00     0.000 A 
ATOM     28  C   UNL     1       3.744   8.074   6.457  1.00  0.00     0.000 A 
ENDBRANCH  22  23
ENDBRANCH  15  22
ENDBRANCH   4   7
ENDBRANCH   2   3
ENDBRANCH   1   2
BRANCH   1  29
ATOM     29  C   UNL     1       3.051   5.614  10.077  1.00  0.00     0.118 C 
BRANCH  29  30
ATOM     30  N   UNL     1       3.267   5.207  11.447  1.00  0.00    -0.352 N 
ATOM     31  C   UNL     1       4.380   5.075  12.233  1.00  0.00     0.251 C 
ATOM     32  H   UNL     1       2.434   4.975  11.916  1.00  0.00     0.163 HD
ATOM     33  O   UNL     1       4.165   4.770  13.410  1.00  0.00    -0.269 OA
BRANCH  31  34
ATOM     34  C   UNL     1       5.795   5.211  11.772  1.00  0.00     0.039 A 
ATOM     35  C   UNL     1       6.230   5.732  10.551  1.00  0.00     0.014 A 
ATOM     36  C   UNL     1       6.768   4.738  12.674  1.00  0.00     0.014 A 
ATOM     37  C   UNL     1       7.583   5.685  10.201  1.00  0.00     0.010 A 
ATOM     38  C   UNL     1       8.118   4.715  12.341  1.00  0.00     0.010 A 
ATOM     39  C   UNL     1       8.523   5.136  11.079  1.00  0.00    -0.014 A 
BRANCH  39  40
ATOM     40  C   UNL     1       9.925   5.052  10.658  1.00  0.00     0.031 A 
ATOM     41  C   UNL     1      10.613   6.351  10.414  1.00  0.00     0.074 A 
ATOM     42  C   UNL     1      10.615   3.890  10.625  1.00  0.00     0.049 A 
ATOM     43  N   UNL     1      11.129   6.795   9.313  1.00  0.00    -0.248 NA
ATOM     44  C   UNL     1      10.673   7.314  11.526  1.00  0.00     0.031 C 
ATOM     45  C   UNL     1      10.181   2.589  11.149  1.00  0.00     0.029 A 
ATOM     46  N   UNL     1      11.896   3.641  10.213  1.00  0.00    -0.354 N 
ATOM     47  C   UNL     1      11.761   7.997   9.639  1.00  0.00     0.074 A 
ATOM     48  C   UNL     1      11.326   8.336  10.969  1.00  0.00     0.031 C 
ATOM     49  C   UNL     1      11.245   1.763  11.237  1.00  0.00     0.029 A 
ATOM     50  C   UNL     1      12.392   2.409  10.624  1.00  0.00     0.049 A 
ATOM     51  H   UNL     1      12.419   4.277   9.675  1.00  0.00     0.167 HD
ATOM     52  C   UNL     1      12.772   8.507   8.880  1.00  0.00     0.037 A 
ATOM     53  C   UNL     1      13.660   1.948  10.500  1.00  0.00     0.037 A 
ATOM     54  C   UNL     1      12.872   7.838   7.612  1.00  0.00     0.049 A 
ATOM     55  C   UNL     1      14.313   2.680   9.390  1.00  0.00     0.074 A 
ATOM     56  C   UNL     1      12.279   7.925   6.373  1.00  0.00     0.029 A 
ATOM     57  N   UNL     1      13.543   6.647   7.662  1.00  0.00    -0.354 N 
ATOM     58  N   UNL     1      13.926   2.602   8.147  1.00  0.00    -0.248 NA
ATOM     59  C   UNL     1      15.248   3.761   9.685  1.00  0.00     0.031 C 
ATOM     60  C   UNL     1      12.479   6.660   5.741  1.00  0.00     0.029 A 
ATOM     61  C   UNL     1      13.209   5.845   6.601  1.00  0.00     0.049 A 
ATOM     62  H   UNL     1      14.182   6.398   8.367  1.00  0.00     0.167 HD
ATOM     63  C   UNL     1      14.222   3.840   7.618  1.00  0.00     0.074 A 
ATOM     64  C   UNL     1      15.183   4.436   8.534  1.00  0.00     0.031 C 
ATOM     65  C   UNL     1      13.419   4.415   6.679  1.00  0.00     0.037 A 
BRANCH  52  66
ATOM     66  C   UNL     1      13.936   9.318   9.414  1.00  0.00     0.058 A 
ATOM     67  C   UNL     1      14.790  10.001   8.522  1.00  0.00     0.135 A 
ATOM     68  C   UNL     1      14.410   9.205  10.739  1.00  0.00     0.135 A 
ATOM     69  F   UNL     1      14.451  10.151   7.231  1.00  0.00    -0.206 F 
ATOM     70  C   UNL     1      16.040  10.497   8.909  1.00  0.00     0.059 A 
ATOM     71  C   UNL     1      15.628   9.735  11.159  1.00  0.00     0.059 A 
ATOM     72  F   UNL     1      13.755   8.489  11.663  1.00  0.00    -0.206 F 
ATOM     73  C   UNL     1      16.454  10.349  10.230  1.00  0.00     0.060 A 
BRANCH  73  74
ATOM     74  S   UNL     1      18.099  10.910  10.714  1.00  0.00     0.124 S 
ATOM     75  O   UNL     1      18.954   9.973   9.994  1.00  0.00    -0.237 OA
ATOM     76  O   UNL     1      18.106  12.286  10.228  1.00  0.00    -0.237 OA
ATOM     77  O   UNL     1      18.089  10.766  12.167  1.00  0.00    -0.744 OA
ENDBRANCH  73  74
ENDBRANCH  52  66
BRANCH  53  78
ATOM     78  C   UNL     1      14.430   1.119  11.461  1.00  0.00     0.058 A 
ATOM     79  C   UNL     1      15.615   0.469  11.075  1.00  0.00     0.135 A 
ATOM     80  C   UNL     1      14.183   1.202  12.846  1.00  0.00     0.135 A 
ATOM     81  F   UNL     1      15.930   0.354   9.776  1.00  0.00    -0.206 F 
ATOM     82  C   UNL     1      16.540  -0.006  12.010  1.00  0.00     0.059 A 
ATOM     83  C   UNL     1      15.086   0.728  13.796  1.00  0.00     0.059 A 
ATOM     84  F   UNL     1      13.101   1.839  13.317  1.00  0.00    -0.206 F 
ATOM     85  C   UNL     1      16.279   0.156  13.370  1.00  0.00     0.060 A 
BRANCH  85  86
ATOM     86  S   UNL     1      17.564  -0.263  14.571  1.00  0.00     0.124 S 
ATOM     87  O   UNL     1      17.635  -1.714  14.443  1.00  0.00    -0.237 OA
ATOM     88  O   UNL     1      18.712   0.479  14.061  1.00  0.00    -0.237 OA
ATOM     89  O   UNL     1      17.020   0.226  15.835  1.00  0.00    -0.744 OA
ENDBRANCH  85  86
ENDBRANCH  53  78
BRANCH  65  90
ATOM     90  C   UNL     1      12.597   3.506   5.815  1.00  0.00     0.058 A 
ATOM     91  C   UNL     1      11.535   2.709   6.274  1.00  0.00     0.135 A 
ATOM     92  C   UNL     1      12.880   3.470   4.442  1.00  0.00     0.135 A 
ATOM     93  F   UNL     1      11.147   2.750   7.556  1.00  0.00    -0.206 F 
ATOM     94  C   UNL     1      10.820   1.876   5.412  1.00  0.00     0.059 A 
ATOM     95  C   UNL     1      12.160   2.671   3.558  1.00  0.00     0.059 A 
ATOM     96  F   UNL     1      13.855   4.244   3.936  1.00  0.00    -0.206 F 
ATOM     97  C   UNL     1      11.141   1.862   4.055  1.00  0.00     0.060 A 
BRANCH  97  98
ATOM     98  S   UNL     1      10.188   0.816   2.933  1.00  0.00     0.124 S 
ATOM     99  O   UNL     1      10.595  -0.528   3.345  1.00  0.00    -0.237 OA
ATOM    100  O   UNL     1       8.807   1.179   3.257  1.00  0.00    -0.237 OA
ATOM    101  O   UNL     1      10.637   1.226   1.613  1.00  0.00    -0.744 OA
ENDBRANCH  97  98
ENDBRANCH  65  90
ENDBRANCH  39  40
ENDBRANCH  31  34
ENDBRANCH  29  30
ENDBRANCH   1  29
TORSDOF 18
