REMARK SMILES O=C(NCCCNC(=O)[C@H]1CC1(c1ccccc1)c1ccccc1)c1ccc(-c2c3nc(c(-c4c(F)cc(S(=O)(=O)[O-])cc4F)c4ccc([nH]4)c(-c4c(F)cc(S(=O)(=O)[O-])cc4F)c4nc(c(-c5c(F)cc(S(=O)(=O)[O-])cc5F)c5ccc2[nH]5)C=C4)C=C3)cc1
REMARK SMILES IDX 4 1 3 2 1 3 2 4 25 6 26 7 90 8 27 9 89 10 28 11 29 12 30 13
REMARK SMILES IDX 83 14 31 15 88 16 82 17 84 18 32 19 87 20 81 21 80 22 33 24
REMARK SMILES IDX 67 25 46 26 66 27 47 28 50 29 65 30 85 31 48 32 49 33 64 35
REMARK SMILES IDX 86 36 51 37 34 38 35 39 44 40 36 41 37 42 43 43 45 44 38 45
REMARK SMILES IDX 39 46 40 47 41 48 42 49 68 50 69 51 78 52 70 53 71 54 77 55
REMARK SMILES IDX 79 56 72 57 73 58 74 59 75 60 76 61 52 62 53 63 62 64 54 65
REMARK SMILES IDX 55 66 61 67 63 68 56 69 57 70 58 71 59 72 60 73 5 74 6 75
REMARK SMILES IDX 7 76 8 77 9 79 10 80 11 81 12 82 13 83 14 84 18 85 15 86
REMARK SMILES IDX 17 87 16 88 19 89 20 90 24 91 21 92 23 93 22 94
REMARK H PARENT 3 5 84 23 50 34 7 78
REMARK Flexibility Score: inf
ROOT
ATOM      1  C   UNL     1       9.257  -2.356  -0.753  1.00  0.00     0.118 C 
ENDROOT
BRANCH   1   2
ATOM      2  N   UNL     1      10.218  -3.054   0.092  1.00  0.00    -0.352 N 
ATOM      3  O   UNL     1      12.133  -3.499   1.174  1.00  0.00    -0.269 OA
ATOM      4  C   UNL     1      11.438  -2.667   0.595  1.00  0.00     0.251 C 
ATOM      5  H   UNL     1       9.945  -3.965   0.348  1.00  0.00     0.163 HD
BRANCH   4   6
ATOM      6  C   UNL     1      11.941  -1.283   0.423  1.00  0.00     0.039 A 
ATOM      7  C   UNL     1      11.101  -0.179   0.552  1.00  0.00     0.014 A 
ATOM      8  C   UNL     1      13.302  -1.084   0.159  1.00  0.00     0.014 A 
ATOM      9  C   UNL     1      11.568   1.092   0.231  1.00  0.00     0.010 A 
ATOM     10  C   UNL     1      13.794   0.209  -0.062  1.00  0.00     0.010 A 
ATOM     11  C   UNL     1      12.921   1.305  -0.080  1.00  0.00    -0.014 A 
BRANCH  11  12
ATOM     12  C   UNL     1      13.386   2.684  -0.397  1.00  0.00     0.031 A 
ATOM     13  C   UNL     1      13.940   3.027  -1.755  1.00  0.00     0.074 A 
ATOM     14  C   UNL     1      13.251   3.649   0.535  1.00  0.00     0.049 A 
ATOM     15  N   UNL     1      14.317   4.192  -2.221  1.00  0.00    -0.248 NA
ATOM     16  C   UNL     1      14.105   1.923  -2.714  1.00  0.00     0.031 C 
ATOM     17  C   UNL     1      12.750   3.441   1.897  1.00  0.00     0.029 A 
ATOM     18  N   UNL     1      13.490   4.999   0.475  1.00  0.00    -0.354 N 
ATOM     19  C   UNL     1      14.786   3.959  -3.509  1.00  0.00     0.074 A 
ATOM     20  C   UNL     1      14.668   2.537  -3.746  1.00  0.00     0.031 C 
ATOM     21  C   UNL     1      12.655   4.626   2.518  1.00  0.00     0.029 A 
ATOM     22  C   UNL     1      13.139   5.671   1.622  1.00  0.00     0.049 A 
ATOM     23  H   UNL     1      13.876   5.444  -0.314  1.00  0.00     0.167 HD
ATOM     24  C   UNL     1      15.262   4.849  -4.414  1.00  0.00     0.037 A 
ATOM     25  C   UNL     1      13.196   6.982   1.924  1.00  0.00     0.037 A 
ATOM     26  C   UNL     1      15.347   6.270  -4.189  1.00  0.00     0.049 A 
ATOM     27  C   UNL     1      13.706   7.949   0.895  1.00  0.00     0.074 A 
ATOM     28  C   UNL     1      15.770   7.257  -5.063  1.00  0.00     0.029 A 
ATOM     29  N   UNL     1      15.000   6.908  -3.007  1.00  0.00    -0.354 N 
ATOM     30  N   UNL     1      14.111   7.711  -0.329  1.00  0.00    -0.248 NA
ATOM     31  C   UNL     1      13.771   9.363   1.290  1.00  0.00     0.031 C 
ATOM     32  C   UNL     1      15.712   8.487  -4.398  1.00  0.00     0.029 A 
ATOM     33  C   UNL     1      15.215   8.272  -3.123  1.00  0.00     0.049 A 
ATOM     34  H   UNL     1      14.653   6.457  -2.203  1.00  0.00     0.167 HD
ATOM     35  C   UNL     1      14.463   8.947  -0.858  1.00  0.00     0.074 A 
ATOM     36  C   UNL     1      14.208   9.932   0.175  1.00  0.00     0.031 C 
ATOM     37  C   UNL     1      14.955   9.240  -2.087  1.00  0.00     0.037 A 
BRANCH  24  38
ATOM     38  C   UNL     1      15.746   4.311  -5.733  1.00  0.00     0.058 A 
ATOM     39  C   UNL     1      14.858   3.851  -6.717  1.00  0.00     0.135 A 
ATOM     40  C   UNL     1      17.119   4.290  -6.030  1.00  0.00     0.135 A 
ATOM     41  F   UNL     1      13.536   3.836  -6.481  1.00  0.00    -0.206 F 
ATOM     42  C   UNL     1      15.313   3.361  -7.938  1.00  0.00     0.059 A 
ATOM     43  C   UNL     1      17.596   3.825  -7.253  1.00  0.00     0.059 A 
ATOM     44  F   UNL     1      18.013   4.721  -5.127  1.00  0.00    -0.206 F 
ATOM     45  C   UNL     1      16.686   3.348  -8.194  1.00  0.00     0.060 A 
BRANCH  45  46
ATOM     46  S   UNL     1      17.265   2.702  -9.779  1.00  0.00     0.124 S 
ATOM     47  O   UNL     1      17.113   1.264  -9.578  1.00  0.00    -0.237 OA
ATOM     48  O   UNL     1      16.334   3.310 -10.725  1.00  0.00    -0.237 OA
ATOM     49  O   UNL     1      18.640   3.183  -9.860  1.00  0.00    -0.744 OA
ENDBRANCH  45  46
ENDBRANCH  24  38
BRANCH  25  50
ATOM     50  C   UNL     1      12.735   7.453   3.256  1.00  0.00     0.058 A 
ATOM     51  C   UNL     1      11.544   8.181   3.390  1.00  0.00     0.135 A 
ATOM     52  C   UNL     1      13.458   7.157   4.421  1.00  0.00     0.135 A 
ATOM     53  F   UNL     1      10.821   8.492   2.304  1.00  0.00    -0.206 F 
ATOM     54  C   UNL     1      11.090   8.609   4.633  1.00  0.00     0.059 A 
ATOM     55  C   UNL     1      13.012   7.552   5.677  1.00  0.00     0.059 A 
ATOM     56  F   UNL     1      14.595   6.447   4.344  1.00  0.00    -0.206 F 
ATOM     57  C   UNL     1      11.831   8.286   5.772  1.00  0.00     0.060 A 
BRANCH  57  58
ATOM     58  S   UNL     1      11.205   8.790   7.389  1.00  0.00     0.124 S 
ATOM     59  O   UNL     1      11.552  10.207   7.408  1.00  0.00    -0.237 OA
ATOM     60  O   UNL     1       9.782   8.482   7.281  1.00  0.00    -0.237 OA
ATOM     61  O   UNL     1      11.952   7.943   8.314  1.00  0.00    -0.744 OA
ENDBRANCH  57  58
ENDBRANCH  25  50
BRANCH  37  62
ATOM     62  C   UNL     1      15.221  10.687  -2.389  1.00  0.00     0.058 A 
ATOM     63  C   UNL     1      16.322  11.362  -1.839  1.00  0.00     0.135 A 
ATOM     64  C   UNL     1      14.377  11.399  -3.255  1.00  0.00     0.135 A 
ATOM     65  F   UNL     1      17.155  10.726  -1.000  1.00  0.00    -0.206 F 
ATOM     66  C   UNL     1      16.560  12.705  -2.114  1.00  0.00     0.059 A 
ATOM     67  C   UNL     1      14.609  12.736  -3.561  1.00  0.00     0.059 A 
ATOM     68  F   UNL     1      13.316  10.796  -3.813  1.00  0.00    -0.206 F 
ATOM     69  C   UNL     1      15.694  13.385  -2.973  1.00  0.00     0.060 A 
BRANCH  69  70
ATOM     70  S   UNL     1      16.016  15.124  -3.335  1.00  0.00     0.124 S 
ATOM     71  O   UNL     1      15.514  15.772  -2.128  1.00  0.00    -0.237 OA
ATOM     72  O   UNL     1      17.465  15.147  -3.512  1.00  0.00    -0.237 OA
ATOM     73  O   UNL     1      15.240  15.366  -4.548  1.00  0.00    -0.744 OA
ENDBRANCH  69  70
ENDBRANCH  37  62
ENDBRANCH  11  12
ENDBRANCH   4   6
ENDBRANCH   1   2
BRANCH   1  74
ATOM     74  C   UNL     1       9.177  -2.913  -2.170  1.00  0.00     0.042 C 
BRANCH  74  75
ATOM     75  C   UNL     1       8.666  -4.346  -2.266  1.00  0.00     0.117 C 
BRANCH  75  76
ATOM     76  N   UNL     1       7.338  -4.512  -1.703  1.00  0.00    -0.356 N 
ATOM     77  C   UNL     1       6.126  -4.736  -2.296  1.00  0.00     0.224 C 
ATOM     78  H   UNL     1       7.303  -4.453  -0.721  1.00  0.00     0.163 HD
ATOM     79  O   UNL     1       5.114  -4.703  -1.598  1.00  0.00    -0.275 OA
BRANCH  77  80
ATOM     80  C   UNL     1       6.000  -4.912  -3.760  1.00  0.00     0.095 C 
ATOM     81  C   UNL     1       6.904  -5.755  -4.603  1.00  0.00     0.032 C 
ATOM     82  C   UNL     1       5.472  -6.233  -4.365  1.00  0.00     0.033 C 
BRANCH  82  83
ATOM     83  C   UNL     1       5.415  -7.557  -3.570  1.00  0.00    -0.037 A 
ATOM     84  C   UNL     1       6.056  -8.710  -4.069  1.00  0.00     0.004 A 
ATOM     85  C   UNL     1       4.639  -7.714  -2.408  1.00  0.00     0.004 A 
ATOM     86  C   UNL     1       5.918  -9.954  -3.452  1.00  0.00     0.000 A 
ATOM     87  C   UNL     1       4.495  -8.958  -1.787  1.00  0.00     0.000 A 
ATOM     88  C   UNL     1       5.130 -10.079  -2.313  1.00  0.00     0.000 A 
ENDBRANCH  82  83
BRANCH  82  89
ATOM     89  C   UNL     1       4.421  -6.128  -5.513  1.00  0.00    -0.037 A 
ATOM     90  C   UNL     1       3.183  -6.803  -5.423  1.00  0.00     0.004 A 
ATOM     91  C   UNL     1       4.637  -5.409  -6.705  1.00  0.00     0.004 A 
ATOM     92  C   UNL     1       2.249  -6.810  -6.463  1.00  0.00     0.000 A 
ATOM     93  C   UNL     1       3.701  -5.402  -7.749  1.00  0.00     0.000 A 
ATOM     94  C   UNL     1       2.513  -6.113  -7.633  1.00  0.00     0.000 A 
ENDBRANCH  82  89
ENDBRANCH  77  80
ENDBRANCH  75  76
ENDBRANCH  74  75
ENDBRANCH   1  74
TORSDOF 15
