REMARK SMILES Cc1cc(NC(=O)CCC(=O)NCCCNC(=O)c2ccc(-c3c4nc(c(-c5c(F)cc(S(=O)(=O)[O-])cc5F)c5ccc([nH]5)c(-c5c(F)cc(S(=O)(=O)[O-])cc5F)c5nc(c(-c6c(F)cc(S(=O)(=O)[O-])cc6F)c6ccc3[nH]6)C=C5)C=C4)cc2)ccc1S(=O)(=O)[O-]
REMARK SMILES IDX 13 1 12 2 10 3 11 4 9 6 8 7 6 8 5 9 7 11 4 12 1 13 2 14 3 15
REMARK SMILES IDX 87 16 86 17 85 18 88 19 89 20 90 21 91 22 14 23 15 24 16 25
REMARK SMILES IDX 17 26 18 28 19 29 20 30 84 31 21 32 83 33 22 34 23 35 24 36
REMARK SMILES IDX 77 37 25 38 82 39 76 40 78 41 26 42 81 43 75 44 74 45 27 47
REMARK SMILES IDX 61 48 40 49 60 50 41 51 44 52 59 53 79 54 42 55 43 56 58 58
REMARK SMILES IDX 80 59 45 60 28 61 29 62 38 63 30 64 31 65 37 66 39 67 32 68
REMARK SMILES IDX 33 69 34 70 35 71 36 72 62 73 63 74 72 75 64 76 65 77 71 78
REMARK SMILES IDX 73 79 66 80 67 81 68 82 69 83 70 84 46 85 47 86 56 87 48 88
REMARK SMILES IDX 49 89 55 90 57 91 50 92 51 93 52 94 53 95 54 96
REMARK H PARENT 12 5 5 10 16 27 78 46 44 57
REMARK Flexibility Score: inf
ROOT
ATOM      1  C   UNL     1      -2.435  -3.064  -2.419  1.00  0.00     0.117 C 
ENDROOT
BRANCH   1   2
ATOM      2  N   UNL     1      -1.424  -2.058  -2.112  1.00  0.00    -0.356 N 
ATOM      3  C   UNL     1      -0.083  -2.188  -1.921  1.00  0.00     0.220 C 
ATOM      4  O   UNL     1       0.633  -1.192  -2.028  1.00  0.00    -0.275 OA
ATOM      5  H   UNL     1      -1.767  -1.139  -2.030  1.00  0.00     0.163 HD
BRANCH   3   6
ATOM      6  C   UNL     1       0.531  -3.529  -1.594  1.00  0.00     0.110 C 
BRANCH   6   7
ATOM      7  C   UNL     1       0.705  -3.874  -0.118  1.00  0.00     0.110 C 
BRANCH   7   8
ATOM      8  C   UNL     1      -0.466  -3.618   0.810  1.00  0.00     0.224 C 
ATOM      9  N   UNL     1      -0.833  -2.379   1.243  1.00  0.00    -0.326 N 
ATOM     10  H   UNL     1      -1.673  -2.368   1.755  1.00  0.00     0.169 HD
ATOM     11  O   UNL     1      -1.165  -4.577   1.161  1.00  0.00    -0.275 OA
BRANCH   9  12
ATOM     12  C   UNL     1      -0.240  -1.115   1.099  1.00  0.00     0.041 A 
ATOM     13  C   UNL     1       3.138   0.367   0.289  1.00  0.00     0.046 C 
ATOM     14  C   UNL     1       1.671   0.347   0.606  1.00  0.00    -0.032 A 
ATOM     15  C   UNL     1       1.130  -0.909   0.959  1.00  0.00     0.030 A 
ATOM     16  C   UNL     1       0.783   1.423   0.454  1.00  0.00     0.057 A 
ATOM     17  C   UNL     1      -0.586   1.247   0.726  1.00  0.00     0.021 A 
ATOM     18  C   UNL     1      -1.090  -0.011   1.058  1.00  0.00     0.027 A 
BRANCH  16  19
ATOM     19  S   UNL     1       1.223   3.051  -0.113  1.00  0.00     0.124 S 
ATOM     20  O   UNL     1       0.731   3.201  -1.455  1.00  0.00    -0.237 OA
ATOM     21  O   UNL     1       0.862   3.978   0.948  1.00  0.00    -0.237 OA
ATOM     22  O   UNL     1       2.828   3.161  -0.187  1.00  0.00    -0.744 OA
ENDBRANCH  16  19
ENDBRANCH   9  12
ENDBRANCH   7   8
ENDBRANCH   6   7
ENDBRANCH   3   6
ENDBRANCH   1   2
BRANCH   1  23
ATOM     23  C   UNL     1      -3.456  -3.303  -1.315  1.00  0.00     0.042 C 
BRANCH  23  24
ATOM     24  C   UNL     1      -4.228  -2.069  -0.876  1.00  0.00     0.118 C 
BRANCH  24  25
ATOM     25  N   UNL     1      -5.605  -1.993  -1.348  1.00  0.00    -0.352 N 
ATOM     26  C   UNL     1      -6.633  -1.600  -0.493  1.00  0.00     0.251 C 
ATOM     27  H   UNL     1      -5.812  -2.222  -2.283  1.00  0.00     0.163 HD
ATOM     28  O   UNL     1      -7.574  -2.308  -0.163  1.00  0.00    -0.269 OA
BRANCH  26  29
ATOM     29  C   UNL     1      -6.506  -0.211   0.001  1.00  0.00     0.039 A 
ATOM     30  C   UNL     1      -7.276   0.810  -0.559  1.00  0.00     0.014 A 
ATOM     31  C   UNL     1      -5.431   0.077   0.837  1.00  0.00     0.014 A 
ATOM     32  C   UNL     1      -6.848   2.132  -0.431  1.00  0.00     0.010 A 
ATOM     33  C   UNL     1      -4.944   1.358   0.862  1.00  0.00     0.010 A 
ATOM     34  C   UNL     1      -5.631   2.380   0.197  1.00  0.00    -0.014 A 
BRANCH  34  35
ATOM     35  C   UNL     1      -4.973   3.670   0.311  1.00  0.00     0.031 A 
ATOM     36  C   UNL     1      -5.049   4.381   1.604  1.00  0.00     0.074 A 
ATOM     37  C   UNL     1      -4.077   4.027  -0.632  1.00  0.00     0.049 A 
ATOM     38  N   UNL     1      -4.580   5.558   1.821  1.00  0.00    -0.248 NA
ATOM     39  C   UNL     1      -5.706   3.803   2.772  1.00  0.00     0.031 C 
ATOM     40  C   UNL     1      -2.960   4.955  -0.492  1.00  0.00     0.029 A 
ATOM     41  N   UNL     1      -4.120   3.744  -2.000  1.00  0.00    -0.354 N 
ATOM     42  C   UNL     1      -4.636   5.800   3.176  1.00  0.00     0.074 A 
ATOM     43  C   UNL     1      -5.413   4.708   3.709  1.00  0.00     0.031 C 
ATOM     44  C   UNL     1      -2.588   5.375  -1.711  1.00  0.00     0.029 A 
ATOM     45  C   UNL     1      -3.573   4.875  -2.653  1.00  0.00     0.049 A 
ATOM     46  H   UNL     1      -4.463   2.924  -2.423  1.00  0.00     0.167 HD
ATOM     47  C   UNL     1      -3.922   6.851   3.677  1.00  0.00     0.037 A 
ATOM     48  C   UNL     1      -4.372   5.664  -3.438  1.00  0.00     0.037 A 
ATOM     49  C   UNL     1      -3.338   7.628   2.582  1.00  0.00     0.049 A 
ATOM     50  C   UNL     1      -4.559   7.081  -2.928  1.00  0.00     0.074 A 
ATOM     51  C   UNL     1      -2.104   7.653   1.954  1.00  0.00     0.029 A 
ATOM     52  N   UNL     1      -4.192   8.351   1.776  1.00  0.00    -0.354 N 
ATOM     53  N   UNL     1      -4.085   7.530  -1.799  1.00  0.00    -0.248 NA
ATOM     54  C   UNL     1      -5.366   8.087  -3.623  1.00  0.00     0.031 C 
ATOM     55  C   UNL     1      -2.255   8.361   0.724  1.00  0.00     0.029 A 
ATOM     56  C   UNL     1      -3.571   8.778   0.622  1.00  0.00     0.049 A 
ATOM     57  H   UNL     1      -5.133   8.539   1.999  1.00  0.00     0.167 HD
ATOM     58  C   UNL     1      -4.579   8.785  -1.561  1.00  0.00     0.074 A 
ATOM     59  C   UNL     1      -5.352   9.105  -2.745  1.00  0.00     0.031 C 
ATOM     60  C   UNL     1      -4.372   9.451  -0.389  1.00  0.00     0.037 A 
BRANCH  47  61
ATOM     61  C   UNL     1      -3.587   7.125   5.130  1.00  0.00     0.058 A 
ATOM     62  C   UNL     1      -2.566   8.053   5.447  1.00  0.00     0.135 A 
ATOM     63  C   UNL     1      -4.161   6.497   6.253  1.00  0.00     0.135 A 
ATOM     64  F   UNL     1      -1.972   8.794   4.501  1.00  0.00    -0.206 F 
ATOM     65  C   UNL     1      -2.096   8.264   6.745  1.00  0.00     0.059 A 
ATOM     66  C   UNL     1      -3.692   6.672   7.559  1.00  0.00     0.059 A 
ATOM     67  F   UNL     1      -5.231   5.706   6.162  1.00  0.00    -0.206 F 
ATOM     68  C   UNL     1      -2.644   7.544   7.794  1.00  0.00     0.060 A 
BRANCH  68  69
ATOM     69  S   UNL     1      -1.979   7.769   9.450  1.00  0.00     0.124 S 
ATOM     70  O   UNL     1      -0.597   7.329   9.282  1.00  0.00    -0.237 OA
ATOM     71  O   UNL     1      -2.171   9.198   9.669  1.00  0.00    -0.237 OA
ATOM     72  O   UNL     1      -2.811   6.895  10.274  1.00  0.00    -0.744 OA
ENDBRANCH  68  69
ENDBRANCH  47  61
BRANCH  48  73
ATOM     73  C   UNL     1      -5.414   4.859  -4.146  1.00  0.00     0.058 A 
ATOM     74  C   UNL     1      -4.967   3.920  -5.098  1.00  0.00     0.135 A 
ATOM     75  C   UNL     1      -6.657   4.625  -3.539  1.00  0.00     0.135 A 
ATOM     76  F   UNL     1      -3.805   4.119  -5.742  1.00  0.00    -0.206 F 
ATOM     77  C   UNL     1      -5.603   2.694  -5.263  1.00  0.00     0.059 A 
ATOM     78  C   UNL     1      -7.321   3.409  -3.707  1.00  0.00     0.059 A 
ATOM     79  F   UNL     1      -7.146   5.497  -2.644  1.00  0.00    -0.206 F 
ATOM     80  C   UNL     1      -6.728   2.416  -4.490  1.00  0.00     0.060 A 
BRANCH  80  81
ATOM     81  S   UNL     1      -7.295   0.699  -4.395  1.00  0.00     0.124 S 
ATOM     82  O   UNL     1      -7.440   0.344  -5.802  1.00  0.00    -0.237 OA
ATOM     83  O   UNL     1      -6.192   0.041  -3.689  1.00  0.00    -0.237 OA
ATOM     84  O   UNL     1      -8.541   0.799  -3.643  1.00  0.00    -0.744 OA
ENDBRANCH  80  81
ENDBRANCH  48  73
BRANCH  60  85
ATOM     85  C   UNL     1      -4.948  10.807  -0.099  1.00  0.00     0.058 A 
ATOM     86  C   UNL     1      -4.758  11.893  -0.965  1.00  0.00     0.135 A 
ATOM     87  C   UNL     1      -5.598  11.086   1.123  1.00  0.00     0.135 A 
ATOM     88  F   UNL     1      -4.128  11.729  -2.139  1.00  0.00    -0.206 F 
ATOM     89  C   UNL     1      -5.202  13.177  -0.646  1.00  0.00     0.059 A 
ATOM     90  C   UNL     1      -5.997  12.367   1.487  1.00  0.00     0.059 A 
ATOM     91  F   UNL     1      -5.896  10.109   1.993  1.00  0.00    -0.206 F 
ATOM     92  C   UNL     1      -5.814  13.405   0.586  1.00  0.00     0.060 A 
BRANCH  92  93
ATOM     93  S   UNL     1      -6.366  15.068   1.011  1.00  0.00     0.124 S 
ATOM     94  O   UNL     1      -5.313  15.908   0.448  1.00  0.00    -0.237 OA
ATOM     95  O   UNL     1      -7.654  15.128   0.327  1.00  0.00    -0.237 OA
ATOM     96  O   UNL     1      -6.427  15.043   2.469  1.00  0.00    -0.744 OA
ENDBRANCH  92  93
ENDBRANCH  60  85
ENDBRANCH  34  35
ENDBRANCH  26  29
ENDBRANCH  24  25
ENDBRANCH  23  24
ENDBRANCH   1  23
TORSDOF 17
