REMARK SMILES C[C@H](C(=O)NCCCNC(=O)c1ccc(-c2c3nc(c(-c4c(F)cc(S(=O)(=O)[O-])cc4F)c4ccc([nH]4)c(-c4c(F)cc(S(=O)(=O)[O-])cc4F)c4nc(c(-c5c(F)cc(S(=O)(=O)[O-])cc5F)c5ccc2[nH]5)C=C4)C=C3)cc1)[C@@H](C)Nc1ccccc1Oc1ccccc1
REMARK SMILES IDX 6 1 5 2 3 3 4 4 2 6 1 7 78 8 79 9 80 10 81 12 82 13 86 14
REMARK SMILES IDX 83 15 85 16 84 17 87 18 88 19 89 20 93 21 90 22 92 23 91 24
REMARK SMILES IDX 7 25 8 26 9 27 10 28 11 30 12 31 13 32 77 33 14 34 76 35
REMARK SMILES IDX 15 36 16 37 17 38 70 39 18 40 75 41 69 42 71 43 19 44 74 45
REMARK SMILES IDX 68 46 67 47 20 49 54 50 33 51 53 52 34 53 37 54 52 55 72 56
REMARK SMILES IDX 35 57 36 58 51 60 73 61 38 62 21 63 22 64 31 65 23 66 24 67
REMARK SMILES IDX 30 68 32 69 25 70 26 71 27 72 28 73 29 74 55 75 56 76 65 77
REMARK SMILES IDX 57 78 58 79 64 80 66 81 59 82 60 83 61 84 62 85 63 86 39 87
REMARK SMILES IDX 40 88 49 89 41 90 42 91 48 92 50 93 43 94 44 95 45 96 46 97
REMARK SMILES IDX 47 98
REMARK H PARENT 5 5 80 11 9 29 71 48 37 59
REMARK Flexibility Score: inf
ROOT
ATOM      1  C   UNL     1       1.590  -2.597   0.917  1.00  0.00     0.117 C 
ENDROOT
BRANCH   1   2
ATOM      2  N   UNL     1       1.540  -1.476  -0.007  1.00  0.00    -0.356 N 
ATOM      3  C   UNL     1       1.430  -0.132   0.171  1.00  0.00     0.224 C 
ATOM      4  O   UNL     1       1.553   0.559  -0.845  1.00  0.00    -0.275 OA
ATOM      5  H   UNL     1       1.598  -1.743  -0.953  1.00  0.00     0.163 HD
BRANCH   3   6
ATOM      6  C   UNL     1       1.148   0.501   1.538  1.00  0.00     0.097 C 
ATOM      7  C   UNL     1       1.832   1.879   1.570  1.00  0.00     0.020 C 
BRANCH   6   8
ATOM      8  C   UNL     1      -0.387   0.619   1.727  1.00  0.00     0.088 C 
ATOM      9  C   UNL     1      -0.961  -0.698   2.246  1.00  0.00     0.031 C 
BRANCH   8  10
ATOM     10  N   UNL     1      -0.758   1.658   2.683  1.00  0.00    -0.379 N 
ATOM     11  H   UNL     1      -0.073   1.922   3.338  1.00  0.00     0.160 HD
BRANCH  10  12
ATOM     12  C   UNL     1      -1.986   2.314   2.761  1.00  0.00     0.078 A 
ATOM     13  C   UNL     1      -2.162   3.103   3.921  1.00  0.00     0.029 A 
ATOM     14  C   UNL     1      -3.024   2.374   1.800  1.00  0.00     0.150 A 
ATOM     15  C   UNL     1      -3.295   3.892   4.139  1.00  0.00     0.002 A 
ATOM     16  C   UNL     1      -4.175   3.154   2.033  1.00  0.00     0.049 A 
ATOM     17  C   UNL     1      -4.312   3.907   3.198  1.00  0.00     0.004 A 
BRANCH  14  18
ATOM     18  O   UNL     1      -2.891   1.973   0.487  1.00  0.00    -0.455 OA
BRANCH  18  19
ATOM     19  C   UNL     1      -3.158   0.682   0.092  1.00  0.00     0.127 A 
ATOM     20  C   UNL     1      -2.575   0.349  -1.141  1.00  0.00     0.047 A 
ATOM     21  C   UNL     1      -3.844  -0.293   0.811  1.00  0.00     0.047 A 
ATOM     22  C   UNL     1      -2.582  -0.964  -1.605  1.00  0.00     0.004 A 
ATOM     23  C   UNL     1      -3.855  -1.615   0.340  1.00  0.00     0.004 A 
ATOM     24  C   UNL     1      -3.208  -1.953  -0.853  1.00  0.00     0.000 A 
ENDBRANCH  18  19
ENDBRANCH  14  18
ENDBRANCH  10  12
ENDBRANCH   8  10
ENDBRANCH   6   8
ENDBRANCH   3   6
ENDBRANCH   1   2
BRANCH   1  25
ATOM     25  C   UNL     1       0.489  -3.639   0.686  1.00  0.00     0.042 C 
BRANCH  25  26
ATOM     26  C   UNL     1       0.384  -4.201  -0.731  1.00  0.00     0.118 C 
BRANCH  26  27
ATOM     27  N   UNL     1       1.328  -5.278  -0.966  1.00  0.00    -0.352 N 
ATOM     28  C   UNL     1       1.084  -6.594  -1.285  1.00  0.00     0.251 C 
ATOM     29  H   UNL     1       2.277  -5.032  -0.885  1.00  0.00     0.163 HD
ATOM     30  O   UNL     1       2.003  -7.406  -1.214  1.00  0.00    -0.269 OA
BRANCH  28  31
ATOM     31  C   UNL     1      -0.268  -7.047  -1.702  1.00  0.00     0.039 A 
ATOM     32  C   UNL     1      -0.752  -8.261  -1.203  1.00  0.00     0.014 A 
ATOM     33  C   UNL     1      -1.030  -6.331  -2.631  1.00  0.00     0.014 A 
ATOM     34  C   UNL     1      -2.007  -8.737  -1.603  1.00  0.00     0.010 A 
ATOM     35  C   UNL     1      -2.303  -6.782  -2.993  1.00  0.00     0.010 A 
ATOM     36  C   UNL     1      -2.803  -7.995  -2.491  1.00  0.00    -0.014 A 
BRANCH  36  37
ATOM     37  C   UNL     1      -4.147  -8.481  -2.909  1.00  0.00     0.031 A 
ATOM     38  C   UNL     1      -4.405  -8.882  -4.338  1.00  0.00     0.074 A 
ATOM     39  C   UNL     1      -5.157  -8.517  -2.016  1.00  0.00     0.049 A 
ATOM     40  N   UNL     1      -5.523  -9.269  -4.899  1.00  0.00    -0.248 NA
ATOM     41  C   UNL     1      -3.261  -8.823  -5.259  1.00  0.00     0.031 C 
ATOM     42  C   UNL     1      -5.054  -8.125  -0.610  1.00  0.00     0.029 A 
ATOM     43  N   UNL     1      -6.473  -8.884  -2.164  1.00  0.00    -0.354 N 
ATOM     44  C   UNL     1      -5.223  -9.485  -6.239  1.00  0.00     0.074 A 
ATOM     45  C   UNL     1      -3.825  -9.147  -6.414  1.00  0.00     0.031 C 
ATOM     46  C   UNL     1      -6.254  -8.272  -0.025  1.00  0.00     0.029 A 
ATOM     47  C   UNL     1      -7.219  -8.737  -1.019  1.00  0.00     0.049 A 
ATOM     48  H   UNL     1      -6.846  -9.222  -3.010  1.00  0.00     0.167 HD
ATOM     49  C   UNL     1      -6.029  -9.939  -7.231  1.00  0.00     0.037 A 
ATOM     50  C   UNL     1      -8.533  -8.936  -0.792  1.00  0.00     0.037 A 
ATOM     51  C   UNL     1      -7.414 -10.293  -7.054  1.00  0.00     0.049 A 
ATOM     52  C   UNL     1      -9.412  -9.436  -1.906  1.00  0.00     0.074 A 
ATOM     53  C   UNL     1      -8.293 -10.818  -7.987  1.00  0.00     0.029 A 
ATOM     54  N   UNL     1      -8.126 -10.152  -5.873  1.00  0.00    -0.354 N 
ATOM     55  N   UNL     1      -9.094  -9.698  -3.151  1.00  0.00    -0.248 NA
ATOM     56  C   UNL     1     -10.827  -9.674  -1.585  1.00  0.00     0.031 C 
ATOM     57  C   UNL     1      -9.547 -10.955  -7.380  1.00  0.00     0.029 A 
ATOM     58  C   UNL     1      -9.438 -10.558  -6.058  1.00  0.00     0.049 A 
ATOM     59  H   UNL     1      -7.754  -9.813  -5.026  1.00  0.00     0.167 HD
ATOM     60  C   UNL     1     -10.262 -10.152  -3.756  1.00  0.00     0.074 A 
ATOM     61  C   UNL     1     -11.292 -10.138  -2.738  1.00  0.00     0.031 C 
ATOM     62  C   UNL     1     -10.459 -10.545  -5.038  1.00  0.00     0.037 A 
BRANCH  49  63
ATOM     63  C   UNL     1      -5.430 -10.072  -8.605  1.00  0.00     0.058 A 
ATOM     64  C   UNL     1      -4.487 -11.069  -8.905  1.00  0.00     0.135 A 
ATOM     65  C   UNL     1      -5.819  -9.207  -9.641  1.00  0.00     0.135 A 
ATOM     66  F   UNL     1      -4.073 -11.917  -7.951  1.00  0.00    -0.206 F 
ATOM     67  C   UNL     1      -3.920 -11.177 -10.171  1.00  0.00     0.059 A 
ATOM     68  C   UNL     1      -5.285  -9.314 -10.922  1.00  0.00     0.059 A 
ATOM     69  F   UNL     1      -6.722  -8.241  -9.412  1.00  0.00    -0.206 F 
ATOM     70  C   UNL     1      -4.321 -10.290 -11.172  1.00  0.00     0.060 A 
BRANCH  70  71
ATOM     71  S   UNL     1      -3.558 -10.426 -12.802  1.00  0.00     0.124 S 
ATOM     72  O   UNL     1      -2.240  -9.852 -12.554  1.00  0.00    -0.237 OA
ATOM     73  O   UNL     1      -3.587 -11.864 -13.044  1.00  0.00    -0.237 OA
ATOM     74  O   UNL     1      -4.438  -9.633 -13.656  1.00  0.00    -0.744 OA
ENDBRANCH  70  71
ENDBRANCH  49  63
BRANCH  50  75
ATOM     75  C   UNL     1      -9.093  -8.664   0.558  1.00  0.00     0.058 A 
ATOM     76  C   UNL     1      -9.477  -9.711   1.408  1.00  0.00     0.135 A 
ATOM     77  C   UNL     1      -9.220  -7.351   1.037  1.00  0.00     0.135 A 
ATOM     78  F   UNL     1      -9.383 -10.982   0.990  1.00  0.00    -0.206 F 
ATOM     79  C   UNL     1      -9.972  -9.467   2.685  1.00  0.00     0.059 A 
ATOM     80  C   UNL     1      -9.690  -7.082   2.318  1.00  0.00     0.059 A 
ATOM     81  F   UNL     1      -8.851  -6.315   0.267  1.00  0.00    -0.206 F 
ATOM     82  C   UNL     1     -10.069  -8.148   3.134  1.00  0.00     0.060 A 
BRANCH  82  83
ATOM     83  S   UNL     1     -10.638  -7.845   4.821  1.00  0.00     0.124 S 
ATOM     84  O   UNL     1     -12.069  -8.098   4.698  1.00  0.00    -0.237 OA
ATOM     85  O   UNL     1      -9.878  -8.831   5.583  1.00  0.00    -0.237 OA
ATOM     86  O   UNL     1     -10.259  -6.455   5.057  1.00  0.00    -0.744 OA
ENDBRANCH  82  83
ENDBRANCH  50  75
BRANCH  62  87
ATOM     87  C   UNL     1     -11.834 -11.021  -5.420  1.00  0.00     0.058 A 
ATOM     88  C   UNL     1     -12.901 -10.128  -5.595  1.00  0.00     0.135 A 
ATOM     89  C   UNL     1     -12.069 -12.382  -5.679  1.00  0.00     0.135 A 
ATOM     90  F   UNL     1     -12.733  -8.818  -5.353  1.00  0.00    -0.206 F 
ATOM     91  C   UNL     1     -14.157 -10.567  -6.004  1.00  0.00     0.059 A 
ATOM     92  C   UNL     1     -13.310 -12.840  -6.111  1.00  0.00     0.059 A 
ATOM     93  F   UNL     1     -11.080 -13.278  -5.533  1.00  0.00    -0.206 F 
ATOM     94  C   UNL     1     -14.351 -11.925  -6.264  1.00  0.00     0.060 A 
BRANCH  94  95
ATOM     95  S   UNL     1     -15.971 -12.475  -6.843  1.00  0.00     0.124 S 
ATOM     96  O   UNL     1     -16.760 -12.408  -5.618  1.00  0.00    -0.237 OA
ATOM     97  O   UNL     1     -16.294 -11.480  -7.861  1.00  0.00    -0.237 OA
ATOM     98  O   UNL     1     -15.711 -13.820  -7.350  1.00  0.00    -0.744 OA
ENDBRANCH  94  95
ENDBRANCH  62  87
ENDBRANCH  36  37
ENDBRANCH  28  31
ENDBRANCH  26  27
ENDBRANCH  25  26
ENDBRANCH   1  25
TORSDOF 18
