REMARK SMILES Cc1ccc(NS(=O)(=O)c2cc(C(=O)Nc3ccccc3C(=O)NCCCNC(=O)c3ccc(-c4c5nc(c(-c6c(F)cc(S(=O)(=O)[O-])cc6F)c6ccc([nH]6)c(-c6c(F)cc(S(=O)(=O)[O-])cc6F)c6nc(c(-c7c(F)cc(S(=O)(=O)[O-])cc7F)c7ccc4[nH]7)C=C6)C=C5)cc3)ccc2Br)cc1
REMARK SMILES IDX 25 1 24 2 22 3 23 4 21 6 16 7 17 8 18 9 20 10 19 11 15 12
REMARK SMILES IDX 13 13 14 14 12 16 10 17 11 18 99 19 98 20 100 21 97 22 7 23
REMARK SMILES IDX 8 24 9 25 6 26 5 28 1 29 2 30 3 31 102 32 4 33 101 34 26 35
REMARK SMILES IDX 27 36 28 37 29 38 30 40 31 41 32 42 96 43 33 44 95 45 34 46
REMARK SMILES IDX 35 47 36 48 89 49 37 50 94 51 88 52 90 53 38 54 93 55 87 56
REMARK SMILES IDX 86 57 39 59 73 60 52 61 72 62 53 63 56 64 71 65 91 66 54 67
REMARK SMILES IDX 55 68 70 70 92 71 57 72 40 73 41 74 50 75 42 76 43 77 49 78
REMARK SMILES IDX 51 79 44 80 45 81 46 82 47 83 48 84 74 85 75 86 84 87 76 88
REMARK SMILES IDX 77 89 83 90 85 91 78 92 79 93 80 94 81 95 82 96 58 97 59 98
REMARK SMILES IDX 68 99 60 100 61 101 67 102 69 103 62 104 63 105 64 106
REMARK SMILES IDX 65 107 66 108
REMARK H PARENT 24 5 15 15 6 27 28 39 90 58 56 69
REMARK Flexibility Score: inf
ROOT
ATOM      1  C   UNL     1      -3.433  -1.244   3.479  1.00  0.00     0.118 C 
ENDROOT
BRANCH   1   2
ATOM      2  N   UNL     1      -2.128  -1.845   3.311  1.00  0.00    -0.352 N 
ATOM      3  C   UNL     1      -0.996  -1.254   2.809  1.00  0.00     0.253 C 
ATOM      4  O   UNL     1       0.105  -1.606   3.221  1.00  0.00    -0.269 OA
ATOM      5  H   UNL     1      -2.042  -2.785   3.588  1.00  0.00     0.163 HD
BRANCH   3   6
ATOM      6  C   UNL     1      -1.081  -0.360   1.628  1.00  0.00     0.063 A 
ATOM      7  C   UNL     1       0.083  -0.668   0.261  1.00  0.00     0.054 A 
ATOM      8  C   UNL     1       0.034   0.644  -1.287  1.00  0.00     0.027 A 
ATOM      9  C   UNL     1      -1.213   1.946  -1.298  1.00  0.00     0.002 A 
ATOM     10  C   UNL     1      -2.218   0.986   1.484  1.00  0.00     0.016 A 
ATOM     11  C   UNL     1      -2.292   2.070   0.074  1.00  0.00     0.001 A 
BRANCH   7  12
ATOM     12  N   UNL     1       0.829  -1.961   0.516  1.00  0.00    -0.321 N 
ATOM     13  C   UNL     1       0.463  -3.322   0.628  1.00  0.00     0.255 C 
ATOM     14  O   UNL     1       1.363  -4.148   0.807  1.00  0.00    -0.269 OA
ATOM     15  H   UNL     1       1.797  -1.821   0.632  1.00  0.00     0.170 HD
BRANCH  13  16
ATOM     16  C   UNL     1      -0.912  -3.874   0.370  1.00  0.00     0.041 A 
ATOM     17  C   UNL     1      -3.143  -3.232  -0.396  1.00  0.00     0.102 A 
ATOM     18  C   UNL     1      -1.950  -3.002   0.243  1.00  0.00     0.037 A 
ATOM     19  C   UNL     1      -3.517  -4.545  -0.556  1.00  0.00     0.038 A 
ATOM     20  C   UNL     1      -2.568  -5.544  -0.237  1.00  0.00     0.018 A 
ATOM     21  Br  UNL     1      -5.262  -5.057  -1.053  1.00  0.00    -0.049 Br
ATOM     22  C   UNL     1      -1.242  -5.206   0.145  1.00  0.00     0.015 A 
BRANCH  17  23
ATOM     23  S   UNL     1      -3.896  -1.768  -1.092  1.00  0.00     0.263 S 
ATOM     24  O   UNL     1      -5.229  -1.664  -0.538  1.00  0.00    -0.201 OA
ATOM     25  O   UNL     1      -3.684  -1.823  -2.522  1.00  0.00    -0.201 OA
BRANCH  23  26
ATOM     26  N   UNL     1      -3.054  -0.394  -0.476  1.00  0.00    -0.280 N 
ATOM     27  H   UNL     1      -3.612   0.276  -0.018  1.00  0.00     0.180 HD
BRANCH  26  28
ATOM     28  C   UNL     1      -1.552  -0.073  -0.544  1.00  0.00     0.049 A 
ATOM     29  C   UNL     1       3.558  -0.370  -0.809  1.00  0.00     0.044 C 
ATOM     30  C   UNL     1       2.072  -0.150  -0.863  1.00  0.00    -0.051 A 
ATOM     31  C   UNL     1       1.033  -1.246  -1.804  1.00  0.00     0.005 A 
ATOM     32  C   UNL     1       1.459   1.050   0.242  1.00  0.00     0.005 A 
ATOM     33  C   UNL     1      -0.739  -1.234  -1.690  1.00  0.00     0.027 A 
ATOM     34  C   UNL     1      -0.311   1.180   0.457  1.00  0.00     0.027 A 
ENDBRANCH  26  28
ENDBRANCH  23  26
ENDBRANCH  17  23
ENDBRANCH  13  16
ENDBRANCH   7  12
ENDBRANCH   3   6
ENDBRANCH   1   2
BRANCH   1  35
ATOM     35  C   UNL     1      -4.518  -1.762   2.566  1.00  0.00     0.042 C 
BRANCH  35  36
ATOM     36  C   UNL     1      -5.454  -2.717   3.267  1.00  0.00     0.118 C 
BRANCH  36  37
ATOM     37  N   UNL     1      -6.410  -2.030   4.141  1.00  0.00    -0.352 N 
ATOM     38  C   UNL     1      -7.689  -2.350   4.575  1.00  0.00     0.251 C 
ATOM     39  H   UNL     1      -6.080  -1.170   4.488  1.00  0.00     0.163 HD
ATOM     40  O   UNL     1      -8.403  -1.557   5.178  1.00  0.00    -0.269 OA
BRANCH  38  41
ATOM     41  C   UNL     1      -8.214  -3.734   4.511  1.00  0.00     0.039 A 
ATOM     42  C   UNL     1      -8.369  -4.218   5.823  1.00  0.00     0.014 A 
ATOM     43  C   UNL     1      -7.657  -4.524   3.529  1.00  0.00     0.014 A 
ATOM     44  C   UNL     1      -7.466  -5.152   6.263  1.00  0.00     0.010 A 
ATOM     45  C   UNL     1      -6.645  -5.330   3.961  1.00  0.00     0.010 A 
ATOM     46  C   UNL     1      -6.531  -5.587   5.332  1.00  0.00    -0.014 A 
BRANCH  46  47
ATOM     47  C   UNL     1      -5.624  -6.669   5.594  1.00  0.00     0.031 A 
ATOM     48  C   UNL     1      -6.399  -7.931   5.441  1.00  0.00     0.074 A 
ATOM     49  C   UNL     1      -4.333  -6.308   5.790  1.00  0.00     0.049 A 
ATOM     50  N   UNL     1      -6.440  -8.921   6.255  1.00  0.00    -0.248 NA
ATOM     51  C   UNL     1      -7.498  -8.067   4.439  1.00  0.00     0.031 C 
ATOM     52  C   UNL     1      -3.109  -7.084   5.919  1.00  0.00     0.029 A 
ATOM     53  N   UNL     1      -3.910  -5.009   6.143  1.00  0.00    -0.354 N 
ATOM     54  C   UNL     1      -6.992  -9.948   5.503  1.00  0.00     0.074 A 
ATOM     55  C   UNL     1      -7.915  -9.316   4.623  1.00  0.00     0.031 C 
ATOM     56  C   UNL     1      -2.242  -6.401   6.698  1.00  0.00     0.029 A 
ATOM     57  C   UNL     1      -2.889  -5.159   7.100  1.00  0.00     0.049 A 
ATOM     58  H   UNL     1      -4.261  -4.161   5.787  1.00  0.00     0.167 HD
ATOM     59  C   UNL     1      -6.284 -11.108   5.386  1.00  0.00     0.037 A 
ATOM     60  C   UNL     1      -3.172  -4.784   8.382  1.00  0.00     0.037 A 
ATOM     61  C   UNL     1      -5.051 -10.946   6.164  1.00  0.00     0.049 A 
ATOM     62  C   UNL     1      -3.418  -6.050   9.202  1.00  0.00     0.074 A 
ATOM     63  C   UNL     1      -3.747 -10.646   5.806  1.00  0.00     0.029 A 
ATOM     64  N   UNL     1      -5.168 -10.618   7.508  1.00  0.00    -0.354 N 
ATOM     65  N   UNL     1      -3.951  -7.154   8.722  1.00  0.00    -0.248 NA
ATOM     66  C   UNL     1      -2.839  -6.250  10.531  1.00  0.00     0.031 C 
ATOM     67  C   UNL     1      -3.105 -10.086   6.953  1.00  0.00     0.029 A 
ATOM     68  C   UNL     1      -4.040  -9.970   7.970  1.00  0.00     0.049 A 
ATOM     69  H   UNL     1      -5.956 -10.822   8.062  1.00  0.00     0.167 HD
ATOM     70  C   UNL     1      -3.716  -8.197   9.593  1.00  0.00     0.074 A 
ATOM     71  C   UNL     1      -3.027  -7.569  10.710  1.00  0.00     0.031 C 
ATOM     72  C   UNL     1      -3.999  -9.521   9.355  1.00  0.00     0.037 A 
BRANCH  59  73
ATOM     73  C   UNL     1      -6.503 -12.225   4.382  1.00  0.00     0.058 A 
ATOM     74  C   UNL     1      -5.533 -13.247   4.285  1.00  0.00     0.135 A 
ATOM     75  C   UNL     1      -7.614 -12.398   3.524  1.00  0.00     0.135 A 
ATOM     76  F   UNL     1      -4.437 -13.246   5.055  1.00  0.00    -0.206 F 
ATOM     77  C   UNL     1      -5.642 -14.329   3.412  1.00  0.00     0.059 A 
ATOM     78  C   UNL     1      -7.740 -13.471   2.630  1.00  0.00     0.059 A 
ATOM     79  F   UNL     1      -8.656 -11.561   3.522  1.00  0.00    -0.206 F 
ATOM     80  C   UNL     1      -6.750 -14.438   2.587  1.00  0.00     0.060 A 
BRANCH  80  81
ATOM     81  S   UNL     1      -6.881 -15.878   1.515  1.00  0.00     0.124 S 
ATOM     82  O   UNL     1      -5.697 -15.736   0.672  1.00  0.00    -0.237 OA
ATOM     83  O   UNL     1      -6.849 -16.976   2.475  1.00  0.00    -0.237 OA
ATOM     84  O   UNL     1      -8.157 -15.684   0.833  1.00  0.00    -0.744 OA
ENDBRANCH  80  81
ENDBRANCH  59  73
BRANCH  60  85
ATOM     85  C   UNL     1      -3.817  -3.414   8.389  1.00  0.00     0.058 A 
ATOM     86  C   UNL     1      -3.000  -2.339   7.957  1.00  0.00     0.135 A 
ATOM     87  C   UNL     1      -5.201  -3.169   8.344  1.00  0.00     0.135 A 
ATOM     88  F   UNL     1      -1.664  -2.480   7.946  1.00  0.00    -0.206 F 
ATOM     89  C   UNL     1      -3.511  -1.151   7.424  1.00  0.00     0.059 A 
ATOM     90  C   UNL     1      -5.744  -1.975   7.797  1.00  0.00     0.059 A 
ATOM     91  F   UNL     1      -6.051  -4.118   8.761  1.00  0.00    -0.206 F 
ATOM     92  C   UNL     1      -4.886  -0.972   7.328  1.00  0.00     0.060 A 
BRANCH  92  93
ATOM     93  S   UNL     1      -5.449   0.572   6.531  1.00  0.00     0.124 S 
ATOM     94  O   UNL     1      -5.096   1.580   7.521  1.00  0.00    -0.237 OA
ATOM     95  O   UNL     1      -4.656   0.598   5.302  1.00  0.00    -0.237 OA
ATOM     96  O   UNL     1      -6.867   0.377   6.308  1.00  0.00    -0.744 OA
ENDBRANCH  92  93
ENDBRANCH  60  85
BRANCH  72  97
ATOM     97  C   UNL     1      -4.208 -10.577  10.437  1.00  0.00     0.058 A 
ATOM     98  C   UNL     1      -4.422 -10.274  11.790  1.00  0.00     0.135 A 
ATOM     99  C   UNL     1      -4.367 -11.955  10.108  1.00  0.00     0.135 A 
ATOM    100  F   UNL     1      -4.483  -9.013  12.235  1.00  0.00    -0.206 F 
ATOM    101  C   UNL     1      -4.634 -11.258  12.753  1.00  0.00     0.059 A 
ATOM    102  C   UNL     1      -4.700 -12.934  11.034  1.00  0.00     0.059 A 
ATOM    103  F   UNL     1      -4.223 -12.424   8.860  1.00  0.00    -0.206 F 
ATOM    104  C   UNL     1      -4.774 -12.584  12.366  1.00  0.00     0.060 A 
BRANCH 104 105
ATOM    105  S   UNL     1      -5.061 -13.832  13.620  1.00  0.00     0.124 S 
ATOM    106  O   UNL     1      -3.733 -13.948  14.215  1.00  0.00    -0.237 OA
ATOM    107  O   UNL     1      -6.078 -13.203  14.457  1.00  0.00    -0.237 OA
ATOM    108  O   UNL     1      -5.513 -14.990  12.856  1.00  0.00    -0.744 OA
ENDBRANCH 104 105
ENDBRANCH  72  97
ENDBRANCH  46  47
ENDBRANCH  38  41
ENDBRANCH  36  37
ENDBRANCH  35  36
ENDBRANCH   1  35
TORSDOF 18
