REMARK SMILES O=C(NCCCNC(=O)[C@H]1C[C@H](O)CN1S(=O)(=O)c1ccc2c(c1)OCCO2)c1ccc(-c2c3nc(c(-c4c(F)cc(S(=O)(=O)[O-])cc4F)c4ccc([nH]4)c(-c4c(F)cc(S(=O)(=O)[O-])cc4F)c4nc(c(-c5c(F)cc(S(=O)(=O)[O-])cc5F)c5ccc2[nH]5)C=C4)C=C3)cc1
REMARK SMILES IDX 4 1 3 2 1 3 2 4 29 6 30 7 94 8 31 9 93 10 32 11 33 12 34 13
REMARK SMILES IDX 87 14 35 15 92 16 86 17 88 18 36 19 91 20 85 21 84 22 37 24
REMARK SMILES IDX 71 25 50 26 70 27 51 28 54 29 69 30 89 31 52 32 53 33 68 35
REMARK SMILES IDX 90 36 55 37 38 38 39 39 48 40 40 41 41 42 47 43 49 44 42 45
REMARK SMILES IDX 43 46 44 47 45 48 46 49 72 50 73 51 82 52 74 53 75 54 81 55
REMARK SMILES IDX 83 56 76 57 77 58 78 59 79 60 80 61 56 62 57 63 66 64 58 65
REMARK SMILES IDX 59 66 65 67 67 68 60 69 61 70 62 71 63 72 64 73 5 74 6 75
REMARK SMILES IDX 7 76 8 77 9 79 10 80 11 81 15 82 12 83 14 84 16 85 17 86
REMARK SMILES IDX 18 87 19 88 20 89 24 90 21 91 23 92 22 93 25 94 28 95 26 96
REMARK SMILES IDX 27 97 13 98
REMARK H PARENT 3 5 88 23 54 34 7 78 13 99
REMARK Flexibility Score: inf
ROOT
ATOM      1  C   UNL     1       3.514  -1.689   0.303  1.00  0.00     0.118 C 
ENDROOT
BRANCH   1   2
ATOM      2  N   UNL     1       2.239  -1.289  -0.256  1.00  0.00    -0.352 N 
ATOM      3  O   UNL     1       0.583   0.112  -0.761  1.00  0.00    -0.269 OA
ATOM      4  C   UNL     1       1.800  -0.063  -0.686  1.00  0.00     0.251 C 
ATOM      5  H   UNL     1       1.579  -2.015  -0.341  1.00  0.00     0.163 HD
BRANCH   4   6
ATOM      6  C   UNL     1       2.718   1.046  -1.065  1.00  0.00     0.039 A 
ATOM      7  C   UNL     1       3.909   0.842  -1.768  1.00  0.00     0.014 A 
ATOM      8  C   UNL     1       2.263   2.357  -0.872  1.00  0.00     0.014 A 
ATOM      9  C   UNL     1       4.644   1.934  -2.253  1.00  0.00     0.010 A 
ATOM     10  C   UNL     1       2.965   3.444  -1.408  1.00  0.00     0.010 A 
ATOM     11  C   UNL     1       4.156   3.244  -2.120  1.00  0.00    -0.014 A 
BRANCH  11  12
ATOM     12  C   UNL     1       4.804   4.389  -2.822  1.00  0.00     0.031 A 
ATOM     13  C   UNL     1       5.393   5.540  -2.054  1.00  0.00     0.074 A 
ATOM     14  C   UNL     1       4.781   4.438  -4.170  1.00  0.00     0.049 A 
ATOM     15  N   UNL     1       5.884   6.668  -2.503  1.00  0.00    -0.248 NA
ATOM     16  C   UNL     1       5.418   5.413  -0.590  1.00  0.00     0.031 C 
ATOM     17  C   UNL     1       4.212   3.407  -5.040  1.00  0.00     0.029 A 
ATOM     18  N   UNL     1       5.224   5.401  -5.046  1.00  0.00    -0.354 N 
ATOM     19  C   UNL     1       6.261   7.395  -1.381  1.00  0.00     0.074 A 
ATOM     20  C   UNL     1       5.912   6.589  -0.228  1.00  0.00     0.031 C 
ATOM     21  C   UNL     1       4.345   3.787  -6.320  1.00  0.00     0.029 A 
ATOM     22  C   UNL     1       4.959   5.112  -6.364  1.00  0.00     0.049 A 
ATOM     23  H   UNL     1       5.688   6.220  -4.757  1.00  0.00     0.167 HD
ATOM     24  C   UNL     1       6.849   8.616  -1.316  1.00  0.00     0.037 A 
ATOM     25  C   UNL     1       5.154   5.834  -7.486  1.00  0.00     0.037 A 
ATOM     26  C   UNL     1       7.195   9.417  -2.463  1.00  0.00     0.049 A 
ATOM     27  C   UNL     1       5.786   7.194  -7.393  1.00  0.00     0.074 A 
ATOM     28  C   UNL     1       7.825  10.650  -2.493  1.00  0.00     0.029 A 
ATOM     29  N   UNL     1       6.931   9.075  -3.782  1.00  0.00    -0.354 N 
ATOM     30  N   UNL     1       6.177   7.846  -6.325  1.00  0.00    -0.248 NA
ATOM     31  C   UNL     1       6.007   7.917  -8.654  1.00  0.00     0.031 C 
ATOM     32  C   UNL     1       7.903  11.072  -3.825  1.00  0.00     0.029 A 
ATOM     33  C   UNL     1       7.368  10.080  -4.630  1.00  0.00     0.049 A 
ATOM     34  H   UNL     1       6.496   8.241  -4.072  1.00  0.00     0.167 HD
ATOM     35  C   UNL     1       6.715   9.043  -6.785  1.00  0.00     0.074 A 
ATOM     36  C   UNL     1       6.598   9.027  -8.229  1.00  0.00     0.031 C 
ATOM     37  C   UNL     1       7.262  10.056  -6.070  1.00  0.00     0.037 A 
BRANCH  24  38
ATOM     38  C   UNL     1       7.136   9.169   0.053  1.00  0.00     0.058 A 
ATOM     39  C   UNL     1       8.134   8.620   0.874  1.00  0.00     0.135 A 
ATOM     40  C   UNL     1       6.404  10.258   0.553  1.00  0.00     0.135 A 
ATOM     41  F   UNL     1       8.860   7.573   0.452  1.00  0.00    -0.206 F 
ATOM     42  C   UNL     1       8.355   9.092   2.163  1.00  0.00     0.059 A 
ATOM     43  C   UNL     1       6.626  10.765   1.831  1.00  0.00     0.059 A 
ATOM     44  F   UNL     1       5.446  10.830  -0.194  1.00  0.00    -0.206 F 
ATOM     45  C   UNL     1       7.585  10.155   2.638  1.00  0.00     0.060 A 
BRANCH  45  46
ATOM     46  S   UNL     1       7.823  10.681   4.346  1.00  0.00     0.124 S 
ATOM     47  O   UNL     1       7.254   9.547   5.072  1.00  0.00    -0.237 OA
ATOM     48  O   UNL     1       9.273  10.819   4.432  1.00  0.00    -0.237 OA
ATOM     49  O   UNL     1       7.067  11.926   4.430  1.00  0.00    -0.744 OA
ENDBRANCH  45  46
ENDBRANCH  24  38
BRANCH  25  50
ATOM     50  C   UNL     1       4.743   5.263  -8.796  1.00  0.00     0.058 A 
ATOM     51  C   UNL     1       5.696   4.787  -9.707  1.00  0.00     0.135 A 
ATOM     52  C   UNL     1       3.387   5.117  -9.129  1.00  0.00     0.135 A 
ATOM     53  F   UNL     1       7.004   4.914  -9.438  1.00  0.00    -0.206 F 
ATOM     54  C   UNL     1       5.320   4.176 -10.900  1.00  0.00     0.059 A 
ATOM     55  C   UNL     1       2.986   4.489 -10.304  1.00  0.00     0.059 A 
ATOM     56  F   UNL     1       2.437   5.546  -8.284  1.00  0.00    -0.206 F 
ATOM     57  C   UNL     1       3.962   4.021 -11.184  1.00  0.00     0.060 A 
BRANCH  57  58
ATOM     58  S   UNL     1       3.486   3.140 -12.687  1.00  0.00     0.124 S 
ATOM     59  O   UNL     1       3.797   4.125 -13.717  1.00  0.00    -0.237 OA
ATOM     60  O   UNL     1       4.355   1.967 -12.643  1.00  0.00    -0.237 OA
ATOM     61  O   UNL     1       2.067   2.866 -12.482  1.00  0.00    -0.744 OA
ENDBRANCH  57  58
ENDBRANCH  25  50
BRANCH  37  62
ATOM     62  C   UNL     1       7.827  11.226  -6.827  1.00  0.00     0.058 A 
ATOM     63  C   UNL     1       7.004  12.203  -7.406  1.00  0.00     0.135 A 
ATOM     64  C   UNL     1       9.218  11.416  -6.895  1.00  0.00     0.135 A 
ATOM     65  F   UNL     1       5.669  12.064  -7.378  1.00  0.00    -0.206 F 
ATOM     66  C   UNL     1       7.538  13.329  -8.025  1.00  0.00     0.059 A 
ATOM     67  C   UNL     1       9.773  12.545  -7.489  1.00  0.00     0.059 A 
ATOM     68  F   UNL     1      10.050  10.513  -6.353  1.00  0.00    -0.206 F 
ATOM     69  C   UNL     1       8.925  13.496  -8.054  1.00  0.00     0.060 A 
BRANCH  69  70
ATOM     70  S   UNL     1       9.604  14.998  -8.792  1.00  0.00     0.124 S 
ATOM     71  O   UNL     1       9.416  14.739 -10.215  1.00  0.00    -0.237 OA
ATOM     72  O   UNL     1       8.756  16.039  -8.219  1.00  0.00    -0.237 OA
ATOM     73  O   UNL     1      10.990  15.006  -8.332  1.00  0.00    -0.744 OA
ENDBRANCH  69  70
ENDBRANCH  37  62
ENDBRANCH  11  12
ENDBRANCH   4   6
ENDBRANCH   1   2
BRANCH   1  74
ATOM     74  C   UNL     1       3.602  -1.321   1.782  1.00  0.00     0.042 C 
BRANCH  74  75
ATOM     75  C   UNL     1       3.685  -2.494   2.767  1.00  0.00     0.117 C 
BRANCH  75  76
ATOM     76  N   UNL     1       4.659  -3.506   2.399  1.00  0.00    -0.355 N 
ATOM     77  C   UNL     1       5.831  -3.898   2.977  1.00  0.00     0.238 C 
ATOM     78  H   UNL     1       4.431  -4.002   1.579  1.00  0.00     0.163 HD
ATOM     79  O   UNL     1       6.452  -4.795   2.400  1.00  0.00    -0.273 OA
BRANCH  77  80
ATOM     80  C   UNL     1       6.261  -3.359   4.335  1.00  0.00     0.165 C 
ATOM     81  C   UNL     1       7.397  -4.194   4.969  1.00  0.00     0.063 C 
ATOM     82  N   UNL     1       6.640  -1.925   4.556  1.00  0.00    -0.183 NA
ATOM     83  C   UNL     1       8.341  -3.201   5.627  1.00  0.00     0.131 C 
ATOM     84  C   UNL     1       7.482  -1.947   5.790  1.00  0.00     0.135 C 
BRANCH  82  85
ATOM     85  S   UNL     1       7.361  -1.044   3.281  1.00  0.00     0.244 S 
ATOM     86  O   UNL     1       8.793  -1.166   3.409  1.00  0.00    -0.207 OA
ATOM     87  O   UNL     1       6.697  -1.351   2.034  1.00  0.00    -0.207 OA
BRANCH  85  88
ATOM     88  C   UNL     1       6.892   0.623   3.719  1.00  0.00     0.086 A 
ATOM     89  C   UNL     1       5.532   0.947   3.805  1.00  0.00     0.026 A 
ATOM     90  C   UNL     1       7.862   1.602   3.936  1.00  0.00     0.072 A 
ATOM     91  C   UNL     1       5.132   2.269   3.985  1.00  0.00     0.052 A 
ATOM     92  C   UNL     1       7.454   2.914   4.186  1.00  0.00     0.162 A 
ATOM     93  C   UNL     1       6.096   3.257   4.147  1.00  0.00     0.161 A 
ATOM     94  O   UNL     1       8.440   3.829   4.458  1.00  0.00    -0.486 OA
ATOM     95  O   UNL     1       5.636   4.542   4.274  1.00  0.00    -0.486 OA
ATOM     96  C   UNL     1       7.891   5.050   4.986  1.00  0.00     0.271 C 
ATOM     97  C   UNL     1       6.702   5.497   4.152  1.00  0.00     0.271 C 
ENDBRANCH  85  88
ENDBRANCH  82  85
BRANCH  83  98
ATOM     98  O   UNL     1       8.814  -3.702   6.867  1.00  0.00    -0.392 OA
ATOM     99  H   UNL     1       8.061  -3.902   7.444  1.00  0.00     0.211 HD
ENDBRANCH  83  98
ENDBRANCH  77  80
ENDBRANCH  75  76
ENDBRANCH  74  75
ENDBRANCH   1  74
TORSDOF 16
