REMARK SMILES CCN(CCO)C(=O)N[C@H]1CCCCC[C@H]1C(=O)NCCCNC(=O)c1ccc(-c2c3nc(c(-c4c(F)cc(S(=O)(=O)[O-])cc4F)c4ccc([nH]4)c(-c4c(F)cc(S(=O)(=O)[O-])cc4F)c4nc(c(-c5c(F)cc(S(=O)(=O)[O-])cc5F)c5ccc2[nH]5)C=C4)C=C3)cc1
REMARK SMILES IDX 17 1 18 2 19 3 16 5 10 6 9 7 7 8 8 9 3 11 2 12 1 13 4 14
REMARK SMILES IDX 5 15 6 16 11 18 15 20 14 21 13 22 12 23 20 25 21 26 22 27
REMARK SMILES IDX 23 28 24 29 25 31 26 32 27 33 91 34 28 35 90 36 29 37 30 38
REMARK SMILES IDX 31 39 84 40 32 41 89 42 83 43 85 44 33 45 88 46 82 47 81 48
REMARK SMILES IDX 34 50 68 51 47 52 67 53 48 54 51 55 66 56 86 57 49 58 50 59
REMARK SMILES IDX 65 61 87 62 52 63 35 64 36 65 45 66 37 67 38 68 44 69 46 70
REMARK SMILES IDX 39 71 40 72 41 73 42 74 43 75 69 76 70 77 79 78 71 79 72 80
REMARK SMILES IDX 78 81 80 82 73 83 74 84 75 85 76 86 77 87 53 88 54 89 63 90
REMARK SMILES IDX 55 91 56 92 62 93 64 94 57 95 58 96 59 97 60 98 61 99
REMARK H PARENT 19 4 9 10 6 17 23 30 85 49 51 60
REMARK Flexibility Score: 90.00
ROOT
ATOM      1  C   UNL     1       1.171  -5.656  -5.470  1.00  0.00     0.225 C 
ATOM      2  O   UNL     1       1.797  -6.558  -6.045  1.00  0.00    -0.275 OA
ATOM      3  N   UNL     1      -0.082  -5.426  -5.930  1.00  0.00    -0.356 N 
ATOM      4  H   UNL     1      -0.219  -5.613  -6.887  1.00  0.00     0.163 HD
ENDROOT
BRANCH   1   5
ATOM      5  C   UNL     1       1.843  -4.904  -4.312  1.00  0.00     0.101 C 
BRANCH   5   6
ATOM      6  C   UNL     1       1.900  -3.368  -4.286  1.00  0.00     0.096 C 
BRANCH   6   7
ATOM      7  N   UNL     1       1.800  -2.667  -5.570  1.00  0.00    -0.334 N 
ATOM      8  C   UNL     1       2.291  -2.794  -6.817  1.00  0.00     0.317 C 
ATOM      9  O   UNL     1       1.927  -1.922  -7.612  1.00  0.00    -0.249 OA
ATOM     10  H   UNL     1       1.208  -1.883  -5.500  1.00  0.00     0.165 HD
BRANCH   8  11
ATOM     11  N   UNL     1       3.053  -3.850  -7.221  1.00  0.00    -0.323 N 
BRANCH  11  12
ATOM     12  C   UNL     1       2.895  -4.247  -8.633  1.00  0.00     0.118 C 
ATOM     13  C   UNL     1       1.468  -4.510  -9.101  1.00  0.00     0.027 C 
ENDBRANCH  11  12
BRANCH  11  14
ATOM     14  C   UNL     1       4.326  -4.336  -6.648  1.00  0.00     0.149 C 
BRANCH  14  15
ATOM     15  C   UNL     1       5.073  -3.598  -5.537  1.00  0.00     0.177 C 
BRANCH  15  16
ATOM     16  O   UNL     1       5.217  -2.209  -5.777  1.00  0.00    -0.395 OA
ATOM     17  H   UNL     1       5.740  -2.073  -6.582  1.00  0.00     0.210 HD
ENDBRANCH  15  16
ENDBRANCH  14  15
ENDBRANCH  11  14
ENDBRANCH   8  11
ENDBRANCH   6   7
BRANCH   6  18
ATOM     18  C   UNL     1       1.186  -2.601  -3.138  1.00  0.00     0.026 CG0
ATOM     19  G   UNL     1      -0.146  -3.062  -2.567  1.00  0.00     0.000 G0
ENDBRANCH   6  18
ENDBRANCH   5   6
BRANCH   5  20
ATOM     20  C   UNL     1       1.755  -5.578  -2.941  1.00  0.00     0.015 C 
BRANCH  20  21
ATOM     21  C   UNL     1       0.393  -5.646  -2.285  1.00  0.00     0.001 C 
BRANCH  21  22
ATOM     22  C   UNL     1      -0.140  -4.333  -1.715  1.00  0.00     0.000 C 
BRANCH  22  23
ATOM     23  C   UNL     1      -0.146  -3.062  -2.567  1.00  0.00     0.002 CG0
ATOM     24  G   UNL     1       1.186  -2.601  -3.138  1.00  0.00     0.000 G0
ENDBRANCH  22  23
ENDBRANCH  21  22
ENDBRANCH  20  21
ENDBRANCH   5  20
ENDBRANCH   1   5
BRANCH   3  25
ATOM     25  C   UNL     1      -1.240  -4.950  -5.226  1.00  0.00     0.117 C 
BRANCH  25  26
ATOM     26  C   UNL     1      -1.911  -3.735  -5.840  1.00  0.00     0.042 C 
BRANCH  26  27
ATOM     27  C   UNL     1      -2.647  -4.059  -7.130  1.00  0.00     0.118 C 
BRANCH  27  28
ATOM     28  N   UNL     1      -3.650  -5.104  -6.930  1.00  0.00    -0.352 N 
ATOM     29  C   UNL     1      -4.941  -5.026  -6.464  1.00  0.00     0.251 C 
ATOM     30  H   UNL     1      -3.352  -6.012  -7.168  1.00  0.00     0.163 HD
ATOM     31  O   UNL     1      -5.463  -6.029  -5.985  1.00  0.00    -0.269 OA
BRANCH  29  32
ATOM     32  C   UNL     1      -5.701  -3.760  -6.543  1.00  0.00     0.039 A 
ATOM     33  C   UNL     1      -6.665  -3.464  -5.572  1.00  0.00     0.014 A 
ATOM     34  C   UNL     1      -5.527  -2.899  -7.625  1.00  0.00     0.014 A 
ATOM     35  C   UNL     1      -7.416  -2.288  -5.671  1.00  0.00     0.010 A 
ATOM     36  C   UNL     1      -6.188  -1.679  -7.662  1.00  0.00     0.010 A 
ATOM     37  C   UNL     1      -7.165  -1.372  -6.705  1.00  0.00    -0.014 A 
BRANCH  37  38
ATOM     38  C   UNL     1      -7.936  -0.112  -6.862  1.00  0.00     0.031 A 
ATOM     39  C   UNL     1      -8.694   0.137  -8.145  1.00  0.00     0.074 A 
ATOM     40  C   UNL     1      -7.867   0.842  -5.913  1.00  0.00     0.049 A 
ATOM     41  N   UNL     1      -9.272   1.231  -8.566  1.00  0.00    -0.248 NA
ATOM     42  C   UNL     1      -8.765  -0.981  -9.104  1.00  0.00     0.031 C 
ATOM     43  C   UNL     1      -7.111   0.743  -4.662  1.00  0.00     0.029 A 
ATOM     44  N   UNL     1      -8.421   2.096  -5.863  1.00  0.00    -0.354 N 
ATOM     45  C   UNL     1      -9.725   0.949  -9.852  1.00  0.00     0.074 A 
ATOM     46  C   UNL     1      -9.314  -0.401 -10.161  1.00  0.00     0.031 C 
ATOM     47  C   UNL     1      -7.265   1.878  -3.961  1.00  0.00     0.029 A 
ATOM     48  C   UNL     1      -8.095   2.800  -4.728  1.00  0.00     0.049 A 
ATOM     49  H   UNL     1      -9.000   2.457  -6.574  1.00  0.00     0.167 HD
ATOM     50  C   UNL     1     -10.444   1.736 -10.687  1.00  0.00     0.037 A 
ATOM     51  C   UNL     1      -8.420   4.053  -4.356  1.00  0.00     0.037 A 
ATOM     52  C   UNL     1     -10.921   3.046 -10.331  1.00  0.00     0.049 A 
ATOM     53  C   UNL     1      -9.284   4.879  -5.271  1.00  0.00     0.074 A 
ATOM     54  C   UNL     1     -11.741   3.890 -11.057  1.00  0.00     0.029 A 
ATOM     55  N   UNL     1     -10.635   3.692  -9.137  1.00  0.00    -0.354 N 
ATOM     56  N   UNL     1      -9.755   4.573  -6.457  1.00  0.00    -0.248 NA
ATOM     57  C   UNL     1      -9.668   6.215  -4.796  1.00  0.00     0.031 C 
ATOM     58  C   UNL     1     -11.931   5.059 -10.313  1.00  0.00     0.029 A 
ATOM     59  C   UNL     1     -11.259   4.926  -9.108  1.00  0.00     0.049 A 
ATOM     60  H   UNL     1     -10.072   3.326  -8.417  1.00  0.00     0.167 HD
ATOM     61  C   UNL     1     -10.511   5.668  -6.859  1.00  0.00     0.074 A 
ATOM     62  C   UNL     1     -10.448   6.636  -5.782  1.00  0.00     0.031 C 
ATOM     63  C   UNL     1     -11.194   5.860  -8.014  1.00  0.00     0.037 A 
BRANCH  50  64
ATOM     64  C   UNL     1     -10.789   1.198 -12.049  1.00  0.00     0.058 A 
ATOM     65  C   UNL     1     -11.720   0.161 -12.218  1.00  0.00     0.135 A 
ATOM     66  C   UNL     1     -10.228   1.766 -13.205  1.00  0.00     0.135 A 
ATOM     67  F   UNL     1     -12.275  -0.430 -11.148  1.00  0.00    -0.206 F 
ATOM     68  C   UNL     1     -12.068  -0.307 -13.481  1.00  0.00     0.059 A 
ATOM     69  C   UNL     1     -10.582   1.332 -14.480  1.00  0.00     0.059 A 
ATOM     70  F   UNL     1      -9.330   2.759 -13.103  1.00  0.00    -0.206 F 
ATOM     71  C   UNL     1     -11.497   0.288 -14.607  1.00  0.00     0.060 A 
BRANCH  71  72
ATOM     72  S   UNL     1     -11.991  -0.308 -16.238  1.00  0.00     0.124 S 
ATOM     73  O   UNL     1     -11.298  -1.590 -16.302  1.00  0.00    -0.237 OA
ATOM     74  O   UNL     1     -13.443  -0.378 -16.119  1.00  0.00    -0.237 OA
ATOM     75  O   UNL     1     -11.488   0.723 -17.143  1.00  0.00    -0.744 OA
ENDBRANCH  71  72
ENDBRANCH  50  64
BRANCH  51  76
ATOM     76  C   UNL     1      -7.951   4.595  -3.053  1.00  0.00     0.058 A 
ATOM     77  C   UNL     1      -8.852   4.808  -1.998  1.00  0.00     0.135 A 
ATOM     78  C   UNL     1      -6.603   4.913  -2.833  1.00  0.00     0.135 A 
ATOM     79  F   UNL     1     -10.152   4.520  -2.159  1.00  0.00    -0.206 F 
ATOM     80  C   UNL     1      -8.440   5.345  -0.782  1.00  0.00     0.059 A 
ATOM     81  C   UNL     1      -6.161   5.428  -1.617  1.00  0.00     0.059 A 
ATOM     82  F   UNL     1      -5.696   4.706  -3.800  1.00  0.00    -0.206 F 
ATOM     83  C   UNL     1      -7.091   5.655  -0.603  1.00  0.00     0.060 A 
BRANCH  83  84
ATOM     84  S   UNL     1      -6.560   6.327   0.987  1.00  0.00     0.124 S 
ATOM     85  O   UNL     1      -7.036   7.703   0.897  1.00  0.00    -0.237 OA
ATOM     86  O   UNL     1      -7.263   5.469   1.936  1.00  0.00    -0.237 OA
ATOM     87  O   UNL     1      -5.111   6.156   0.955  1.00  0.00    -0.744 OA
ENDBRANCH  83  84
ENDBRANCH  51  76
BRANCH  63  88
ATOM     88  C   UNL     1     -11.957   7.145  -8.156  1.00  0.00     0.058 A 
ATOM     89  C   UNL     1     -11.304   8.362  -8.403  1.00  0.00     0.135 A 
ATOM     90  C   UNL     1     -13.359   7.147  -8.102  1.00  0.00     0.135 A 
ATOM     91  F   UNL     1      -9.964   8.412  -8.459  1.00  0.00    -0.206 F 
ATOM     92  C   UNL     1     -12.017   9.544  -8.570  1.00  0.00     0.059 A 
ATOM     93  C   UNL     1     -14.093   8.312  -8.291  1.00  0.00     0.059 A 
ATOM     94  F   UNL     1     -14.029   6.005  -7.880  1.00  0.00    -0.206 F 
ATOM     95  C   UNL     1     -13.412   9.508  -8.513  1.00  0.00     0.060 A 
BRANCH  95  96
ATOM     96  S   UNL     1     -14.327  11.043  -8.766  1.00  0.00     0.124 S 
ATOM     97  O   UNL     1     -14.126  11.718  -7.488  1.00  0.00    -0.237 OA
ATOM     98  O   UNL     1     -13.640  11.633  -9.911  1.00  0.00    -0.237 OA
ATOM     99  O   UNL     1     -15.689  10.586  -9.028  1.00  0.00    -0.744 OA
ENDBRANCH  95  96
ENDBRANCH  63  88
ENDBRANCH  37  38
ENDBRANCH  29  32
ENDBRANCH  27  28
ENDBRANCH  26  27
ENDBRANCH  25  26
ENDBRANCH   3  25
TORSDOF 19
