REMARK SMILES CC1(C)S[C@H](c2ccc(-c3ccccc3)o2)[NH2+][C@H]1C(=O)NCCCNC(=O)c1ccc(-c2c3nc(c(-c4c(F)cc(S(=O)(=O)[O-])cc4F)c4ccc([nH]4)c(-c4c(F)cc(S(=O)(=O)[O-])cc4F)c4nc(c(-c5c(F)cc(S(=O)(=O)[O-])cc5F)c5ccc2[nH]5)C=C4)C=C3)cc1
REMARK SMILES IDX 23 1 22 2 21 3 19 4 20 5 18 7 1 8 2 9 3 10 4 11 5 12 17 13
REMARK SMILES IDX 6 16 7 17 16 18 8 19 9 20 10 21 11 22 15 23 12 24 14 25
REMARK SMILES IDX 13 26 24 27 25 28 26 29 27 31 28 32 29 33 93 34 30 35 92 36
REMARK SMILES IDX 31 37 32 38 33 39 86 40 34 41 91 42 85 43 87 44 35 45 90 46
REMARK SMILES IDX 84 47 83 48 36 50 70 51 49 52 69 53 50 54 53 55 68 56 88 57
REMARK SMILES IDX 51 58 52 59 67 61 89 62 54 63 37 64 38 65 47 66 39 67 40 68
REMARK SMILES IDX 46 69 48 70 41 71 42 72 43 73 44 74 45 75 71 76 72 77 81 78
REMARK SMILES IDX 73 79 74 80 80 81 82 82 75 83 76 84 77 85 78 86 79 87 55 88
REMARK SMILES IDX 56 89 65 90 57 91 58 92 64 93 66 94 59 95 60 96 61 97 62 98
REMARK SMILES IDX 63 99
REMARK H PARENT 21 6 17 14 17 15 25 30 87 49 53 60
REMARK Flexibility Score: inf
ROOT
ATOM      1  C   UNL     1       1.163   2.216   3.412  1.00  0.00     0.042 C 
ENDROOT
BRANCH   1   2
ATOM      2  C   UNL     1       0.030   2.413   2.406  1.00  0.00     0.118 C 
BRANCH   2   3
ATOM      3  N   UNL     1       0.487   2.928   1.121  1.00  0.00    -0.351 N 
ATOM      4  C   UNL     1       0.492   2.474  -0.163  1.00  0.00     0.279 C 
ATOM      5  O   UNL     1       1.042   3.221  -0.984  1.00  0.00    -0.268 OA
ATOM      6  H   UNL     1       0.891   3.823   1.200  1.00  0.00     0.163 HD
BRANCH   4   7
ATOM      7  C   UNL     1      -0.063   1.111  -0.634  1.00  0.00     0.289 C 
ATOM      8  C   UNL     1       1.646  -0.152   0.896  1.00  0.00     0.030 C 
ATOM      9  C   UNL     1       0.909  -0.071  -0.436  1.00  0.00     0.078 C 
ATOM     10  C   UNL     1       1.925  -0.155  -1.582  1.00  0.00     0.030 C 
ATOM     11  S   UNL     1      -0.183  -1.525  -0.515  1.00  0.00    -0.078 SA
ATOM     12  C   UNL     1      -1.716  -0.582  -0.321  1.00  0.00     0.311 C 
ATOM     13  N   UNL     1      -1.424   0.837  -0.124  1.00  0.00    -0.317 N 
ATOM     14  H   UNL     1      -1.471   1.063   0.870  1.00  0.00     0.348 HD
ATOM     15  H   UNL     1      -2.106   1.408  -0.623  1.00  0.00     0.348 HD
BRANCH  12  16
ATOM     16  C   UNL     1      -2.644  -0.895  -1.450  1.00  0.00     0.172 A 
ATOM     17  C   UNL     1      -3.424  -2.012  -1.686  1.00  0.00     0.054 A 
ATOM     18  O   UNL     1      -2.790  -0.004  -2.482  1.00  0.00    -0.454 OA
ATOM     19  C   UNL     1      -4.094  -1.789  -2.906  1.00  0.00     0.051 A 
ATOM     20  C   UNL     1      -3.689  -0.550  -3.356  1.00  0.00     0.134 A 
BRANCH  20  21
ATOM     21  C   UNL     1      -4.042   0.236  -4.528  1.00  0.00     0.017 A 
ATOM     22  C   UNL     1      -3.072   0.930  -5.260  1.00  0.00     0.012 A 
ATOM     23  C   UNL     1      -5.373   0.265  -4.971  1.00  0.00     0.012 A 
ATOM     24  C   UNL     1      -3.423   1.620  -6.424  1.00  0.00     0.001 A 
ATOM     25  C   UNL     1      -5.727   0.965  -6.127  1.00  0.00     0.001 A 
ATOM     26  C   UNL     1      -4.749   1.636  -6.857  1.00  0.00     0.000 A 
ENDBRANCH  20  21
ENDBRANCH  12  16
ENDBRANCH   4   7
ENDBRANCH   2   3
ENDBRANCH   1   2
BRANCH   1  27
ATOM     27  C   UNL     1       1.874   3.494   3.834  1.00  0.00     0.118 C 
BRANCH  27  28
ATOM     28  N   UNL     1       1.146   4.215   4.864  1.00  0.00    -0.352 N 
ATOM     29  C   UNL     1       1.409   4.341   6.209  1.00  0.00     0.251 C 
ATOM     30  H   UNL     1       0.339   4.685   4.552  1.00  0.00     0.163 HD
ATOM     31  O   UNL     1       0.541   4.806   6.943  1.00  0.00    -0.269 OA
BRANCH  29  32
ATOM     32  C   UNL     1       2.708   3.909   6.784  1.00  0.00     0.039 A 
ATOM     33  C   UNL     1       2.716   3.289   8.038  1.00  0.00     0.014 A 
ATOM     34  C   UNL     1       3.920   4.158   6.134  1.00  0.00     0.014 A 
ATOM     35  C   UNL     1       3.925   2.875   8.609  1.00  0.00     0.010 A 
ATOM     36  C   UNL     1       5.115   3.669   6.663  1.00  0.00     0.010 A 
ATOM     37  C   UNL     1       5.135   3.037   7.915  1.00  0.00    -0.014 A 
BRANCH  37  38
ATOM     38  C   UNL     1       6.429   2.587   8.496  1.00  0.00     0.031 A 
ATOM     39  C   UNL     1       7.509   3.592   8.807  1.00  0.00     0.074 A 
ATOM     40  C   UNL     1       6.658   1.274   8.697  1.00  0.00     0.049 A 
ATOM     41  N   UNL     1       8.726   3.390   9.245  1.00  0.00    -0.248 NA
ATOM     42  C   UNL     1       7.187   5.008   8.567  1.00  0.00     0.031 C 
ATOM     43  C   UNL     1       5.716   0.193   8.398  1.00  0.00     0.029 A 
ATOM     44  N   UNL     1       7.759   0.623   9.196  1.00  0.00    -0.354 N 
ATOM     45  C   UNL     1       9.319   4.646   9.312  1.00  0.00     0.074 A 
ATOM     46  C   UNL     1       8.345   5.598   8.824  1.00  0.00     0.031 C 
ATOM     47  C   UNL     1       6.269  -0.982   8.743  1.00  0.00     0.029 A 
ATOM     48  C   UNL     1       7.615  -0.744   9.255  1.00  0.00     0.049 A 
ATOM     49  H   UNL     1       8.576   1.090   9.485  1.00  0.00     0.167 HD
ATOM     50  C   UNL     1      10.552   4.981   9.762  1.00  0.00     0.037 A 
ATOM     51  C   UNL     1       8.470  -1.698   9.672  1.00  0.00     0.037 A 
ATOM     52  C   UNL     1      11.506   4.040  10.288  1.00  0.00     0.049 A 
ATOM     53  C   UNL     1       9.825  -1.300  10.189  1.00  0.00     0.074 A 
ATOM     54  C   UNL     1      12.760   4.289  10.819  1.00  0.00     0.029 A 
ATOM     55  N   UNL     1      11.309   2.669  10.356  1.00  0.00    -0.354 N 
ATOM     56  N   UNL     1      10.351  -0.103  10.285  1.00  0.00    -0.248 NA
ATOM     57  C   UNL     1      10.702  -2.383  10.659  1.00  0.00     0.031 C 
ATOM     58  C   UNL     1      13.332   3.065  11.185  1.00  0.00     0.029 A 
ATOM     59  C   UNL     1      12.420   2.058  10.913  1.00  0.00     0.049 A 
ATOM     60  H   UNL     1      10.498   2.199  10.054  1.00  0.00     0.167 HD
ATOM     61  C   UNL     1      11.610  -0.285  10.847  1.00  0.00     0.074 A 
ATOM     62  C   UNL     1      11.762  -1.706  11.080  1.00  0.00     0.031 C 
ATOM     63  C   UNL     1      12.553   0.642  11.145  1.00  0.00     0.037 A 
BRANCH  50  64
ATOM     64  C   UNL     1      10.935   6.435   9.717  1.00  0.00     0.058 A 
ATOM     65  C   UNL     1      10.364   7.372  10.595  1.00  0.00     0.135 A 
ATOM     66  C   UNL     1      11.898   6.895   8.805  1.00  0.00     0.135 A 
ATOM     67  F   UNL     1       9.428   6.988  11.477  1.00  0.00    -0.206 F 
ATOM     68  C   UNL     1      10.710   8.718  10.547  1.00  0.00     0.059 A 
ATOM     69  C   UNL     1      12.278   8.233   8.757  1.00  0.00     0.059 A 
ATOM     70  F   UNL     1      12.475   6.042   7.944  1.00  0.00    -0.206 F 
ATOM     71  C   UNL     1      11.665   9.140   9.621  1.00  0.00     0.060 A 
BRANCH  71  72
ATOM     72  S   UNL     1      12.101  10.891   9.567  1.00  0.00     0.124 S 
ATOM     73  O   UNL     1      10.943  11.456   8.880  1.00  0.00    -0.237 OA
ATOM     74  O   UNL     1      12.225  11.229  10.981  1.00  0.00    -0.237 OA
ATOM     75  O   UNL     1      13.349  10.907   8.810  1.00  0.00    -0.744 OA
ENDBRANCH  71  72
ENDBRANCH  50  64
BRANCH  51  76
ATOM     76  C   UNL     1       8.055  -3.125   9.650  1.00  0.00     0.058 A 
ATOM     77  C   UNL     1       7.756  -3.804  10.841  1.00  0.00     0.135 A 
ATOM     78  C   UNL     1       7.932  -3.832   8.444  1.00  0.00     0.135 A 
ATOM     79  F   UNL     1       7.867  -3.171  12.019  1.00  0.00    -0.206 F 
ATOM     80  C   UNL     1       7.361  -5.138  10.840  1.00  0.00     0.059 A 
ATOM     81  C   UNL     1       7.518  -5.160   8.416  1.00  0.00     0.059 A 
ATOM     82  F   UNL     1       8.191  -3.221   7.278  1.00  0.00    -0.206 F 
ATOM     83  C   UNL     1       7.243  -5.807   9.620  1.00  0.00     0.060 A 
BRANCH  83  84
ATOM     84  S   UNL     1       6.672  -7.521   9.623  1.00  0.00     0.124 S 
ATOM     85  O   UNL     1       7.869  -8.227  10.065  1.00  0.00    -0.237 OA
ATOM     86  O   UNL     1       5.567  -7.477  10.576  1.00  0.00    -0.237 OA
ATOM     87  O   UNL     1       6.282  -7.744   8.234  1.00  0.00    -0.744 OA
ENDBRANCH  83  84
ENDBRANCH  51  76
BRANCH  63  88
ATOM     88  C   UNL     1      13.824   0.154  11.780  1.00  0.00     0.058 A 
ATOM     89  C   UNL     1      14.809  -0.513  11.037  1.00  0.00     0.135 A 
ATOM     90  C   UNL     1      14.078   0.397  13.140  1.00  0.00     0.135 A 
ATOM     91  F   UNL     1      14.610  -0.776   9.735  1.00  0.00    -0.206 F 
ATOM     92  C   UNL     1      15.995  -0.942  11.623  1.00  0.00     0.059 A 
ATOM     93  C   UNL     1      15.266  -0.002  13.742  1.00  0.00     0.059 A 
ATOM     94  F   UNL     1      13.171   1.040  13.892  1.00  0.00    -0.206 F 
ATOM     95  C   UNL     1      16.214  -0.682  12.978  1.00  0.00     0.060 A 
BRANCH  95  96
ATOM     96  S   UNL     1      17.770  -1.214  13.723  1.00  0.00     0.124 S 
ATOM     97  O   UNL     1      17.539  -2.644  13.895  1.00  0.00    -0.237 OA
ATOM     98  O   UNL     1      18.749  -0.848  12.704  1.00  0.00    -0.237 OA
ATOM     99  O   UNL     1      17.839  -0.435  14.956  1.00  0.00    -0.744 OA
ENDBRANCH  95  96
ENDBRANCH  63  88
ENDBRANCH  37  38
ENDBRANCH  29  32
ENDBRANCH  27  28
ENDBRANCH   1  27
TORSDOF 15
