REMARK SMILES C[C@H]1[C@H](C(=O)NCCCNC(=O)c2ccc(-c3c4nc(c(-c5c(F)cc(S(=O)(=O)[O-])cc5F)c5ccc([nH]5)c(-c5c(F)cc(S(=O)(=O)[O-])cc5F)c5nc(c(-c6c(F)cc(S(=O)(=O)[O-])cc6F)c6ccc3[nH]6)C=C5)C=C4)cc2)CCN1C(=O)COc1ccccc1F
REMARK SMILES IDX 7 1 6 2 4 3 5 4 3 6 1 7 2 8 81 9 79 10 80 11 82 12 83 13
REMARK SMILES IDX 84 14 85 15 86 16 87 17 91 18 88 19 90 20 92 21 89 22 8 23
REMARK SMILES IDX 9 24 10 25 11 26 12 28 13 29 14 30 78 31 15 32 77 33 16 34
REMARK SMILES IDX 17 35 18 36 71 37 19 38 76 39 70 40 72 41 20 42 75 43 69 44
REMARK SMILES IDX 68 45 21 47 55 48 34 49 54 50 35 51 38 52 53 53 73 54 36 55
REMARK SMILES IDX 37 56 52 58 74 59 39 60 22 61 23 62 32 63 24 64 25 65 31 66
REMARK SMILES IDX 33 67 26 68 27 69 28 70 29 71 30 72 56 73 57 74 66 75 58 76
REMARK SMILES IDX 59 77 65 78 67 79 60 80 61 81 62 82 63 83 64 84 40 85 41 86
REMARK SMILES IDX 50 87 42 88 43 89 49 90 51 91 44 92 45 93 46 94 47 95 48 96
REMARK H PARENT 6 5 10 27 72 46 38 57
REMARK Flexibility Score: inf
ROOT
ATOM      1  C   UNL     1      -1.173   0.651   2.922  1.00  0.00     0.117 C 
ENDROOT
BRANCH   1   2
ATOM      2  N   UNL     1      -0.624   1.912   2.450  1.00  0.00    -0.356 N 
ATOM      3  C   UNL     1      -0.137   2.281   1.237  1.00  0.00     0.225 C 
ATOM      4  O   UNL     1       0.282   3.437   1.121  1.00  0.00    -0.275 OA
ATOM      5  H   UNL     1      -0.601   2.624   3.129  1.00  0.00     0.163 HD
BRANCH   3   6
ATOM      6  C   UNL     1      -0.096   1.340   0.048  1.00  0.00     0.102 C 
ATOM      7  C   UNL     1       1.972   0.192  -0.754  1.00  0.00     0.032 C 
ATOM      8  C   UNL     1       0.836   0.131   0.268  1.00  0.00     0.094 C 
ATOM      9  N   UNL     1      -0.044  -1.031   0.120  1.00  0.00    -0.336 N 
ATOM     10  C   UNL     1      -1.466   0.803  -0.363  1.00  0.00     0.037 C 
ATOM     11  C   UNL     1      -1.268  -0.683  -0.574  1.00  0.00     0.121 C 
BRANCH   9  12
ATOM     12  C   UNL     1       0.083  -2.299   0.655  1.00  0.00     0.260 C 
ATOM     13  O   UNL     1      -0.908  -3.022   0.813  1.00  0.00    -0.271 OA
BRANCH  12  14
ATOM     14  C   UNL     1       1.463  -2.821   1.076  1.00  0.00     0.329 C 
BRANCH  14  15
ATOM     15  O   UNL     1       2.616  -2.639   0.283  1.00  0.00    -0.481 OA
BRANCH  15  16
ATOM     16  C   UNL     1       2.734  -3.285  -0.916  1.00  0.00     0.155 A 
ATOM     17  C   UNL     1       4.056  -3.558  -1.286  1.00  0.00     0.049 A 
ATOM     18  C   UNL     1       1.723  -3.573  -1.833  1.00  0.00     0.165 A 
ATOM     19  C   UNL     1       4.355  -4.104  -2.539  1.00  0.00     0.004 A 
ATOM     20  C   UNL     1       2.016  -4.105  -3.090  1.00  0.00     0.043 A 
ATOM     21  F   UNL     1       0.439  -3.300  -1.593  1.00  0.00    -0.203 F 
ATOM     22  C   UNL     1       3.334  -4.369  -3.447  1.00  0.00     0.003 A 
ENDBRANCH  15  16
ENDBRANCH  14  15
ENDBRANCH  12  14
ENDBRANCH   9  12
ENDBRANCH   3   6
ENDBRANCH   1   2
BRANCH   1  23
ATOM     23  C   UNL     1      -0.269  -0.026   3.943  1.00  0.00     0.042 C 
BRANCH  23  24
ATOM     24  C   UNL     1      -0.129   0.748   5.247  1.00  0.00     0.118 C 
BRANCH  24  25
ATOM     25  N   UNL     1      -1.399   0.896   5.947  1.00  0.00    -0.352 N 
ATOM     26  C   UNL     1      -1.773   0.468   7.193  1.00  0.00     0.251 C 
ATOM     27  H   UNL     1      -2.095   1.378   5.446  1.00  0.00     0.163 HD
ATOM     28  O   UNL     1      -2.965   0.519   7.513  1.00  0.00    -0.269 OA
BRANCH  26  29
ATOM     29  C   UNL     1      -0.775  -0.060   8.145  1.00  0.00     0.039 A 
ATOM     30  C   UNL     1      -1.112  -1.163   8.934  1.00  0.00     0.014 A 
ATOM     31  C   UNL     1       0.479   0.541   8.285  1.00  0.00     0.014 A 
ATOM     32  C   UNL     1      -0.171  -1.696   9.818  1.00  0.00     0.010 A 
ATOM     33  C   UNL     1       1.444  -0.043   9.101  1.00  0.00     0.010 A 
ATOM     34  C   UNL     1       1.127  -1.162   9.883  1.00  0.00    -0.014 A 
BRANCH  34  35
ATOM     35  C   UNL     1       2.159  -1.764  10.765  1.00  0.00     0.031 A 
ATOM     36  C   UNL     1       2.754  -0.966  11.895  1.00  0.00     0.074 A 
ATOM     37  C   UNL     1       2.600  -3.012  10.513  1.00  0.00     0.049 A 
ATOM     38  N   UNL     1       3.694  -1.304  12.739  1.00  0.00    -0.248 NA
ATOM     39  C   UNL     1       2.246   0.403  12.082  1.00  0.00     0.031 C 
ATOM     40  C   UNL     1       2.146  -3.862   9.409  1.00  0.00     0.029 A 
ATOM     41  N   UNL     1       3.533  -3.781  11.160  1.00  0.00    -0.354 N 
ATOM     42  C   UNL     1       3.895  -0.193  13.550  1.00  0.00     0.074 A 
ATOM     43  C   UNL     1       3.024   0.851  13.056  1.00  0.00     0.031 C 
ATOM     44  C   UNL     1       2.783  -5.042   9.471  1.00  0.00     0.029 A 
ATOM     45  C   UNL     1       3.715  -5.021  10.594  1.00  0.00     0.049 A 
ATOM     46  H   UNL     1       4.027  -3.474  11.955  1.00  0.00     0.167 HD
ATOM     47  C   UNL     1       4.710  -0.063  14.624  1.00  0.00     0.037 A 
ATOM     48  C   UNL     1       4.542  -6.027  10.938  1.00  0.00     0.037 A 
ATOM     49  C   UNL     1       5.560  -1.114  15.121  1.00  0.00     0.049 A 
ATOM     50  C   UNL     1       5.426  -5.866  12.143  1.00  0.00     0.074 A 
ATOM     51  C   UNL     1       6.386  -1.101  16.232  1.00  0.00     0.029 A 
ATOM     52  N   UNL     1       5.695  -2.366  14.539  1.00  0.00    -0.354 N 
ATOM     53  N   UNL     1       5.557  -4.830  12.937  1.00  0.00    -0.248 NA
ATOM     54  C   UNL     1       6.267  -7.014  12.507  1.00  0.00     0.031 C 
ATOM     55  C   UNL     1       7.050  -2.331  16.298  1.00  0.00     0.029 A 
ATOM     56  C   UNL     1       6.601  -3.129  15.258  1.00  0.00     0.049 A 
ATOM     57  H   UNL     1       5.216  -2.669  13.734  1.00  0.00     0.167 HD
ATOM     58  C   UNL     1       6.481  -5.207  13.905  1.00  0.00     0.074 A 
ATOM     59  C   UNL     1       6.859  -6.574  13.609  1.00  0.00     0.031 C 
ATOM     60  C   UNL     1       6.971  -4.487  14.945  1.00  0.00     0.037 A 
BRANCH  47  61
ATOM     61  C   UNL     1       4.711   1.262  15.339  1.00  0.00     0.058 A 
ATOM     62  C   UNL     1       3.602   1.697  16.083  1.00  0.00     0.135 A 
ATOM     63  C   UNL     1       5.839   2.098  15.301  1.00  0.00     0.135 A 
ATOM     64  F   UNL     1       2.490   0.947  16.142  1.00  0.00    -0.206 F 
ATOM     65  C   UNL     1       3.597   2.926  16.734  1.00  0.00     0.059 A 
ATOM     66  C   UNL     1       5.868   3.319  15.970  1.00  0.00     0.059 A 
ATOM     67  F   UNL     1       6.928   1.733  14.605  1.00  0.00    -0.206 F 
ATOM     68  C   UNL     1       4.735   3.732  16.670  1.00  0.00     0.060 A 
BRANCH  68  69
ATOM     69  S   UNL     1       4.712   5.325  17.518  1.00  0.00     0.124 S 
ATOM     70  O   UNL     1       3.836   6.104  16.649  1.00  0.00    -0.237 OA
ATOM     71  O   UNL     1       4.162   4.976  18.824  1.00  0.00    -0.237 OA
ATOM     72  O   UNL     1       6.114   5.730  17.521  1.00  0.00    -0.744 OA
ENDBRANCH  68  69
ENDBRANCH  47  61
BRANCH  48  73
ATOM     73  C   UNL     1       4.549  -7.282  10.140  1.00  0.00     0.058 A 
ATOM     74  C   UNL     1       4.015  -8.472  10.657  1.00  0.00     0.135 A 
ATOM     75  C   UNL     1       5.065  -7.310   8.835  1.00  0.00     0.135 A 
ATOM     76  F   UNL     1       3.514  -8.496  11.902  1.00  0.00    -0.206 F 
ATOM     77  C   UNL     1       4.005  -9.649   9.916  1.00  0.00     0.059 A 
ATOM     78  C   UNL     1       5.043  -8.468   8.065  1.00  0.00     0.059 A 
ATOM     79  F   UNL     1       5.569  -6.194   8.287  1.00  0.00    -0.206 F 
ATOM     80  C   UNL     1       4.519  -9.636   8.618  1.00  0.00     0.060 A 
BRANCH  80  81
ATOM     81  S   UNL     1       4.450 -11.155   7.643  1.00  0.00     0.124 S 
ATOM     82  O   UNL     1       5.497 -11.953   8.270  1.00  0.00    -0.237 OA
ATOM     83  O   UNL     1       3.081 -11.604   7.872  1.00  0.00    -0.237 OA
ATOM     84  O   UNL     1       4.733 -10.695   6.287  1.00  0.00    -0.744 OA
ENDBRANCH  80  81
ENDBRANCH  48  73
BRANCH  60  85
ATOM     85  C   UNL     1       7.956  -5.174  15.851  1.00  0.00     0.058 A 
ATOM     86  C   UNL     1       9.268  -5.456  15.436  1.00  0.00     0.135 A 
ATOM     87  C   UNL     1       7.592  -5.529  17.160  1.00  0.00     0.135 A 
ATOM     88  F   UNL     1       9.665  -5.141  14.193  1.00  0.00    -0.206 F 
ATOM     89  C   UNL     1      10.173  -6.096  16.275  1.00  0.00     0.059 A 
ATOM     90  C   UNL     1       8.490  -6.145  18.026  1.00  0.00     0.059 A 
ATOM     91  F   UNL     1       6.354  -5.272  17.611  1.00  0.00    -0.206 F 
ATOM     92  C   UNL     1       9.774  -6.439  17.569  1.00  0.00     0.060 A 
BRANCH  92  93
ATOM     93  S   UNL     1      10.962  -7.259  18.653  1.00  0.00     0.124 S 
ATOM     94  O   UNL     1      10.983  -8.608  18.098  1.00  0.00    -0.237 OA
ATOM     95  O   UNL     1      12.172  -6.469  18.446  1.00  0.00    -0.237 OA
ATOM     96  O   UNL     1      10.358  -7.132  19.976  1.00  0.00    -0.744 OA
ENDBRANCH  92  93
ENDBRANCH  60  85
ENDBRANCH  34  35
ENDBRANCH  26  29
ENDBRANCH  24  25
ENDBRANCH  23  24
ENDBRANCH   1  23
TORSDOF 17
