REMARK SMILES Cc1ccccc1C(=O)Nc1ccc(N2CCC(n3c(C)nc4cccnc43)CC2)c(C(=O)NCCCNC(=O)c2ccc(-c3c4nc(c(-c5c(F)cc(S(=O)(=O)[O-])cc5F)c5ccc([nH]5)c(-c5c(F)cc(S(=O)(=O)[O-])cc5F)c5nc(c(-c6c(F)cc(S(=O)(=O)[O-])cc6F)c6ccc3[nH]6)C=C5)C=C4)cc2)c1
REMARK SMILES IDX 36 1 35 2 34 3 32 4 33 5 31 7 11 8 12 9 107 10 13 11 14 12
REMARK SMILES IDX 10 13 8 14 9 15 7 17 1 18 2 19 3 20 4 21 6 22 5 23 15 24
REMARK SMILES IDX 16 25 30 26 17 27 29 28 18 29 19 30 20 31 28 32 21 33 22 34
REMARK SMILES IDX 23 35 27 36 24 37 26 38 25 39 37 40 38 41 39 42 40 44 41 45
REMARK SMILES IDX 42 46 106 47 43 48 105 49 44 50 45 51 46 52 99 53 47 54
REMARK SMILES IDX 104 55 98 56 100 57 48 58 103 59 97 60 96 61 49 63 83 64
REMARK SMILES IDX 62 65 82 66 63 67 66 68 81 69 101 70 64 71 65 72 80 74
REMARK SMILES IDX 102 75 67 76 50 77 51 78 60 79 52 80 53 81 59 82 61 83 54 84
REMARK SMILES IDX 55 85 56 86 57 87 58 88 84 89 85 90 94 91 86 92 87 93 93 94
REMARK SMILES IDX 95 95 88 96 89 97 90 98 91 99 92 100 68 101 69 102 78 103
REMARK SMILES IDX 70 104 71 105 77 106 79 107 72 108 73 109 74 110 75 111
REMARK SMILES IDX 76 112
REMARK H PARENT 34 6 10 16 38 43 100 62 66 73
REMARK Flexibility Score: inf
ROOT
ATOM      1  C   UNL     1       8.553  -2.327   0.053  1.00  0.00     0.042 C 
ENDROOT
BRANCH   1   2
ATOM      2  C   UNL     1       7.435  -2.453   1.059  1.00  0.00     0.118 C 
BRANCH   2   3
ATOM      3  N   UNL     1       7.011  -1.184   1.616  1.00  0.00    -0.352 N 
ATOM      4  C   UNL     1       6.011  -0.274   1.450  1.00  0.00     0.253 C 
ATOM      5  O   UNL     1       6.003   0.602   2.329  1.00  0.00    -0.269 OA
ATOM      6  H   UNL     1       7.630  -0.892   2.324  1.00  0.00     0.163 HD
BRANCH   4   7
ATOM      7  C   UNL     1       4.976  -0.167   0.362  1.00  0.00     0.065 A 
ATOM      8  C   UNL     1       3.194   1.370  -0.375  1.00  0.00     0.042 A 
ATOM      9  C   UNL     1       2.828   0.498  -1.379  1.00  0.00     0.028 A 
ATOM     10  C   UNL     1       4.348   1.111   0.364  1.00  0.00     0.042 A 
ATOM     11  C   UNL     1       3.480  -0.730  -1.468  1.00  0.00     0.029 A 
ATOM     12  C   UNL     1       4.457  -1.141  -0.520  1.00  0.00     0.050 A 
BRANCH   8  13
ATOM     13  N   UNL     1       2.385   2.432   0.051  1.00  0.00    -0.322 N 
ATOM     14  C   UNL     1       1.013   2.485   0.206  1.00  0.00     0.255 C 
ATOM     15  O   UNL     1       0.488   3.564   0.492  1.00  0.00    -0.269 OA
ATOM     16  H   UNL     1       2.865   3.262   0.272  1.00  0.00     0.170 HD
BRANCH  14  17
ATOM     17  C   UNL     1       0.125   1.284   0.105  1.00  0.00     0.043 A 
ATOM     18  C   UNL     1       1.460  -0.239   1.701  1.00  0.00     0.045 C 
ATOM     19  C   UNL     1       0.338   0.046   0.746  1.00  0.00    -0.038 A 
ATOM     20  C   UNL     1      -0.569  -1.008   0.514  1.00  0.00     0.004 A 
ATOM     21  C   UNL     1      -1.732  -0.808  -0.225  1.00  0.00     0.000 A 
ATOM     22  C   UNL     1      -1.076   1.481  -0.600  1.00  0.00     0.014 A 
ATOM     23  C   UNL     1      -2.003   0.448  -0.753  1.00  0.00     0.001 A 
ENDBRANCH  14  17
ENDBRANCH   8  13
BRANCH  12  24
ATOM     24  N   UNL     1       4.597  -2.524  -0.401  1.00  0.00    -0.371 N 
ATOM     25  C   UNL     1       5.147  -3.277  -1.520  1.00  0.00     0.118 C 
ATOM     26  C   UNL     1       4.211  -3.112   0.878  1.00  0.00     0.118 C 
ATOM     27  C   UNL     1       4.798  -4.753  -1.482  1.00  0.00     0.047 C 
ATOM     28  C   UNL     1       4.016  -4.613   0.848  1.00  0.00     0.047 C 
ATOM     29  C   UNL     1       4.953  -5.377  -0.083  1.00  0.00     0.094 C 
BRANCH  29  30
ATOM     30  N   UNL     1       4.727  -6.830  -0.141  1.00  0.00    -0.310 N 
ATOM     31  C   UNL     1       3.818  -7.653   0.510  1.00  0.00     0.108 A 
ATOM     32  C   UNL     1       5.491  -7.657  -0.939  1.00  0.00     0.160 A 
ATOM     33  C   UNL     1       2.948  -7.292   1.657  1.00  0.00     0.088 C 
ATOM     34  N   UNL     1       3.843  -8.880   0.013  1.00  0.00    -0.232 NA
ATOM     35  C   UNL     1       4.923  -8.914  -0.819  1.00  0.00     0.108 A 
ATOM     36  N   UNL     1       6.553  -7.313  -1.694  1.00  0.00    -0.237 NA
ATOM     37  C   UNL     1       5.503  -9.973  -1.524  1.00  0.00     0.034 A 
ATOM     38  C   UNL     1       7.121  -8.380  -2.305  1.00  0.00     0.113 A 
ATOM     39  C   UNL     1       6.648  -9.688  -2.268  1.00  0.00     0.022 A 
ENDBRANCH  29  30
ENDBRANCH  12  24
ENDBRANCH   4   7
ENDBRANCH   2   3
ENDBRANCH   1   2
BRANCH   1  40
ATOM     40  C   UNL     1       9.505  -3.510   0.151  1.00  0.00     0.118 C 
BRANCH  40  41
ATOM     41  N   UNL     1       9.132  -4.753  -0.525  1.00  0.00    -0.352 N 
ATOM     42  C   UNL     1       9.959  -5.870  -0.684  1.00  0.00     0.251 C 
ATOM     43  H   UNL     1       8.223  -4.808  -0.899  1.00  0.00     0.163 HD
ATOM     44  O   UNL     1       9.675  -6.835  -1.365  1.00  0.00    -0.269 OA
BRANCH  42  45
ATOM     45  C   UNL     1      11.251  -5.830   0.033  1.00  0.00     0.039 A 
ATOM     46  C   UNL     1      11.321  -6.467   1.276  1.00  0.00     0.014 A 
ATOM     47  C   UNL     1      12.121  -4.806  -0.316  1.00  0.00     0.014 A 
ATOM     48  C   UNL     1      12.101  -5.899   2.277  1.00  0.00     0.010 A 
ATOM     49  C   UNL     1      12.783  -4.171   0.714  1.00  0.00     0.010 A 
ATOM     50  C   UNL     1      12.721  -4.678   2.026  1.00  0.00    -0.014 A 
BRANCH  50  51
ATOM     51  C   UNL     1      13.185  -3.772   3.076  1.00  0.00     0.031 A 
ATOM     52  C   UNL     1      14.595  -3.307   3.069  1.00  0.00     0.074 A 
ATOM     53  C   UNL     1      12.306  -3.228   3.955  1.00  0.00     0.049 A 
ATOM     54  N   UNL     1      15.132  -2.621   4.019  1.00  0.00    -0.248 NA
ATOM     55  C   UNL     1      15.550  -3.632   2.005  1.00  0.00     0.031 C 
ATOM     56  C   UNL     1      12.489  -2.008   4.742  1.00  0.00     0.029 A 
ATOM     57  N   UNL     1      11.131  -3.787   4.471  1.00  0.00    -0.354 N 
ATOM     58  C   UNL     1      16.331  -2.143   3.556  1.00  0.00     0.074 A 
ATOM     59  C   UNL     1      16.605  -2.892   2.359  1.00  0.00     0.031 C 
ATOM     60  C   UNL     1      11.641  -2.018   5.779  1.00  0.00     0.029 A 
ATOM     61  C   UNL     1      10.981  -3.309   5.792  1.00  0.00     0.049 A 
ATOM     62  H   UNL     1      10.521  -4.400   4.001  1.00  0.00     0.167 HD
ATOM     63  C   UNL     1      16.882  -1.061   4.165  1.00  0.00     0.037 A 
ATOM     64  C   UNL     1      10.986  -4.161   6.861  1.00  0.00     0.037 A 
ATOM     65  C   UNL     1      16.305  -0.863   5.493  1.00  0.00     0.049 A 
ATOM     66  C   UNL     1      12.157  -3.987   7.803  1.00  0.00     0.074 A 
ATOM     67  C   UNL     1      15.460   0.075   6.056  1.00  0.00     0.029 A 
ATOM     68  N   UNL     1      16.394  -1.910   6.410  1.00  0.00    -0.354 N 
ATOM     69  N   UNL     1      13.155  -3.173   7.591  1.00  0.00    -0.248 NA
ATOM     70  C   UNL     1      12.322  -4.743   9.044  1.00  0.00     0.031 C 
ATOM     71  C   UNL     1      14.926  -0.490   7.252  1.00  0.00     0.029 A 
ATOM     72  C   UNL     1      15.494  -1.740   7.443  1.00  0.00     0.049 A 
ATOM     73  H   UNL     1      17.015  -2.669   6.331  1.00  0.00     0.167 HD
ATOM     74  C   UNL     1      14.123  -3.368   8.542  1.00  0.00     0.074 A 
ATOM     75  C   UNL     1      13.524  -4.312   9.466  1.00  0.00     0.031 C 
ATOM     76  C   UNL     1      15.353  -2.777   8.461  1.00  0.00     0.037 A 
BRANCH  63  77
ATOM     77  C   UNL     1      17.821  -0.092   3.481  1.00  0.00     0.058 A 
ATOM     78  C   UNL     1      18.485   0.906   4.223  1.00  0.00     0.135 A 
ATOM     79  C   UNL     1      17.992   0.000   2.079  1.00  0.00     0.135 A 
ATOM     80  F   UNL     1      18.374   0.959   5.558  1.00  0.00    -0.206 F 
ATOM     81  C   UNL     1      19.259   1.909   3.623  1.00  0.00     0.059 A 
ATOM     82  C   UNL     1      18.801   0.956   1.464  1.00  0.00     0.059 A 
ATOM     83  F   UNL     1      17.323  -0.785   1.225  1.00  0.00    -0.206 F 
ATOM     84  C   UNL     1      19.413   1.924   2.241  1.00  0.00     0.060 A 
BRANCH  84  85
ATOM     85  S   UNL     1      20.381   3.228   1.457  1.00  0.00     0.124 S 
ATOM     86  O   UNL     1      19.491   4.377   1.580  1.00  0.00    -0.237 OA
ATOM     87  O   UNL     1      21.587   3.262   2.277  1.00  0.00    -0.237 OA
ATOM     88  O   UNL     1      20.574   2.733   0.095  1.00  0.00    -0.744 OA
ENDBRANCH  84  85
ENDBRANCH  63  77
BRANCH  64  89
ATOM     89  C   UNL     1      10.241  -5.421   6.593  1.00  0.00     0.058 A 
ATOM     90  C   UNL     1       8.841  -5.312   6.503  1.00  0.00     0.135 A 
ATOM     91  C   UNL     1      10.855  -6.500   5.942  1.00  0.00     0.135 A 
ATOM     92  F   UNL     1       8.202  -4.316   7.139  1.00  0.00    -0.206 F 
ATOM     93  C   UNL     1       8.107  -6.102   5.630  1.00  0.00     0.059 A 
ATOM     94  C   UNL     1      10.134  -7.311   5.062  1.00  0.00     0.059 A 
ATOM     95  F   UNL     1      12.185  -6.660   6.007  1.00  0.00    -0.206 F 
ATOM     96  C   UNL     1       8.781  -7.037   4.849  1.00  0.00     0.060 A 
BRANCH  96  97
ATOM     97  S   UNL     1       7.910  -7.688   3.401  1.00  0.00     0.124 S 
ATOM     98  O   UNL     1       6.757  -8.339   4.012  1.00  0.00    -0.237 OA
ATOM     99  O   UNL     1       7.623  -6.456   2.664  1.00  0.00    -0.237 OA
ATOM    100  O   UNL     1       8.896  -8.573   2.793  1.00  0.00    -0.744 OA
ENDBRANCH  96  97
ENDBRANCH  64  89
BRANCH  76 101
ATOM    101  C   UNL     1      16.538  -3.103   9.345  1.00  0.00     0.058 A 
ATOM    102  C   UNL     1      16.794  -4.372   9.895  1.00  0.00     0.135 A 
ATOM    103  C   UNL     1      17.551  -2.136   9.552  1.00  0.00     0.135 A 
ATOM    104  F   UNL     1      15.973  -5.408   9.671  1.00  0.00    -0.206 F 
ATOM    105  C   UNL     1      17.931  -4.642  10.663  1.00  0.00     0.059 A 
ATOM    106  C   UNL     1      18.719  -2.400  10.265  1.00  0.00     0.059 A 
ATOM    107  F   UNL     1      17.438  -0.895   9.054  1.00  0.00    -0.206 F 
ATOM    108  C   UNL     1      18.887  -3.648  10.846  1.00  0.00     0.060 A 
BRANCH 108 109
ATOM    109  S   UNL     1      20.380  -3.993  11.796  1.00  0.00     0.124 S 
ATOM    110  O   UNL     1      19.991  -3.534  13.126  1.00  0.00    -0.237 OA
ATOM    111  O   UNL     1      20.537  -5.437  11.650  1.00  0.00    -0.237 OA
ATOM    112  O   UNL     1      21.394  -3.190  11.120  1.00  0.00    -0.744 OA
ENDBRANCH 108 109
ENDBRANCH  76 101
ENDBRANCH  50  51
ENDBRANCH  42  45
ENDBRANCH  40  41
ENDBRANCH   1  40
TORSDOF 17
