REMARK SMILES O=C(NCCCNC(=O)[C@H]1C[N@H+](Cc2ccc(Cl)c(Cl)c2)CC12CCCCC2)c1ccc(-c2c3nc(c(-c4c(F)cc(S(=O)(=O)[O-])cc4F)c4ccc([nH]4)c(-c4c(F)cc(S(=O)(=O)[O-])cc4F)c4nc(c(-c5c(F)cc(S(=O)(=O)[O-])cc5F)c5ccc2[nH]5)C=C4)C=C3)cc1
REMARK SMILES IDX 4 1 3 2 1 3 2 4 29 6 30 7 94 8 31 9 93 10 32 11 33 12 34 13
REMARK SMILES IDX 87 14 35 15 92 16 86 17 88 18 36 19 91 20 85 21 84 22 37 24
REMARK SMILES IDX 71 25 50 26 70 27 51 28 54 29 69 30 89 31 52 32 53 33 68 35
REMARK SMILES IDX 90 36 55 37 38 38 39 39 48 40 40 41 41 42 47 43 49 44 42 45
REMARK SMILES IDX 43 46 44 47 45 48 46 49 72 50 73 51 82 52 74 53 75 54 81 55
REMARK SMILES IDX 83 56 76 57 77 58 78 59 79 60 80 61 56 62 57 63 66 64 58 65
REMARK SMILES IDX 59 66 65 67 67 68 60 69 61 70 62 71 63 72 64 73 5 74 6 75
REMARK SMILES IDX 7 76 8 77 9 79 10 80 11 81 23 82 12 83 22 84 24 85 28 86
REMARK SMILES IDX 25 88 27 89 26 90 13 91 14 92 15 93 21 94 16 95 19 96 17 97
REMARK SMILES IDX 20 98 18 99
REMARK H PARENT 3 5 88 23 54 34 7 78 12 87
REMARK Flexibility Score: inf
ROOT
ATOM      1  C   UNL     1       4.250  -0.893   0.909  1.00  0.00     0.118 C 
ENDROOT
BRANCH   1   2
ATOM      2  N   UNL     1       2.835  -0.911   0.583  1.00  0.00    -0.352 N 
ATOM      3  O   UNL     1       0.891  -0.077  -0.169  1.00  0.00    -0.269 OA
ATOM      4  C   UNL     1       2.121  -0.070  -0.229  1.00  0.00     0.251 C 
ATOM      5  H   UNL     1       2.314  -1.632   1.006  1.00  0.00     0.163 HD
BRANCH   4   6
ATOM      6  C   UNL     1       2.816   0.839  -1.165  1.00  0.00     0.039 A 
ATOM      7  C   UNL     1       3.926   0.405  -1.898  1.00  0.00     0.014 A 
ATOM      8  C   UNL     1       2.312   2.127  -1.357  1.00  0.00     0.014 A 
ATOM      9  C   UNL     1       4.598   1.289  -2.737  1.00  0.00     0.010 A 
ATOM     10  C   UNL     1       2.937   2.986  -2.264  1.00  0.00     0.010 A 
ATOM     11  C   UNL     1       4.091   2.578  -2.950  1.00  0.00    -0.014 A 
BRANCH  11  12
ATOM     12  C   UNL     1       4.717   3.468  -3.958  1.00  0.00     0.031 A 
ATOM     13  C   UNL     1       5.346   4.767  -3.549  1.00  0.00     0.074 A 
ATOM     14  C   UNL     1       4.663   3.115  -5.256  1.00  0.00     0.049 A 
ATOM     15  N   UNL     1       5.836   5.717  -4.301  1.00  0.00    -0.248 NA
ATOM     16  C   UNL     1       5.422   5.040  -2.106  1.00  0.00     0.031 C 
ATOM     17  C   UNL     1       4.067   1.877  -5.767  1.00  0.00     0.029 A 
ATOM     18  N   UNL     1       5.093   3.766  -6.383  1.00  0.00    -0.354 N 
ATOM     19  C   UNL     1       6.254   6.715  -3.429  1.00  0.00     0.074 A 
ATOM     20  C   UNL     1       5.941   6.260  -2.091  1.00  0.00     0.031 C 
ATOM     21  C   UNL     1       4.168   1.860  -7.104  1.00  0.00     0.029 A 
ATOM     22  C   UNL     1       4.775   3.110  -7.548  1.00  0.00     0.049 A 
ATOM     23  H   UNL     1       5.582   4.620  -6.361  1.00  0.00     0.167 HD
ATOM     24  C   UNL     1       6.842   7.899  -3.724  1.00  0.00     0.037 A 
ATOM     25  C   UNL     1       4.913   3.485  -8.834  1.00  0.00     0.037 A 
ATOM     26  C   UNL     1       7.146   8.333  -5.064  1.00  0.00     0.049 A 
ATOM     27  C   UNL     1       5.542   4.812  -9.141  1.00  0.00     0.074 A 
ATOM     28  C   UNL     1       7.779   9.495  -5.469  1.00  0.00     0.029 A 
ATOM     29  N   UNL     1       6.824   7.631  -6.218  1.00  0.00    -0.354 N 
ATOM     30  N   UNL     1       5.971   5.727  -8.306  1.00  0.00    -0.248 NA
ATOM     31  C   UNL     1       5.709   5.160 -10.557  1.00  0.00     0.031 C 
ATOM     32  C   UNL     1       7.794   9.519  -6.868  1.00  0.00     0.029 A 
ATOM     33  C   UNL     1       7.221   8.346  -7.336  1.00  0.00     0.049 A 
ATOM     34  H   UNL     1       6.378   6.753  -6.238  1.00  0.00     0.167 HD
ATOM     35  C   UNL     1       6.481   6.751  -9.093  1.00  0.00     0.074 A 
ATOM     36  C   UNL     1       6.307   6.342 -10.473  1.00  0.00     0.031 C 
ATOM     37  C   UNL     1       7.049   7.919  -8.705  1.00  0.00     0.037 A 
BRANCH  24  38
ATOM     38  C   UNL     1       7.155   8.822  -2.577  1.00  0.00     0.058 A 
ATOM     39  C   UNL     1       8.159   8.531  -1.640  1.00  0.00     0.135 A 
ATOM     40  C   UNL     1       6.433  10.015  -2.409  1.00  0.00     0.135 A 
ATOM     41  F   UNL     1       8.875   7.399  -1.744  1.00  0.00    -0.206 F 
ATOM     42  C   UNL     1       8.401   9.362  -0.550  1.00  0.00     0.059 A 
ATOM     43  C   UNL     1       6.677  10.876  -1.343  1.00  0.00     0.059 A 
ATOM     44  F   UNL     1       5.466  10.348  -3.279  1.00  0.00    -0.206 F 
ATOM     45  C   UNL     1       7.646  10.527  -0.404  1.00  0.00     0.060 A 
BRANCH  45  46
ATOM     46  S   UNL     1       7.934  11.568   1.042  1.00  0.00     0.124 S 
ATOM     47  O   UNL     1       7.299  10.781   2.095  1.00  0.00    -0.237 OA
ATOM     48  O   UNL     1       9.390  11.637   1.095  1.00  0.00    -0.237 OA
ATOM     49  O   UNL     1       7.262  12.818   0.701  1.00  0.00    -0.744 OA
ENDBRANCH  45  46
ENDBRANCH  24  38
BRANCH  25  50
ATOM     50  C   UNL     1       4.425   2.577  -9.903  1.00  0.00     0.058 A 
ATOM     51  C   UNL     1       5.319   1.835 -10.685  1.00  0.00     0.135 A 
ATOM     52  C   UNL     1       3.050   2.356 -10.089  1.00  0.00     0.135 A 
ATOM     53  F   UNL     1       6.642   2.014 -10.545  1.00  0.00    -0.206 F 
ATOM     54  C   UNL     1       4.870   0.896 -11.607  1.00  0.00     0.059 A 
ATOM     55  C   UNL     1       2.577   1.406 -10.987  1.00  0.00     0.059 A 
ATOM     56  F   UNL     1       2.155   3.028  -9.347  1.00  0.00    -0.206 F 
ATOM     57  C   UNL     1       3.497   0.678 -11.741  1.00  0.00     0.060 A 
BRANCH  57  58
ATOM     58  S   UNL     1       2.931  -0.620 -12.862  1.00  0.00     0.124 S 
ATOM     59  O   UNL     1       3.179  -0.013 -14.164  1.00  0.00    -0.237 OA
ATOM     60  O   UNL     1       3.800  -1.736 -12.501  1.00  0.00    -0.237 OA
ATOM     61  O   UNL     1       1.527  -0.788 -12.500  1.00  0.00    -0.744 OA
ENDBRANCH  57  58
ENDBRANCH  25  50
BRANCH  37  62
ATOM     62  C   UNL     1       7.569   8.834  -9.777  1.00  0.00     0.058 A 
ATOM     63  C   UNL     1       6.709   9.623 -10.555  1.00  0.00     0.135 A 
ATOM     64  C   UNL     1       8.953   8.997  -9.953  1.00  0.00     0.135 A 
ATOM     65  F   UNL     1       5.379   9.495 -10.434  1.00  0.00    -0.206 F 
ATOM     66  C   UNL     1       7.205  10.550 -11.467  1.00  0.00     0.059 A 
ATOM     67  C   UNL     1       9.470   9.934 -10.841  1.00  0.00     0.059 A 
ATOM     68  F   UNL     1       9.816   8.267  -9.229  1.00  0.00    -0.206 F 
ATOM     69  C   UNL     1       8.587  10.707 -11.594  1.00  0.00     0.060 A 
BRANCH  69  70
ATOM     70  S   UNL     1       9.217  11.975 -12.714  1.00  0.00     0.124 S 
ATOM     71  O   UNL     1       8.960  11.371 -14.018  1.00  0.00    -0.237 OA
ATOM     72  O   UNL     1       8.390  13.129 -12.376  1.00  0.00    -0.237 OA
ATOM     73  O   UNL     1      10.624  12.089 -12.342  1.00  0.00    -0.744 OA
ENDBRANCH  69  70
ENDBRANCH  37  62
ENDBRANCH  11  12
ENDBRANCH   4   6
ENDBRANCH   1   2
BRANCH   1  74
ATOM     74  C   UNL     1       4.490  -0.480   2.350  1.00  0.00     0.042 C 
BRANCH  74  75
ATOM     75  C   UNL     1       4.020  -1.513   3.365  1.00  0.00     0.117 C 
BRANCH  75  76
ATOM     76  N   UNL     1       4.831  -2.718   3.320  1.00  0.00    -0.356 N 
ATOM     77  C   UNL     1       5.833  -3.137   4.144  1.00  0.00     0.229 C 
ATOM     78  H   UNL     1       4.624  -3.328   2.576  1.00  0.00     0.163 HD
ATOM     79  O   UNL     1       6.383  -4.206   3.877  1.00  0.00    -0.275 OA
BRANCH  77  80
ATOM     80  C   UNL     1       6.217  -2.295   5.352  1.00  0.00     0.145 C 
ATOM     81  C   UNL     1       6.699  -3.198   6.488  1.00  0.00     0.276 C 
ATOM     82  C   UNL     1       7.338  -1.224   5.185  1.00  0.00     0.037 C 
ATOM     83  N   UNL     1       7.475  -2.334   7.368  1.00  0.00    -0.330 N 
ATOM     84  C   UNL     1       8.184  -1.403   6.484  1.00  0.00     0.270 C 
ATOM     85  C   UNL     1       8.189  -1.435   3.907  1.00  0.00     0.014 C 
ATOM     86  C   UNL     1       6.736   0.200   5.139  1.00  0.00     0.014 C 
ATOM     87  H   UNL     1       8.153  -2.881   7.898  1.00  0.00     0.348 HD
ATOM     88  C   UNL     1       9.186  -0.306   3.628  1.00  0.00     0.001 C 
ATOM     89  C   UNL     1       7.755   1.308   4.907  1.00  0.00     0.001 C 
ATOM     90  C   UNL     1       8.519   1.065   3.617  1.00  0.00     0.000 C 
BRANCH  83  91
ATOM     91  C   UNL     1       6.800  -1.794   8.554  1.00  0.00     0.299 C 
BRANCH  91  92
ATOM     92  C   UNL     1       5.684  -0.785   8.361  1.00  0.00     0.008 A 
ATOM     93  C   UNL     1       4.402  -1.187   7.957  1.00  0.00     0.011 A 
ATOM     94  C   UNL     1       5.931   0.588   8.531  1.00  0.00     0.031 A 
ATOM     95  C   UNL     1       3.443  -0.241   7.583  1.00  0.00     0.022 A 
ATOM     96  C   UNL     1       4.963   1.540   8.177  1.00  0.00     0.060 A 
ATOM     97  C   UNL     1       3.730   1.123   7.666  1.00  0.00     0.059 A 
ATOM     98  Cl  UNL     1       5.390   3.208   8.316  1.00  0.00    -0.083 Cl
ATOM     99  Cl  UNL     1       2.543   2.229   7.075  1.00  0.00    -0.083 Cl
ENDBRANCH  91  92
ENDBRANCH  83  91
ENDBRANCH  77  80
ENDBRANCH  75  76
ENDBRANCH  74  75
ENDBRANCH   1  74
TORSDOF 15
