REMARK SMILES C=CC[NH2+]CC(=O)N1CCOC[C@@H]1C(=O)NCCCNC(=O)c1ccc(-c2c3nc(c(-c4c(F)cc(S(=O)(=O)[O-])cc4F)c4ccc([nH]4)c(-c4c(F)cc(S(=O)(=O)[O-])cc4F)c4nc(c(-c5c(F)cc(S(=O)(=O)[O-])cc5F)c5ccc2[nH]5)C=C4)C=C3)cc1
REMARK SMILES IDX 17 1 16 2 14 3 15 4 13 6 8 7 9 8 10 9 12 10 11 11 6 12 7 13
REMARK SMILES IDX 5 14 4 15 3 18 2 19 1 20 18 21 19 22 20 23 21 24 22 26 23 27
REMARK SMILES IDX 24 28 88 29 25 30 87 31 26 32 27 33 28 34 81 35 29 36 86 37
REMARK SMILES IDX 80 38 82 39 30 40 85 41 79 42 78 43 31 45 65 46 44 47 64 48
REMARK SMILES IDX 45 49 48 50 63 51 83 52 46 53 47 54 62 56 84 57 49 58 32 59
REMARK SMILES IDX 33 60 42 61 34 62 35 63 41 64 43 65 36 66 37 67 38 68 39 69
REMARK SMILES IDX 40 70 66 71 67 72 76 73 68 74 69 75 75 76 77 77 70 78 71 79
REMARK SMILES IDX 72 80 73 81 74 82 50 83 51 84 60 85 52 86 53 87 59 88 61 89
REMARK SMILES IDX 54 90 55 91 56 92 57 93 58 94
REMARK H PARENT 16 5 4 16 4 17 20 25 82 44 48 55
REMARK Flexibility Score: inf
ROOT
ATOM      1  C   UNL     1      -7.172   1.495   1.671  1.00  0.00     0.117 C 
ENDROOT
BRANCH   1   2
ATOM      2  N   UNL     1      -6.834   0.677   0.522  1.00  0.00    -0.354 N 
ATOM      3  C   UNL     1      -5.713   0.509  -0.220  1.00  0.00     0.245 C 
ATOM      4  O   UNL     1      -5.774  -0.441  -1.014  1.00  0.00    -0.273 OA
ATOM      5  H   UNL     1      -7.585   0.121   0.213  1.00  0.00     0.163 HD
BRANCH   3   6
ATOM      6  C   UNL     1      -4.460   1.430  -0.220  1.00  0.00     0.200 C 
ATOM      7  N   UNL     1      -3.156   0.703  -0.249  1.00  0.00    -0.321 N 
ATOM      8  C   UNL     1      -2.035   1.643  -0.352  1.00  0.00     0.149 C 
ATOM      9  C   UNL     1      -2.029   2.550   0.866  1.00  0.00     0.181 C 
ATOM     10  C   UNL     1      -4.385   2.487   0.903  1.00  0.00     0.195 C 
ATOM     11  O   UNL     1      -3.223   3.334   0.843  1.00  0.00    -0.377 OA
BRANCH   7  12
ATOM     12  C   UNL     1      -3.015  -0.494  -0.960  1.00  0.00     0.278 C 
ATOM     13  O   UNL     1      -2.598  -0.541  -2.115  1.00  0.00    -0.268 OA
BRANCH  12  14
ATOM     14  C   UNL     1      -3.093  -1.748  -0.047  1.00  0.00     0.362 C 
BRANCH  14  15
ATOM     15  N   UNL     1      -1.752  -2.402   0.119  1.00  0.00    -0.335 N 
ATOM     16  H   UNL     1      -1.824  -3.149   0.810  1.00  0.00     0.347 HD
ATOM     17  H   UNL     1      -1.455  -2.788  -0.777  1.00  0.00     0.347 HD
BRANCH  15  18
ATOM     18  C   UNL     1      -0.770  -1.422   0.568  1.00  0.00     0.289 C 
BRANCH  18  19
ATOM     19  C   UNL     1       0.620  -1.933   0.767  1.00  0.00     0.025 C 
ATOM     20  C   UNL     1       1.687  -1.252   0.316  1.00  0.00     0.010 C 
ENDBRANCH  18  19
ENDBRANCH  15  18
ENDBRANCH  14  15
ENDBRANCH  12  14
ENDBRANCH   7  12
ENDBRANCH   3   6
ENDBRANCH   1   2
BRANCH   1  21
ATOM     21  C   UNL     1      -7.858   2.803   1.295  1.00  0.00     0.042 C 
BRANCH  21  22
ATOM     22  C   UNL     1      -9.321   2.624   0.904  1.00  0.00     0.118 C 
BRANCH  22  23
ATOM     23  N   UNL     1     -10.110   2.083   2.004  1.00  0.00    -0.352 N 
ATOM     24  C   UNL     1     -11.017   2.700   2.822  1.00  0.00     0.251 C 
ATOM     25  H   UNL     1      -9.967   1.126   2.187  1.00  0.00     0.163 HD
ATOM     26  O   UNL     1     -11.314   2.170   3.898  1.00  0.00    -0.269 OA
BRANCH  24  27
ATOM     27  C   UNL     1     -11.647   3.973   2.423  1.00  0.00     0.039 A 
ATOM     28  C   UNL     1     -11.921   4.939   3.394  1.00  0.00     0.014 A 
ATOM     29  C   UNL     1     -12.027   4.188   1.095  1.00  0.00     0.014 A 
ATOM     30  C   UNL     1     -12.528   6.141   3.023  1.00  0.00     0.010 A 
ATOM     31  C   UNL     1     -12.554   5.415   0.713  1.00  0.00     0.010 A 
ATOM     32  C   UNL     1     -12.824   6.398   1.675  1.00  0.00    -0.014 A 
BRANCH  32  33
ATOM     33  C   UNL     1     -13.427   7.682   1.242  1.00  0.00     0.031 A 
ATOM     34  C   UNL     1     -14.790   7.693   0.605  1.00  0.00     0.074 A 
ATOM     35  C   UNL     1     -12.710   8.817   1.347  1.00  0.00     0.049 A 
ATOM     36  N   UNL     1     -15.443   8.692   0.070  1.00  0.00    -0.248 NA
ATOM     37  C   UNL     1     -15.500   6.405   0.528  1.00  0.00     0.031 C 
ATOM     38  C   UNL     1     -11.356   8.914   1.898  1.00  0.00     0.029 A 
ATOM     39  N   UNL     1     -13.011  10.103   0.980  1.00  0.00    -0.354 N 
ATOM     40  C   UNL     1     -16.624   8.151  -0.426  1.00  0.00     0.074 A 
ATOM     41  C   UNL     1     -16.577   6.728  -0.172  1.00  0.00     0.031 C 
ATOM     42  C   UNL     1     -10.953  10.194   1.854  1.00  0.00     0.029 A 
ATOM     43  C   UNL     1     -12.001  11.000   1.236  1.00  0.00     0.049 A 
ATOM     44  H   UNL     1     -13.870  10.361   0.573  1.00  0.00     0.167 HD
ATOM     45  C   UNL     1     -17.662   8.788  -1.019  1.00  0.00     0.037 A 
ATOM     46  C   UNL     1     -11.925  12.322   0.990  1.00  0.00     0.037 A 
ATOM     47  C   UNL     1     -17.711  10.211  -1.229  1.00  0.00     0.049 A 
ATOM     48  C   UNL     1     -13.097  13.009   0.345  1.00  0.00     0.074 A 
ATOM     49  C   UNL     1     -18.746  10.969  -1.748  1.00  0.00     0.029 A 
ATOM     50  N   UNL     1     -16.681  11.091  -0.930  1.00  0.00    -0.354 N 
ATOM     51  N   UNL     1     -14.236  12.494  -0.055  1.00  0.00    -0.248 NA
ATOM     52  C   UNL     1     -12.978  14.456   0.121  1.00  0.00     0.031 C 
ATOM     53  C   UNL     1     -18.325  12.302  -1.801  1.00  0.00     0.029 A 
ATOM     54  C   UNL     1     -17.046  12.382  -1.274  1.00  0.00     0.049 A 
ATOM     55  H   UNL     1     -15.817  10.836  -0.532  1.00  0.00     0.167 HD
ATOM     56  C   UNL     1     -14.978  13.556  -0.557  1.00  0.00     0.074 A 
ATOM     57  C   UNL     1     -14.164  14.745  -0.397  1.00  0.00     0.031 C 
ATOM     58  C   UNL     1     -16.220  13.551  -1.101  1.00  0.00     0.037 A 
BRANCH  45  59
ATOM     59  C   UNL     1     -18.828   7.955  -1.475  1.00  0.00     0.058 A 
ATOM     60  C   UNL     1     -19.707   7.351  -0.561  1.00  0.00     0.135 A 
ATOM     61  C   UNL     1     -19.094   7.787  -2.844  1.00  0.00     0.135 A 
ATOM     62  F   UNL     1     -19.492   7.465   0.760  1.00  0.00    -0.206 F 
ATOM     63  C   UNL     1     -20.790   6.589  -0.986  1.00  0.00     0.059 A 
ATOM     64  C   UNL     1     -20.188   7.051  -3.292  1.00  0.00     0.059 A 
ATOM     65  F   UNL     1     -18.287   8.341  -3.762  1.00  0.00    -0.206 F 
ATOM     66  C   UNL     1     -21.022   6.444  -2.354  1.00  0.00     0.060 A 
BRANCH  66  67
ATOM     67  S   UNL     1     -22.437   5.459  -2.889  1.00  0.00     0.124 S 
ATOM     68  O   UNL     1     -21.973   4.104  -2.603  1.00  0.00    -0.237 OA
ATOM     69  O   UNL     1     -23.507   5.956  -2.030  1.00  0.00    -0.237 OA
ATOM     70  O   UNL     1     -22.568   5.791  -4.304  1.00  0.00    -0.744 OA
ENDBRANCH  66  67
ENDBRANCH  45  59
BRANCH  46  71
ATOM     71  C   UNL     1     -10.709  13.082   1.381  1.00  0.00     0.058 A 
ATOM     72  C   UNL     1     -10.742  13.988   2.452  1.00  0.00     0.135 A 
ATOM     73  C   UNL     1      -9.489  12.906   0.711  1.00  0.00     0.135 A 
ATOM     74  F   UNL     1     -11.886  14.193   3.121  1.00  0.00    -0.206 F 
ATOM     75  C   UNL     1      -9.613  14.704   2.836  1.00  0.00     0.059 A 
ATOM     76  C   UNL     1      -8.340  13.592   1.091  1.00  0.00     0.059 A 
ATOM     77  F   UNL     1      -9.400  12.036  -0.308  1.00  0.00    -0.206 F 
ATOM     78  C   UNL     1      -8.415  14.498   2.150  1.00  0.00     0.060 A 
BRANCH  78  79
ATOM     79  S   UNL     1      -6.943  15.396   2.688  1.00  0.00     0.124 S 
ATOM     80  O   UNL     1      -7.226  16.740   2.198  1.00  0.00    -0.237 OA
ATOM     81  O   UNL     1      -6.989  15.220   4.136  1.00  0.00    -0.237 OA
ATOM     82  O   UNL     1      -5.857  14.692   2.013  1.00  0.00    -0.744 OA
ENDBRANCH  78  79
ENDBRANCH  46  71
BRANCH  58  83
ATOM     83  C   UNL     1     -16.785  14.872  -1.540  1.00  0.00     0.058 A 
ATOM     84  C   UNL     1     -16.326  15.519  -2.697  1.00  0.00     0.135 A 
ATOM     85  C   UNL     1     -17.835  15.469  -0.823  1.00  0.00     0.135 A 
ATOM     86  F   UNL     1     -15.319  14.992  -3.412  1.00  0.00    -0.206 F 
ATOM     87  C   UNL     1     -16.876  16.725  -3.119  1.00  0.00     0.059 A 
ATOM     88  C   UNL     1     -18.417  16.660  -1.241  1.00  0.00     0.059 A 
ATOM     89  F   UNL     1     -18.316  14.883   0.285  1.00  0.00    -0.206 F 
ATOM     90  C   UNL     1     -17.923  17.286  -2.385  1.00  0.00     0.060 A 
BRANCH  90  91
ATOM     91  S   UNL     1     -18.653  18.832  -2.964  1.00  0.00     0.124 S 
ATOM     92  O   UNL     1     -17.626  19.799  -2.593  1.00  0.00    -0.237 OA
ATOM     93  O   UNL     1     -18.808  18.588  -4.395  1.00  0.00    -0.237 OA
ATOM     94  O   UNL     1     -19.901  18.920  -2.212  1.00  0.00    -0.744 OA
ENDBRANCH  90  91
ENDBRANCH  58  83
ENDBRANCH  32  33
ENDBRANCH  24  27
ENDBRANCH  22  23
ENDBRANCH  21  22
ENDBRANCH   1  21
TORSDOF 18
