REMARK SMILES CC1(C)O[C@@H]2C[C@@H]3[C@H]4CCC5=CC(=O)C=C[C@@]5(C)[C@]4(F)[C@H](O)C[C@]3(C)[C@]2(C(=O)NCCCNC(=O)c2ccc(-c3c4nc(c(-c5c(F)cc(S(=O)(=O)[O-])cc5F)c5ccc([nH]5)c(-c5c(F)cc(S(=O)(=O)[O-])cc5F)c5nc(c(-c6c(F)cc(S(=O)(=O)[O-])cc6F)c6ccc3[nH]6)C=C5)C=C4)cc2)O1
REMARK SMILES IDX 32 1 31 2 30 3 29 4 27 5 28 6 26 8 1 9 2 10 4 11 102 12 3 13
REMARK SMILES IDX 5 14 6 15 24 16 7 17 23 18 25 19 8 20 21 21 9 22 19 23 10 24
REMARK SMILES IDX 17 25 20 26 11 27 16 28 18 29 12 30 15 31 13 32 14 33 22 34
REMARK SMILES IDX 33 36 34 37 35 39 36 40 37 41 101 42 38 43 100 44 39 45
REMARK SMILES IDX 40 46 41 47 94 48 42 49 99 50 93 51 95 52 43 53 98 54 92 55
REMARK SMILES IDX 91 56 44 58 78 59 57 60 77 61 58 62 61 63 76 64 96 65 59 66
REMARK SMILES IDX 60 67 75 69 97 70 62 71 45 72 46 73 55 74 47 75 48 76 54 77
REMARK SMILES IDX 56 78 49 79 50 80 51 81 52 82 53 83 79 84 80 85 89 86 81 87
REMARK SMILES IDX 82 88 88 89 90 90 83 91 84 92 85 93 86 94 87 95 63 96 64 97
REMARK SMILES IDX 73 98 65 99 66 100 72 101 74 102 67 103 68 104 69 105 70 106
REMARK SMILES IDX 71 107
REMARK H PARENT 29 7 22 35 33 38 95 57 61 68
REMARK Flexibility Score: inf
ROOT
ATOM      1  C   UNL     1      -0.504   2.060   7.642  1.00  0.00     0.118 C 
ENDROOT
BRANCH   1   2
ATOM      2  C   UNL     1      -0.768   2.202   6.153  1.00  0.00     0.042 C 
BRANCH   2   3
ATOM      3  C   UNL     1       0.348   1.677   5.237  1.00  0.00     0.117 C 
BRANCH   3   4
ATOM      4  N   UNL     1      -0.145   0.570   4.431  1.00  0.00    -0.353 N 
ATOM      5  C   UNL     1      -0.822   0.468   3.255  1.00  0.00     0.255 C 
ATOM      6  O   UNL     1      -1.264  -0.666   3.024  1.00  0.00    -0.272 OA
ATOM      7  H   UNL     1       0.059  -0.307   4.829  1.00  0.00     0.163 HD
BRANCH   5   8
ATOM      8  C   UNL     1      -0.933   1.585   2.177  1.00  0.00     0.181 C 
ATOM      9  C   UNL     1       0.910  -0.559   0.357  1.00  0.00     0.075 C 
ATOM     10  C   UNL     1       0.163   0.764   0.258  1.00  0.00     0.164 C 
ATOM     11  O   UNL     1      -1.218   0.476   0.043  1.00  0.00    -0.344 OA
ATOM     12  O   UNL     1       0.355   1.557   1.465  1.00  0.00    -0.331 OA
ATOM     13  C   UNL     1       0.694   1.501  -0.985  1.00  0.00     0.075 C 
ATOM     14  C   UNL     1      -1.964   1.182   1.032  1.00  0.00     0.164 C 
ATOM     15  C   UNL     1      -2.517   2.518   0.369  1.00  0.00     0.040 C 
ATOM     16  C   UNL     1      -1.469   3.060   2.496  1.00  0.00     0.014 C 
ATOM     17  C   UNL     1      -1.585   3.545   1.004  1.00  0.00     0.008 C 
ATOM     18  C   UNL     1      -0.754   4.172   3.274  1.00  0.00     0.046 C 
ATOM     19  C   UNL     1      -2.826   2.865   3.261  1.00  0.00     0.015 C 
ATOM     20  C   UNL     1      -0.781   4.743   0.395  1.00  0.00     0.035 C 
ATOM     21  C   UNL     1       0.407   4.880   2.615  1.00  0.00     0.154 C 
ATOM     22  C   UNL     1      -1.413   5.476  -0.776  1.00  0.00     0.012 C 
ATOM     23  C   UNL     1      -0.104   5.692   1.397  1.00  0.00     0.152 C 
ATOM     24  C   UNL     1      -0.292   6.195  -1.544  1.00  0.00     0.032 C 
ATOM     25  C   UNL     1       1.011   6.584   0.710  1.00  0.00     0.044 C 
ATOM     26  F   UNL     1      -1.091   6.537   1.849  1.00  0.00    -0.239 F 
ATOM     27  C   UNL     1       0.551   7.101  -0.672  1.00  0.00    -0.053 C 
ATOM     28  C   UNL     1       1.382   7.764   1.613  1.00  0.00    -0.009 C 
ATOM     29  C   UNL     1       2.344   5.825   0.469  1.00  0.00     0.024 C 
ATOM     30  C   UNL     1       0.949   8.299  -1.141  1.00  0.00     0.052 C 
ATOM     31  C   UNL     1       1.754   8.964   1.146  1.00  0.00     0.048 C 
ATOM     32  C   UNL     1       1.758   9.217  -0.309  1.00  0.00     0.178 C 
ATOM     33  O   UNL     1       2.368  10.159  -0.798  1.00  0.00    -0.290 OA
BRANCH  21  34
ATOM     34  O   UNL     1       1.438   3.936   2.353  1.00  0.00    -0.390 OA
ATOM     35  H   UNL     1       1.097   3.238   1.771  1.00  0.00     0.211 HD
ENDBRANCH  21  34
ENDBRANCH   5   8
ENDBRANCH   3   4
ENDBRANCH   2   3
ENDBRANCH   1   2
BRANCH   1  36
ATOM     36  N   UNL     1       0.424   3.051   8.165  1.00  0.00    -0.352 N 
ATOM     37  C   UNL     1       0.270   3.971   9.186  1.00  0.00     0.251 C 
ATOM     38  H   UNL     1       1.302   3.071   7.721  1.00  0.00     0.163 HD
ATOM     39  O   UNL     1       1.155   4.788   9.388  1.00  0.00    -0.269 OA
BRANCH  37  40
ATOM     40  C   UNL     1      -0.974   4.008  10.002  1.00  0.00     0.039 A 
ATOM     41  C   UNL     1      -1.494   5.251  10.383  1.00  0.00     0.014 A 
ATOM     42  C   UNL     1      -1.639   2.844  10.388  1.00  0.00     0.014 A 
ATOM     43  C   UNL     1      -2.724   5.323  11.048  1.00  0.00     0.010 A 
ATOM     44  C   UNL     1      -2.912   2.920  10.950  1.00  0.00     0.010 A 
ATOM     45  C   UNL     1      -3.475   4.160  11.281  1.00  0.00    -0.014 A 
BRANCH  45  46
ATOM     46  C   UNL     1      -4.848   4.206  11.858  1.00  0.00     0.031 A 
ATOM     47  C   UNL     1      -5.147   3.478  13.143  1.00  0.00     0.074 A 
ATOM     48  C   UNL     1      -5.841   4.826  11.187  1.00  0.00     0.049 A 
ATOM     49  N   UNL     1      -6.300   3.263  13.723  1.00  0.00    -0.248 NA
ATOM     50  C   UNL     1      -4.001   2.888  13.857  1.00  0.00     0.031 C 
ATOM     51  C   UNL     1      -5.690   5.538   9.914  1.00  0.00     0.029 A 
ATOM     52  N   UNL     1      -7.181   4.942  11.467  1.00  0.00    -0.354 N 
ATOM     53  C   UNL     1      -6.019   2.515  14.861  1.00  0.00     0.074 A 
ATOM     54  C   UNL     1      -4.597   2.255  14.857  1.00  0.00     0.031 C 
ATOM     55  C   UNL     1      -6.883   6.026   9.535  1.00  0.00     0.029 A 
ATOM     56  C   UNL     1      -7.895   5.618  10.503  1.00  0.00     0.049 A 
ATOM     57  H   UNL     1      -7.593   4.576  12.283  1.00  0.00     0.167 HD
ATOM     58  C   UNL     1      -6.864   2.109  15.838  1.00  0.00     0.037 A 
ATOM     59  C   UNL     1      -9.217   5.858  10.395  1.00  0.00     0.037 A 
ATOM     60  C   UNL     1      -8.276   2.390  15.851  1.00  0.00     0.049 A 
ATOM     61  C   UNL     1     -10.143   5.345  11.469  1.00  0.00     0.074 A 
ATOM     62  C   UNL     1      -9.211   2.048  16.812  1.00  0.00     0.029 A 
ATOM     63  N   UNL     1      -8.954   3.086  14.862  1.00  0.00    -0.354 N 
ATOM     64  N   UNL     1      -9.849   4.681  12.561  1.00  0.00    -0.248 NA
ATOM     65  C   UNL     1     -11.579   5.609  11.295  1.00  0.00     0.031 C 
ATOM     66  C   UNL     1     -10.462   2.500  16.384  1.00  0.00     0.029 A 
ATOM     67  C   UNL     1     -10.299   3.166  15.180  1.00  0.00     0.049 A 
ATOM     68  H   UNL     1      -8.541   3.466  14.053  1.00  0.00     0.167 HD
ATOM     69  C   UNL     1     -11.059   4.472  13.215  1.00  0.00     0.074 A 
ATOM     70  C   UNL     1     -12.085   5.098  12.408  1.00  0.00     0.031 C 
ATOM     71  C   UNL     1     -11.303   3.813  14.374  1.00  0.00     0.037 A 
BRANCH  58  72
ATOM     72  C   UNL     1      -6.286   1.344  16.997  1.00  0.00     0.058 A 
ATOM     73  C   UNL     1      -5.477   1.977  17.954  1.00  0.00     0.135 A 
ATOM     74  C   UNL     1      -6.604  -0.008  17.200  1.00  0.00     0.135 A 
ATOM     75  F   UNL     1      -5.127   3.264  17.800  1.00  0.00    -0.206 F 
ATOM     76  C   UNL     1      -4.995   1.294  19.065  1.00  0.00     0.059 A 
ATOM     77  C   UNL     1      -6.156  -0.704  18.320  1.00  0.00     0.059 A 
ATOM     78  F   UNL     1      -7.371  -0.663  16.314  1.00  0.00    -0.206 F 
ATOM     79  C   UNL     1      -5.347  -0.044  19.244  1.00  0.00     0.060 A 
BRANCH  79  80
ATOM     80  S   UNL     1      -4.745  -0.899  20.716  1.00  0.00     0.124 S 
ATOM     81  O   UNL     1      -3.319  -1.010  20.425  1.00  0.00    -0.237 OA
ATOM     82  O   UNL     1      -5.104   0.031  21.782  1.00  0.00    -0.237 OA
ATOM     83  O   UNL     1      -5.486  -2.156  20.708  1.00  0.00    -0.744 OA
ENDBRANCH  79  80
ENDBRANCH  58  72
BRANCH  59  84
ATOM     84  C   UNL     1      -9.764   6.596   9.221  1.00  0.00     0.058 A 
ATOM     85  C   UNL     1     -10.373   7.851   9.375  1.00  0.00     0.135 A 
ATOM     86  C   UNL     1      -9.736   6.041   7.931  1.00  0.00     0.135 A 
ATOM     87  F   UNL     1     -10.431   8.424  10.587  1.00  0.00    -0.206 F 
ATOM     88  C   UNL     1     -10.972   8.509   8.305  1.00  0.00     0.059 A 
ATOM     89  C   UNL     1     -10.300   6.695   6.840  1.00  0.00     0.059 A 
ATOM     90  F   UNL     1      -9.151   4.852   7.721  1.00  0.00    -0.206 F 
ATOM     91  C   UNL     1     -10.937   7.918   7.042  1.00  0.00     0.060 A 
BRANCH  91  92
ATOM     92  S   UNL     1     -11.728   8.772   5.661  1.00  0.00     0.124 S 
ATOM     93  O   UNL     1     -13.140   8.565   5.961  1.00  0.00    -0.237 OA
ATOM     94  O   UNL     1     -11.234  10.136   5.819  1.00  0.00    -0.237 OA
ATOM     95  O   UNL     1     -11.220   8.059   4.492  1.00  0.00    -0.744 OA
ENDBRANCH  91  92
ENDBRANCH  59  84
BRANCH  71  96
ATOM     96  C   UNL     1     -12.724   3.758  14.860  1.00  0.00     0.058 A 
ATOM     97  C   UNL     1     -13.680   2.940  14.238  1.00  0.00     0.135 A 
ATOM     98  C   UNL     1     -13.114   4.469  16.006  1.00  0.00     0.135 A 
ATOM     99  F   UNL     1     -13.361   2.247  13.133  1.00  0.00    -0.206 F 
ATOM    100  C   UNL     1     -14.976   2.836  14.730  1.00  0.00     0.059 A 
ATOM    101  C   UNL     1     -14.396   4.357  16.533  1.00  0.00     0.059 A 
ATOM    102  F   UNL     1     -12.235   5.260  16.643  1.00  0.00    -0.206 F 
ATOM    103  C   UNL     1     -15.322   3.541  15.885  1.00  0.00     0.060 A 
BRANCH 103 104
ATOM    104  S   UNL     1     -16.989   3.341  16.549  1.00  0.00     0.124 S 
ATOM    105  O   UNL     1     -17.787   4.062  15.563  1.00  0.00    -0.237 OA
ATOM    106  O   UNL     1     -17.148   1.890  16.555  1.00  0.00    -0.237 OA
ATOM    107  O   UNL     1     -16.907   3.963  17.867  1.00  0.00    -0.744 OA
ENDBRANCH 103 104
ENDBRANCH  71  96
ENDBRANCH  45  46
ENDBRANCH  37  40
ENDBRANCH   1  36
TORSDOF 14
