REMARK SMILES O=C(CN1C(=O)/C(=C/c2cccs2)SC1=S)Nc1ccc(O)cc1C(=O)NCCCNC(=O)c1ccc(-c2c3nc(c(-c4c(F)cc(S(=O)(=O)[O-])cc4F)c4ccc([nH]4)c(-c4c(F)cc(S(=O)(=O)[O-])cc4F)c4nc(c(-c5c(F)cc(S(=O)(=O)[O-])cc5F)c5ccc2[nH]5)C=C4)C=C3)cc1
REMARK SMILES IDX 28 1 27 2 25 3 26 4 24 6 18 7 19 8 20 9 23 10 21 11 17 12
REMARK SMILES IDX 1 13 2 14 3 16 4 17 5 18 15 19 6 20 7 21 14 22 16 23 8 24
REMARK SMILES IDX 9 25 10 26 13 27 11 28 12 29 22 30 29 32 30 33 31 34 32 35
REMARK SMILES IDX 33 37 34 38 35 39 99 40 36 41 98 42 37 43 38 44 39 45 92 46
REMARK SMILES IDX 40 47 97 48 91 49 93 50 41 51 96 52 90 53 89 54 42 56 76 57
REMARK SMILES IDX 55 58 75 59 56 60 59 61 74 62 94 63 57 64 58 65 73 67 95 68
REMARK SMILES IDX 60 69 43 70 44 71 53 72 45 73 46 74 52 75 54 76 47 77 48 78
REMARK SMILES IDX 49 79 50 80 51 81 77 82 78 83 87 84 79 85 80 86 86 87 88 88
REMARK SMILES IDX 81 89 82 90 83 91 84 92 85 93 61 94 62 95 71 96 63 97 64 98
REMARK SMILES IDX 70 99 72 100 65 101 66 102 67 103 68 104 69 105
REMARK H PARENT 27 5 17 15 22 31 31 36 93 55 59 66
REMARK Flexibility Score: inf
ROOT
ATOM      1  C   UNL     1       3.283   0.265   2.504  1.00  0.00     0.118 C 
ENDROOT
BRANCH   1   2
ATOM      2  N   UNL     1       4.154  -0.760   3.012  1.00  0.00    -0.352 N 
ATOM      3  C   UNL     1       3.932  -2.118   3.057  1.00  0.00     0.253 C 
ATOM      4  O   UNL     1       4.714  -2.835   3.675  1.00  0.00    -0.269 OA
ATOM      5  H   UNL     1       5.016  -0.452   3.373  1.00  0.00     0.163 HD
BRANCH   3   6
ATOM      6  C   UNL     1       2.718  -2.716   2.449  1.00  0.00     0.067 A 
ATOM      7  C   UNL     1       2.260  -2.478   1.134  1.00  0.00     0.054 A 
ATOM      8  C   UNL     1       1.008  -2.985   0.763  1.00  0.00     0.031 A 
ATOM      9  C   UNL     1       0.242  -3.740   1.662  1.00  0.00     0.048 A 
ATOM     10  C   UNL     1       1.951  -3.482   3.340  1.00  0.00     0.062 A 
ATOM     11  C   UNL     1       0.724  -3.986   2.941  1.00  0.00     0.116 A 
BRANCH   7  12
ATOM     12  N   UNL     1       3.030  -1.701   0.221  1.00  0.00    -0.324 N 
ATOM     13  O   UNL     1       1.274  -0.477  -0.692  1.00  0.00    -0.273 OA
ATOM     14  C   UNL     1       2.479  -0.665  -0.543  1.00  0.00     0.244 C 
ATOM     15  H   UNL     1       3.989  -1.901   0.123  1.00  0.00     0.170 HD
BRANCH  14  16
ATOM     16  C   UNL     1       3.509   0.373  -1.016  1.00  0.00     0.227 C 
BRANCH  16  17
ATOM     17  N   UNL     1       3.997   1.169   0.119  1.00  0.00    -0.283 N 
ATOM     18  C   UNL     1       3.329   2.813   0.388  1.00  0.00     0.266 C 
ATOM     19  C   UNL     1       5.365   0.574   1.083  1.00  0.00     0.148 C 
ATOM     20  O   UNL     1       2.477   3.367  -0.280  1.00  0.00    -0.268 OA
ATOM     21  C   UNL     1       4.386   3.641   1.880  1.00  0.00     0.081 C 
ATOM     22  S   UNL     1       5.970   2.153   2.645  1.00  0.00    -0.054 SA
ATOM     23  S   UNL     1       6.366  -0.763   0.794  1.00  0.00    -0.052 S 
ATOM     24  C   UNL     1       4.327   4.904   2.328  1.00  0.00     0.040 C 
BRANCH  24  25
ATOM     25  C   UNL     1       5.265   5.522   3.206  1.00  0.00     0.028 A 
ATOM     26  C   UNL     1       6.640   5.381   3.325  1.00  0.00     0.020 A 
ATOM     27  S   UNL     1       4.721   6.790   4.244  1.00  0.00    -0.144 S 
ATOM     28  C   UNL     1       7.239   6.327   4.205  1.00  0.00     0.012 A 
ATOM     29  C   UNL     1       6.303   7.157   4.770  1.00  0.00     0.065 A 
ENDBRANCH  24  25
ENDBRANCH  16  17
ENDBRANCH  14  16
ENDBRANCH   7  12
BRANCH  11  30
ATOM     30  O   UNL     1       0.011  -4.707   3.851  1.00  0.00    -0.508 OA
ATOM     31  H   UNL     1      -0.823  -5.064   3.616  1.00  0.00     0.293 HD
ENDBRANCH  11  30
ENDBRANCH   3   6
ENDBRANCH   1   2
BRANCH   1  32
ATOM     32  C   UNL     1       3.902   1.706   1.993  1.00  0.00     0.042 C 
BRANCH  32  33
ATOM     33  C   UNL     1       5.338   2.538   0.526  1.00  0.00     0.118 C 
BRANCH  33  34
ATOM     34  N   UNL     1       6.256   2.007  -0.616  1.00  0.00    -0.352 N 
ATOM     35  C   UNL     1       6.950   2.800  -1.548  1.00  0.00     0.251 C 
ATOM     36  H   UNL     1       6.361   1.031  -0.691  1.00  0.00     0.163 HD
ATOM     37  O   UNL     1       7.696   2.268  -2.364  1.00  0.00    -0.269 OA
BRANCH  35  38
ATOM     38  C   UNL     1       6.747   4.280  -1.575  1.00  0.00     0.039 A 
ATOM     39  C   UNL     1       6.268   4.906  -2.724  1.00  0.00     0.014 A 
ATOM     40  C   UNL     1       6.906   5.036  -0.418  1.00  0.00     0.014 A 
ATOM     41  C   UNL     1       5.810   6.234  -2.654  1.00  0.00     0.010 A 
ATOM     42  C   UNL     1       6.285   6.279  -0.309  1.00  0.00     0.010 A 
ATOM     43  C   UNL     1       5.721   6.910  -1.421  1.00  0.00    -0.014 A 
BRANCH  43  44
ATOM     44  C   UNL     1       5.032   8.237  -1.279  1.00  0.00     0.031 A 
ATOM     45  C   UNL     1       5.683   9.396  -0.543  1.00  0.00     0.074 A 
ATOM     46  C   UNL     1       3.764   8.390  -1.728  1.00  0.00     0.049 A 
ATOM     47  N   UNL     1       5.215  10.600  -0.314  1.00  0.00    -0.248 NA
ATOM     48  C   UNL     1       7.000   9.159   0.072  1.00  0.00     0.031 C 
ATOM     49  C   UNL     1       2.935   7.332  -2.312  1.00  0.00     0.029 A 
ATOM     50  N   UNL     1       2.945   9.496  -1.767  1.00  0.00    -0.354 N 
ATOM     51  C   UNL     1       6.158  11.233   0.492  1.00  0.00     0.074 A 
ATOM     52  C   UNL     1       7.171  10.252   0.797  1.00  0.00     0.031 C 
ATOM     53  C   UNL     1       1.766   7.852  -2.719  1.00  0.00     0.029 A 
ATOM     54  C   UNL     1       1.736   9.273  -2.391  1.00  0.00     0.049 A 
ATOM     55  H   UNL     1       3.199  10.367  -1.384  1.00  0.00     0.167 HD
ATOM     56  C   UNL     1       6.217  12.526   0.897  1.00  0.00     0.037 A 
ATOM     57  C   UNL     1       0.723  10.114  -2.686  1.00  0.00     0.037 A 
ATOM     58  C   UNL     1       5.248  13.524   0.530  1.00  0.00     0.049 A 
ATOM     59  C   UNL     1       0.846  11.568  -2.317  1.00  0.00     0.074 A 
ATOM     60  C   UNL     1       5.274  14.885   0.783  1.00  0.00     0.029 A 
ATOM     61  N   UNL     1       4.080  13.271  -0.173  1.00  0.00    -0.354 N 
ATOM     62  N   UNL     1       1.813  12.175  -1.671  1.00  0.00    -0.248 NA
ATOM     63  C   UNL     1      -0.250  12.457  -2.729  1.00  0.00     0.031 C 
ATOM     64  C   UNL     1       4.101  15.447   0.271  1.00  0.00     0.029 A 
ATOM     65  C   UNL     1       3.370  14.446  -0.349  1.00  0.00     0.049 A 
ATOM     66  H   UNL     1       3.798  12.386  -0.499  1.00  0.00     0.167 HD
ATOM     67  C   UNL     1       1.456  13.518  -1.623  1.00  0.00     0.074 A 
ATOM     68  C   UNL     1       0.192  13.639  -2.318  1.00  0.00     0.031 C 
ATOM     69  C   UNL     1       2.117  14.556  -1.054  1.00  0.00     0.037 A 
BRANCH  56  70
ATOM     70  C   UNL     1       7.393  12.947   1.744  1.00  0.00     0.058 A 
ATOM     71  C   UNL     1       8.704  12.957   1.236  1.00  0.00     0.135 A 
ATOM     72  C   UNL     1       7.210  13.373   3.070  1.00  0.00     0.135 A 
ATOM     73  F   UNL     1       8.945  12.555  -0.023  1.00  0.00    -0.206 F 
ATOM     74  C   UNL     1       9.791  13.321   2.023  1.00  0.00     0.059 A 
ATOM     75  C   UNL     1       8.280  13.779   3.865  1.00  0.00     0.059 A 
ATOM     76  F   UNL     1       5.981  13.396   3.610  1.00  0.00    -0.206 F 
ATOM     77  C   UNL     1       9.570  13.728   3.338  1.00  0.00     0.060 A 
BRANCH  77  78
ATOM     78  S   UNL     1      10.995  14.187   4.347  1.00  0.00     0.124 S 
ATOM     79  O   UNL     1      11.603  12.884   4.599  1.00  0.00    -0.237 OA
ATOM     80  O   UNL     1      11.738  15.070   3.454  1.00  0.00    -0.237 OA
ATOM     81  O   UNL     1      10.395  14.835   5.509  1.00  0.00    -0.744 OA
ENDBRANCH  77  78
ENDBRANCH  56  70
BRANCH  57  82
ATOM     82  C   UNL     1      -0.468   9.613  -3.432  1.00  0.00     0.058 A 
ATOM     83  C   UNL     1      -0.685   9.976  -4.771  1.00  0.00     0.135 A 
ATOM     84  C   UNL     1      -1.395   8.744  -2.837  1.00  0.00     0.135 A 
ATOM     85  F   UNL     1       0.167  10.811  -5.385  1.00  0.00    -0.206 F 
ATOM     86  C   UNL     1      -1.781   9.508  -5.489  1.00  0.00     0.059 A 
ATOM     87  C   UNL     1      -2.485   8.239  -3.543  1.00  0.00     0.059 A 
ATOM     88  F   UNL     1      -1.228   8.352  -1.564  1.00  0.00    -0.206 F 
ATOM     89  C   UNL     1      -2.674   8.633  -4.867  1.00  0.00     0.060 A 
BRANCH  89  90
ATOM     90  S   UNL     1      -4.059   7.984  -5.829  1.00  0.00     0.124 S 
ATOM     91  O   UNL     1      -4.911   9.161  -5.951  1.00  0.00    -0.237 OA
ATOM     92  O   UNL     1      -3.400   7.543  -7.055  1.00  0.00    -0.237 OA
ATOM     93  O   UNL     1      -4.580   6.912  -4.987  1.00  0.00    -0.744 OA
ENDBRANCH  89  90
ENDBRANCH  57  82
BRANCH  69  94
ATOM     94  C   UNL     1       1.513  15.927  -1.186  1.00  0.00     0.058 A 
ATOM     95  C   UNL     1       0.365  16.301  -0.471  1.00  0.00     0.135 A 
ATOM     96  C   UNL     1       2.134  16.900  -1.986  1.00  0.00     0.135 A 
ATOM     97  F   UNL     1      -0.269  15.408   0.305  1.00  0.00    -0.206 F 
ATOM     98  C   UNL     1      -0.159  17.586  -0.560  1.00  0.00     0.059 A 
ATOM     99  C   UNL     1       1.645  18.200  -2.067  1.00  0.00     0.059 A 
ATOM    100  F   UNL     1       3.242  16.598  -2.681  1.00  0.00    -0.206 F 
ATOM    101  C   UNL     1       0.491  18.530  -1.358  1.00  0.00     0.060 A 
BRANCH 101 102
ATOM    102  S   UNL     1      -0.175  20.206  -1.432  1.00  0.00     0.124 S 
ATOM    103  O   UNL     1      -1.373  20.011  -2.243  1.00  0.00    -0.237 OA
ATOM    104  O   UNL     1      -0.406  20.512  -0.023  1.00  0.00    -0.237 OA
ATOM    105  O   UNL     1       0.894  20.971  -2.065  1.00  0.00    -0.744 OA
ENDBRANCH 101 102
ENDBRANCH  69  94
ENDBRANCH  43  44
ENDBRANCH  35  38
ENDBRANCH  33  34
ENDBRANCH  32  33
ENDBRANCH   1  32
TORSDOF 18
