REMARK SMILES CC(C)(C)OC(=O)N1CCC(c2c(C(=O)NCCCNC(=O)c3ccc(-c4c5nc(c(-c6c(F)cc(S(=O)(=O)[O-])cc6F)c6ccc([nH]6)c(-c6c(F)cc(S(=O)(=O)[O-])cc6F)c6nc(c(-c7c(F)cc(S(=O)(=O)[O-])cc7F)c7ccc4[nH]7)C=C6)C=C5)cc3)cnn2-c2ccccc2)CC1
REMARK SMILES IDX 18 1 17 2 16 3 14 4 15 5 13 7 12 8 91 9 89 10 90 11 11 12
REMARK SMILES IDX 6 13 7 14 8 15 9 16 99 17 10 18 98 19 5 20 2 21 1 22 3 23
REMARK SMILES IDX 4 24 92 25 93 26 97 27 94 28 96 29 95 30 19 31 20 32 21 33
REMARK SMILES IDX 22 35 23 36 24 37 88 38 25 39 87 40 26 41 27 42 28 43 81 44
REMARK SMILES IDX 29 45 86 46 80 47 82 48 30 49 85 50 79 51 78 52 31 54 65 55
REMARK SMILES IDX 44 56 64 57 45 58 48 59 63 60 83 61 46 62 47 63 62 65 84 66
REMARK SMILES IDX 49 67 32 68 33 69 42 70 34 71 35 72 41 73 43 74 36 75 37 76
REMARK SMILES IDX 38 77 39 78 40 79 66 80 67 81 76 82 68 83 69 84 75 85 77 86
REMARK SMILES IDX 70 87 71 88 72 89 73 90 74 91 50 92 51 93 60 94 52 95 53 96
REMARK SMILES IDX 59 97 61 98 54 99 55 100 56 101 57 102 58 103
REMARK H PARENT 16 6 20 34 82 53 48 64
REMARK Flexibility Score: inf
ROOT
ATOM      1  C   UNL     1       0.620  -4.037  12.741  1.00  0.00     0.042 C 
ENDROOT
BRANCH   1   2
ATOM      2  C   UNL     1       1.474  -4.905  11.892  1.00  0.00     0.118 C 
BRANCH   2   3
ATOM      3  N   UNL     1       0.879  -5.138  10.613  1.00  0.00    -0.352 N 
ATOM      4  C   UNL     1       1.295  -4.718   9.392  1.00  0.00     0.254 C 
ATOM      5  O   UNL     1       0.689  -5.212   8.440  1.00  0.00    -0.269 OA
ATOM      6  H   UNL     1       0.055  -5.676  10.620  1.00  0.00     0.163 HD
BRANCH   4   7
ATOM      7  C   UNL     1       2.422  -3.787   9.247  1.00  0.00     0.081 A 
ATOM      8  C   UNL     1       2.867  -3.258   8.026  1.00  0.00     0.060 A 
ATOM      9  N   UNL     1       3.993  -2.496   8.332  1.00  0.00    -0.237 N 
ATOM     10  C   UNL     1       3.315  -3.194  10.175  1.00  0.00     0.149 A 
ATOM     11  N   UNL     1       4.319  -2.536   9.623  1.00  0.00    -0.175 NA
BRANCH   8  12
ATOM     12  C   UNL     1       2.279  -3.510   6.632  1.00  0.00     0.043 C 
ATOM     13  C   UNL     1       0.721  -1.212   3.599  1.00  0.00     0.410 C 
ATOM     14  O   UNL     1      -0.028  -0.441   4.187  1.00  0.00    -0.224 OA
ATOM     15  N   UNL     1       1.140  -2.404   4.167  1.00  0.00    -0.308 N 
ATOM     16  C   UNL     1       0.291  -3.057   5.145  1.00  0.00     0.124 C 
ATOM     17  C   UNL     1       2.492  -2.929   4.086  1.00  0.00     0.124 C 
ATOM     18  C   UNL     1       0.844  -2.950   6.556  1.00  0.00     0.032 C 
ATOM     19  C   UNL     1       3.094  -2.911   5.481  1.00  0.00     0.032 C 
BRANCH  13  20
ATOM     20  O   UNL     1       1.154  -1.032   2.311  1.00  0.00    -0.444 OA
BRANCH  20  21
ATOM     21  C   UNL     1       0.605   0.081   1.531  1.00  0.00     0.106 C 
ATOM     22  C   UNL     1       1.120  -0.054   0.082  1.00  0.00     0.056 C 
ATOM     23  C   UNL     1       1.121   1.412   2.086  1.00  0.00     0.056 C 
ATOM     24  C   UNL     1      -0.933   0.071   1.456  1.00  0.00     0.056 C 
ENDBRANCH  20  21
ENDBRANCH  13  20
ENDBRANCH   8  12
BRANCH   9  25
ATOM     25  C   UNL     1       4.784  -1.659   7.539  1.00  0.00     0.065 A 
ATOM     26  C   UNL     1       6.120  -2.000   7.320  1.00  0.00     0.028 A 
ATOM     27  C   UNL     1       4.197  -0.552   6.927  1.00  0.00     0.028 A 
ATOM     28  C   UNL     1       6.847  -1.259   6.395  1.00  0.00     0.002 A 
ATOM     29  C   UNL     1       4.885   0.081   5.901  1.00  0.00     0.002 A 
ATOM     30  C   UNL     1       6.210  -0.267   5.642  1.00  0.00     0.000 A 
ENDBRANCH   9  25
ENDBRANCH   4   7
ENDBRANCH   2   3
ENDBRANCH   1   2
BRANCH   1  31
ATOM     31  C   UNL     1      -0.536  -4.865  13.107  1.00  0.00     0.118 C 
BRANCH  31  32
ATOM     32  N   UNL     1      -0.168  -6.027  13.910  1.00  0.00    -0.352 N 
ATOM     33  C   UNL     1      -0.683  -6.331  15.147  1.00  0.00     0.251 C 
ATOM     34  H   UNL     1       0.502  -6.643  13.535  1.00  0.00     0.163 HD
ATOM     35  O   UNL     1      -0.174  -7.210  15.830  1.00  0.00    -0.269 OA
BRANCH  33  36
ATOM     36  C   UNL     1      -1.979  -5.661  15.470  1.00  0.00     0.039 A 
ATOM     37  C   UNL     1      -2.753  -5.996  16.530  1.00  0.00     0.014 A 
ATOM     38  C   UNL     1      -2.738  -5.215  14.380  1.00  0.00     0.014 A 
ATOM     39  C   UNL     1      -4.198  -6.192  16.142  1.00  0.00     0.010 A 
ATOM     40  C   UNL     1      -4.055  -4.933  14.400  1.00  0.00     0.010 A 
ATOM     41  C   UNL     1      -4.706  -6.083  14.670  1.00  0.00    -0.014 A 
BRANCH  41  42
ATOM     42  C   UNL     1      -6.182  -6.059  13.557  1.00  0.00     0.031 A 
ATOM     43  C   UNL     1      -6.678  -4.541  14.620  1.00  0.00     0.074 A 
ATOM     44  C   UNL     1      -6.747  -6.900  12.216  1.00  0.00     0.049 A 
ATOM     45  N   UNL     1      -7.185  -4.581  15.845  1.00  0.00    -0.248 NA
ATOM     46  C   UNL     1      -5.987  -2.955  14.867  1.00  0.00     0.031 C 
ATOM     47  C   UNL     1      -6.379  -8.090  10.917  1.00  0.00     0.029 A 
ATOM     48  N   UNL     1      -8.082  -7.087  11.452  1.00  0.00    -0.354 N 
ATOM     49  C   UNL     1      -7.730  -3.266  16.055  1.00  0.00     0.074 A 
ATOM     50  C   UNL     1      -6.821  -2.282  15.686  1.00  0.00     0.031 C 
ATOM     51  C   UNL     1      -7.074  -8.277   9.683  1.00  0.00     0.029 A 
ATOM     52  C   UNL     1      -8.255  -7.395   9.966  1.00  0.00     0.049 A 
ATOM     53  H   UNL     1      -8.907  -6.998  11.981  1.00  0.00     0.167 HD
ATOM     54  C   UNL     1      -9.045  -3.044  15.868  1.00  0.00     0.037 A 
ATOM     55  C   UNL     1      -9.282  -6.927   9.079  1.00  0.00     0.037 A 
ATOM     56  C   UNL     1      -9.623  -4.337  15.788  1.00  0.00     0.049 A 
ATOM     57  C   UNL     1     -10.106  -6.207  10.091  1.00  0.00     0.074 A 
ATOM     58  C   UNL     1      -9.572  -5.388  16.678  1.00  0.00     0.029 A 
ATOM     59  N   UNL     1      -9.602  -4.851  14.530  1.00  0.00    -0.354 N 
ATOM     60  N   UNL     1     -10.712  -6.840  11.073  1.00  0.00    -0.248 NA
ATOM     61  C   UNL     1      -9.518  -4.893  10.372  1.00  0.00     0.031 C 
ATOM     62  C   UNL     1      -9.466  -6.566  15.906  1.00  0.00     0.029 A 
ATOM     63  C   UNL     1      -9.586  -6.211  14.572  1.00  0.00     0.049 A 
ATOM     64  H   UNL     1      -9.598  -4.314  13.704  1.00  0.00     0.167 HD
ATOM     65  C   UNL     1     -10.202  -6.246  12.230  1.00  0.00     0.074 A 
ATOM     66  C   UNL     1      -9.513  -4.970  11.712  1.00  0.00     0.031 C 
ATOM     67  C   UNL     1      -9.837  -6.964  13.383  1.00  0.00     0.037 A 
BRANCH  54  68
ATOM     68  C   UNL     1      -9.714  -1.805  15.359  1.00  0.00     0.058 A 
ATOM     69  C   UNL     1     -11.055  -1.732  15.732  1.00  0.00     0.135 A 
ATOM     70  C   UNL     1      -9.252  -0.821  14.444  1.00  0.00     0.135 A 
ATOM     71  F   UNL     1     -11.526  -2.562  16.674  1.00  0.00    -0.206 F 
ATOM     72  C   UNL     1     -11.927  -0.818  15.178  1.00  0.00     0.059 A 
ATOM     73  C   UNL     1     -10.098   0.170  13.937  1.00  0.00     0.059 A 
ATOM     74  F   UNL     1      -7.984  -0.780  14.004  1.00  0.00    -0.206 F 
ATOM     75  C   UNL     1     -11.438   0.154  14.311  1.00  0.00     0.060 A 
BRANCH  75  76
ATOM     76  S   UNL     1     -12.576   1.453  13.800  1.00  0.00     0.124 S 
ATOM     77  O   UNL     1     -13.592   0.701  13.074  1.00  0.00    -0.237 OA
ATOM     78  O   UNL     1     -12.988   1.998  15.091  1.00  0.00    -0.237 OA
ATOM     79  O   UNL     1     -11.742   2.337  12.993  1.00  0.00    -0.744 OA
ENDBRANCH  75  76
ENDBRANCH  54  68
BRANCH  55  80
ATOM     80  C   UNL     1      -9.085  -6.361   7.594  1.00  0.00     0.058 A 
ATOM     81  C   UNL     1      -9.999  -6.103   6.513  1.00  0.00     0.135 A 
ATOM     82  C   UNL     1      -7.816  -5.798   7.355  1.00  0.00     0.135 A 
ATOM     83  F   UNL     1     -11.260  -6.570   6.536  1.00  0.00    -0.206 F 
ATOM     84  C   UNL     1      -9.653  -5.323   5.351  1.00  0.00     0.059 A 
ATOM     85  C   UNL     1      -7.469  -4.990   6.259  1.00  0.00     0.059 A 
ATOM     86  F   UNL     1      -6.851  -5.962   8.265  1.00  0.00    -0.206 F 
ATOM     87  C   UNL     1      -8.401  -4.713   5.274  1.00  0.00     0.060 A 
BRANCH  87  88
ATOM     88  S   UNL     1      -8.033  -3.441   4.012  1.00  0.00     0.124 S 
ATOM     89  O   UNL     1      -8.120  -4.192   2.764  1.00  0.00    -0.237 OA
ATOM     90  O   UNL     1      -9.093  -2.466   4.241  1.00  0.00    -0.237 OA
ATOM     91  O   UNL     1      -6.690  -2.987   4.367  1.00  0.00    -0.744 OA
ENDBRANCH  87  88
ENDBRANCH  55  80
BRANCH  67  92
ATOM     92  C   UNL     1      -9.933  -8.523  13.589  1.00  0.00     0.058 A 
ATOM     93  C   UNL     1      -9.027  -9.580  13.252  1.00  0.00     0.135 A 
ATOM     94  C   UNL     1     -11.015  -8.957  14.344  1.00  0.00     0.135 A 
ATOM     95  F   UNL     1      -7.767  -9.347  12.879  1.00  0.00    -0.206 F 
ATOM     96  C   UNL     1      -9.329 -10.946  13.362  1.00  0.00     0.059 A 
ATOM     97  C   UNL     1     -11.280 -10.306  14.594  1.00  0.00     0.059 A 
ATOM     98  F   UNL     1     -11.807  -8.050  14.931  1.00  0.00    -0.206 F 
ATOM     99  C   UNL     1     -10.465 -11.300  14.062  1.00  0.00     0.060 A 
BRANCH  99 100
ATOM    100  S   UNL     1     -10.793 -13.045  14.388  1.00  0.00     0.124 S 
ATOM    101  O   UNL     1     -11.008 -13.579  13.047  1.00  0.00    -0.237 OA
ATOM    102  O   UNL     1      -9.562 -13.475  15.045  1.00  0.00    -0.237 OA
ATOM    103  O   UNL     1     -11.973 -13.009  15.246  1.00  0.00    -0.744 OA
ENDBRANCH  99 100
ENDBRANCH  67  92
ENDBRANCH  41  42
ENDBRANCH  33  36
ENDBRANCH  31  32
ENDBRANCH   1  31
TORSDOF 17
