REMARK SMILES CCc1ccsc1C(=O)N(CC(=O)NCCCNC(=O)c1ccc(-c2c3nc(c(-c4c(F)cc(S(=O)(=O)[O-])cc4F)c4ccc([nH]4)c(-c4c(F)cc(S(=O)(=O)[O-])cc4F)c4nc(c(-c5c(F)cc(S(=O)(=O)[O-])cc5F)c5ccc2[nH]5)C=C4)C=C3)cc1)C(C)(C)C
REMARK SMILES IDX 15 1 14 2 12 3 13 4 11 6 10 7 8 8 9 9 7 10 3 11 4 12 5 13
REMARK SMILES IDX 6 14 2 15 1 16 87 17 88 18 89 19 90 20 16 21 17 22 18 23
REMARK SMILES IDX 19 24 20 26 21 27 22 28 86 29 23 30 85 31 24 32 25 33 26 34
REMARK SMILES IDX 79 35 27 36 84 37 78 38 80 39 28 40 83 41 77 42 76 43 29 45
REMARK SMILES IDX 63 46 42 47 62 48 43 49 46 50 61 51 81 52 44 53 45 54 60 56
REMARK SMILES IDX 82 57 47 58 30 59 31 60 40 61 32 62 33 63 39 64 41 65 34 66
REMARK SMILES IDX 35 67 36 68 37 69 38 70 64 71 65 72 74 73 66 74 67 75 73 76
REMARK SMILES IDX 75 77 68 78 69 79 70 80 71 81 72 82 48 83 49 84 58 85 50 86
REMARK SMILES IDX 51 87 57 88 59 89 52 90 53 91 54 92 55 93 56 94
REMARK H PARENT 14 5 18 25 80 44 46 55
REMARK Flexibility Score: inf
ROOT
ATOM      1  C   UNL     1      -2.198   0.067   1.948  1.00  0.00     0.117 C 
ENDROOT
BRANCH   1   2
ATOM      2  N   UNL     1      -2.483   0.541   0.610  1.00  0.00    -0.354 N 
ATOM      3  C   UNL     1      -1.616   0.957  -0.353  1.00  0.00     0.239 C 
ATOM      4  O   UNL     1      -2.082   1.362  -1.419  1.00  0.00    -0.273 OA
ATOM      5  H   UNL     1      -3.435   0.566   0.363  1.00  0.00     0.163 HD
BRANCH   3   6
ATOM      6  C   UNL     1      -0.110   0.765  -0.154  1.00  0.00     0.220 C 
BRANCH   6   7
ATOM      7  N   UNL     1       0.681   1.582   0.767  1.00  0.00    -0.324 N 
BRANCH   7   8
ATOM      8  C   UNL     1       1.275   1.064   1.956  1.00  0.00     0.265 C 
ATOM      9  O   UNL     1       1.753   1.884   2.747  1.00  0.00    -0.268 OA
BRANCH   8  10
ATOM     10  C   UNL     1       1.328  -0.380   2.332  1.00  0.00     0.095 A 
ATOM     11  C   UNL     1       1.421  -1.639   1.710  1.00  0.00    -0.025 A 
ATOM     12  C   UNL     1       1.417  -2.707   2.693  1.00  0.00     0.016 A 
ATOM     13  C   UNL     1       1.399  -2.276   3.990  1.00  0.00     0.066 A 
ATOM     14  S   UNL     1       1.335  -0.593   4.079  1.00  0.00    -0.138 S 
BRANCH  11  15
ATOM     15  C   UNL     1       1.488  -2.045   0.254  1.00  0.00     0.034 C 
ATOM     16  C   UNL     1       2.450  -1.263  -0.617  1.00  0.00     0.009 C 
ENDBRANCH  11  15
ENDBRANCH   8  10
ENDBRANCH   7   8
BRANCH   7  17
ATOM     17  C   UNL     1       0.829   3.070   0.468  1.00  0.00     0.035 C 
ATOM     18  C   UNL     1      -0.061   3.910   1.410  1.00  0.00     0.034 C 
ATOM     19  C   UNL     1       2.303   3.539   0.597  1.00  0.00     0.034 C 
ATOM     20  C   UNL     1       0.428   3.452  -0.980  1.00  0.00     0.034 C 
ENDBRANCH   7  17
ENDBRANCH   6   7
ENDBRANCH   3   6
ENDBRANCH   1   2
BRANCH   1  21
ATOM     21  C   UNL     1      -2.374   1.170   2.977  1.00  0.00     0.042 C 
BRANCH  21  22
ATOM     22  C   UNL     1      -3.784   1.743   2.977  1.00  0.00     0.118 C 
BRANCH  22  23
ATOM     23  N   UNL     1      -4.780   0.724   3.282  1.00  0.00    -0.352 N 
ATOM     24  C   UNL     1      -5.796   0.765   4.196  1.00  0.00     0.251 C 
ATOM     25  H   UNL     1      -4.711  -0.108   2.760  1.00  0.00     0.163 HD
ATOM     26  O   UNL     1      -6.391  -0.271   4.495  1.00  0.00    -0.269 OA
BRANCH  24  27
ATOM     27  C   UNL     1      -6.162   2.050   4.815  1.00  0.00     0.039 A 
ATOM     28  C   UNL     1      -6.432   2.087   6.183  1.00  0.00     0.014 A 
ATOM     29  C   UNL     1      -6.239   3.214   4.042  1.00  0.00     0.014 A 
ATOM     30  C   UNL     1      -6.746   3.305   6.782  1.00  0.00     0.010 A 
ATOM     31  C   UNL     1      -6.465   4.438   4.657  1.00  0.00     0.010 A 
ATOM     32  C   UNL     1      -6.739   4.493   6.029  1.00  0.00    -0.014 A 
BRANCH  32  33
ATOM     33  C   UNL     1      -7.024   5.795   6.677  1.00  0.00     0.031 A 
ATOM     34  C   UNL     1      -8.235   6.593   6.279  1.00  0.00     0.074 A 
ATOM     35  C   UNL     1      -6.170   6.263   7.607  1.00  0.00     0.049 A 
ATOM     36  N   UNL     1      -8.663   7.734   6.755  1.00  0.00    -0.248 NA
ATOM     37  C   UNL     1      -9.060   6.057   5.183  1.00  0.00     0.031 C 
ATOM     38  C   UNL     1      -4.925   5.607   8.018  1.00  0.00     0.029 A 
ATOM     39  N   UNL     1      -6.219   7.393   8.381  1.00  0.00    -0.354 N 
ATOM     40  C   UNL     1      -9.798   8.051   6.019  1.00  0.00     0.074 A 
ATOM     41  C   UNL     1      -9.956   7.019   5.019  1.00  0.00     0.031 C 
ATOM     42  C   UNL     1      -4.353   6.322   8.998  1.00  0.00     0.029 A 
ATOM     43  C   UNL     1      -5.170   7.502   9.263  1.00  0.00     0.049 A 
ATOM     44  H   UNL     1      -6.936   8.063   8.312  1.00  0.00     0.167 HD
ATOM     45  C   UNL     1     -10.648   9.094   6.181  1.00  0.00     0.037 A 
ATOM     46  C   UNL     1      -4.903   8.443  10.188  1.00  0.00     0.037 A 
ATOM     47  C   UNL     1     -10.487  10.105   7.194  1.00  0.00     0.049 A 
ATOM     48  C   UNL     1      -5.876   9.576  10.366  1.00  0.00     0.074 A 
ATOM     49  C   UNL     1     -11.316  11.174   7.484  1.00  0.00     0.029 A 
ATOM     50  N   UNL     1      -9.423  10.174   8.083  1.00  0.00    -0.354 N 
ATOM     51  N   UNL     1      -6.987   9.822   9.712  1.00  0.00    -0.248 NA
ATOM     52  C   UNL     1      -5.568  10.551  11.420  1.00  0.00     0.031 C 
ATOM     53  C   UNL     1     -10.730  11.915   8.516  1.00  0.00     0.029 A 
ATOM     54  C   UNL     1      -9.564  11.277   8.909  1.00  0.00     0.049 A 
ATOM     55  H   UNL     1      -8.677   9.532   8.121  1.00  0.00     0.167 HD
ATOM     56  C   UNL     1      -7.523  10.966  10.291  1.00  0.00     0.074 A 
ATOM     57  C   UNL     1      -6.625  11.347  11.363  1.00  0.00     0.031 C 
ATOM     58  C   UNL     1      -8.654  11.643   9.966  1.00  0.00     0.037 A 
BRANCH  45  59
ATOM     59  C   UNL     1     -11.827   9.186   5.250  1.00  0.00     0.058 A 
ATOM     60  C   UNL     1     -12.885   8.263   5.303  1.00  0.00     0.135 A 
ATOM     61  C   UNL     1     -11.920  10.229   4.314  1.00  0.00     0.135 A 
ATOM     62  F   UNL     1     -12.843   7.235   6.166  1.00  0.00    -0.206 F 
ATOM     63  C   UNL     1     -13.976   8.353   4.444  1.00  0.00     0.059 A 
ATOM     64  C   UNL     1     -13.017  10.356   3.466  1.00  0.00     0.059 A 
ATOM     65  F   UNL     1     -10.938  11.139   4.215  1.00  0.00    -0.206 F 
ATOM     66  C   UNL     1     -14.034   9.405   3.530  1.00  0.00     0.060 A 
BRANCH  66  67
ATOM     67  S   UNL     1     -15.463   9.514   2.433  1.00  0.00     0.124 S 
ATOM     68  O   UNL     1     -15.216   8.402   1.519  1.00  0.00    -0.237 OA
ATOM     69  O   UNL     1     -16.579   9.338   3.356  1.00  0.00    -0.237 OA
ATOM     70  O   UNL     1     -15.342  10.845   1.847  1.00  0.00    -0.744 OA
ENDBRANCH  66  67
ENDBRANCH  45  59
BRANCH  46  71
ATOM     71  C   UNL     1      -3.688   8.328  11.037  1.00  0.00     0.058 A 
ATOM     72  C   UNL     1      -3.786   8.040  12.406  1.00  0.00     0.135 A 
ATOM     73  C   UNL     1      -2.403   8.488  10.495  1.00  0.00     0.135 A 
ATOM     74  F   UNL     1      -4.992   7.880  12.973  1.00  0.00    -0.206 F 
ATOM     75  C   UNL     1      -2.658   7.937  13.213  1.00  0.00     0.059 A 
ATOM     76  C   UNL     1      -1.258   8.360  11.275  1.00  0.00     0.059 A 
ATOM     77  F   UNL     1      -2.253   8.743   9.185  1.00  0.00    -0.206 F 
ATOM     78  C   UNL     1      -1.397   8.098  12.637  1.00  0.00     0.060 A 
BRANCH  78  79
ATOM     79  S   UNL     1       0.063   7.922  13.685  1.00  0.00     0.124 S 
ATOM     80  O   UNL     1       0.012   9.151  14.468  1.00  0.00    -0.237 OA
ATOM     81  O   UNL     1      -0.228   6.689  14.411  1.00  0.00    -0.237 OA
ATOM     82  O   UNL     1       1.157   7.830  12.724  1.00  0.00    -0.744 OA
ENDBRANCH  78  79
ENDBRANCH  46  71
BRANCH  58  83
ATOM     83  C   UNL     1      -8.992  12.845  10.805  1.00  0.00     0.058 A 
ATOM     84  C   UNL     1      -8.234  14.025  10.749  1.00  0.00     0.135 A 
ATOM     85  C   UNL     1     -10.094  12.815  11.677  1.00  0.00     0.135 A 
ATOM     86  F   UNL     1      -7.170  14.106   9.934  1.00  0.00    -0.206 F 
ATOM     87  C   UNL     1      -8.522  15.114  11.565  1.00  0.00     0.059 A 
ATOM     88  C   UNL     1     -10.421  13.905  12.476  1.00  0.00     0.059 A 
ATOM     89  F   UNL     1     -10.864  11.719  11.758  1.00  0.00    -0.206 F 
ATOM     90  C   UNL     1      -9.614  15.041  12.431  1.00  0.00     0.060 A 
BRANCH  90  91
ATOM     91  S   UNL     1      -9.970  16.452  13.498  1.00  0.00     0.124 S 
ATOM     92  O   UNL     1      -8.919  16.331  14.502  1.00  0.00    -0.237 OA
ATOM     93  O   UNL     1      -9.842  17.579  12.579  1.00  0.00    -0.237 OA
ATOM     94  O   UNL     1     -11.325  16.188  13.971  1.00  0.00    -0.744 OA
ENDBRANCH  90  91
ENDBRANCH  58  83
ENDBRANCH  32  33
ENDBRANCH  24  27
ENDBRANCH  22  23
ENDBRANCH  21  22
ENDBRANCH   1  21
TORSDOF 18
