REMARK SMILES CC(C)[C@@H](CNC(=O)NC[C@@]1(C)CCCO1)C(=O)NCCCNC(=O)c1ccc(-c2c3nc(c(-c4c(F)cc(S(=O)(=O)[O-])cc4F)c4ccc([nH]4)c(-c4c(F)cc(S(=O)(=O)[O-])cc4F)c4nc(c(-c5c(F)cc(S(=O)(=O)[O-])cc5F)c5ccc2[nH]5)C=C4)C=C3)cc1
REMARK SMILES IDX 20 1 19 2 17 3 18 4 4 6 2 7 1 8 3 9 5 10 6 11 7 12 8 14 9 15
REMARK SMILES IDX 10 17 11 18 12 19 13 20 16 21 14 22 15 23 21 24 22 25 23 26
REMARK SMILES IDX 24 27 25 29 26 30 27 31 91 32 28 33 90 34 29 35 30 36 31 37
REMARK SMILES IDX 84 38 32 39 89 40 83 41 85 42 33 43 88 44 82 45 81 46 34 48
REMARK SMILES IDX 68 49 47 50 67 51 48 52 51 53 66 54 86 55 49 56 50 57 65 59
REMARK SMILES IDX 87 60 52 61 35 62 36 63 45 64 37 65 38 66 44 67 46 68 39 69
REMARK SMILES IDX 40 70 41 71 42 72 43 73 69 74 70 75 79 76 71 77 72 78 78 79
REMARK SMILES IDX 80 80 73 81 74 82 75 83 76 84 77 85 53 86 54 87 63 88 55 89
REMARK SMILES IDX 56 90 62 91 64 92 57 93 58 94 59 95 60 96 61 97
REMARK H PARENT 19 5 6 13 9 16 23 28 85 47 51 58
REMARK Flexibility Score: inf
ROOT
ATOM      1  C   UNL     1      -0.231  -0.075   4.148  1.00  0.00     0.117 C 
ENDROOT
BRANCH   1   2
ATOM      2  N   UNL     1      -1.070   0.985   3.618  1.00  0.00    -0.356 N 
ATOM      3  C   UNL     1      -1.453   1.249   2.342  1.00  0.00     0.225 C 
ATOM      4  O   UNL     1      -2.346   2.087   2.175  1.00  0.00    -0.275 OA
ATOM      5  H   UNL     1      -1.417   1.613   4.292  1.00  0.00     0.163 HD
BRANCH   3   6
ATOM      6  C   UNL     1      -0.827   0.558   1.134  1.00  0.00     0.100 C 
BRANCH   6   7
ATOM      7  C   UNL     1       0.721   0.662   1.065  1.00  0.00    -0.003 C 
ATOM      8  C   UNL     1       1.303  -0.018  -0.177  1.00  0.00     0.008 C 
ATOM      9  C   UNL     1       1.153   2.140   1.068  1.00  0.00     0.008 C 
ENDBRANCH   6   7
BRANCH   6  10
ATOM     10  C   UNL     1      -1.493  -0.799   0.837  1.00  0.00     0.131 C 
BRANCH  10  11
ATOM     11  N   UNL     1      -1.417  -1.837   1.845  1.00  0.00    -0.337 N 
ATOM     12  C   UNL     1      -2.175  -2.146   2.906  1.00  0.00     0.314 C 
ATOM     13  H   UNL     1      -0.649  -2.441   1.726  1.00  0.00     0.165 HD
ATOM     14  O   UNL     1      -1.706  -2.915   3.746  1.00  0.00    -0.249 OA
ATOM     15  N   UNL     1      -3.393  -1.644   3.129  1.00  0.00    -0.335 N 
ATOM     16  H   UNL     1      -3.629  -1.593   4.084  1.00  0.00     0.165 HD
BRANCH  15  17
ATOM     17  C   UNL     1      -4.441  -1.157   2.245  1.00  0.00     0.152 C 
BRANCH  17  18
ATOM     18  C   UNL     1      -5.062  -2.241   1.319  1.00  0.00     0.083 C 
ATOM     19  C   UNL     1      -4.697  -1.998  -0.152  1.00  0.00     0.044 C 
ATOM     20  C   UNL     1      -4.756  -3.688   1.732  1.00  0.00     0.039 C 
ATOM     21  O   UNL     1      -6.510  -2.132   1.393  1.00  0.00    -0.373 OA
ATOM     22  C   UNL     1      -5.977  -4.439   1.270  1.00  0.00     0.031 C 
ATOM     23  C   UNL     1      -7.071  -3.441   1.572  1.00  0.00     0.161 C 
ENDBRANCH  17  18
ENDBRANCH  15  17
ENDBRANCH  10  11
ENDBRANCH   6  10
ENDBRANCH   3   6
ENDBRANCH   1   2
BRANCH   1  24
ATOM     24  C   UNL     1       0.964   0.436   4.925  1.00  0.00     0.042 C 
BRANCH  24  25
ATOM     25  C   UNL     1       0.576   1.068   6.250  1.00  0.00     0.118 C 
BRANCH  25  26
ATOM     26  N   UNL     1      -0.082   0.130   7.157  1.00  0.00    -0.352 N 
ATOM     27  C   UNL     1       0.336  -0.403   8.354  1.00  0.00     0.251 C 
ATOM     28  H   UNL     1      -0.972  -0.170   6.862  1.00  0.00     0.163 HD
ATOM     29  O   UNL     1      -0.296  -1.315   8.870  1.00  0.00    -0.269 OA
BRANCH  27  30
ATOM     30  C   UNL     1       1.558   0.115   9.001  1.00  0.00     0.039 A 
ATOM     31  C   UNL     1       2.449  -0.780   9.597  1.00  0.00     0.014 A 
ATOM     32  C   UNL     1       1.827   1.484   9.009  1.00  0.00     0.014 A 
ATOM     33  C   UNL     1       3.648  -0.303  10.130  1.00  0.00     0.010 A 
ATOM     34  C   UNL     1       3.070   1.938   9.421  1.00  0.00     0.010 A 
ATOM     35  C   UNL     1       3.987   1.054  10.006  1.00  0.00    -0.014 A 
BRANCH  35  36
ATOM     36  C   UNL     1       5.277   1.589  10.506  1.00  0.00     0.031 A 
ATOM     37  C   UNL     1       5.279   2.666  11.559  1.00  0.00     0.074 A 
ATOM     38  C   UNL     1       6.434   1.165   9.963  1.00  0.00     0.049 A 
ATOM     39  N   UNL     1       6.287   3.326  12.066  1.00  0.00    -0.248 NA
ATOM     40  C   UNL     1       3.967   3.084  12.081  1.00  0.00     0.031 C 
ATOM     41  C   UNL     1       6.556   0.163   8.902  1.00  0.00     0.029 A 
ATOM     42  N   UNL     1       7.731   1.527  10.226  1.00  0.00    -0.354 N 
ATOM     43  C   UNL     1       5.730   4.245  12.948  1.00  0.00     0.074 A 
ATOM     44  C   UNL     1       4.294   4.113  12.846  1.00  0.00     0.031 C 
ATOM     45  C   UNL     1       7.856  -0.043   8.638  1.00  0.00     0.029 A 
ATOM     46  C   UNL     1       8.658   0.845   9.475  1.00  0.00     0.049 A 
ATOM     47  H   UNL     1       7.974   2.212  10.890  1.00  0.00     0.167 HD
ATOM     48  C   UNL     1       6.356   5.097  13.795  1.00  0.00     0.037 A 
ATOM     49  C   UNL     1      10.002   0.925   9.466  1.00  0.00     0.037 A 
ATOM     50  C   UNL     1       7.787   5.204  13.903  1.00  0.00     0.049 A 
ATOM     51  C   UNL     1      10.680   1.888  10.401  1.00  0.00     0.074 A 
ATOM     52  C   UNL     1       8.530   5.999  14.756  1.00  0.00     0.029 A 
ATOM     53  N   UNL     1       8.693   4.491  13.129  1.00  0.00    -0.354 N 
ATOM     54  N   UNL     1      10.142   2.713  11.269  1.00  0.00    -0.248 NA
ATOM     55  C   UNL     1      12.147   1.930  10.359  1.00  0.00     0.031 C 
ATOM     56  C   UNL     1       9.885   5.802  14.465  1.00  0.00     0.029 A 
ATOM     57  C   UNL     1       9.988   4.842  13.470  1.00  0.00     0.049 A 
ATOM     58  H   UNL     1       8.450   3.833  12.438  1.00  0.00     0.167 HD
ATOM     59  C   UNL     1      11.205   3.347  11.901  1.00  0.00     0.074 A 
ATOM     60  C   UNL     1      12.417   2.805  11.318  1.00  0.00     0.031 C 
ATOM     61  C   UNL     1      11.182   4.287  12.880  1.00  0.00     0.037 A 
BRANCH  48  62
ATOM     62  C   UNL     1       5.486   5.971  14.659  1.00  0.00     0.058 A 
ATOM     63  C   UNL     1       4.668   5.431  15.668  1.00  0.00     0.135 A 
ATOM     64  C   UNL     1       5.446   7.360  14.464  1.00  0.00     0.135 A 
ATOM     65  F   UNL     1       4.653   4.107  15.892  1.00  0.00    -0.206 F 
ATOM     66  C   UNL     1       3.801   6.228  16.408  1.00  0.00     0.059 A 
ATOM     67  C   UNL     1       4.613   8.182  15.218  1.00  0.00     0.059 A 
ATOM     68  F   UNL     1       6.207   7.933  13.518  1.00  0.00    -0.206 F 
ATOM     69  C   UNL     1       3.774   7.602  16.169  1.00  0.00     0.060 A 
BRANCH  69  70
ATOM     70  S   UNL     1       2.615   8.617  17.109  1.00  0.00     0.124 S 
ATOM     71  O   UNL     1       1.345   8.260  16.484  1.00  0.00    -0.237 OA
ATOM     72  O   UNL     1       2.808   8.133  18.472  1.00  0.00    -0.237 OA
ATOM     73  O   UNL     1       3.076   9.979  16.859  1.00  0.00    -0.744 OA
ENDBRANCH  69  70
ENDBRANCH  48  62
BRANCH  49  74
ATOM     74  C   UNL     1      10.790   0.024   8.583  1.00  0.00     0.058 A 
ATOM     75  C   UNL     1      11.534  -1.035   9.125  1.00  0.00     0.135 A 
ATOM     76  C   UNL     1      10.786   0.172   7.187  1.00  0.00     0.135 A 
ATOM     77  F   UNL     1      11.573  -1.214  10.454  1.00  0.00    -0.206 F 
ATOM     78  C   UNL     1      12.250  -1.912   8.318  1.00  0.00     0.059 A 
ATOM     79  C   UNL     1      11.475  -0.707   6.357  1.00  0.00     0.059 A 
ATOM     80  F   UNL     1      10.077   1.159   6.617  1.00  0.00    -0.206 F 
ATOM     81  C   UNL     1      12.209  -1.744   6.933  1.00  0.00     0.060 A 
BRANCH  81  82
ATOM     82  S   UNL     1      13.087  -2.931   5.894  1.00  0.00     0.124 S 
ATOM     83  O   UNL     1      14.478  -2.580   6.155  1.00  0.00    -0.237 OA
ATOM     84  O   UNL     1      12.636  -4.207   6.441  1.00  0.00    -0.237 OA
ATOM     85  O   UNL     1      12.601  -2.627   4.551  1.00  0.00    -0.744 OA
ENDBRANCH  81  82
ENDBRANCH  49  74
BRANCH  61  86
ATOM     86  C   UNL     1      12.506   4.762  13.412  1.00  0.00     0.058 A 
ATOM     87  C   UNL     1      13.354   5.590  12.661  1.00  0.00     0.135 A 
ATOM     88  C   UNL     1      12.906   4.423  14.715  1.00  0.00     0.135 A 
ATOM     89  F   UNL     1      13.022   5.938  11.407  1.00  0.00    -0.206 F 
ATOM     90  C   UNL     1      14.564   6.045  13.173  1.00  0.00     0.059 A 
ATOM     91  C   UNL     1      14.097   4.891  15.259  1.00  0.00     0.059 A 
ATOM     92  F   UNL     1      12.127   3.642  15.481  1.00  0.00    -0.206 F 
ATOM     93  C   UNL     1      14.926   5.692  14.475  1.00  0.00     0.060 A 
BRANCH  93  94
ATOM     94  S   UNL     1      16.483   6.318  15.139  1.00  0.00     0.124 S 
ATOM     95  O   UNL     1      17.458   5.510  14.414  1.00  0.00    -0.237 OA
ATOM     96  O   UNL     1      16.433   7.730  14.774  1.00  0.00    -0.237 OA
ATOM     97  O   UNL     1      16.378   6.042  16.569  1.00  0.00    -0.744 OA
ENDBRANCH  93  94
ENDBRANCH  61  86
ENDBRANCH  35  36
ENDBRANCH  27  30
ENDBRANCH  25  26
ENDBRANCH  24  25
ENDBRANCH   1  24
TORSDOF 18
