REMARK SMILES Cc1cccc([C@@H](CC(F)(F)F)C(=O)NCCCNC(=O)c2ccc(-c3c4nc(c(-c5c(F)cc(S(=O)(=O)[O-])cc5F)c5ccc([nH]5)c(-c5c(F)cc(S(=O)(=O)[O-])cc5F)c5nc(c(-c6c(F)cc(S(=O)(=O)[O-])cc6F)c6ccc3[nH]6)C=C5)C=C4)cc2)c1
REMARK SMILES IDX 17 1 16 2 15 3 13 4 14 5 7 7 6 8 1 9 2 10 3 11 88 12 4 13
REMARK SMILES IDX 5 14 8 15 9 16 10 17 11 18 12 19 18 20 19 21 20 22 21 24
REMARK SMILES IDX 22 25 23 26 87 27 24 28 86 29 25 30 26 31 27 32 80 33 28 34
REMARK SMILES IDX 85 35 79 36 81 37 29 38 84 39 78 40 77 41 30 43 64 44 43 45
REMARK SMILES IDX 63 46 44 47 47 48 62 49 82 50 45 51 46 52 61 54 83 55 48 56
REMARK SMILES IDX 31 57 32 58 41 59 33 60 34 61 40 62 42 63 35 64 36 65 37 66
REMARK SMILES IDX 38 67 39 68 65 69 66 70 75 71 67 72 68 73 74 74 76 75 69 76
REMARK SMILES IDX 70 77 71 78 72 79 73 80 49 81 50 82 59 83 51 84 52 85 58 86
REMARK SMILES IDX 60 87 53 88 54 89 55 90 56 91 57 92
REMARK H PARENT 15 6 19 23 81 42 47 53
REMARK Flexibility Score: inf
ROOT
ATOM      1  C   UNL     1      -4.002  -0.655   0.932  1.00  0.00     0.042 C 
ENDROOT
BRANCH   1   2
ATOM      2  C   UNL     1      -4.484   0.696   0.428  1.00  0.00     0.117 C 
BRANCH   2   3
ATOM      3  N   UNL     1      -3.812   1.808   1.084  1.00  0.00    -0.356 N 
ATOM      4  C   UNL     1      -2.721   2.554   0.792  1.00  0.00     0.227 C 
ATOM      5  O   UNL     1      -2.459   3.463   1.593  1.00  0.00    -0.274 OA
ATOM      6  H   UNL     1      -4.247   2.077   1.926  1.00  0.00     0.163 HD
BRANCH   4   7
ATOM      7  C   UNL     1      -1.821   2.391  -0.440  1.00  0.00     0.117 C 
BRANCH   7   8
ATOM      8  C   UNL     1      -0.954   1.136  -0.493  1.00  0.00    -0.035 A 
ATOM      9  C   UNL     1       2.679   0.214   0.331  1.00  0.00     0.044 C 
ATOM     10  C   UNL     1       1.242   0.097  -0.083  1.00  0.00    -0.051 A 
ATOM     11  C   UNL     1       0.729  -1.136  -0.484  1.00  0.00     0.003 A 
ATOM     12  C   UNL     1       0.389   1.212  -0.060  1.00  0.00     0.008 A 
ATOM     13  C   UNL     1      -0.588  -1.231  -0.924  1.00  0.00     0.001 A 
ATOM     14  C   UNL     1      -1.406  -0.097  -0.964  1.00  0.00     0.004 A 
ENDBRANCH   7   8
BRANCH   7  15
ATOM     15  C   UNL     1      -2.312   2.987  -1.766  1.00  0.00     0.133 C 
BRANCH  15  16
ATOM     16  C   UNL     1      -3.593   2.497  -2.379  1.00  0.00     0.390 C 
ATOM     17  F   UNL     1      -4.659   2.756  -1.602  1.00  0.00    -0.171 F 
ATOM     18  F   UNL     1      -3.799   3.141  -3.556  1.00  0.00    -0.171 F 
ATOM     19  F   UNL     1      -3.561   1.182  -2.662  1.00  0.00    -0.171 F 
ENDBRANCH  15  16
ENDBRANCH   7  15
ENDBRANCH   4   7
ENDBRANCH   2   3
ENDBRANCH   1   2
BRANCH   1  20
ATOM     20  C   UNL     1      -5.038  -1.391   1.767  1.00  0.00     0.118 C 
BRANCH  20  21
ATOM     21  N   UNL     1      -5.674  -2.487   1.035  1.00  0.00    -0.352 N 
ATOM     22  C   UNL     1      -6.393  -3.550   1.559  1.00  0.00     0.251 C 
ATOM     23  H   UNL     1      -5.579  -2.468   0.055  1.00  0.00     0.163 HD
ATOM     24  O   UNL     1      -6.811  -4.462   0.867  1.00  0.00    -0.269 OA
BRANCH  22  25
ATOM     25  C   UNL     1      -6.674  -3.496   3.007  1.00  0.00     0.039 A 
ATOM     26  C   UNL     1      -7.950  -3.086   3.400  1.00  0.00     0.014 A 
ATOM     27  C   UNL     1      -5.596  -3.472   3.887  1.00  0.00     0.014 A 
ATOM     28  C   UNL     1      -8.104  -2.446   4.625  1.00  0.00     0.010 A 
ATOM     29  C   UNL     1      -5.734  -2.745   5.053  1.00  0.00     0.010 A 
ATOM     30  C   UNL     1      -6.974  -2.180   5.397  1.00  0.00    -0.014 A 
BRANCH  30  31
ATOM     31  C   UNL     1      -6.960  -1.222   6.501  1.00  0.00     0.031 A 
ATOM     32  C   UNL     1      -6.649  -1.682   7.878  1.00  0.00     0.074 A 
ATOM     33  C   UNL     1      -7.155   0.100   6.277  1.00  0.00     0.049 A 
ATOM     34  N   UNL     1      -6.817  -0.960   8.935  1.00  0.00    -0.248 NA
ATOM     35  C   UNL     1      -6.203  -3.041   8.193  1.00  0.00     0.031 C 
ATOM     36  C   UNL     1      -6.782   1.203   7.161  1.00  0.00     0.029 A 
ATOM     37  N   UNL     1      -7.930   0.709   5.291  1.00  0.00    -0.354 N 
ATOM     38  C   UNL     1      -6.224  -1.613   9.986  1.00  0.00     0.074 A 
ATOM     39  C   UNL     1      -5.980  -2.948   9.507  1.00  0.00     0.031 C 
ATOM     40  C   UNL     1      -7.488   2.293   6.832  1.00  0.00     0.029 A 
ATOM     41  C   UNL     1      -8.453   1.902   5.822  1.00  0.00     0.049 A 
ATOM     42  H   UNL     1      -8.084   0.365   4.381  1.00  0.00     0.167 HD
ATOM     43  C   UNL     1      -5.881  -0.902  11.093  1.00  0.00     0.037 A 
ATOM     44  C   UNL     1      -9.798   2.118   5.923  1.00  0.00     0.037 A 
ATOM     45  C   UNL     1      -6.585   0.379  11.132  1.00  0.00     0.049 A 
ATOM     46  C   UNL     1     -10.307   2.282   7.338  1.00  0.00     0.074 A 
ATOM     47  C   UNL     1      -6.204   1.697  10.963  1.00  0.00     0.029 A 
ATOM     48  N   UNL     1      -7.979   0.372  11.151  1.00  0.00    -0.354 N 
ATOM     49  N   UNL     1      -9.593   2.051   8.406  1.00  0.00    -0.248 NA
ATOM     50  C   UNL     1     -11.674   2.683   7.666  1.00  0.00     0.031 C 
ATOM     51  C   UNL     1      -7.385   2.466  10.762  1.00  0.00     0.029 A 
ATOM     52  C   UNL     1      -8.481   1.625  10.865  1.00  0.00     0.049 A 
ATOM     53  H   UNL     1      -8.531  -0.421  11.342  1.00  0.00     0.167 HD
ATOM     54  C   UNL     1     -10.380   2.163   9.522  1.00  0.00     0.074 A 
ATOM     55  C   UNL     1     -11.660   2.617   9.009  1.00  0.00     0.031 C 
ATOM     56  C   UNL     1      -9.922   1.835  10.768  1.00  0.00     0.037 A 
BRANCH  43  57
ATOM     57  C   UNL     1      -4.770  -1.287  12.051  1.00  0.00     0.058 A 
ATOM     58  C   UNL     1      -4.553  -0.542  13.232  1.00  0.00     0.135 A 
ATOM     59  C   UNL     1      -3.791  -2.275  11.793  1.00  0.00     0.135 A 
ATOM     60  F   UNL     1      -5.388   0.446  13.587  1.00  0.00    -0.206 F 
ATOM     61  C   UNL     1      -3.453  -0.752  14.074  1.00  0.00     0.059 A 
ATOM     62  C   UNL     1      -2.718  -2.537  12.646  1.00  0.00     0.059 A 
ATOM     63  F   UNL     1      -3.773  -2.989  10.662  1.00  0.00    -0.206 F 
ATOM     64  C   UNL     1      -2.537  -1.752  13.770  1.00  0.00     0.060 A 
BRANCH  64  65
ATOM     65  S   UNL     1      -1.091  -2.002  14.819  1.00  0.00     0.124 S 
ATOM     66  O   UNL     1      -0.258  -0.860  14.456  1.00  0.00    -0.237 OA
ATOM     67  O   UNL     1      -1.664  -1.974  16.160  1.00  0.00    -0.237 OA
ATOM     68  O   UNL     1      -0.584  -3.303  14.390  1.00  0.00    -0.744 OA
ENDBRANCH  64  65
ENDBRANCH  43  57
BRANCH  44  69
ATOM     69  C   UNL     1     -10.569   1.558   4.783  1.00  0.00     0.058 A 
ATOM     70  C   UNL     1     -10.424   2.201   3.540  1.00  0.00     0.135 A 
ATOM     71  C   UNL     1     -10.993   0.222   4.783  1.00  0.00     0.135 A 
ATOM     72  F   UNL     1     -10.053   3.491   3.491  1.00  0.00    -0.206 F 
ATOM     73  C   UNL     1     -10.491   1.494   2.346  1.00  0.00     0.059 A 
ATOM     74  C   UNL     1     -11.075  -0.505   3.595  1.00  0.00     0.059 A 
ATOM     75  F   UNL     1     -11.158  -0.435   5.941  1.00  0.00    -0.206 F 
ATOM     76  C   UNL     1     -10.734   0.123   2.396  1.00  0.00     0.060 A 
BRANCH  76  77
ATOM     77  S   UNL     1     -10.356  -0.846   0.917  1.00  0.00     0.124 S 
ATOM     78  O   UNL     1     -11.193  -0.207  -0.092  1.00  0.00    -0.237 OA
ATOM     79  O   UNL     1      -8.917  -0.617   0.788  1.00  0.00    -0.237 OA
ATOM     80  O   UNL     1     -10.743  -2.200   1.296  1.00  0.00    -0.744 OA
ENDBRANCH  76  77
ENDBRANCH  44  69
BRANCH  56  81
ATOM     81  C   UNL     1     -10.770   1.724  12.018  1.00  0.00     0.058 A 
ATOM     82  C   UNL     1     -12.129   1.359  12.027  1.00  0.00     0.135 A 
ATOM     83  C   UNL     1     -10.174   1.866  13.295  1.00  0.00     0.135 A 
ATOM     84  F   UNL     1     -12.782   1.072  10.892  1.00  0.00    -0.206 F 
ATOM     85  C   UNL     1     -12.864   1.225  13.209  1.00  0.00     0.059 A 
ATOM     86  C   UNL     1     -10.874   1.681  14.486  1.00  0.00     0.059 A 
ATOM     87  F   UNL     1      -8.877   2.181  13.427  1.00  0.00    -0.206 F 
ATOM     88  C   UNL     1     -12.230   1.392  14.435  1.00  0.00     0.060 A 
BRANCH  88  89
ATOM     89  S   UNL     1     -13.151   1.175  15.970  1.00  0.00     0.124 S 
ATOM     90  O   UNL     1     -13.524   2.550  16.283  1.00  0.00    -0.237 OA
ATOM     91  O   UNL     1     -14.251   0.300  15.574  1.00  0.00    -0.237 OA
ATOM     92  O   UNL     1     -12.168   0.566  16.860  1.00  0.00    -0.744 OA
ENDBRANCH  88  89
ENDBRANCH  56  81
ENDBRANCH  30  31
ENDBRANCH  22  25
ENDBRANCH  20  21
ENDBRANCH   1  20
TORSDOF 16
