REMARK SMILES CCc1cc(=O)oc2c3c(cc(OCC(=O)NCC(=O)NCCCNC(=O)c4ccc(-c5c6nc(c(-c7c(F)cc(S(=O)(=O)[O-])cc7F)c7ccc([nH]7)c(-c7c(F)cc(S(=O)(=O)[O-])cc7F)c7nc(c(-c8c(F)cc(S(=O)(=O)[O-])cc8F)c8ccc5[nH]8)C=C7)C=C6)cc4)c12)OC(C)(C)CC3
REMARK SMILES IDX 22 1 21 2 19 3 20 4 18 6 17 7 15 8 16 9 14 11 13 12 12 13
REMARK SMILES IDX 3 14 4 15 94 16 5 17 8 18 6 19 7 20 9 21 11 22 10 23 100 24
REMARK SMILES IDX 95 25 99 26 96 27 97 28 98 29 2 30 1 31 23 32 24 33 25 34
REMARK SMILES IDX 26 35 27 37 28 38 29 39 93 40 30 41 92 42 31 43 32 44 33 45
REMARK SMILES IDX 86 46 34 47 91 48 85 49 87 50 35 51 90 52 84 53 83 54 36 56
REMARK SMILES IDX 70 57 49 58 69 59 50 60 53 61 68 62 88 63 51 64 52 65 67 67
REMARK SMILES IDX 89 68 54 69 37 70 38 71 47 72 39 73 40 74 46 75 48 76 41 77
REMARK SMILES IDX 42 78 43 79 44 80 45 81 71 82 72 83 81 84 73 85 74 86 80 87
REMARK SMILES IDX 82 88 75 89 76 90 77 91 78 92 79 93 55 94 56 95 65 96 57 97
REMARK SMILES IDX 58 98 64 99 66 100 59 101 60 102 61 103 62 104 63 105
REMARK H PARENT 21 5 17 10 25 36 87 55 53 66
REMARK Flexibility Score: inf
ROOT
ATOM      1  C   UNL     1      -1.001  -0.512   2.984  1.00  0.00     0.117 C 
ENDROOT
BRANCH   1   2
ATOM      2  N   UNL     1      -2.312  -0.021   2.629  1.00  0.00    -0.355 N 
ATOM      3  C   UNL     1      -2.610   1.061   1.847  1.00  0.00     0.239 C 
ATOM      4  O   UNL     1      -3.757   1.157   1.404  1.00  0.00    -0.273 OA
ATOM      5  H   UNL     1      -3.078  -0.522   2.991  1.00  0.00     0.163 HD
BRANCH   3   6
ATOM      6  C   UNL     1      -1.508   2.037   1.403  1.00  0.00     0.216 C 
BRANCH   6   7
ATOM      7  N   UNL     1      -0.710   2.583   2.487  1.00  0.00    -0.344 N 
ATOM      8  C   UNL     1       0.621   2.880   2.502  1.00  0.00     0.258 C 
ATOM      9  O   UNL     1       1.055   3.535   3.451  1.00  0.00    -0.271 OA
ATOM     10  H   UNL     1      -1.196   2.764   3.324  1.00  0.00     0.164 HD
BRANCH   8  11
ATOM     11  C   UNL     1       1.543   2.425   1.354  1.00  0.00     0.329 C 
BRANCH  11  12
ATOM     12  O   UNL     1       1.719   1.027   1.149  1.00  0.00    -0.483 OA
BRANCH  12  13
ATOM     13  C   UNL     1       2.286   0.258   2.129  1.00  0.00     0.135 A 
ATOM     14  C   UNL     1       1.543  -1.956   0.935  1.00  0.00    -0.026 A 
ATOM     15  C   UNL     1       1.591  -3.299   1.048  1.00  0.00     0.098 A 
ATOM     16  C   UNL     1       2.186  -1.154   2.027  1.00  0.00     0.063 A 
ATOM     17  C   UNL     1       2.211  -4.048   2.140  1.00  0.00     0.336 A 
ATOM     18  C   UNL     1       2.669  -1.875   3.147  1.00  0.00     0.149 A 
ATOM     19  O   UNL     1       2.281  -5.271   2.100  1.00  0.00    -0.246 OA
ATOM     20  O   UNL     1       2.666  -3.291   3.187  1.00  0.00    -0.422 OA
ATOM     21  C   UNL     1       3.144  -1.271   4.329  1.00  0.00     0.038 A 
ATOM     22  C   UNL     1       2.871   0.854   3.261  1.00  0.00     0.094 A 
ATOM     23  C   UNL     1       3.217   0.107   4.377  1.00  0.00     0.130 A 
ATOM     24  C   UNL     1       3.425  -2.077   5.560  1.00  0.00     0.047 C 
ATOM     25  O   UNL     1       3.563   0.826   5.485  1.00  0.00    -0.487 OA
ATOM     26  C   UNL     1       4.108  -1.255   6.641  1.00  0.00     0.053 C 
ATOM     27  C   UNL     1       3.489   0.145   6.753  1.00  0.00     0.104 C 
ATOM     28  C   UNL     1       4.318   0.996   7.723  1.00  0.00     0.056 C 
ATOM     29  C   UNL     1       2.035   0.136   7.258  1.00  0.00     0.056 C 
BRANCH  14  30
ATOM     30  C   UNL     1       0.687  -1.463  -0.226  1.00  0.00     0.033 C 
ATOM     31  C   UNL     1       1.068  -0.292  -1.118  1.00  0.00     0.009 C 
ENDBRANCH  14  30
ENDBRANCH  12  13
ENDBRANCH  11  12
ENDBRANCH   8  11
ENDBRANCH   6   7
ENDBRANCH   3   6
ENDBRANCH   1   2
BRANCH   1  32
ATOM     32  C   UNL     1      -0.699  -0.447   4.470  1.00  0.00     0.042 C 
BRANCH  32  33
ATOM     33  C   UNL     1      -1.227  -1.626   5.278  1.00  0.00     0.118 C 
BRANCH  33  34
ATOM     34  N   UNL     1      -0.633  -2.914   4.931  1.00  0.00    -0.352 N 
ATOM     35  C   UNL     1       0.035  -3.866   5.669  1.00  0.00     0.251 C 
ATOM     36  H   UNL     1      -0.728  -3.148   3.979  1.00  0.00     0.163 HD
ATOM     37  O   UNL     1       0.425  -4.877   5.087  1.00  0.00    -0.269 OA
BRANCH  35  38
ATOM     38  C   UNL     1       0.355  -3.690   7.109  1.00  0.00     0.039 A 
ATOM     39  C   UNL     1       1.572  -4.201   7.592  1.00  0.00     0.014 A 
ATOM     40  C   UNL     1      -0.503  -3.041   7.990  1.00  0.00     0.014 A 
ATOM     41  C   UNL     1       1.972  -3.966   8.913  1.00  0.00     0.010 A 
ATOM     42  C   UNL     1      -0.081  -2.744   9.284  1.00  0.00     0.010 A 
ATOM     43  C   UNL     1       1.153  -3.215   9.761  1.00  0.00    -0.014 A 
BRANCH  43  44
ATOM     44  C   UNL     1       1.462  -3.032  11.200  1.00  0.00     0.031 A 
ATOM     45  C   UNL     1       0.607  -3.756  12.199  1.00  0.00     0.074 A 
ATOM     46  C   UNL     1       2.417  -2.177  11.612  1.00  0.00     0.049 A 
ATOM     47  N   UNL     1       0.574  -3.640  13.498  1.00  0.00    -0.248 NA
ATOM     48  C   UNL     1      -0.364  -4.721  11.652  1.00  0.00     0.031 C 
ATOM     49  C   UNL     1       3.312  -1.429  10.735  1.00  0.00     0.029 A 
ATOM     50  N   UNL     1       2.774  -1.765  12.872  1.00  0.00    -0.354 N 
ATOM     51  C   UNL     1      -0.421  -4.510  13.923  1.00  0.00     0.074 A 
ATOM     52  C   UNL     1      -1.016  -5.092  12.742  1.00  0.00     0.031 C 
ATOM     53  C   UNL     1       4.091  -0.623  11.474  1.00  0.00     0.029 A 
ATOM     54  C   UNL     1       3.740  -0.784  12.880  1.00  0.00     0.049 A 
ATOM     55  H   UNL     1       2.377  -2.136  13.692  1.00  0.00     0.167 HD
ATOM     56  C   UNL     1      -0.783  -4.820  15.189  1.00  0.00     0.037 A 
ATOM     57  C   UNL     1       4.270  -0.087  13.903  1.00  0.00     0.037 A 
ATOM     58  C   UNL     1      -0.173  -4.243  16.355  1.00  0.00     0.049 A 
ATOM     59  C   UNL     1       3.821  -0.413  15.303  1.00  0.00     0.074 A 
ATOM     60  C   UNL     1      -0.432  -4.512  17.686  1.00  0.00     0.029 A 
ATOM     61  N   UNL     1       0.821  -3.273  16.327  1.00  0.00    -0.354 N 
ATOM     62  N   UNL     1       2.917  -1.280  15.694  1.00  0.00    -0.248 NA
ATOM     63  C   UNL     1       4.477   0.310  16.399  1.00  0.00     0.031 C 
ATOM     64  C   UNL     1       0.375  -3.674  18.463  1.00  0.00     0.029 A 
ATOM     65  C   UNL     1       1.173  -2.920  17.617  1.00  0.00     0.049 A 
ATOM     66  H   UNL     1       1.216  -2.894  15.509  1.00  0.00     0.167 HD
ATOM     67  C   UNL     1       2.926  -1.238  17.084  1.00  0.00     0.074 A 
ATOM     68  C   UNL     1       3.927  -0.261  17.462  1.00  0.00     0.031 C 
ATOM     69  C   UNL     1       2.183  -1.950  17.967  1.00  0.00     0.037 A 
BRANCH  56  70
ATOM     70  C   UNL     1      -1.887  -5.824  15.358  1.00  0.00     0.058 A 
ATOM     71  C   UNL     1      -1.707  -7.178  15.025  1.00  0.00     0.135 A 
ATOM     72  C   UNL     1      -3.142  -5.431  15.845  1.00  0.00     0.135 A 
ATOM     73  F   UNL     1      -0.533  -7.603  14.530  1.00  0.00    -0.206 F 
ATOM     74  C   UNL     1      -2.744  -8.097  15.135  1.00  0.00     0.059 A 
ATOM     75  C   UNL     1      -4.185  -6.341  15.992  1.00  0.00     0.059 A 
ATOM     76  F   UNL     1      -3.371  -4.149  16.169  1.00  0.00    -0.206 F 
ATOM     77  C   UNL     1      -3.980  -7.668  15.617  1.00  0.00     0.060 A 
BRANCH  77  78
ATOM     78  S   UNL     1      -5.317  -8.873  15.748  1.00  0.00     0.124 S 
ATOM     79  O   UNL     1      -5.673  -9.066  14.346  1.00  0.00    -0.237 OA
ATOM     80  O   UNL     1      -4.657 -10.002  16.396  1.00  0.00    -0.237 OA
ATOM     81  O   UNL     1      -6.316  -8.184  16.560  1.00  0.00    -0.744 OA
ENDBRANCH  77  78
ENDBRANCH  56  70
BRANCH  57  82
ATOM     82  C   UNL     1       5.299   0.961  13.651  1.00  0.00     0.058 A 
ATOM     83  C   UNL     1       6.637   0.764  14.023  1.00  0.00     0.135 A 
ATOM     84  C   UNL     1       4.968   2.179  13.035  1.00  0.00     0.135 A 
ATOM     85  F   UNL     1       7.005  -0.380  14.619  1.00  0.00    -0.206 F 
ATOM     86  C   UNL     1       7.606   1.742  13.814  1.00  0.00     0.059 A 
ATOM     87  C   UNL     1       5.923   3.163  12.795  1.00  0.00     0.059 A 
ATOM     88  F   UNL     1       3.705   2.413  12.644  1.00  0.00    -0.206 F 
ATOM     89  C   UNL     1       7.239   2.940  13.198  1.00  0.00     0.060 A 
BRANCH  89  90
ATOM     90  S   UNL     1       8.514   4.185  12.903  1.00  0.00     0.124 S 
ATOM     91  O   UNL     1       8.784   4.657  14.256  1.00  0.00    -0.237 OA
ATOM     92  O   UNL     1       9.572   3.396  12.279  1.00  0.00    -0.237 OA
ATOM     93  O   UNL     1       7.852   5.141  12.021  1.00  0.00    -0.744 OA
ENDBRANCH  89  90
ENDBRANCH  57  82
BRANCH  69  94
ATOM     94  C   UNL     1       2.457  -1.735  19.428  1.00  0.00     0.058 A 
ATOM     95  C   UNL     1       2.069  -0.560  20.089  1.00  0.00     0.135 A 
ATOM     96  C   UNL     1       3.073  -2.745  20.186  1.00  0.00     0.135 A 
ATOM     97  F   UNL     1       1.483   0.437  19.408  1.00  0.00    -0.206 F 
ATOM     98  C   UNL     1       2.304  -0.383  21.448  1.00  0.00     0.059 A 
ATOM     99  C   UNL     1       3.291  -2.601  21.551  1.00  0.00     0.059 A 
ATOM    100  F   UNL     1       3.453  -3.893  19.602  1.00  0.00    -0.206 F 
ATOM    101  C   UNL     1       2.914  -1.410  22.171  1.00  0.00     0.060 A 
BRANCH 101 102
ATOM    102  S   UNL     1       3.185  -1.181  23.940  1.00  0.00     0.124 S 
ATOM    103  O   UNL     1       4.307  -0.248  23.946  1.00  0.00    -0.237 OA
ATOM    104  O   UNL     1       1.905  -0.637  24.384  1.00  0.00    -0.237 OA
ATOM    105  O   UNL     1       3.486  -2.528  24.415  1.00  0.00    -0.744 OA
ENDBRANCH 101 102
ENDBRANCH  69  94
ENDBRANCH  43  44
ENDBRANCH  35  38
ENDBRANCH  33  34
ENDBRANCH  32  33
ENDBRANCH   1  32
TORSDOF 18
