REMARK SMILES COc1cc(OC)cc(-c2cc3nc(C)c(CCC(=O)NCCCNC(=O)c4ccc(-c5c6nc(c(-c7c(F)cc(S(=O)(=O)[O-])cc7F)c7ccc([nH]7)c(-c7c(F)cc(S(=O)(=O)[O-])cc7F)c7nc(c(-c8c(F)cc(S(=O)(=O)[O-])cc8F)c8ccc5[nH]8)C=C7)C=C6)cc4)c(C)n3n2)c1
REMARK SMILES IDX 22 1 21 2 19 3 20 4 18 6 17 7 16 8 10 9 11 10 97 11 12 12
REMARK SMILES IDX 96 13 13 14 94 15 14 16 95 17 15 18 9 19 3 20 4 21 98 22
REMARK SMILES IDX 5 23 8 24 2 25 1 26 6 27 7 28 23 29 24 30 25 31 26 32 27 34
REMARK SMILES IDX 28 35 29 36 93 37 30 38 92 39 31 40 32 41 33 42 86 43 34 44
REMARK SMILES IDX 91 45 85 46 87 47 35 48 90 49 84 50 83 51 36 53 70 54 49 55
REMARK SMILES IDX 69 56 50 57 53 58 68 59 88 60 51 61 52 62 67 64 89 65 54 66
REMARK SMILES IDX 37 67 38 68 47 69 39 70 40 71 46 72 48 73 41 74 42 75 43 76
REMARK SMILES IDX 44 77 45 78 71 79 72 80 81 81 73 82 74 83 80 84 82 85 75 86
REMARK SMILES IDX 76 87 77 88 78 89 79 90 55 91 56 92 65 93 57 94 58 95 64 96
REMARK SMILES IDX 66 97 59 98 60 99 61 100 62 101 63 102
REMARK H PARENT 21 5 25 33 87 52 53 63
REMARK Flexibility Score: inf
ROOT
ATOM      1  C   UNL     1       8.188   0.424   1.563  1.00  0.00     0.117 C 
ENDROOT
BRANCH   1   2
ATOM      2  N   UNL     1       9.154   1.127   0.732  1.00  0.00    -0.356 N 
ATOM      3  C   UNL     1       9.911   2.228   0.997  1.00  0.00     0.220 C 
ATOM      4  O   UNL     1      10.419   2.826   0.049  1.00  0.00    -0.275 OA
ATOM      5  H   UNL     1       9.281   0.745  -0.167  1.00  0.00     0.163 HD
BRANCH   3   6
ATOM      6  C   UNL     1      10.174   2.663   2.426  1.00  0.00     0.105 C 
BRANCH   6   7
ATOM      7  C   UNL     1       9.766   4.123   2.712  1.00  0.00     0.049 C 
BRANCH   7   8
ATOM      8  C   UNL     1       8.372   4.233   3.294  1.00  0.00    -0.005 A 
ATOM      9  C   UNL     1       3.920   3.764   3.239  1.00  0.00     0.095 A 
ATOM     10  C   UNL     1       4.542   3.262   4.403  1.00  0.00     0.080 A 
ATOM     11  N   UNL     1       4.777   4.511   2.523  1.00  0.00    -0.166 NA
ATOM     12  C   UNL     1       5.855   3.660   4.331  1.00  0.00     0.156 A 
ATOM     13  N   UNL     1       5.988   4.370   3.134  1.00  0.00    -0.219 N 
ATOM     14  N   UNL     1       6.910   3.425   5.158  1.00  0.00    -0.234 NA
ATOM     15  C   UNL     1       7.276   4.685   2.630  1.00  0.00     0.046 A 
ATOM     16  C   UNL     1       8.093   3.702   4.689  1.00  0.00     0.045 A 
ATOM     17  C   UNL     1       7.354   5.360   1.288  1.00  0.00     0.067 C 
ATOM     18  C   UNL     1       9.236   3.547   5.673  1.00  0.00     0.067 C 
BRANCH   9  19
ATOM     19  C   UNL     1       2.515   3.592   2.857  1.00  0.00     0.009 A 
ATOM     20  C   UNL     1       0.619   2.205   2.240  1.00  0.00     0.123 A 
ATOM     21  C   UNL     1      -0.203   3.330   2.247  1.00  0.00     0.092 A 
ATOM     22  C   UNL     1       1.977   2.325   2.553  1.00  0.00     0.057 A 
ATOM     23  C   UNL     1       0.316   4.588   2.558  1.00  0.00     0.123 A 
ATOM     24  C   UNL     1       1.673   4.716   2.861  1.00  0.00     0.057 A 
BRANCH  20  25
ATOM     25  O   UNL     1      -0.006   0.998   2.063  1.00  0.00    -0.497 OA
ATOM     26  C   UNL     1       0.397   0.303   0.885  1.00  0.00     0.278 C 
ENDBRANCH  20  25
BRANCH  23  27
ATOM     27  O   UNL     1      -0.608   5.596   2.562  1.00  0.00    -0.497 OA
ATOM     28  C   UNL     1      -0.126   6.909   2.818  1.00  0.00     0.278 C 
ENDBRANCH  23  27
ENDBRANCH   9  19
ENDBRANCH   7   8
ENDBRANCH   6   7
ENDBRANCH   3   6
ENDBRANCH   1   2
BRANCH   1  29
ATOM     29  C   UNL     1       6.930   1.239   1.771  1.00  0.00     0.042 C 
BRANCH  29  30
ATOM     30  C   UNL     1       6.343   1.785   0.489  1.00  0.00     0.118 C 
BRANCH  30  31
ATOM     31  N   UNL     1       5.251   0.980  -0.002  1.00  0.00    -0.352 N 
ATOM     32  C   UNL     1       3.982   1.386  -0.348  1.00  0.00     0.251 C 
ATOM     33  H   UNL     1       5.437   0.018  -0.103  1.00  0.00     0.163 HD
ATOM     34  O   UNL     1       3.100   0.537  -0.372  1.00  0.00    -0.269 OA
BRANCH  32  35
ATOM     35  C   UNL     1       3.704   2.799  -0.724  1.00  0.00     0.039 A 
ATOM     36  C   UNL     1       2.390   3.239  -0.917  1.00  0.00     0.014 A 
ATOM     37  C   UNL     1       4.748   3.678  -1.012  1.00  0.00     0.014 A 
ATOM     38  C   UNL     1       2.174   4.433  -1.588  1.00  0.00     0.010 A 
ATOM     39  C   UNL     1       4.513   4.982  -1.323  1.00  0.00     0.010 A 
ATOM     40  C   UNL     1       3.283   5.219  -1.884  1.00  0.00    -0.014 A 
BRANCH  40  41
ATOM     41  C   UNL     1       3.283   6.147  -2.996  1.00  0.00     0.031 A 
ATOM     42  C   UNL     1       2.710   7.465  -2.687  1.00  0.00     0.074 A 
ATOM     43  C   UNL     1       3.970   5.871  -4.131  1.00  0.00     0.049 A 
ATOM     44  N   UNL     1       1.621   7.978  -3.145  1.00  0.00    -0.248 NA
ATOM     45  C   UNL     1       3.345   8.245  -1.614  1.00  0.00     0.031 C 
ATOM     46  C   UNL     1       4.878   4.749  -4.424  1.00  0.00     0.029 A 
ATOM     47  N   UNL     1       4.070   6.622  -5.258  1.00  0.00    -0.354 N 
ATOM     48  C   UNL     1       1.536   9.240  -2.573  1.00  0.00     0.074 A 
ATOM     49  C   UNL     1       2.497   9.266  -1.502  1.00  0.00     0.031 C 
ATOM     50  C   UNL     1       5.591   5.017  -5.543  1.00  0.00     0.029 A 
ATOM     51  C   UNL     1       5.086   6.243  -6.130  1.00  0.00     0.049 A 
ATOM     52  H   UNL     1       3.469   7.379  -5.445  1.00  0.00     0.167 HD
ATOM     53  C   UNL     1       0.840  10.244  -3.172  1.00  0.00     0.037 A 
ATOM     54  C   UNL     1       5.504   6.941  -7.218  1.00  0.00     0.037 A 
ATOM     55  C   UNL     1      -0.032   9.731  -4.200  1.00  0.00     0.049 A 
ATOM     56  C   UNL     1       4.397   7.879  -7.567  1.00  0.00     0.074 A 
ATOM     57  C   UNL     1      -1.099   8.852  -4.197  1.00  0.00     0.029 A 
ATOM     58  N   UNL     1       0.405   9.785  -5.503  1.00  0.00    -0.354 N 
ATOM     59  N   UNL     1       3.217   7.487  -7.975  1.00  0.00    -0.248 NA
ATOM     60  C   UNL     1       4.437   9.211  -6.980  1.00  0.00     0.031 C 
ATOM     61  C   UNL     1      -0.930   8.063  -5.373  1.00  0.00     0.029 A 
ATOM     62  C   UNL     1       0.182   8.550  -6.064  1.00  0.00     0.049 A 
ATOM     63  H   UNL     1       0.805  10.565  -5.952  1.00  0.00     0.167 HD
ATOM     64  C   UNL     1       2.313   8.333  -7.343  1.00  0.00     0.074 A 
ATOM     65  C   UNL     1       3.130   9.413  -6.792  1.00  0.00     0.031 C 
ATOM     66  C   UNL     1       1.031   7.941  -7.070  1.00  0.00     0.037 A 
BRANCH  53  67
ATOM     67  C   UNL     1       1.184  11.703  -3.042  1.00  0.00     0.058 A 
ATOM     68  C   UNL     1       0.275  12.672  -3.505  1.00  0.00     0.135 A 
ATOM     69  C   UNL     1       2.473  12.182  -2.711  1.00  0.00     0.135 A 
ATOM     70  F   UNL     1      -0.975  12.327  -3.855  1.00  0.00    -0.206 F 
ATOM     71  C   UNL     1       0.638  14.007  -3.688  1.00  0.00     0.059 A 
ATOM     72  C   UNL     1       2.837  13.517  -2.830  1.00  0.00     0.059 A 
ATOM     73  F   UNL     1       3.471  11.367  -2.352  1.00  0.00    -0.206 F 
ATOM     74  C   UNL     1       1.928  14.414  -3.361  1.00  0.00     0.060 A 
BRANCH  74  75
ATOM     75  S   UNL     1       2.438  16.105  -3.709  1.00  0.00     0.124 S 
ATOM     76  O   UNL     1       2.466  16.106  -5.166  1.00  0.00    -0.237 OA
ATOM     77  O   UNL     1       1.369  16.878  -3.086  1.00  0.00    -0.237 OA
ATOM     78  O   UNL     1       3.740  16.205  -3.052  1.00  0.00    -0.744 OA
ENDBRANCH  74  75
ENDBRANCH  53  67
BRANCH  54  79
ATOM     79  C   UNL     1       6.913   7.136  -7.667  1.00  0.00     0.058 A 
ATOM     80  C   UNL     1       7.223   7.652  -8.939  1.00  0.00     0.135 A 
ATOM     81  C   UNL     1       7.985   7.072  -6.752  1.00  0.00     0.135 A 
ATOM     82  F   UNL     1       6.262   7.773  -9.868  1.00  0.00    -0.206 F 
ATOM     83  C   UNL     1       8.507   8.110  -9.269  1.00  0.00     0.059 A 
ATOM     84  C   UNL     1       9.272   7.515  -7.059  1.00  0.00     0.059 A 
ATOM     85  F   UNL     1       7.793   6.656  -5.491  1.00  0.00    -0.206 F 
ATOM     86  C   UNL     1       9.522   8.055  -8.313  1.00  0.00     0.060 A 
BRANCH  86  87
ATOM     87  S   UNL     1      11.133   8.799  -8.672  1.00  0.00     0.124 S 
ATOM     88  O   UNL     1      11.669   7.890  -9.679  1.00  0.00    -0.237 OA
ATOM     89  O   UNL     1      10.761  10.128  -9.146  1.00  0.00    -0.237 OA
ATOM     90  O   UNL     1      11.816   8.771  -7.380  1.00  0.00    -0.744 OA
ENDBRANCH  86  87
ENDBRANCH  54  79
BRANCH  66  91
ATOM     91  C   UNL     1       0.527   6.649  -7.672  1.00  0.00     0.058 A 
ATOM     92  C   UNL     1       1.012   5.374  -7.327  1.00  0.00     0.135 A 
ATOM     93  C   UNL     1      -0.624   6.693  -8.472  1.00  0.00     0.135 A 
ATOM     94  F   UNL     1       2.047   5.236  -6.488  1.00  0.00    -0.206 F 
ATOM     95  C   UNL     1       0.397   4.200  -7.774  1.00  0.00     0.059 A 
ATOM     96  C   UNL     1      -1.271   5.538  -8.906  1.00  0.00     0.059 A 
ATOM     97  F   UNL     1      -1.176   7.877  -8.787  1.00  0.00    -0.206 F 
ATOM     98  C   UNL     1      -0.751   4.293  -8.559  1.00  0.00     0.060 A 
BRANCH  98  99
ATOM     99  S   UNL     1      -1.605   2.780  -9.056  1.00  0.00     0.124 S 
ATOM    100  O   UNL     1      -0.696   2.227 -10.054  1.00  0.00    -0.237 OA
ATOM    101  O   UNL     1      -1.696   2.037  -7.802  1.00  0.00    -0.237 OA
ATOM    102  O   UNL     1      -2.882   3.263  -9.576  1.00  0.00    -0.744 OA
ENDBRANCH  98  99
ENDBRANCH  66  91
ENDBRANCH  40  41
ENDBRANCH  32  35
ENDBRANCH  30  31
ENDBRANCH  29  30
ENDBRANCH   1  29
TORSDOF 18
