REMARK SMILES NS(=O)(=O)CCNC(=O)N1[C@@H]2CC[C@H]1C[C@H](CC(=O)NCCCNC(=O)c1ccc(-c3c4nc(c(-c5c(F)cc(S(=O)(=O)[O-])cc5F)c5ccc([nH]5)c(-c5c(F)cc(S(=O)(=O)[O-])cc5F)c5nc(c(-c6c(F)cc(S(=O)(=O)[O-])cc6F)c6ccc3[nH]6)C=C5)C=C4)cc1)C2
REMARK SMILES IDX 18 1 19 2 20 3 17 5 16 6 10 7 11 8 14 9 12 10 93 11 13 12
REMARK SMILES IDX 15 13 8 14 7 15 9 17 6 18 5 19 2 20 3 21 4 22 1 23 21 26
REMARK SMILES IDX 22 27 23 28 24 29 25 30 26 32 27 33 28 34 92 35 29 36 91 37
REMARK SMILES IDX 30 38 31 39 32 40 85 41 33 42 90 43 84 44 86 45 34 46 89 47
REMARK SMILES IDX 83 48 82 49 35 51 69 52 48 53 68 54 49 55 52 56 67 57 87 58
REMARK SMILES IDX 50 59 51 60 66 62 88 63 53 64 36 65 37 66 46 67 38 68 39 69
REMARK SMILES IDX 45 70 47 71 40 72 41 73 42 74 43 75 44 76 70 77 71 78 80 79
REMARK SMILES IDX 72 80 73 81 79 82 81 83 74 84 75 85 76 86 77 87 78 88 54 89
REMARK SMILES IDX 55 90 64 91 56 92 57 93 63 94 65 95 58 96 59 97 60 98 61 99
REMARK SMILES IDX 62 100
REMARK H PARENT 20 4 7 16 1 24 1 25 24 31 86 50 52 61
REMARK Flexibility Score: inf
ROOT
ATOM      1  C   UNL     1       2.704  -3.673  -7.078  1.00  0.00     0.220 C 
ATOM      2  O   UNL     1       3.270  -4.147  -8.067  1.00  0.00    -0.275 OA
ATOM      3  N   UNL     1       1.385  -3.985  -6.904  1.00  0.00    -0.356 N 
ATOM      4  H   UNL     1       1.000  -4.498  -7.651  1.00  0.00     0.163 HD
ENDROOT
BRANCH   1   5
ATOM      5  C   UNL     1       3.474  -2.765  -6.121  1.00  0.00     0.103 C 
BRANCH   5   6
ATOM      6  C   UNL     1       3.377  -1.262  -6.481  1.00  0.00     0.002 C 
ATOM      7  N   UNL     1       2.506   0.973  -4.902  1.00  0.00    -0.319 N 
ATOM      8  C   UNL     1       3.836   1.072  -5.479  1.00  0.00     0.087 C 
ATOM      9  C   UNL     1       1.632   0.631  -6.000  1.00  0.00     0.087 C 
ATOM     10  C   UNL     1       3.594   1.757  -6.835  1.00  0.00     0.027 C 
ATOM     11  C   UNL     1       4.334  -0.384  -5.632  1.00  0.00     0.029 C 
ATOM     12  C   UNL     1       2.110   1.529  -7.138  1.00  0.00     0.027 C 
ATOM     13  C   UNL     1       1.912  -0.824  -6.350  1.00  0.00     0.029 C 
BRANCH   7  14
ATOM     14  C   UNL     1       2.254   1.277  -3.607  1.00  0.00     0.317 C 
ATOM     15  N   UNL     1       1.114   0.887  -2.994  1.00  0.00    -0.337 N 
ATOM     16  H   UNL     1       0.755   1.542  -2.353  1.00  0.00     0.165 HD
ATOM     17  O   UNL     1       3.066   1.890  -2.910  1.00  0.00    -0.249 OA
BRANCH  15  18
ATOM     18  C   UNL     1       0.322  -0.330  -3.113  1.00  0.00     0.135 C 
BRANCH  18  19
ATOM     19  C   UNL     1       0.953  -1.511  -2.389  1.00  0.00     0.175 C 
BRANCH  19  20
ATOM     20  S   UNL     1       0.556  -1.569  -0.647  1.00  0.00     0.210 S 
ATOM     21  O   UNL     1       1.386  -2.561  -0.011  1.00  0.00    -0.213 OA
ATOM     22  O   UNL     1      -0.881  -1.565  -0.479  1.00  0.00    -0.213 OA
BRANCH  20  23
ATOM     23  N   UNL     1       1.091  -0.097  -0.071  1.00  0.00    -0.229 NA
ATOM     24  H   UNL     1       0.905  -0.036   0.930  1.00  0.00     0.137 HD
ATOM     25  H   UNL     1       0.601   0.656  -0.554  1.00  0.00     0.137 HD
ENDBRANCH  20  23
ENDBRANCH  19  20
ENDBRANCH  18  19
ENDBRANCH  15  18
ENDBRANCH   7  14
ENDBRANCH   5   6
ENDBRANCH   1   5
BRANCH   3  26
ATOM     26  C   UNL     1       0.432  -3.710  -5.833  1.00  0.00     0.117 C 
BRANCH  26  27
ATOM     27  C   UNL     1      -0.680  -2.726  -6.233  1.00  0.00     0.042 C 
BRANCH  27  28
ATOM     28  C   UNL     1      -1.752  -3.296  -7.149  1.00  0.00     0.118 C 
BRANCH  28  29
ATOM     29  N   UNL     1      -2.802  -3.940  -6.383  1.00  0.00    -0.352 N 
ATOM     30  C   UNL     1      -4.076  -3.506  -6.098  1.00  0.00     0.251 C 
ATOM     31  H   UNL     1      -2.568  -4.821  -6.012  1.00  0.00     0.163 HD
ATOM     32  O   UNL     1      -4.687  -4.044  -5.177  1.00  0.00    -0.269 OA
BRANCH  30  33
ATOM     33  C   UNL     1      -4.714  -2.402  -6.861  1.00  0.00     0.039 A 
ATOM     34  C   UNL     1      -5.558  -1.516  -6.180  1.00  0.00     0.014 A 
ATOM     35  C   UNL     1      -4.549  -2.263  -8.242  1.00  0.00     0.014 A 
ATOM     36  C   UNL     1      -6.179  -0.466  -6.867  1.00  0.00     0.010 A 
ATOM     37  C   UNL     1      -5.108  -1.171  -8.912  1.00  0.00     0.010 A 
ATOM     38  C   UNL     1      -5.927  -0.258  -8.233  1.00  0.00    -0.014 A 
BRANCH  38  39
ATOM     39  C   UNL     1      -6.480   0.926  -8.949  1.00  0.00     0.031 A 
ATOM     40  C   UNL     1      -7.432   0.755 -10.104  1.00  0.00     0.074 A 
ATOM     41  C   UNL     1      -6.062   2.161  -8.599  1.00  0.00     0.049 A 
ATOM     42  N   UNL     1      -7.947   1.667 -10.890  1.00  0.00    -0.248 NA
ATOM     43  C   UNL     1      -7.845  -0.619 -10.435  1.00  0.00     0.031 C 
ATOM     44  C   UNL     1      -5.106   2.456  -7.529  1.00  0.00     0.029 A 
ATOM     45  N   UNL     1      -6.369   3.397  -9.114  1.00  0.00    -0.354 N 
ATOM     46  C   UNL     1      -8.727   0.981 -11.815  1.00  0.00     0.074 A 
ATOM     47  C   UNL     1      -8.592  -0.428 -11.515  1.00  0.00     0.031 C 
ATOM     48  C   UNL     1      -4.910   3.782  -7.463  1.00  0.00     0.029 A 
ATOM     49  C   UNL     1      -5.686   4.431  -8.514  1.00  0.00     0.049 A 
ATOM     50  H   UNL     1      -7.016   3.531  -9.843  1.00  0.00     0.167 HD
ATOM     51  C   UNL     1      -9.493   1.483 -12.813  1.00  0.00     0.037 A 
ATOM     52  C   UNL     1      -5.660   5.750  -8.794  1.00  0.00     0.037 A 
ATOM     53  C   UNL     1      -9.646   2.890 -13.085  1.00  0.00     0.049 A 
ATOM     54  C   UNL     1      -6.511   6.277  -9.918  1.00  0.00     0.074 A 
ATOM     55  C   UNL     1     -10.474   3.499 -14.012  1.00  0.00     0.029 A 
ATOM     56  N   UNL     1      -8.948   3.905 -12.447  1.00  0.00    -0.354 N 
ATOM     57  N   UNL     1      -7.321   5.620 -10.714  1.00  0.00    -0.248 NA
ATOM     58  C   UNL     1      -6.447   7.721 -10.185  1.00  0.00     0.031 C 
ATOM     59  C   UNL     1     -10.228   4.875 -13.983  1.00  0.00     0.029 A 
ATOM     60  C   UNL     1      -9.291   5.131 -12.995  1.00  0.00     0.049 A 
ATOM     61  H   UNL     1      -8.305   3.774 -11.713  1.00  0.00     0.167 HD
ATOM     62  C   UNL     1      -7.869   6.572 -11.568  1.00  0.00     0.074 A 
ATOM     63  C   UNL     1      -7.323   7.853 -11.171  1.00  0.00     0.031 C 
ATOM     64  C   UNL     1      -8.738   6.400 -12.593  1.00  0.00     0.037 A 
BRANCH  51  65
ATOM     65  C   UNL     1     -10.235   0.520 -13.701  1.00  0.00     0.058 A 
ATOM     66  C   UNL     1     -11.353  -0.197 -13.247  1.00  0.00     0.135 A 
ATOM     67  C   UNL     1      -9.882   0.392 -15.056  1.00  0.00     0.135 A 
ATOM     68  F   UNL     1     -11.727  -0.122 -11.960  1.00  0.00    -0.206 F 
ATOM     69  C   UNL     1     -12.090  -1.011 -14.101  1.00  0.00     0.059 A 
ATOM     70  C   UNL     1     -10.621  -0.396 -15.934  1.00  0.00     0.059 A 
ATOM     71  F   UNL     1      -8.821   1.054 -15.543  1.00  0.00    -0.206 F 
ATOM     72  C   UNL     1     -11.722  -1.098 -15.445  1.00  0.00     0.060 A 
BRANCH  72  73
ATOM     73  S   UNL     1     -12.720  -2.122 -16.547  1.00  0.00     0.124 S 
ATOM     74  O   UNL     1     -12.392  -3.464 -16.074  1.00  0.00    -0.237 OA
ATOM     75  O   UNL     1     -14.074  -1.662 -16.257  1.00  0.00    -0.237 OA
ATOM     76  O   UNL     1     -12.217  -1.786 -17.875  1.00  0.00    -0.744 OA
ENDBRANCH  72  73
ENDBRANCH  51  65
BRANCH  52  77
ATOM     77  C   UNL     1      -4.773   6.662  -8.020  1.00  0.00     0.058 A 
ATOM     78  C   UNL     1      -5.301   7.654  -7.181  1.00  0.00     0.135 A 
ATOM     79  C   UNL     1      -3.375   6.569  -8.118  1.00  0.00     0.135 A 
ATOM     80  F   UNL     1      -6.630   7.790  -7.057  1.00  0.00    -0.206 F 
ATOM     81  C   UNL     1      -4.479   8.540  -6.491  1.00  0.00     0.059 A 
ATOM     82  C   UNL     1      -2.531   7.421  -7.413  1.00  0.00     0.059 A 
ATOM     83  F   UNL     1      -2.815   5.626  -8.893  1.00  0.00    -0.206 F 
ATOM     84  C   UNL     1      -3.094   8.415  -6.615  1.00  0.00     0.060 A 
BRANCH  84  85
ATOM     85  S   UNL     1      -2.035   9.558  -5.702  1.00  0.00     0.124 S 
ATOM     86  O   UNL     1      -2.238  10.798  -6.441  1.00  0.00    -0.237 OA
ATOM     87  O   UNL     1      -2.616   9.508  -4.364  1.00  0.00    -0.237 OA
ATOM     88  O   UNL     1      -0.710   8.957  -5.826  1.00  0.00    -0.744 OA
ENDBRANCH  84  85
ENDBRANCH  52  77
BRANCH  64  89
ATOM     89  C   UNL     1      -9.159   7.622 -13.362  1.00  0.00     0.058 A 
ATOM     90  C   UNL     1      -8.277   8.277 -14.236  1.00  0.00     0.135 A 
ATOM     91  C   UNL     1     -10.476   8.104 -13.278  1.00  0.00     0.135 A 
ATOM     92  F   UNL     1      -7.005   7.864 -14.347  1.00  0.00    -0.206 F 
ATOM     93  C   UNL     1      -8.681   9.374 -14.990  1.00  0.00     0.059 A 
ATOM     94  C   UNL     1     -10.911   9.180 -14.045  1.00  0.00     0.059 A 
ATOM     95  F   UNL     1     -11.362   7.510 -12.463  1.00  0.00    -0.206 F 
ATOM     96  C   UNL     1     -10.003   9.813 -14.893  1.00  0.00     0.060 A 
BRANCH  96  97
ATOM     97  S   UNL     1     -10.525  11.203 -15.920  1.00  0.00     0.124 S 
ATOM     98  O   UNL     1      -9.831  12.317 -15.283  1.00  0.00    -0.237 OA
ATOM     99  O   UNL     1     -10.032  10.818 -17.238  1.00  0.00    -0.237 OA
ATOM    100  O   UNL     1     -11.978  11.205 -15.777  1.00  0.00    -0.744 OA
ENDBRANCH  96  97
ENDBRANCH  64  89
ENDBRANCH  38  39
ENDBRANCH  30  33
ENDBRANCH  28  29
ENDBRANCH  27  28
ENDBRANCH  26  27
ENDBRANCH   3  26
TORSDOF 19
