REMARK SMILES COc1ccc2c(c1)c(CC(=O)NCCCNC(=O)c1ccc(-c3c4nc(c(-c5c(F)cc(S(=O)(=O)[O-])cc5F)c5ccc([nH]5)c(-c5c(F)cc(S(=O)(=O)[O-])cc5F)c5nc(c(-c6c(F)cc(S(=O)(=O)[O-])cc6F)c6ccc3[nH]6)C=C5)C=C4)cc1)c(C)n2Cc1ccn(C(F)F)c(=O)c1
REMARK SMILES IDX 14 1 13 2 11 3 12 4 10 6 9 7 3 8 4 9 8 10 5 11 7 12 6 13
REMARK SMILES IDX 88 14 86 15 87 16 2 17 1 18 89 19 90 20 91 21 99 22 92 23
REMARK SMILES IDX 97 24 93 25 98 26 94 27 95 28 96 29 15 30 16 31 17 32 18 33
REMARK SMILES IDX 19 35 20 36 21 37 85 38 22 39 84 40 23 41 24 42 25 43 78 44
REMARK SMILES IDX 26 45 83 46 77 47 79 48 27 49 82 50 76 51 75 52 28 54 62 55
REMARK SMILES IDX 41 56 61 57 42 58 45 59 60 60 80 61 43 62 44 63 59 65 81 66
REMARK SMILES IDX 46 67 29 68 30 69 39 70 31 71 32 72 38 73 40 74 33 75 34 76
REMARK SMILES IDX 35 77 36 78 37 79 63 80 64 81 73 82 65 83 66 84 72 85 74 86
REMARK SMILES IDX 67 87 68 88 69 89 70 90 71 91 47 92 48 93 57 94 49 95 50 96
REMARK SMILES IDX 56 97 58 98 51 99 52 100 53 101 54 102 55 103
REMARK H PARENT 13 5 17 34 79 53 45 64
REMARK Flexibility Score: inf
ROOT
ATOM      1  C   UNL     1      -0.779   0.447  -7.898  1.00  0.00     0.117 C 
ENDROOT
BRANCH   1   2
ATOM      2  N   UNL     1      -1.675  -0.087  -6.880  1.00  0.00    -0.356 N 
ATOM      3  C   UNL     1      -2.230   0.519  -5.789  1.00  0.00     0.224 C 
ATOM      4  O   UNL     1      -3.009  -0.143  -5.095  1.00  0.00    -0.275 OA
ATOM      5  H   UNL     1      -1.917  -1.034  -6.997  1.00  0.00     0.163 HD
BRANCH   3   6
ATOM      6  C   UNL     1      -1.969   1.986  -5.482  1.00  0.00     0.138 C 
BRANCH   6   7
ATOM      7  C   UNL     1      -0.539   2.286  -5.157  1.00  0.00    -0.010 A 
ATOM      8  C   UNL     1       0.996   0.327  -2.270  1.00  0.00     0.119 A 
ATOM      9  C   UNL     1       2.302   0.763  -2.463  1.00  0.00     0.048 A 
ATOM     10  C   UNL     1      -0.020   0.724  -3.139  1.00  0.00     0.057 A 
ATOM     11  C   UNL     1       2.610   1.674  -3.482  1.00  0.00     0.031 A 
ATOM     12  C   UNL     1       0.261   1.664  -4.154  1.00  0.00     0.007 A 
ATOM     13  C   UNL     1       1.565   2.148  -4.295  1.00  0.00     0.049 A 
ATOM     14  N   UNL     1       1.545   3.081  -5.325  1.00  0.00    -0.340 N 
ATOM     15  C   UNL     1       0.235   3.287  -5.725  1.00  0.00     0.020 A 
ATOM     16  C   UNL     1      -0.215   4.370  -6.645  1.00  0.00     0.065 C 
BRANCH   8  17
ATOM     17  O   UNL     1       0.650  -0.543  -1.268  1.00  0.00    -0.497 OA
ATOM     18  C   UNL     1       0.996  -0.034   0.019  1.00  0.00     0.278 C 
ENDBRANCH   8  17
BRANCH  14  19
ATOM     19  C   UNL     1       2.734   3.753  -5.876  1.00  0.00     0.158 C 
BRANCH  19  20
ATOM     20  C   UNL     1       3.062   3.272  -7.267  1.00  0.00    -0.021 A 
ATOM     21  C   UNL     1       2.449   3.949  -8.389  1.00  0.00     0.024 A 
ATOM     22  C   UNL     1       3.903   2.254  -7.508  1.00  0.00     0.077 A 
ATOM     23  C   UNL     1       2.571   3.466  -9.627  1.00  0.00     0.095 A 
ATOM     24  C   UNL     1       4.058   1.699  -8.886  1.00  0.00     0.255 A 
ATOM     25  N   UNL     1       3.352   2.363  -9.881  1.00  0.00    -0.258 N 
ATOM     26  O   UNL     1       4.724   0.686  -9.008  1.00  0.00    -0.269 OA
BRANCH  25  27
ATOM     27  C   UNL     1       3.377   1.836 -11.217  1.00  0.00     0.451 C 
ATOM     28  F   UNL     1       4.586   1.344 -11.541  1.00  0.00    -0.185 F 
ATOM     29  F   UNL     1       2.456   0.844 -11.314  1.00  0.00    -0.185 F 
ENDBRANCH  25  27
ENDBRANCH  19  20
ENDBRANCH  14  19
ENDBRANCH   6   7
ENDBRANCH   3   6
ENDBRANCH   1   2
BRANCH   1  30
ATOM     30  C   UNL     1       0.619  -0.181  -7.867  1.00  0.00     0.042 C 
BRANCH  30  31
ATOM     31  C   UNL     1       0.653  -1.684  -8.158  1.00  0.00     0.118 C 
BRANCH  31  32
ATOM     32  N   UNL     1       0.024  -2.072  -9.410  1.00  0.00    -0.352 N 
ATOM     33  C   UNL     1       0.431  -2.423 -10.668  1.00  0.00     0.251 C 
ATOM     34  H   UNL     1      -0.958  -2.085  -9.331  1.00  0.00     0.163 HD
ATOM     35  O   UNL     1      -0.466  -2.846 -11.406  1.00  0.00    -0.269 OA
BRANCH  33  36
ATOM     36  C   UNL     1       1.798  -2.266 -11.238  1.00  0.00     0.039 A 
ATOM     37  C   UNL     1       2.942  -1.917 -10.533  1.00  0.00     0.014 A 
ATOM     38  C   UNL     1       1.892  -2.394 -12.643  1.00  0.00     0.014 A 
ATOM     39  C   UNL     1       4.091  -1.541 -11.230  1.00  0.00     0.010 A 
ATOM     40  C   UNL     1       3.038  -2.015 -13.338  1.00  0.00     0.010 A 
ATOM     41  C   UNL     1       4.109  -1.490 -12.633  1.00  0.00    -0.014 A 
BRANCH  41  42
ATOM     42  C   UNL     1       5.279  -0.881 -13.284  1.00  0.00     0.031 A 
ATOM     43  C   UNL     1       6.584  -1.439 -12.832  1.00  0.00     0.074 A 
ATOM     44  C   UNL     1       5.222   0.106 -14.209  1.00  0.00     0.049 A 
ATOM     45  N   UNL     1       7.553  -0.832 -12.228  1.00  0.00    -0.248 NA
ATOM     46  C   UNL     1       6.766  -2.895 -12.947  1.00  0.00     0.031 C 
ATOM     47  C   UNL     1       4.045   0.641 -14.901  1.00  0.00     0.029 A 
ATOM     48  N   UNL     1       6.244   0.814 -14.783  1.00  0.00    -0.354 N 
ATOM     49  C   UNL     1       8.540  -1.791 -12.028  1.00  0.00     0.074 A 
ATOM     50  C   UNL     1       7.951  -3.062 -12.361  1.00  0.00     0.031 C 
ATOM     51  C   UNL     1       4.443   1.398 -15.950  1.00  0.00     0.029 A 
ATOM     52  C   UNL     1       5.891   1.511 -15.936  1.00  0.00     0.049 A 
ATOM     53  H   UNL     1       7.155   0.829 -14.411  1.00  0.00     0.167 HD
ATOM     54  C   UNL     1       9.837  -1.451 -11.799  1.00  0.00     0.037 A 
ATOM     55  C   UNL     1       6.728   2.078 -16.848  1.00  0.00     0.037 A 
ATOM     56  C   UNL     1       9.958  -0.110 -11.296  1.00  0.00     0.049 A 
ATOM     57  C   UNL     1       8.026   2.308 -16.163  1.00  0.00     0.074 A 
ATOM     58  C   UNL     1       9.501   0.538 -10.164  1.00  0.00     0.029 A 
ATOM     59  N   UNL     1      10.342   0.881 -12.165  1.00  0.00    -0.354 N 
ATOM     60  N   UNL     1       8.203   3.176 -15.205  1.00  0.00    -0.248 NA
ATOM     61  C   UNL     1       9.019   1.247 -16.241  1.00  0.00     0.031 C 
ATOM     62  C   UNL     1       9.181   1.856 -10.595  1.00  0.00     0.029 A 
ATOM     63  C   UNL     1       9.514   1.952 -11.947  1.00  0.00     0.049 A 
ATOM     64  H   UNL     1      11.075   0.832 -12.821  1.00  0.00     0.167 HD
ATOM     65  C   UNL     1       9.056   2.543 -14.313  1.00  0.00     0.074 A 
ATOM     66  C   UNL     1       9.577   1.385 -15.037  1.00  0.00     0.031 C 
ATOM     67  C   UNL     1       9.061   2.853 -12.985  1.00  0.00     0.037 A 
BRANCH  54  68
ATOM     68  C   UNL     1      11.000  -2.221 -12.370  1.00  0.00     0.058 A 
ATOM     69  C   UNL     1      12.314  -1.911 -11.966  1.00  0.00     0.135 A 
ATOM     70  C   UNL     1      10.891  -3.048 -13.512  1.00  0.00     0.135 A 
ATOM     71  F   UNL     1      12.535  -1.121 -10.902  1.00  0.00    -0.206 F 
ATOM     72  C   UNL     1      13.433  -2.333 -12.686  1.00  0.00     0.059 A 
ATOM     73  C   UNL     1      11.992  -3.523 -14.210  1.00  0.00     0.059 A 
ATOM     74  F   UNL     1       9.711  -3.352 -14.066  1.00  0.00    -0.206 F 
ATOM     75  C   UNL     1      13.258  -3.126 -13.817  1.00  0.00     0.060 A 
BRANCH  75  76
ATOM     76  S   UNL     1      14.685  -3.570 -14.819  1.00  0.00     0.124 S 
ATOM     77  O   UNL     1      15.086  -2.271 -15.348  1.00  0.00    -0.237 OA
ATOM     78  O   UNL     1      15.577  -4.161 -13.827  1.00  0.00    -0.237 OA
ATOM     79  O   UNL     1      14.134  -4.506 -15.795  1.00  0.00    -0.744 OA
ENDBRANCH  75  76
ENDBRANCH  54  68
BRANCH  55  80
ATOM     80  C   UNL     1       6.606   2.058 -18.339  1.00  0.00     0.058 A 
ATOM     81  C   UNL     1       7.483   2.794 -19.162  1.00  0.00     0.135 A 
ATOM     82  C   UNL     1       5.816   1.095 -19.000  1.00  0.00     0.135 A 
ATOM     83  F   UNL     1       8.291   3.723 -18.626  1.00  0.00    -0.206 F 
ATOM     84  C   UNL     1       7.606   2.552 -20.538  1.00  0.00     0.059 A 
ATOM     85  C   UNL     1       5.914   0.844 -20.369  1.00  0.00     0.059 A 
ATOM     86  F   UNL     1       4.982   0.296 -18.320  1.00  0.00    -0.206 F 
ATOM     87  C   UNL     1       6.831   1.556 -21.129  1.00  0.00     0.060 A 
BRANCH  87  88
ATOM     88  S   UNL     1       7.098   1.117 -22.865  1.00  0.00     0.124 S 
ATOM     89  O   UNL     1       6.645   2.320 -23.555  1.00  0.00    -0.237 OA
ATOM     90  O   UNL     1       8.534   0.864 -22.901  1.00  0.00    -0.237 OA
ATOM     91  O   UNL     1       6.256  -0.062 -23.051  1.00  0.00    -0.744 OA
ENDBRANCH  87  88
ENDBRANCH  55  80
BRANCH  67  92
ATOM     92  C   UNL     1       8.341   4.090 -12.517  1.00  0.00     0.058 A 
ATOM     93  C   UNL     1       6.946   4.260 -12.563  1.00  0.00     0.135 A 
ATOM     94  C   UNL     1       9.081   5.039 -11.793  1.00  0.00     0.135 A 
ATOM     95  F   UNL     1       6.154   3.363 -13.169  1.00  0.00    -0.206 F 
ATOM     96  C   UNL     1       6.318   5.325 -11.911  1.00  0.00     0.059 A 
ATOM     97  C   UNL     1       8.473   6.090 -11.112  1.00  0.00     0.059 A 
ATOM     98  F   UNL     1      10.413   4.905 -11.677  1.00  0.00    -0.206 F 
ATOM     99  C   UNL     1       7.088   6.223 -11.171  1.00  0.00     0.060 A 
BRANCH  99 100
ATOM    100  S   UNL     1       6.252   7.503 -10.208  1.00  0.00     0.124 S 
ATOM    101  O   UNL     1       5.736   8.386 -11.249  1.00  0.00    -0.237 OA
ATOM    102  O   UNL     1       5.242   6.741  -9.474  1.00  0.00    -0.237 OA
ATOM    103  O   UNL     1       7.317   8.065  -9.382  1.00  0.00    -0.744 OA
ENDBRANCH  99 100
ENDBRANCH  67  92
ENDBRANCH  41  42
ENDBRANCH  33  36
ENDBRANCH  31  32
ENDBRANCH  30  31
ENDBRANCH   1  30
TORSDOF 18
