REMARK SMILES O=C(CCCNC(=O)[C@@H]1CCCN(S(=O)(=O)c2ccc(F)cc2)C1)NCCCNC(=O)c1ccc(-c2c3nc(c(-c4c(F)cc(S(=O)(=O)[O-])cc4F)c4ccc([nH]4)c(-c4c(F)cc(S(=O)(=O)[O-])cc4F)c4nc(c(-c5c(F)cc(S(=O)(=O)[O-])cc5F)c5ccc2[nH]5)C=C4)C=C3)cc1
REMARK SMILES IDX 1 1 2 2 25 3 3 5 4 6 5 7 6 8 7 9 8 11 9 12 10 13 24 14 11 15
REMARK SMILES IDX 13 16 12 17 14 18 15 19 16 20 17 21 18 22 23 23 19 24 22 25
REMARK SMILES IDX 20 26 21 27 26 28 27 29 28 30 29 31 30 32 31 34 32 35 33 36
REMARK SMILES IDX 97 37 34 38 96 39 35 40 36 41 37 42 90 43 38 44 95 45 89 46
REMARK SMILES IDX 91 47 39 48 94 49 88 50 87 51 40 53 74 54 53 55 73 56 54 57
REMARK SMILES IDX 57 58 72 59 92 60 55 61 56 62 71 64 93 65 58 66 41 67 42 68
REMARK SMILES IDX 51 69 43 70 44 71 50 72 52 73 45 74 46 75 47 76 48 77 49 78
REMARK SMILES IDX 75 79 76 80 85 81 77 82 78 83 84 84 86 85 79 86 80 87 81 88
REMARK SMILES IDX 82 89 83 90 59 91 60 92 69 93 61 94 62 95 68 96 70 97 63 98
REMARK SMILES IDX 64 99 65 100 66 101 67 102
REMARK H PARENT 25 4 6 10 29 33 91 52 57 63
REMARK Flexibility Score: inf
ROOT
ATOM      1  O   UNL     1       1.017  -0.958   0.054  1.00  0.00    -0.275 OA
ATOM      2  C   UNL     1       2.102  -0.388   0.035  1.00  0.00     0.220 C 
ATOM      3  N   UNL     1       2.691   0.113  -1.103  1.00  0.00    -0.356 N 
ATOM      4  H   UNL     1       3.560   0.568  -1.024  1.00  0.00     0.163 HD
ENDROOT
BRANCH   2   5
ATOM      5  C   UNL     1       2.945  -0.228   1.283  1.00  0.00     0.102 C 
BRANCH   5   6
ATOM      6  C   UNL     1       3.856  -1.436   1.516  1.00  0.00     0.031 C 
BRANCH   6   7
ATOM      7  C   UNL     1       4.936  -1.647   0.455  1.00  0.00     0.116 C 
BRANCH   7   8
ATOM      8  N   UNL     1       5.792  -0.488   0.301  1.00  0.00    -0.356 N 
ATOM      9  C   UNL     1       7.091  -0.351  -0.033  1.00  0.00     0.224 C 
ATOM     10  H   UNL     1       5.336   0.366   0.474  1.00  0.00     0.163 HD
ATOM     11  O   UNL     1       7.343   0.669  -0.690  1.00  0.00    -0.275 OA
BRANCH   9  12
ATOM     12  C   UNL     1       8.245  -1.227   0.438  1.00  0.00     0.093 C 
ATOM     13  C   UNL     1       8.065  -2.696   0.802  1.00  0.00     0.016 C 
ATOM     14  C   UNL     1       9.014  -0.448   1.517  1.00  0.00     0.116 C 
ATOM     15  C   UNL     1       7.683  -2.934   2.262  1.00  0.00     0.018 C 
ATOM     16  N   UNL     1       8.466  -0.703   2.898  1.00  0.00    -0.197 NA
ATOM     17  C   UNL     1       8.565  -2.149   3.223  1.00  0.00     0.102 C 
BRANCH  16  18
ATOM     18  S   UNL     1       9.211   0.354   4.042  1.00  0.00     0.243 S 
ATOM     19  O   UNL     1      10.571  -0.114   4.233  1.00  0.00    -0.207 OA
ATOM     20  O   UNL     1       8.939   1.712   3.633  1.00  0.00    -0.207 OA
BRANCH  18  21
ATOM     21  C   UNL     1       8.337   0.078   5.570  1.00  0.00     0.082 A 
ATOM     22  C   UNL     1       8.788  -0.918   6.448  1.00  0.00     0.025 A 
ATOM     23  C   UNL     1       7.312   0.951   5.955  1.00  0.00     0.025 A 
ATOM     24  C   UNL     1       8.180  -1.070   7.694  1.00  0.00     0.040 A 
ATOM     25  C   UNL     1       6.721   0.805   7.213  1.00  0.00     0.040 A 
ATOM     26  C   UNL     1       7.156  -0.205   8.067  1.00  0.00     0.123 A 
ATOM     27  F   UNL     1       6.593  -0.338   9.275  1.00  0.00    -0.207 F 
ENDBRANCH  18  21
ENDBRANCH  16  18
ENDBRANCH   9  12
ENDBRANCH   7   8
ENDBRANCH   6   7
ENDBRANCH   5   6
ENDBRANCH   2   5
BRANCH   3  28
ATOM     28  C   UNL     1       2.082   0.001  -2.414  1.00  0.00     0.117 C 
BRANCH  28  29
ATOM     29  C   UNL     1       2.360   1.218  -3.289  1.00  0.00     0.042 C 
BRANCH  29  30
ATOM     30  C   UNL     1       3.830   1.447  -3.636  1.00  0.00     0.118 C 
BRANCH  30  31
ATOM     31  N   UNL     1       4.395   0.407  -4.482  1.00  0.00    -0.352 N 
ATOM     32  C   UNL     1       5.161   0.536  -5.619  1.00  0.00     0.251 C 
ATOM     33  H   UNL     1       4.204  -0.517  -4.202  1.00  0.00     0.163 HD
ATOM     34  O   UNL     1       5.461  -0.462  -6.267  1.00  0.00    -0.269 OA
BRANCH  32  35
ATOM     35  C   UNL     1       5.584   1.878  -6.080  1.00  0.00     0.039 A 
ATOM     36  C   UNL     1       5.394   2.220  -7.422  1.00  0.00     0.014 A 
ATOM     37  C   UNL     1       6.151   2.800  -5.196  1.00  0.00     0.014 A 
ATOM     38  C   UNL     1       5.697   3.513  -7.860  1.00  0.00     0.010 A 
ATOM     39  C   UNL     1       6.396   4.105  -5.620  1.00  0.00     0.010 A 
ATOM     40  C   UNL     1       6.162   4.479  -6.954  1.00  0.00    -0.014 A 
BRANCH  40  41
ATOM     41  C   UNL     1       6.400   5.887  -7.366  1.00  0.00     0.031 A 
ATOM     42  C   UNL     1       7.789   6.463  -7.314  1.00  0.00     0.074 A 
ATOM     43  C   UNL     1       5.360   6.673  -7.713  1.00  0.00     0.049 A 
ATOM     44  N   UNL     1       8.177   7.700  -7.484  1.00  0.00    -0.248 NA
ATOM     45  C   UNL     1       8.882   5.526  -7.008  1.00  0.00     0.031 C 
ATOM     46  C   UNL     1       3.963   6.243  -7.789  1.00  0.00     0.029 A 
ATOM     47  N   UNL     1       5.315   8.003  -8.051  1.00  0.00    -0.354 N 
ATOM     48  C   UNL     1       9.552   7.697  -7.285  1.00  0.00     0.074 A 
ATOM     49  C   UNL     1       9.927   6.340  -6.949  1.00  0.00     0.031 C 
ATOM     50  C   UNL     1       3.202   7.283  -8.165  1.00  0.00     0.029 A 
ATOM     51  C   UNL     1       4.046   8.465  -8.312  1.00  0.00     0.049 A 
ATOM     52  H   UNL     1       6.117   8.573  -8.102  1.00  0.00     0.167 HD
ATOM     53  C   UNL     1      10.424   8.727  -7.386  1.00  0.00     0.037 A 
ATOM     54  C   UNL     1       3.608   9.703  -8.619  1.00  0.00     0.037 A 
ATOM     55  C   UNL     1      10.054  10.069  -7.752  1.00  0.00     0.049 A 
ATOM     56  C   UNL     1       4.593  10.835  -8.714  1.00  0.00     0.074 A 
ATOM     57  C   UNL     1      10.874  11.172  -7.913  1.00  0.00     0.029 A 
ATOM     58  N   UNL     1       8.761  10.490  -8.021  1.00  0.00    -0.354 N 
ATOM     59  N   UNL     1       5.891  10.811  -8.531  1.00  0.00    -0.248 NA
ATOM     60  C   UNL     1       4.056  12.162  -9.050  1.00  0.00     0.031 C 
ATOM     61  C   UNL     1      10.074  12.267  -8.254  1.00  0.00     0.029 A 
ATOM     62  C   UNL     1       8.759  11.837  -8.341  1.00  0.00     0.049 A 
ATOM     63  H   UNL     1       7.961   9.916  -7.990  1.00  0.00     0.167 HD
ATOM     64  C   UNL     1       6.330  12.112  -8.753  1.00  0.00     0.074 A 
ATOM     65  C   UNL     1       5.160  12.898  -9.085  1.00  0.00     0.031 C 
ATOM     66  C   UNL     1       7.589  12.605  -8.686  1.00  0.00     0.037 A 
BRANCH  53  67
ATOM     67  C   UNL     1      11.873   8.445  -7.108  1.00  0.00     0.058 A 
ATOM     68  C   UNL     1      12.486   8.931  -5.943  1.00  0.00     0.135 A 
ATOM     69  C   UNL     1      12.668   7.734  -8.021  1.00  0.00     0.135 A 
ATOM     70  F   UNL     1      11.770   9.613  -5.035  1.00  0.00    -0.206 F 
ATOM     71  C   UNL     1      13.840   8.731  -5.697  1.00  0.00     0.059 A 
ATOM     72  C   UNL     1      14.020   7.503  -7.784  1.00  0.00     0.059 A 
ATOM     73  F   UNL     1      12.124   7.229  -9.140  1.00  0.00    -0.206 F 
ATOM     74  C   UNL     1      14.600   8.017  -6.625  1.00  0.00     0.060 A 
BRANCH  74  75
ATOM     75  S   UNL     1      16.347   7.725  -6.274  1.00  0.00     0.124 S 
ATOM     76  O   UNL     1      16.926   9.040  -6.523  1.00  0.00    -0.237 OA
ATOM     77  O   UNL     1      16.315   7.297  -4.878  1.00  0.00    -0.237 OA
ATOM     78  O   UNL     1      16.712   6.683  -7.229  1.00  0.00    -0.744 OA
ENDBRANCH  74  75
ENDBRANCH  53  67
BRANCH  54  79
ATOM     79  C   UNL     1       2.161   9.926  -8.877  1.00  0.00     0.058 A 
ATOM     80  C   UNL     1       1.218   9.893  -7.839  1.00  0.00     0.135 A 
ATOM     81  C   UNL     1       1.692  10.138 -10.182  1.00  0.00     0.135 A 
ATOM     82  F   UNL     1       1.616   9.687  -6.574  1.00  0.00    -0.206 F 
ATOM     83  C   UNL     1      -0.142  10.036  -8.089  1.00  0.00     0.059 A 
ATOM     84  C   UNL     1       0.338  10.304 -10.455  1.00  0.00     0.059 A 
ATOM     85  F   UNL     1       2.560  10.191 -11.204  1.00  0.00    -0.206 F 
ATOM     86  C   UNL     1      -0.574  10.232  -9.402  1.00  0.00     0.060 A 
BRANCH  86  87
ATOM     87  S   UNL     1      -2.346  10.392  -9.710  1.00  0.00     0.124 S 
ATOM     88  O   UNL     1      -2.802   9.023  -9.494  1.00  0.00    -0.237 OA
ATOM     89  O   UNL     1      -2.748  11.364  -8.698  1.00  0.00    -0.237 OA
ATOM     90  O   UNL     1      -2.407  10.865 -11.089  1.00  0.00    -0.744 OA
ENDBRANCH  86  87
ENDBRANCH  54  79
BRANCH  66  91
ATOM     91  C   UNL     1       7.794  14.058  -9.007  1.00  0.00     0.058 A 
ATOM     92  C   UNL     1       8.404  14.438 -10.213  1.00  0.00     0.135 A 
ATOM     93  C   UNL     1       7.487  15.064  -8.079  1.00  0.00     0.135 A 
ATOM     94  F   UNL     1       8.718  13.512 -11.133  1.00  0.00    -0.206 F 
ATOM     95  C   UNL     1       8.730  15.764 -10.476  1.00  0.00     0.059 A 
ATOM     96  C   UNL     1       7.787  16.400  -8.329  1.00  0.00     0.059 A 
ATOM     97  F   UNL     1       6.891  14.751  -6.917  1.00  0.00    -0.206 F 
ATOM     98  C   UNL     1       8.428  16.737  -9.521  1.00  0.00     0.060 A 
BRANCH  98  99
ATOM     99  S   UNL     1       8.880  18.451  -9.866  1.00  0.00     0.124 S 
ATOM    100  O   UNL     1      10.330  18.414  -9.712  1.00  0.00    -0.237 OA
ATOM    101  O   UNL     1       8.391  18.632 -11.230  1.00  0.00    -0.237 OA
ATOM    102  O   UNL     1       8.157  19.203  -8.845  1.00  0.00    -0.744 OA
ENDBRANCH  98  99
ENDBRANCH  66  91
ENDBRANCH  40  41
ENDBRANCH  32  35
ENDBRANCH  30  31
ENDBRANCH  29  30
ENDBRANCH  28  29
ENDBRANCH   3  28
TORSDOF 19
