REMARK SMILES Cc1nc(-c2ccc(C(F)(F)F)cc2)nc(SCC(=O)NCCCNC(=O)c2ccc(-c3c4nc(c(-c5c(F)cc(S(=O)(=O)[O-])cc5F)c5ccc([nH]5)c(-c5c(F)cc(S(=O)(=O)[O-])cc5F)c5nc(c(-c6c(F)cc(S(=O)(=O)[O-])cc6F)c6ccc3[nH]6)C=C5)C=C4)cc2)c1C
REMARK SMILES IDX 22 1 21 2 19 3 20 4 18 6 17 7 16 8 1 9 2 10 3 11 94 12 4 13
REMARK SMILES IDX 95 14 15 15 5 16 6 17 14 18 7 19 13 20 8 21 9 22 10 23 11 24
REMARK SMILES IDX 12 25 23 26 24 27 25 28 26 29 27 31 28 32 29 33 93 34 30 35
REMARK SMILES IDX 92 36 31 37 32 38 33 39 86 40 34 41 91 42 85 43 87 44 35 45
REMARK SMILES IDX 90 46 84 47 83 48 36 50 70 51 49 52 69 53 50 54 53 55 68 56
REMARK SMILES IDX 88 57 51 58 52 59 67 61 89 62 54 63 37 64 38 65 47 66 39 67
REMARK SMILES IDX 40 68 46 69 48 70 41 71 42 72 43 73 44 74 45 75 71 76 72 77
REMARK SMILES IDX 81 78 73 79 74 80 80 81 82 82 75 83 76 84 77 85 78 86 79 87
REMARK SMILES IDX 55 88 56 89 65 90 57 91 58 92 64 93 66 94 59 95 60 96 61 97
REMARK SMILES IDX 62 98 63 99
REMARK H PARENT 21 5 25 30 87 49 53 60
REMARK Flexibility Score: inf
ROOT
ATOM      1  C   UNL     1       1.098   3.320   6.219  1.00  0.00     0.117 C 
ENDROOT
BRANCH   1   2
ATOM      2  N   UNL     1       1.159   3.744   4.833  1.00  0.00    -0.355 N 
ATOM      3  C   UNL     1       0.198   3.719   3.873  1.00  0.00     0.230 C 
ATOM      4  O   UNL     1       0.417   4.369   2.845  1.00  0.00    -0.274 OA
ATOM      5  H   UNL     1       2.029   4.106   4.545  1.00  0.00     0.163 HD
BRANCH   3   6
ATOM      6  C   UNL     1      -1.136   3.035   4.080  1.00  0.00     0.176 C 
BRANCH   6   7
ATOM      7  S   UNL     1      -1.086   1.274   4.497  1.00  0.00    -0.096 SA
BRANCH   7   8
ATOM      8  C   UNL     1      -0.465   0.256   3.171  1.00  0.00     0.104 A 
ATOM      9  C   UNL     1       1.021  -0.391  -0.251  1.00  0.00     0.067 C 
ATOM     10  C   UNL     1       0.452  -0.525   1.134  1.00  0.00     0.045 A 
ATOM     11  N   UNL     1       0.539  -1.774   1.624  1.00  0.00    -0.233 NA
ATOM     12  C   UNL     1      -0.058   0.554   1.871  1.00  0.00     0.003 A 
ATOM     13  C   UNL     1       0.082  -1.978   2.859  1.00  0.00     0.160 A 
ATOM     14  C   UNL     1      -0.058   1.913   1.259  1.00  0.00     0.049 C 
ATOM     15  N   UNL     1      -0.426  -1.018   3.639  1.00  0.00    -0.221 NA
BRANCH  13  16
ATOM     16  C   UNL     1       0.166  -3.345   3.377  1.00  0.00     0.019 A 
ATOM     17  C   UNL     1       1.381  -4.052   3.328  1.00  0.00     0.012 A 
ATOM     18  C   UNL     1      -0.960  -4.009   3.889  1.00  0.00     0.012 A 
ATOM     19  C   UNL     1       1.467  -5.378   3.760  1.00  0.00     0.014 A 
ATOM     20  C   UNL     1      -0.882  -5.344   4.306  1.00  0.00     0.014 A 
ATOM     21  C   UNL     1       0.331  -6.045   4.238  1.00  0.00     0.056 A 
BRANCH  21  22
ATOM     22  C   UNL     1       0.431  -7.494   4.654  1.00  0.00     0.416 C 
ATOM     23  F   UNL     1       0.905  -8.284   3.648  1.00  0.00    -0.166 F 
ATOM     24  F   UNL     1       1.266  -7.686   5.708  1.00  0.00    -0.166 F 
ATOM     25  F   UNL     1      -0.766  -8.039   5.012  1.00  0.00    -0.166 F 
ENDBRANCH  21  22
ENDBRANCH  13  16
ENDBRANCH   7   8
ENDBRANCH   6   7
ENDBRANCH   3   6
ENDBRANCH   1   2
BRANCH   1  26
ATOM     26  C   UNL     1       1.975   2.107   6.507  1.00  0.00     0.042 C 
BRANCH  26  27
ATOM     27  C   UNL     1       3.455   2.308   6.194  1.00  0.00     0.118 C 
BRANCH  27  28
ATOM     28  N   UNL     1       4.061   3.385   6.965  1.00  0.00    -0.352 N 
ATOM     29  C   UNL     1       5.013   3.346   7.956  1.00  0.00     0.251 C 
ATOM     30  H   UNL     1       3.737   4.287   6.740  1.00  0.00     0.163 HD
ATOM     31  O   UNL     1       5.250   4.360   8.603  1.00  0.00    -0.269 OA
BRANCH  29  32
ATOM     32  C   UNL     1       5.731   2.088   8.258  1.00  0.00     0.039 A 
ATOM     33  C   UNL     1       5.920   1.724   9.593  1.00  0.00     0.014 A 
ATOM     34  C   UNL     1       6.230   1.278   7.235  1.00  0.00     0.014 A 
ATOM     35  C   UNL     1       6.541   0.510   9.898  1.00  0.00     0.010 A 
ATOM     36  C   UNL     1       6.774   0.033   7.538  1.00  0.00     0.010 A 
ATOM     37  C   UNL     1       6.936  -0.365   8.873  1.00  0.00    -0.014 A 
BRANCH  37  38
ATOM     38  C   UNL     1       7.513  -1.699   9.182  1.00  0.00     0.031 A 
ATOM     39  C   UNL     1       8.928  -2.023   8.789  1.00  0.00     0.074 A 
ATOM     40  C   UNL     1       6.746  -2.632   9.782  1.00  0.00     0.049 A 
ATOM     41  N   UNL     1       9.592  -3.139   8.947  1.00  0.00    -0.248 NA
ATOM     42  C   UNL     1       9.692  -0.962   8.113  1.00  0.00     0.031 C 
ATOM     43  C   UNL     1       5.348  -2.447  10.178  1.00  0.00     0.029 A 
ATOM     44  N   UNL     1       7.030  -3.918  10.167  1.00  0.00    -0.354 N 
ATOM     45  C   UNL     1      10.848  -2.914   8.396  1.00  0.00     0.074 A 
ATOM     46  C   UNL     1      10.832  -1.579   7.839  1.00  0.00     0.031 C 
ATOM     47  C   UNL     1       4.911  -3.563  10.784  1.00  0.00     0.029 A 
ATOM     48  C   UNL     1       5.979  -4.557  10.783  1.00  0.00     0.049 A 
ATOM     49  H   UNL     1       7.905  -4.344  10.016  1.00  0.00     0.167 HD
ATOM     50  C   UNL     1      11.927  -3.733   8.385  1.00  0.00     0.037 A 
ATOM     51  C   UNL     1       5.886  -5.803  11.290  1.00  0.00     0.037 A 
ATOM     52  C   UNL     1      11.938  -5.056   8.951  1.00  0.00     0.049 A 
ATOM     53  C   UNL     1       7.085  -6.710  11.229  1.00  0.00     0.074 A 
ATOM     54  C   UNL     1      12.989  -5.953   9.016  1.00  0.00     0.029 A 
ATOM     55  N   UNL     1      10.848  -5.672   9.551  1.00  0.00    -0.354 N 
ATOM     56  N   UNL     1       8.280  -6.463  10.745  1.00  0.00    -0.248 NA
ATOM     57  C   UNL     1       6.928  -8.062  11.781  1.00  0.00     0.031 C 
ATOM     58  C   UNL     1      12.523  -7.130   9.608  1.00  0.00     0.029 A 
ATOM     59  C   UNL     1      11.197  -6.947   9.967  1.00  0.00     0.049 A 
ATOM     60  H   UNL     1       9.960  -5.264   9.663  1.00  0.00     0.167 HD
ATOM     61  C   UNL     1       9.024  -7.618  10.961  1.00  0.00     0.074 A 
ATOM     62  C   UNL     1       8.148  -8.560  11.626  1.00  0.00     0.031 C 
ATOM     63  C   UNL     1      10.316  -7.872  10.639  1.00  0.00     0.037 A 
BRANCH  50  64
ATOM     64  C   UNL     1      13.191  -3.216   7.754  1.00  0.00     0.058 A 
ATOM     65  C   UNL     1      13.942  -2.190   8.351  1.00  0.00     0.135 A 
ATOM     66  C   UNL     1      13.688  -3.784   6.569  1.00  0.00     0.135 A 
ATOM     67  F   UNL     1      13.506  -1.600   9.476  1.00  0.00    -0.206 F 
ATOM     68  C   UNL     1      15.125  -1.728   7.785  1.00  0.00     0.059 A 
ATOM     69  C   UNL     1      14.886  -3.358   6.001  1.00  0.00     0.059 A 
ATOM     70  F   UNL     1      13.012  -4.767   5.955  1.00  0.00    -0.206 F 
ATOM     71  C   UNL     1      15.591  -2.321   6.610  1.00  0.00     0.060 A 
BRANCH  71  72
ATOM     72  S   UNL     1      17.134  -1.714   5.898  1.00  0.00     0.124 S 
ATOM     73  O   UNL     1      16.743  -0.382   5.447  1.00  0.00    -0.237 OA
ATOM     74  O   UNL     1      18.040  -1.754   7.042  1.00  0.00    -0.237 OA
ATOM     75  O   UNL     1      17.423  -2.674   4.838  1.00  0.00    -0.744 OA
ENDBRANCH  71  72
ENDBRANCH  50  64
BRANCH  51  76
ATOM     76  C   UNL     1       4.621  -6.244  11.938  1.00  0.00     0.058 A 
ATOM     77  C   UNL     1       4.554  -6.435  13.326  1.00  0.00     0.135 A 
ATOM     78  C   UNL     1       3.447  -6.449  11.195  1.00  0.00     0.135 A 
ATOM     79  F   UNL     1       5.650  -6.260  14.080  1.00  0.00    -0.206 F 
ATOM     80  C   UNL     1       3.373  -6.817  13.955  1.00  0.00     0.059 A 
ATOM     81  C   UNL     1       2.248  -6.806  11.803  1.00  0.00     0.059 A 
ATOM     82  F   UNL     1       3.453  -6.265   9.865  1.00  0.00    -0.206 F 
ATOM     83  C   UNL     1       2.222  -6.992  13.185  1.00  0.00     0.060 A 
BRANCH  83  84
ATOM     84  S   UNL     1       0.683  -7.425  14.024  1.00  0.00     0.124 S 
ATOM     85  O   UNL     1       0.963  -8.784  14.474  1.00  0.00    -0.237 OA
ATOM     86  O   UNL     1       0.612  -6.409  15.069  1.00  0.00    -0.237 OA
ATOM     87  O   UNL     1      -0.322  -7.303  12.972  1.00  0.00    -0.744 OA
ENDBRANCH  83  84
ENDBRANCH  51  76
BRANCH  63  88
ATOM     88  C   UNL     1      10.886  -9.210  11.020  1.00  0.00     0.058 A 
ATOM     89  C   UNL     1      10.533 -10.383  10.337  1.00  0.00     0.135 A 
ATOM     90  C   UNL     1      11.872  -9.303  12.018  1.00  0.00     0.135 A 
ATOM     91  F   UNL     1       9.592 -10.351   9.380  1.00  0.00    -0.206 F 
ATOM     92  C   UNL     1      11.131 -11.604  10.633  1.00  0.00     0.059 A 
ATOM     93  C   UNL     1      12.504 -10.507  12.310  1.00  0.00     0.059 A 
ATOM     94  F   UNL     1      12.254  -8.209  12.695  1.00  0.00    -0.206 F 
ATOM     95  C   UNL     1      12.124 -11.654  11.615  1.00  0.00     0.060 A 
BRANCH  95  96
ATOM     96  S   UNL     1      12.935 -13.233  11.940  1.00  0.00     0.124 S 
ATOM     97  O   UNL     1      11.861 -13.993  12.571  1.00  0.00    -0.237 OA
ATOM     98  O   UNL     1      13.316 -13.667  10.600  1.00  0.00    -0.237 OA
ATOM     99  O   UNL     1      14.046 -12.873  12.816  1.00  0.00    -0.744 OA
ENDBRANCH  95  96
ENDBRANCH  63  88
ENDBRANCH  37  38
ENDBRANCH  29  32
ENDBRANCH  27  28
ENDBRANCH  26  27
ENDBRANCH   1  26
TORSDOF 17
