REMARK SMILES Cc1oc2c(C)c3oc(=O)c(CCC(=O)N[C@H](Cc4ccc(Cl)cc4)C(=O)NCCCNC(=O)c4ccc(-c5c6nc(c(-c7c(F)cc(S(=O)(=O)[O-])cc7F)c7ccc([nH]7)c(-c7c(F)cc(S(=O)(=O)[O-])cc7F)c7nc(c(-c8c(F)cc(S(=O)(=O)[O-])cc8F)c8ccc5[nH]8)C=C7)C=C6)cc4)c(C)c3cc2c1C
REMARK SMILES IDX 29 1 28 2 26 3 27 4 17 6 16 7 14 8 15 9 13 11 12 12 11 13
REMARK SMILES IDX 1 14 2 15 3 16 106 17 4 18 105 19 107 20 5 21 104 22 6 23
REMARK SMILES IDX 7 24 103 25 8 26 101 27 9 28 102 29 10 30 18 31 19 32 20 33
REMARK SMILES IDX 25 34 21 35 24 36 22 37 23 38 30 39 31 40 32 41 33 42 34 44
REMARK SMILES IDX 35 45 36 46 100 47 37 48 99 49 38 50 39 51 40 52 93 53 41 54
REMARK SMILES IDX 98 55 92 56 94 57 42 58 97 59 91 60 90 61 43 63 77 64 56 65
REMARK SMILES IDX 76 66 57 67 60 68 75 69 95 70 58 71 59 72 74 74 96 75 61 76
REMARK SMILES IDX 44 77 45 78 54 79 46 80 47 81 53 82 55 83 48 84 49 85 50 86
REMARK SMILES IDX 51 87 52 88 78 89 79 90 88 91 80 92 81 93 87 94 89 95 82 96
REMARK SMILES IDX 83 97 84 98 85 99 86 100 62 101 63 102 72 103 64 104 65 105
REMARK SMILES IDX 71 106 73 107 66 108 67 109 68 110 69 111 70 112
REMARK H PARENT 28 5 16 10 32 43 94 62 60 73
REMARK Flexibility Score: inf
ROOT
ATOM      1  C   UNL     1       1.414  -3.291   5.577  1.00  0.00     0.117 C 
ENDROOT
BRANCH   1   2
ATOM      2  N   UNL     1       0.503  -4.691   5.024  1.00  0.00    -0.354 N 
ATOM      3  C   UNL     1      -0.644  -5.329   4.411  1.00  0.00     0.242 C 
ATOM      4  O   UNL     1      -0.526  -6.578   4.488  1.00  0.00    -0.273 OA
ATOM      5  H   UNL     1       1.087  -5.449   5.256  1.00  0.00     0.163 HD
BRANCH   3   6
ATOM      6  C   UNL     1      -2.123  -4.833   3.409  1.00  0.00     0.175 C 
BRANCH   6   7
ATOM      7  N   UNL     1      -1.478  -4.964   2.124  1.00  0.00    -0.344 N 
ATOM      8  C   UNL     1      -0.572  -4.031   1.747  1.00  0.00     0.220 C 
ATOM      9  O   UNL     1      -0.228  -3.972   0.569  1.00  0.00    -0.275 OA
ATOM     10  H   UNL     1      -1.693  -5.720   1.531  1.00  0.00     0.164 HD
BRANCH   8  11
ATOM     11  C   UNL     1       0.077  -3.191   2.850  1.00  0.00     0.105 C 
BRANCH  11  12
ATOM     12  C   UNL     1      -0.746  -2.608   4.162  1.00  0.00     0.053 C 
BRANCH  12  13
ATOM     13  C   UNL     1      -1.510  -3.356   5.585  1.00  0.00     0.042 A 
ATOM     14  C   UNL     1      -8.823  -6.724   7.171  1.00  0.00     0.088 C 
ATOM     15  C   UNL     1      -7.386  -6.539   6.868  1.00  0.00     0.105 A 
ATOM     16  O   UNL     1      -6.526  -6.473   7.938  1.00  0.00    -0.461 OA
ATOM     17  C   UNL     1      -6.729  -6.251   5.686  1.00  0.00    -0.002 A 
ATOM     18  C   UNL     1      -5.349  -5.945   7.480  1.00  0.00     0.141 A 
ATOM     19  C   UNL     1      -5.423  -5.841   6.108  1.00  0.00     0.025 A 
ATOM     20  C   UNL     1      -7.327  -6.106   4.322  1.00  0.00     0.049 C 
ATOM     21  C   UNL     1      -4.220  -5.520   8.203  1.00  0.00     0.036 A 
ATOM     22  C   UNL     1      -4.362  -5.196   5.463  1.00  0.00     0.024 A 
ATOM     23  C   UNL     1      -3.992  -5.913   9.618  1.00  0.00     0.052 C 
ATOM     24  C   UNL     1      -3.381  -4.623   7.490  1.00  0.00     0.145 A 
ATOM     25  C   UNL     1      -3.615  -4.255   6.198  1.00  0.00     0.022 A 
ATOM     26  O   UNL     1      -2.174  -4.129   7.982  1.00  0.00    -0.422 OA
ATOM     27  C   UNL     1      -2.806  -3.126   5.659  1.00  0.00    -0.030 A 
ATOM     28  C   UNL     1      -1.142  -4.084   7.000  1.00  0.00     0.339 A 
ATOM     29  C   UNL     1      -3.009  -1.633   5.642  1.00  0.00     0.046 C 
ATOM     30  O   UNL     1      -0.051  -4.519   7.369  1.00  0.00    -0.246 OA
ENDBRANCH  12  13
ENDBRANCH  11  12
ENDBRANCH   8  11
ENDBRANCH   6   7
BRANCH   6  31
ATOM     31  C   UNL     1      -3.500  -3.706   2.958  1.00  0.00     0.070 C 
BRANCH  31  32
ATOM     32  C   UNL     1      -4.694  -2.692   3.508  1.00  0.00    -0.045 A 
ATOM     33  C   UNL     1      -5.622  -2.838   4.571  1.00  0.00     0.005 A 
ATOM     34  C   UNL     1      -4.786  -1.405   2.939  1.00  0.00     0.005 A 
ATOM     35  C   UNL     1      -6.115  -1.764   5.351  1.00  0.00     0.021 A 
ATOM     36  C   UNL     1      -5.356  -0.307   3.651  1.00  0.00     0.021 A 
ATOM     37  C   UNL     1      -5.897  -0.479   4.919  1.00  0.00     0.041 A 
ATOM     38  Cl  UNL     1      -6.134   0.848   5.987  1.00  0.00    -0.084 Cl
ENDBRANCH  31  32
ENDBRANCH   6  31
ENDBRANCH   3   6
ENDBRANCH   1   2
BRANCH   1  39
ATOM     39  C   UNL     1       0.866  -2.052   6.582  1.00  0.00     0.042 C 
BRANCH  39  40
ATOM     40  C   UNL     1       1.543  -0.642   6.803  1.00  0.00     0.118 C 
BRANCH  40  41
ATOM     41  N   UNL     1       1.276   0.372   5.770  1.00  0.00    -0.352 N 
ATOM     42  C   UNL     1       0.988   1.734   5.752  1.00  0.00     0.251 C 
ATOM     43  H   UNL     1       1.309  -0.009   4.863  1.00  0.00     0.163 HD
ATOM     44  O   UNL     1       0.746   2.192   4.628  1.00  0.00    -0.269 OA
BRANCH  42  45
ATOM     45  C   UNL     1       0.932   2.699   6.913  1.00  0.00     0.039 A 
ATOM     46  C   UNL     1       0.320   3.960   6.695  1.00  0.00     0.014 A 
ATOM     47  C   UNL     1       1.506   2.491   8.165  1.00  0.00     0.014 A 
ATOM     48  C   UNL     1       0.237   4.946   7.702  1.00  0.00     0.010 A 
ATOM     49  C   UNL     1       1.414   3.475   9.180  1.00  0.00     0.010 A 
ATOM     50  C   UNL     1       0.762   4.701   8.972  1.00  0.00    -0.014 A 
BRANCH  50  51
ATOM     51  C   UNL     1       0.501   5.673  10.074  1.00  0.00     0.031 A 
ATOM     52  C   UNL     1      -0.095   5.080  11.311  1.00  0.00     0.074 A 
ATOM     53  C   UNL     1       1.181   6.829  10.258  1.00  0.00     0.049 A 
ATOM     54  N   UNL     1       0.619   4.396  12.157  1.00  0.00    -0.248 NA
ATOM     55  C   UNL     1      -1.533   5.028  11.573  1.00  0.00     0.031 C 
ATOM     56  C   UNL     1       2.545   7.054   9.769  1.00  0.00     0.029 A 
ATOM     57  N   UNL     1       0.945   7.903  11.096  1.00  0.00    -0.354 N 
ATOM     58  C   UNL     1      -0.254   3.776  13.026  1.00  0.00     0.074 A 
ATOM     59  C   UNL     1      -1.580   4.205  12.633  1.00  0.00     0.031 C 
ATOM     60  C   UNL     1       3.088   8.084  10.452  1.00  0.00     0.029 A 
ATOM     61  C   UNL     1       2.070   8.705  11.296  1.00  0.00     0.049 A 
ATOM     62  H   UNL     1       0.071   8.084  11.510  1.00  0.00     0.167 HD
ATOM     63  C   UNL     1       0.162   2.939  14.011  1.00  0.00     0.037 A 
ATOM     64  C   UNL     1       2.349   9.438  12.412  1.00  0.00     0.037 A 
ATOM     65  C   UNL     1       1.581   2.788  14.141  1.00  0.00     0.049 A 
ATOM     66  C   UNL     1       2.580   8.354  13.433  1.00  0.00     0.074 A 
ATOM     67  C   UNL     1       2.563   1.964  13.634  1.00  0.00     0.029 A 
ATOM     68  N   UNL     1       2.264   3.727  14.882  1.00  0.00    -0.354 N 
ATOM     69  N   UNL     1       3.673   7.651  13.577  1.00  0.00    -0.248 NA
ATOM     70  C   UNL     1       1.405   7.798  14.107  1.00  0.00     0.031 C 
ATOM     71  C   UNL     1       3.777   2.717  13.716  1.00  0.00     0.029 A 
ATOM     72  C   UNL     1       3.442   3.973  14.219  1.00  0.00     0.049 A 
ATOM     73  H   UNL     1       1.965   4.142  15.723  1.00  0.00     0.167 HD
ATOM     74  C   UNL     1       3.259   6.433  14.119  1.00  0.00     0.074 A 
ATOM     75  C   UNL     1       1.859   6.602  14.451  1.00  0.00     0.031 C 
ATOM     76  C   UNL     1       4.014   5.296  14.093  1.00  0.00     0.037 A 
BRANCH  63  77
ATOM     77  C   UNL     1      -0.734   2.330  15.010  1.00  0.00     0.058 A 
ATOM     78  C   UNL     1      -0.860   2.943  16.264  1.00  0.00     0.135 A 
ATOM     79  C   UNL     1      -1.307   1.067  14.823  1.00  0.00     0.135 A 
ATOM     80  F   UNL     1      -0.305   4.148  16.479  1.00  0.00    -0.206 F 
ATOM     81  C   UNL     1      -1.499   2.309  17.318  1.00  0.00     0.059 A 
ATOM     82  C   UNL     1      -1.957   0.412  15.866  1.00  0.00     0.059 A 
ATOM     83  F   UNL     1      -1.200   0.442  13.640  1.00  0.00    -0.206 F 
ATOM     84  C   UNL     1      -2.028   1.034  17.115  1.00  0.00     0.060 A 
BRANCH  84  85
ATOM     85  S   UNL     1      -2.765   0.190  18.530  1.00  0.00     0.124 S 
ATOM     86  O   UNL     1      -1.625   0.070  19.434  1.00  0.00    -0.237 OA
ATOM     87  O   UNL     1      -3.802   1.133  18.935  1.00  0.00    -0.237 OA
ATOM     88  O   UNL     1      -3.249  -1.065  17.963  1.00  0.00    -0.744 OA
ENDBRANCH  84  85
ENDBRANCH  63  77
BRANCH  64  89
ATOM     89  C   UNL     1       1.461  10.624  12.660  1.00  0.00     0.058 A 
ATOM     90  C   UNL     1       1.226  11.520  11.595  1.00  0.00     0.135 A 
ATOM     91  C   UNL     1       0.828  10.943  13.874  1.00  0.00     0.135 A 
ATOM     92  F   UNL     1       1.903  11.392  10.442  1.00  0.00    -0.206 F 
ATOM     93  C   UNL     1       0.292  12.550  11.672  1.00  0.00     0.059 A 
ATOM     94  C   UNL     1      -0.133  11.953  13.972  1.00  0.00     0.059 A 
ATOM     95  F   UNL     1       1.107  10.270  14.998  1.00  0.00    -0.206 F 
ATOM     96  C   UNL     1      -0.423  12.725  12.852  1.00  0.00     0.060 A 
BRANCH  96  97
ATOM     97  S   UNL     1      -1.776  13.920  12.868  1.00  0.00     0.124 S 
ATOM     98  O   UNL     1      -1.069  15.182  12.683  1.00  0.00    -0.237 OA
ATOM     99  O   UNL     1      -2.582  13.471  11.736  1.00  0.00    -0.237 OA
ATOM    100  O   UNL     1      -2.385  13.725  14.179  1.00  0.00    -0.744 OA
ENDBRANCH  96  97
ENDBRANCH  64  89
BRANCH  76 101
ATOM    101  C   UNL     1       5.434   5.457  13.662  1.00  0.00     0.058 A 
ATOM    102  C   UNL     1       6.372   6.033  14.531  1.00  0.00     0.135 A 
ATOM    103  C   UNL     1       5.896   4.977  12.426  1.00  0.00     0.135 A 
ATOM    104  F   UNL     1       5.987   6.501  15.730  1.00  0.00    -0.206 F 
ATOM    105  C   UNL     1       7.724   6.091  14.206  1.00  0.00     0.059 A 
ATOM    106  C   UNL     1       7.247   5.006  12.089  1.00  0.00     0.059 A 
ATOM    107  F   UNL     1       5.044   4.431  11.542  1.00  0.00    -0.206 F 
ATOM    108  C   UNL     1       8.156   5.557  12.991  1.00  0.00     0.060 A 
BRANCH 108 109
ATOM    109  S   UNL     1       9.927   5.513  12.646  1.00  0.00     0.124 S 
ATOM    110  O   UNL     1      10.230   6.921  12.415  1.00  0.00    -0.237 OA
ATOM    111  O   UNL     1      10.470   4.942  13.876  1.00  0.00    -0.237 OA
ATOM    112  O   UNL     1      10.027   4.649  11.472  1.00  0.00    -0.744 OA
ENDBRANCH 108 109
ENDBRANCH  76 101
ENDBRANCH  50  51
ENDBRANCH  42  45
ENDBRANCH  40  41
ENDBRANCH  39  40
ENDBRANCH   1  39
TORSDOF 19
