REMARK SMILES C[C@@H]1c2ccccc2-c2ccc(C(=O)NCCCNC(=O)c3ccc(-c4c5nc(c(-c6c(F)cc(S(=O)(=O)[O-])cc6F)c6ccc([nH]6)c(-c6c(F)cc(S(=O)(=O)[O-])cc6F)c6nc(c(-c7c(F)cc(S(=O)(=O)[O-])cc7F)c7ccc4[nH]7)C=C6)C=C5)cc3)cc21
REMARK SMILES IDX 19 1 20 2 21 3 18 5 17 6 16 7 15 8 13 9 14 10 12 12 1 13
REMARK SMILES IDX 2 14 3 15 89 16 4 17 8 18 9 19 88 20 5 21 7 22 10 23 6 24
REMARK SMILES IDX 11 25 22 26 23 27 87 28 24 29 86 30 25 31 26 32 27 33 80 34
REMARK SMILES IDX 28 35 85 36 79 37 81 38 29 39 84 40 78 41 77 42 30 44 64 45
REMARK SMILES IDX 43 46 63 47 44 48 47 49 62 50 82 51 45 52 46 53 61 55 83 56
REMARK SMILES IDX 48 57 31 58 32 59 41 60 33 61 34 62 40 63 42 64 35 65 36 66
REMARK SMILES IDX 37 67 38 68 39 69 65 70 66 71 75 72 67 73 68 74 74 75 76 76
REMARK SMILES IDX 69 77 70 78 71 79 72 80 73 81 49 82 50 83 59 84 51 85 52 86
REMARK SMILES IDX 58 87 60 88 53 89 54 90 55 91 56 92 57 93
REMARK H PARENT 19 4 15 11 81 43 47 54
REMARK Flexibility Score: inf
ROOT
ATOM      1  N   UNL     1      -6.613  -4.996   0.770  1.00  0.00    -0.352 N 
ATOM      2  C   UNL     1      -6.981  -6.286   1.054  1.00  0.00     0.251 C 
ATOM      3  O   UNL     1      -7.183  -7.058   0.120  1.00  0.00    -0.269 OA
ATOM      4  H   UNL     1      -6.735  -4.729  -0.170  1.00  0.00     0.163 HD
ENDROOT
BRANCH   1   5
ATOM      5  C   UNL     1      -6.071  -3.957   1.632  1.00  0.00     0.118 C 
BRANCH   5   6
ATOM      6  C   UNL     1      -4.739  -3.427   1.106  1.00  0.00     0.042 C 
BRANCH   6   7
ATOM      7  C   UNL     1      -4.870  -2.628  -0.192  1.00  0.00     0.118 C 
BRANCH   7   8
ATOM      8  N   UNL     1      -5.374  -1.290   0.057  1.00  0.00    -0.352 N 
ATOM      9  C   UNL     1      -4.757  -0.073   0.195  1.00  0.00     0.251 C 
ATOM     10  O   UNL     1      -5.488   0.911   0.325  1.00  0.00    -0.269 OA
ATOM     11  H   UNL     1      -6.354  -1.248   0.144  1.00  0.00     0.163 HD
BRANCH   9  12
ATOM     12  C   UNL     1      -3.277   0.127   0.153  1.00  0.00     0.040 A 
ATOM     13  C   UNL     1       0.235  -2.259   1.779  1.00  0.00     0.018 C 
ATOM     14  C   UNL     1       0.206  -1.507   0.456  1.00  0.00     0.047 C 
ATOM     15  C   UNL     1       1.376  -0.554   0.265  1.00  0.00    -0.033 A 
ATOM     16  C   UNL     1      -0.982  -0.563   0.318  1.00  0.00    -0.032 A 
ATOM     17  C   UNL     1       2.733  -0.835   0.308  1.00  0.00     0.005 A 
ATOM     18  C   UNL     1       0.905   0.749  -0.012  1.00  0.00    -0.014 A 
ATOM     19  C   UNL     1      -0.542   0.736  -0.000  1.00  0.00    -0.014 A 
ATOM     20  C   UNL     1      -2.333  -0.865   0.434  1.00  0.00     0.018 A 
ATOM     21  C   UNL     1       3.628   0.212   0.087  1.00  0.00     0.000 A 
ATOM     22  C   UNL     1       1.794   1.788  -0.228  1.00  0.00     0.009 A 
ATOM     23  C   UNL     1      -1.459   1.744  -0.233  1.00  0.00     0.010 A 
ATOM     24  C   UNL     1       3.164   1.512  -0.175  1.00  0.00     0.001 A 
ATOM     25  C   UNL     1      -2.824   1.431  -0.165  1.00  0.00     0.014 A 
ENDBRANCH   9  12
ENDBRANCH   7   8
ENDBRANCH   6   7
ENDBRANCH   5   6
ENDBRANCH   1   5
BRANCH   2  26
ATOM     26  C   UNL     1      -7.139  -6.758   2.449  1.00  0.00     0.039 A 
ATOM     27  C   UNL     1      -6.793  -8.080   2.745  1.00  0.00     0.014 A 
ATOM     28  C   UNL     1      -7.702  -5.951   3.443  1.00  0.00     0.014 A 
ATOM     29  C   UNL     1      -6.987  -8.583   4.034  1.00  0.00     0.010 A 
ATOM     30  C   UNL     1      -7.834  -6.433   4.745  1.00  0.00     0.010 A 
ATOM     31  C   UNL     1      -7.497  -7.760   5.049  1.00  0.00    -0.014 A 
BRANCH  31  32
ATOM     32  C   UNL     1      -7.706  -8.289   6.422  1.00  0.00     0.031 A 
ATOM     33  C   UNL     1      -9.097  -8.416   6.984  1.00  0.00     0.074 A 
ATOM     34  C   UNL     1      -6.639  -8.625   7.173  1.00  0.00     0.049 A 
ATOM     35  N   UNL     1      -9.476  -8.836   8.165  1.00  0.00    -0.248 NA
ATOM     36  C   UNL     1     -10.207  -7.994   6.115  1.00  0.00     0.031 C 
ATOM     37  C   UNL     1      -5.240  -8.498   6.759  1.00  0.00     0.029 A 
ATOM     38  N   UNL     1      -6.564  -9.138   8.443  1.00  0.00    -0.354 N 
ATOM     39  C   UNL     1     -10.861  -8.715   8.186  1.00  0.00     0.074 A 
ATOM     40  C   UNL     1     -11.252  -8.137   6.918  1.00  0.00     0.031 C 
ATOM     41  C   UNL     1      -4.447  -8.945   7.746  1.00  0.00     0.029 A 
ATOM     42  C   UNL     1      -5.277  -9.365   8.871  1.00  0.00     0.049 A 
ATOM     43  H   UNL     1      -7.356  -9.327   8.996  1.00  0.00     0.167 HD
ATOM     44  C   UNL     1     -11.730  -9.073   9.162  1.00  0.00     0.037 A 
ATOM     45  C   UNL     1      -4.818  -9.859  10.036  1.00  0.00     0.037 A 
ATOM     46  C   UNL     1     -11.338  -9.676  10.410  1.00  0.00     0.049 A 
ATOM     47  C   UNL     1      -5.804 -10.284  11.090  1.00  0.00     0.074 A 
ATOM     48  C   UNL     1     -12.143 -10.122  11.444  1.00  0.00     0.029 A 
ATOM     49  N   UNL     1     -10.027  -9.923  10.791  1.00  0.00    -0.354 N 
ATOM     50  N   UNL     1      -7.114 -10.212  11.071  1.00  0.00    -0.248 NA
ATOM     51  C   UNL     1      -5.250 -10.872  12.317  1.00  0.00     0.031 C 
ATOM     52  C   UNL     1     -11.317 -10.612  12.463  1.00  0.00     0.029 A 
ATOM     53  C   UNL     1     -10.000 -10.508  12.047  1.00  0.00     0.049 A 
ATOM     54  H   UNL     1      -9.233  -9.713  10.249  1.00  0.00     0.167 HD
ATOM     55  C   UNL     1      -7.542 -10.767  12.271  1.00  0.00     0.074 A 
ATOM     56  C   UNL     1      -6.351 -11.184  12.985  1.00  0.00     0.031 C 
ATOM     57  C   UNL     1      -8.805 -10.918  12.741  1.00  0.00     0.037 A 
BRANCH  44  58
ATOM     58  C   UNL     1     -13.194  -8.827   8.914  1.00  0.00     0.058 A 
ATOM     59  C   UNL     1     -13.920  -9.585   7.980  1.00  0.00     0.135 A 
ATOM     60  C   UNL     1     -13.887  -7.839   9.632  1.00  0.00     0.135 A 
ATOM     61  F   UNL     1     -13.305 -10.532   7.254  1.00  0.00    -0.206 F 
ATOM     62  C   UNL     1     -15.270  -9.350   7.743  1.00  0.00     0.059 A 
ATOM     63  C   UNL     1     -15.245  -7.605   9.431  1.00  0.00     0.059 A 
ATOM     64  F   UNL     1     -13.244  -7.086  10.538  1.00  0.00    -0.206 F 
ATOM     65  C   UNL     1     -15.924  -8.355   8.471  1.00  0.00     0.060 A 
BRANCH  65  66
ATOM     66  S   UNL     1     -17.676  -8.059   8.150  1.00  0.00     0.124 S 
ATOM     67  O   UNL     1     -17.622  -7.348   6.877  1.00  0.00    -0.237 OA
ATOM     68  O   UNL     1     -18.219  -9.413   8.097  1.00  0.00    -0.237 OA
ATOM     69  O   UNL     1     -18.101  -7.262   9.297  1.00  0.00    -0.744 OA
ENDBRANCH  65  66
ENDBRANCH  44  58
BRANCH  45  70
ATOM     70  C   UNL     1      -3.356 -10.017  10.249  1.00  0.00     0.058 A 
ATOM     71  C   UNL     1      -2.761 -11.287  10.250  1.00  0.00     0.135 A 
ATOM     72  C   UNL     1      -2.523  -8.903  10.435  1.00  0.00     0.135 A 
ATOM     73  F   UNL     1      -3.518 -12.382  10.080  1.00  0.00    -0.206 F 
ATOM     74  C   UNL     1      -1.393 -11.451  10.444  1.00  0.00     0.059 A 
ATOM     75  C   UNL     1      -1.149  -9.040  10.608  1.00  0.00     0.059 A 
ATOM     76  F   UNL     1      -3.042  -7.665  10.423  1.00  0.00    -0.206 F 
ATOM     77  C   UNL     1      -0.595 -10.319  10.621  1.00  0.00     0.060 A 
BRANCH  77  78
ATOM     78  S   UNL     1       1.187 -10.537  10.817  1.00  0.00     0.124 S 
ATOM     79  O   UNL     1       1.275 -11.011  12.193  1.00  0.00    -0.237 OA
ATOM     80  O   UNL     1       1.494 -11.519   9.781  1.00  0.00    -0.237 OA
ATOM     81  O   UNL     1       1.716  -9.198  10.573  1.00  0.00    -0.744 OA
ENDBRANCH  77  78
ENDBRANCH  45  70
BRANCH  57  82
ATOM     82  C   UNL     1      -8.960 -11.591  14.076  1.00  0.00     0.058 A 
ATOM     83  C   UNL     1      -8.620 -10.942  15.273  1.00  0.00     0.135 A 
ATOM     84  C   UNL     1      -9.470 -12.897  14.158  1.00  0.00     0.135 A 
ATOM     85  F   UNL     1      -8.124  -9.695  15.248  1.00  0.00    -0.206 F 
ATOM     86  C   UNL     1      -8.743 -11.578  16.504  1.00  0.00     0.059 A 
ATOM     87  C   UNL     1      -9.626 -13.543  15.380  1.00  0.00     0.059 A 
ATOM     88  F   UNL     1      -9.822 -13.557  13.043  1.00  0.00    -0.206 F 
ATOM     89  C   UNL     1      -9.241 -12.882  16.546  1.00  0.00     0.060 A 
BRANCH  89  90
ATOM     90  S   UNL     1      -9.398 -13.701  18.147  1.00  0.00     0.124 S 
ATOM     91  O   UNL     1      -8.016 -14.084  18.416  1.00  0.00    -0.237 OA
ATOM     92  O   UNL     1      -9.938 -12.641  18.993  1.00  0.00    -0.237 OA
ATOM     93  O   UNL     1     -10.314 -14.804  17.874  1.00  0.00    -0.744 OA
ENDBRANCH  89  90
ENDBRANCH  57  82
ENDBRANCH  31  32
ENDBRANCH   2  26
TORSDOF 13
