REMARK SMILES C#Cc1ccc2c(c1)C=C(C(=O)NCCCNC(=O)c1ccc(-c3c4nc(c(-c5c(F)cc(S(=O)(=O)[O-])cc5F)c5ccc([nH]5)c(-c5c(F)cc(S(=O)(=O)[O-])cc5F)c5nc(c(-c6c(F)cc(S(=O)(=O)[O-])cc6F)c6ccc3[nH]6)C=C5)C=C4)cc1)[C@@H](C(F)(F)F)O2
REMARK SMILES IDX 16 1 15 2 14 3 13 4 11 5 12 6 10 8 3 9 4 10 8 11 5 12 7 13
REMARK SMILES IDX 6 14 9 15 91 16 86 17 2 18 1 19 87 20 88 21 89 22 90 23
REMARK SMILES IDX 17 24 18 25 19 27 20 28 21 29 85 30 22 31 84 32 23 33 24 34
REMARK SMILES IDX 25 35 78 36 26 37 83 38 77 39 79 40 27 41 82 42 76 43 75 44
REMARK SMILES IDX 28 46 62 47 41 48 61 49 42 50 45 51 60 52 80 53 43 54 44 55
REMARK SMILES IDX 59 57 81 58 46 59 29 60 30 61 39 62 31 63 32 64 38 65 40 66
REMARK SMILES IDX 33 67 34 68 35 69 36 70 37 71 63 72 64 73 73 74 65 75 66 76
REMARK SMILES IDX 72 77 74 78 67 79 68 80 69 81 70 82 71 83 47 84 48 85 57 86
REMARK SMILES IDX 49 87 50 88 56 89 58 90 51 91 52 92 53 93 54 94 55 95
REMARK H PARENT 13 7 17 26 79 45 45 56
REMARK Flexibility Score: inf
ROOT
ATOM      1  C   UNL     1     -10.817   3.725   1.425  1.00  0.00     0.118 C 
ENDROOT
BRANCH   1   2
ATOM      2  C   UNL     1      -9.855   2.564   1.250  1.00  0.00     0.042 C 
BRANCH   2   3
ATOM      3  C   UNL     1      -9.062   2.686  -0.037  1.00  0.00     0.118 C 
BRANCH   3   4
ATOM      4  N   UNL     1      -7.951   3.619   0.089  1.00  0.00    -0.352 N 
ATOM      5  C   UNL     1      -6.599   3.551   0.107  1.00  0.00     0.251 C 
ATOM      6  O   UNL     1      -6.013   4.635   0.194  1.00  0.00    -0.270 OA
ATOM      7  H   UNL     1      -8.267   4.546   0.187  1.00  0.00     0.163 HD
BRANCH   5   8
ATOM      8  C   UNL     1      -5.810   2.287   0.028  1.00  0.00     0.067 C 
ATOM      9  C   UNL     1      -1.515   0.071   0.056  1.00  0.00     0.025 A 
ATOM     10  C   UNL     1      -2.158  -1.170   0.066  1.00  0.00     0.021 A 
ATOM     11  C   UNL     1      -2.264   1.254   0.076  1.00  0.00     0.029 A 
ATOM     12  C   UNL     1      -3.547  -1.231   0.097  1.00  0.00     0.048 A 
ATOM     13  C   UNL     1      -3.661   1.195   0.102  1.00  0.00     0.018 A 
ATOM     14  C   UNL     1      -4.288  -0.053   0.106  1.00  0.00     0.128 A 
ATOM     15  C   UNL     1      -4.477   2.402   0.172  1.00  0.00     0.025 C 
ATOM     16  O   UNL     1      -5.640  -0.203   0.166  1.00  0.00    -0.475 OA
ATOM     17  C   UNL     1      -6.433   0.944  -0.225  1.00  0.00     0.314 C 
BRANCH   9  18
ATOM     18  C   UNL     1      -0.087   0.117   0.042  1.00  0.00    -0.070 C 
ATOM     19  C   UNL     1       1.115   0.122   0.040  1.00  0.00     0.010 C 
ENDBRANCH   9  18
BRANCH  17  20
ATOM     20  C   UNL     1      -6.874   0.773  -1.693  1.00  0.00     0.429 C 
ATOM     21  F   UNL     1      -7.790  -0.221  -1.802  1.00  0.00    -0.167 F 
ATOM     22  F   UNL     1      -7.457   1.885  -2.202  1.00  0.00    -0.167 F 
ATOM     23  F   UNL     1      -5.845   0.469  -2.516  1.00  0.00    -0.167 F 
ENDBRANCH  17  20
ENDBRANCH   5   8
ENDBRANCH   3   4
ENDBRANCH   2   3
ENDBRANCH   1   2
BRANCH   1  24
ATOM     24  N   UNL     1     -11.841   3.761   0.377  1.00  0.00    -0.352 N 
ATOM     25  C   UNL     1     -13.198   3.550   0.448  1.00  0.00     0.251 C 
ATOM     26  H   UNL     1     -11.503   3.970  -0.523  1.00  0.00     0.163 HD
ATOM     27  O   UNL     1     -13.852   3.407  -0.580  1.00  0.00    -0.269 OA
BRANCH  25  28
ATOM     28  C   UNL     1     -13.846   3.469   1.770  1.00  0.00     0.039 A 
ATOM     29  C   UNL     1     -13.436   4.328   2.785  1.00  0.00     0.014 A 
ATOM     30  C   UNL     1     -14.812   2.493   2.018  1.00  0.00     0.014 A 
ATOM     31  C   UNL     1     -13.777   4.038   4.094  1.00  0.00     0.010 A 
ATOM     32  C   UNL     1     -15.277   2.306   3.322  1.00  0.00     0.010 A 
ATOM     33  C   UNL     1     -14.707   3.027   4.383  1.00  0.00    -0.014 A 
BRANCH  33  34
ATOM     34  C   UNL     1     -15.044   2.751   5.804  1.00  0.00     0.031 A 
ATOM     35  C   UNL     1     -14.798   1.392   6.407  1.00  0.00     0.074 A 
ATOM     36  C   UNL     1     -15.498   3.763   6.571  1.00  0.00     0.049 A 
ATOM     37  N   UNL     1     -15.008   0.990   7.634  1.00  0.00    -0.248 NA
ATOM     38  C   UNL     1     -14.255   0.346   5.524  1.00  0.00     0.031 C 
ATOM     39  C   UNL     1     -15.755   5.128   6.099  1.00  0.00     0.029 A 
ATOM     40  N   UNL     1     -15.790   3.819   7.909  1.00  0.00    -0.354 N 
ATOM     41  C   UNL     1     -14.644  -0.351   7.667  1.00  0.00     0.074 A 
ATOM     42  C   UNL     1     -14.239  -0.710   6.326  1.00  0.00     0.031 C 
ATOM     43  C   UNL     1     -16.096   5.898   7.140  1.00  0.00     0.029 A 
ATOM     44  C   UNL     1     -16.177   5.068   8.335  1.00  0.00     0.049 A 
ATOM     45  H   UNL     1     -15.728   3.040   8.508  1.00  0.00     0.167 HD
ATOM     46  C   UNL     1     -14.633  -1.199   8.723  1.00  0.00     0.037 A 
ATOM     47  C   UNL     1     -16.580   5.499   9.545  1.00  0.00     0.037 A 
ATOM     48  C   UNL     1     -15.017  -0.822  10.059  1.00  0.00     0.049 A 
ATOM     49  C   UNL     1     -16.621   4.521  10.683  1.00  0.00     0.074 A 
ATOM     50  C   UNL     1     -15.020  -1.602  11.201  1.00  0.00     0.029 A 
ATOM     51  N   UNL     1     -15.469   0.436  10.432  1.00  0.00    -0.354 N 
ATOM     52  N   UNL     1     -16.256   3.261  10.697  1.00  0.00    -0.248 NA
ATOM     53  C   UNL     1     -17.138   5.014  11.965  1.00  0.00     0.031 C 
ATOM     54  C   UNL     1     -15.535  -0.837  12.251  1.00  0.00     0.029 A 
ATOM     55  C   UNL     1     -15.787   0.442  11.780  1.00  0.00     0.049 A 
ATOM     56  H   UNL     1     -15.550   1.209   9.829  1.00  0.00     0.167 HD
ATOM     57  C   UNL     1     -16.485   2.814  11.992  1.00  0.00     0.074 A 
ATOM     58  C   UNL     1     -16.998   3.945  12.738  1.00  0.00     0.031 C 
ATOM     59  C   UNL     1     -16.293   1.577  12.513  1.00  0.00     0.037 A 
BRANCH  46  60
ATOM     60  C   UNL     1     -14.202  -2.623   8.487  1.00  0.00     0.058 A 
ATOM     61  C   UNL     1     -12.869  -2.956   8.199  1.00  0.00     0.135 A 
ATOM     62  C   UNL     1     -15.122  -3.677   8.624  1.00  0.00     0.135 A 
ATOM     63  F   UNL     1     -11.949  -1.991   8.042  1.00  0.00    -0.206 F 
ATOM     64  C   UNL     1     -12.468  -4.279   8.037  1.00  0.00     0.059 A 
ATOM     65  C   UNL     1     -14.737  -5.009   8.497  1.00  0.00     0.059 A 
ATOM     66  F   UNL     1     -16.410  -3.418   8.899  1.00  0.00    -0.206 F 
ATOM     67  C   UNL     1     -13.408  -5.299   8.194  1.00  0.00     0.060 A 
BRANCH  67  68
ATOM     68  S   UNL     1     -12.861  -7.007   7.993  1.00  0.00     0.124 S 
ATOM     69  O   UNL     1     -12.523  -7.040   6.573  1.00  0.00    -0.237 OA
ATOM     70  O   UNL     1     -11.731  -7.079   8.914  1.00  0.00    -0.237 OA
ATOM     71  O   UNL     1     -14.032  -7.790   8.375  1.00  0.00    -0.744 OA
ENDBRANCH  67  68
ENDBRANCH  46  60
BRANCH  47  72
ATOM     72  C   UNL     1     -16.984   6.919   9.723  1.00  0.00     0.058 A 
ATOM     73  C   UNL     1     -16.227   7.793  10.514  1.00  0.00     0.135 A 
ATOM     74  C   UNL     1     -18.112   7.442   9.067  1.00  0.00     0.135 A 
ATOM     75  F   UNL     1     -15.144   7.342  11.165  1.00  0.00    -0.206 F 
ATOM     76  C   UNL     1     -16.575   9.133  10.656  1.00  0.00     0.059 A 
ATOM     77  C   UNL     1     -18.460   8.785   9.165  1.00  0.00     0.059 A 
ATOM     78  F   UNL     1     -18.862   6.652   8.283  1.00  0.00    -0.206 F 
ATOM     79  C   UNL     1     -17.688   9.621   9.968  1.00  0.00     0.060 A 
BRANCH  79  80
ATOM     80  S   UNL     1     -18.093  11.373  10.118  1.00  0.00     0.124 S 
ATOM     81  O   UNL     1     -18.488  11.466  11.519  1.00  0.00    -0.237 OA
ATOM     82  O   UNL     1     -16.826  12.007   9.767  1.00  0.00    -0.237 OA
ATOM     83  O   UNL     1     -19.168  11.555   9.147  1.00  0.00    -0.744 OA
ENDBRANCH  79  80
ENDBRANCH  47  72
BRANCH  59  84
ATOM     84  C   UNL     1     -16.624   1.370  13.965  1.00  0.00     0.058 A 
ATOM     85  C   UNL     1     -17.952   1.334  14.416  1.00  0.00     0.135 A 
ATOM     86  C   UNL     1     -15.607   1.104  14.896  1.00  0.00     0.135 A 
ATOM     87  F   UNL     1     -18.962   1.591  13.569  1.00  0.00    -0.206 F 
ATOM     88  C   UNL     1     -18.260   1.048  15.741  1.00  0.00     0.059 A 
ATOM     89  C   UNL     1     -15.893   0.782  16.219  1.00  0.00     0.059 A 
ATOM     90  F   UNL     1     -14.319   1.117  14.514  1.00  0.00    -0.206 F 
ATOM     91  C   UNL     1     -17.224   0.760  16.632  1.00  0.00     0.060 A 
BRANCH  91  92
ATOM     92  S   UNL     1     -17.649   0.327  18.332  1.00  0.00     0.124 S 
ATOM     93  O   UNL     1     -18.190   1.587  18.832  1.00  0.00    -0.237 OA
ATOM     94  O   UNL     1     -18.618  -0.748  18.142  1.00  0.00    -0.237 OA
ATOM     95  O   UNL     1     -16.372  -0.080  18.911  1.00  0.00    -0.744 OA
ENDBRANCH  91  92
ENDBRANCH  59  84
ENDBRANCH  33  34
ENDBRANCH  25  28
ENDBRANCH   1  24
TORSDOF 15
