REMARK SMILES CCc1ccsc1-c1nnnn1C[C@H](CC(C)C)C(=O)NCCCNC(=O)c1ccc(-c2c3nc(c(-c4c(F)cc(S(=O)(=O)[O-])cc4F)c4ccc([nH]4)c(-c4c(F)cc(S(=O)(=O)[O-])cc4F)c4nc(c(-c5c(F)cc(S(=O)(=O)[O-])cc5F)c5ccc2[nH]5)C=C4)C=C3)cc1
REMARK SMILES IDX 22 1 21 2 19 3 20 4 14 6 13 7 12 8 8 9 9 10 10 11 11 12 7 13
REMARK SMILES IDX 3 14 4 15 5 16 6 17 2 18 1 19 15 20 16 21 17 22 18 23 23 24
REMARK SMILES IDX 24 25 25 26 26 27 27 29 28 30 29 31 93 32 30 33 92 34 31 35
REMARK SMILES IDX 32 36 33 37 86 38 34 39 91 40 85 41 87 42 35 43 90 44 84 45
REMARK SMILES IDX 83 46 36 48 70 49 49 50 69 51 50 52 53 53 68 54 88 55 51 56
REMARK SMILES IDX 52 57 67 59 89 60 54 61 37 62 38 63 47 64 39 65 40 66 46 67
REMARK SMILES IDX 48 68 41 69 42 70 43 71 44 72 45 73 71 74 72 75 81 76 73 77
REMARK SMILES IDX 74 78 80 79 82 80 75 81 76 82 77 83 78 84 79 85 55 86 56 87
REMARK SMILES IDX 65 88 57 89 58 90 64 91 66 92 59 93 60 94 61 95 62 96 63 97
REMARK H PARENT 21 5 25 28 87 47 53 58
REMARK Flexibility Score: inf
ROOT
ATOM      1  C   UNL     1      -4.275  -0.681   2.717  1.00  0.00     0.117 C 
ENDROOT
BRANCH   1   2
ATOM      2  N   UNL     1      -4.025   0.232   3.805  1.00  0.00    -0.356 N 
ATOM      3  C   UNL     1      -3.903   1.591   3.731  1.00  0.00     0.224 C 
ATOM      4  O   UNL     1      -4.086   2.259   4.749  1.00  0.00    -0.275 OA
ATOM      5  H   UNL     1      -3.932  -0.168   4.699  1.00  0.00     0.163 HD
BRANCH   3   6
ATOM      6  C   UNL     1      -3.535   2.274   2.413  1.00  0.00     0.100 C 
BRANCH   6   7
ATOM      7  C   UNL     1      -4.754   2.365   1.454  1.00  0.00     0.162 C 
BRANCH   7   8
ATOM      8  N   UNL     1      -4.725   1.674   0.183  1.00  0.00    -0.224 N 
ATOM      9  C   UNL     1      -5.509   0.654  -0.318  1.00  0.00     0.192 A 
ATOM     10  N   UNL     1      -4.995   0.292  -1.477  1.00  0.00    -0.108 NA
ATOM     11  N   UNL     1      -3.967   1.161  -1.735  1.00  0.00    -0.023 NA
ATOM     12  N   UNL     1      -3.829   2.040  -0.754  1.00  0.00    -0.045 NA
BRANCH   9  13
ATOM     13  C   UNL     1      -6.635   0.022   0.309  1.00  0.00     0.077 A 
ATOM     14  C   UNL     1      -7.808   0.601   0.777  1.00  0.00    -0.026 A 
ATOM     15  C   UNL     1      -8.589  -0.351   1.519  1.00  0.00     0.016 A 
ATOM     16  C   UNL     1      -8.068  -1.624   1.465  1.00  0.00     0.066 A 
ATOM     17  S   UNL     1      -6.690  -1.691   0.461  1.00  0.00    -0.140 S 
BRANCH  14  18
ATOM     18  C   UNL     1      -8.244   2.019   0.535  1.00  0.00     0.034 C 
ATOM     19  C   UNL     1      -8.589   2.252  -0.931  1.00  0.00     0.009 C 
ENDBRANCH  14  18
ENDBRANCH   9  13
ENDBRANCH   7   8
ENDBRANCH   6   7
BRANCH   6  20
ATOM     20  C   UNL     1      -2.186   1.716   1.912  1.00  0.00     0.018 C 
BRANCH  20  21
ATOM     21  C   UNL     1      -1.125   2.800   1.635  1.00  0.00    -0.017 C 
ATOM     22  C   UNL     1      -0.623   3.447   2.932  1.00  0.00     0.007 C 
ATOM     23  C   UNL     1       0.061   2.171   0.898  1.00  0.00     0.007 C 
ENDBRANCH  20  21
ENDBRANCH   6  20
ENDBRANCH   3   6
ENDBRANCH   1   2
BRANCH   1  24
ATOM     24  C   UNL     1      -3.206  -1.715   2.396  1.00  0.00     0.042 C 
BRANCH  24  25
ATOM     25  C   UNL     1      -3.449  -3.021   3.123  1.00  0.00     0.118 C 
BRANCH  25  26
ATOM     26  N   UNL     1      -4.708  -3.669   2.730  1.00  0.00    -0.352 N 
ATOM     27  C   UNL     1      -5.352  -4.737   3.342  1.00  0.00     0.251 C 
ATOM     28  H   UNL     1      -5.151  -3.300   1.932  1.00  0.00     0.163 HD
ATOM     29  O   UNL     1      -6.232  -5.355   2.788  1.00  0.00    -0.269 OA
BRANCH  27  30
ATOM     30  C   UNL     1      -4.910  -5.083   4.705  1.00  0.00     0.039 A 
ATOM     31  C   UNL     1      -4.483  -6.373   5.021  1.00  0.00     0.014 A 
ATOM     32  C   UNL     1      -4.763  -4.028   5.596  1.00  0.00     0.014 A 
ATOM     33  C   UNL     1      -3.782  -6.564   6.210  1.00  0.00     0.010 A 
ATOM     34  C   UNL     1      -3.913  -4.185   6.660  1.00  0.00     0.010 A 
ATOM     35  C   UNL     1      -3.455  -5.454   7.006  1.00  0.00    -0.014 A 
BRANCH  35  36
ATOM     36  C   UNL     1      -2.525  -5.578   8.130  1.00  0.00     0.031 A 
ATOM     37  C   UNL     1      -1.240  -6.267   7.813  1.00  0.00     0.074 A 
ATOM     38  C   UNL     1      -2.700  -4.922   9.299  1.00  0.00     0.049 A 
ATOM     39  N   UNL     1      -0.848  -7.433   8.209  1.00  0.00    -0.248 NA
ATOM     40  C   UNL     1      -0.342  -5.652   6.820  1.00  0.00     0.031 C 
ATOM     41  C   UNL     1      -3.753  -3.956   9.647  1.00  0.00     0.029 A 
ATOM     42  N   UNL     1      -1.901  -4.893  10.402  1.00  0.00    -0.354 N 
ATOM     43  C   UNL     1       0.450  -7.588   7.722  1.00  0.00     0.074 A 
ATOM     44  C   UNL     1       0.617  -6.576   6.714  1.00  0.00     0.031 C 
ATOM     45  C   UNL     1      -3.395  -3.265  10.750  1.00  0.00     0.029 A 
ATOM     46  C   UNL     1      -2.205  -3.878  11.303  1.00  0.00     0.049 A 
ATOM     47  H   UNL     1      -1.170  -5.536  10.548  1.00  0.00     0.167 HD
ATOM     48  C   UNL     1       1.362  -8.361   8.380  1.00  0.00     0.037 A 
ATOM     49  C   UNL     1      -1.542  -3.565  12.441  1.00  0.00     0.037 A 
ATOM     50  C   UNL     1       0.711  -9.169   9.382  1.00  0.00     0.049 A 
ATOM     51  C   UNL     1      -0.776  -4.769  12.832  1.00  0.00     0.074 A 
ATOM     52  C   UNL     1      -0.210 -10.195   9.383  1.00  0.00     0.029 A 
ATOM     53  N   UNL     1       0.736  -8.659  10.655  1.00  0.00    -0.354 N 
ATOM     54  N   UNL     1      -1.329  -5.889  13.208  1.00  0.00    -0.248 NA
ATOM     55  C   UNL     1       0.623  -4.866  12.444  1.00  0.00     0.031 C 
ATOM     56  C   UNL     1      -0.976 -10.015  10.574  1.00  0.00     0.029 A 
ATOM     57  C   UNL     1      -0.455  -8.926  11.276  1.00  0.00     0.049 A 
ATOM     58  H   UNL     1       1.493  -8.175  11.060  1.00  0.00     0.167 HD
ATOM     59  C   UNL     1      -0.505  -6.876  12.696  1.00  0.00     0.074 A 
ATOM     60  C   UNL     1       0.747  -6.195  12.385  1.00  0.00     0.031 C 
ATOM     61  C   UNL     1      -1.021  -8.078  12.305  1.00  0.00     0.037 A 
BRANCH  48  62
ATOM     62  C   UNL     1       2.857  -8.093   8.450  1.00  0.00     0.058 A 
ATOM     63  C   UNL     1       3.692  -9.030   9.100  1.00  0.00     0.135 A 
ATOM     64  C   UNL     1       3.454  -6.841   8.185  1.00  0.00     0.135 A 
ATOM     65  F   UNL     1       3.238 -10.256   9.405  1.00  0.00    -0.206 F 
ATOM     66  C   UNL     1       4.984  -8.717   9.531  1.00  0.00     0.059 A 
ATOM     67  C   UNL     1       4.758  -6.527   8.557  1.00  0.00     0.059 A 
ATOM     68  F   UNL     1       2.777  -5.823   7.642  1.00  0.00    -0.206 F 
ATOM     69  C   UNL     1       5.501  -7.453   9.269  1.00  0.00     0.060 A 
BRANCH  69  70
ATOM     70  S   UNL     1       7.122  -7.003   9.913  1.00  0.00     0.124 S 
ATOM     71  O   UNL     1       6.855  -6.927  11.344  1.00  0.00    -0.237 OA
ATOM     72  O   UNL     1       7.945  -8.124   9.472  1.00  0.00    -0.237 OA
ATOM     73  O   UNL     1       7.402  -5.731   9.254  1.00  0.00    -0.744 OA
ENDBRANCH  69  70
ENDBRANCH  48  62
BRANCH  49  74
ATOM     74  C   UNL     1      -1.343  -2.245  13.086  1.00  0.00     0.058 A 
ATOM     75  C   UNL     1      -0.902  -2.150  14.418  1.00  0.00     0.135 A 
ATOM     76  C   UNL     1      -1.286  -1.063  12.321  1.00  0.00     0.135 A 
ATOM     77  F   UNL     1      -0.920  -3.230  15.213  1.00  0.00    -0.206 F 
ATOM     78  C   UNL     1      -0.362  -0.972  14.939  1.00  0.00     0.059 A 
ATOM     79  C   UNL     1      -0.757   0.126  12.822  1.00  0.00     0.059 A 
ATOM     80  F   UNL     1      -1.651  -1.061  11.030  1.00  0.00    -0.206 F 
ATOM     81  C   UNL     1      -0.266   0.155  14.123  1.00  0.00     0.060 A 
BRANCH  81  82
ATOM     82  S   UNL     1       0.627   1.607  14.728  1.00  0.00     0.124 S 
ATOM     83  O   UNL     1      -0.284   2.119  15.746  1.00  0.00    -0.237 OA
ATOM     84  O   UNL     1       1.869   1.022  15.221  1.00  0.00    -0.237 OA
ATOM     85  O   UNL     1       0.764   2.440  13.537  1.00  0.00    -0.744 OA
ENDBRANCH  81  82
ENDBRANCH  49  74
BRANCH  61  86
ATOM     86  C   UNL     1      -2.367  -8.469  12.857  1.00  0.00     0.058 A 
ATOM     87  C   UNL     1      -3.581  -7.822  12.570  1.00  0.00     0.135 A 
ATOM     88  C   UNL     1      -2.430  -9.630  13.642  1.00  0.00     0.135 A 
ATOM     89  F   UNL     1      -3.623  -6.761  11.753  1.00  0.00    -0.206 F 
ATOM     90  C   UNL     1      -4.797  -8.283  13.080  1.00  0.00     0.059 A 
ATOM     91  C   UNL     1      -3.633 -10.127  14.133  1.00  0.00     0.059 A 
ATOM     92  F   UNL     1      -1.311 -10.326  13.905  1.00  0.00    -0.206 F 
ATOM     93  C   UNL     1      -4.812  -9.438  13.862  1.00  0.00     0.060 A 
BRANCH  93  94
ATOM     94  S   UNL     1      -6.389 -10.070  14.474  1.00  0.00     0.124 S 
ATOM     95  O   UNL     1      -6.729  -9.099  15.508  1.00  0.00    -0.237 OA
ATOM     96  O   UNL     1      -7.228 -10.044  13.279  1.00  0.00    -0.237 OA
ATOM     97  O   UNL     1      -6.055 -11.407  14.959  1.00  0.00    -0.744 OA
ENDBRANCH  93  94
ENDBRANCH  61  86
ENDBRANCH  35  36
ENDBRANCH  27  30
ENDBRANCH  25  26
ENDBRANCH  24  25
ENDBRANCH   1  24
TORSDOF 19
