REMARK SMILES Cc1ccc2oc(C(=O)N[C@@H]3C=C[C@H](C(=O)NCCCNC(=O)c4ccc(-c5c6nc(c(-c7c(F)cc(S(=O)(=O)[O-])cc7F)c7ccc([nH]7)c(-c7c(F)cc(S(=O)(=O)[O-])cc7F)c7nc(c(-c8c(F)cc(S(=O)(=O)[O-])cc8F)c8ccc5[nH]8)C=C7)C=C6)cc4)C3)cc2c1
REMARK SMILES IDX 19 1 18 2 17 3 15 4 16 5 14 7 11 8 12 9 90 10 13 11 10 12
REMARK SMILES IDX 8 13 9 14 7 16 1 17 2 18 3 19 93 20 4 21 92 22 5 23 91 24
REMARK SMILES IDX 6 25 20 26 21 27 22 28 23 30 24 31 25 32 89 33 26 34 88 35
REMARK SMILES IDX 27 36 28 37 29 38 82 39 30 40 87 41 81 42 83 43 31 44 86 45
REMARK SMILES IDX 80 46 79 47 32 49 66 50 45 51 65 52 46 53 49 54 64 55 84 56
REMARK SMILES IDX 47 57 48 58 63 60 85 61 50 62 33 63 34 64 43 65 35 66 36 67
REMARK SMILES IDX 42 68 44 69 37 70 38 71 39 72 40 73 41 74 67 75 68 76 77 77
REMARK SMILES IDX 69 78 70 79 76 80 78 81 71 82 72 83 73 84 74 85 75 86 51 87
REMARK SMILES IDX 52 88 61 89 53 90 54 91 60 92 62 93 55 94 56 95 57 96 58 97
REMARK SMILES IDX 59 98
REMARK H PARENT 17 6 10 15 21 29 83 48 49 59
REMARK Flexibility Score: inf
ROOT
ATOM      1  C   UNL     1       1.186  -7.773   3.608  1.00  0.00     0.042 C 
ENDROOT
BRANCH   1   2
ATOM      2  C   UNL     1       1.650  -6.889   2.460  1.00  0.00     0.117 C 
BRANCH   2   3
ATOM      3  N   UNL     1       0.951  -5.626   2.350  1.00  0.00    -0.356 N 
ATOM      4  C   UNL     1       1.341  -4.382   1.971  1.00  0.00     0.227 C 
ATOM      5  O   UNL     1       0.408  -3.606   1.727  1.00  0.00    -0.274 OA
ATOM      6  H   UNL     1       0.000  -5.680   2.600  1.00  0.00     0.163 HD
BRANCH   4   7
ATOM      7  C   UNL     1       2.804  -3.859   1.977  1.00  0.00     0.103 C 
ATOM      8  C   UNL     1       3.647  -3.099  -0.228  1.00  0.00     0.106 C 
ATOM      9  C   UNL     1       4.392  -4.281   0.258  1.00  0.00    -0.006 C 
ATOM     10  C   UNL     1       2.908  -2.631   1.036  1.00  0.00     0.047 C 
ATOM     11  C   UNL     1       3.969  -4.668   1.474  1.00  0.00    -0.016 C 
BRANCH   8  12
ATOM     12  N   UNL     1       2.820  -3.252  -1.427  1.00  0.00    -0.343 N 
ATOM     13  C   UNL     1       2.197  -4.198  -2.207  1.00  0.00     0.287 C 
ATOM     14  O   UNL     1       1.633  -3.726  -3.211  1.00  0.00    -0.266 OA
ATOM     15  H   UNL     1       2.648  -2.361  -1.810  1.00  0.00     0.164 HD
BRANCH  13  16
ATOM     16  C   UNL     1       2.208  -5.618  -1.940  1.00  0.00     0.192 A 
ATOM     17  C   UNL     1       2.531 -11.348  -0.126  1.00  0.00     0.044 C 
ATOM     18  C   UNL     1       2.324 -10.116  -0.958  1.00  0.00    -0.050 A 
ATOM     19  C   UNL     1       1.778 -10.155  -2.251  1.00  0.00     0.007 A 
ATOM     20  C   UNL     1       2.669  -8.887  -0.396  1.00  0.00     0.015 A 
ATOM     21  C   UNL     1       1.582  -8.985  -3.017  1.00  0.00     0.048 A 
ATOM     22  C   UNL     1       2.417  -7.718  -1.122  1.00  0.00     0.021 A 
ATOM     23  C   UNL     1       1.921  -7.780  -2.409  1.00  0.00     0.135 A 
ATOM     24  C   UNL     1       2.486  -6.356  -0.820  1.00  0.00     0.065 A 
ATOM     25  O   UNL     1       1.817  -6.513  -2.928  1.00  0.00    -0.451 OA
ENDBRANCH  13  16
ENDBRANCH   8  12
ENDBRANCH   4   7
ENDBRANCH   2   3
ENDBRANCH   1   2
BRANCH   1  26
ATOM     26  C   UNL     1      -0.254  -8.275   3.509  1.00  0.00     0.118 C 
BRANCH  26  27
ATOM     27  N   UNL     1      -0.478  -9.264   2.462  1.00  0.00    -0.352 N 
ATOM     28  C   UNL     1      -1.074 -10.506   2.522  1.00  0.00     0.251 C 
ATOM     29  H   UNL     1      -0.151  -9.004   1.570  1.00  0.00     0.163 HD
ATOM     30  O   UNL     1      -1.074 -11.215   1.516  1.00  0.00    -0.269 OA
BRANCH  28  31
ATOM     31  C   UNL     1      -1.672 -11.024   3.781  1.00  0.00     0.039 A 
ATOM     32  C   UNL     1      -1.527 -12.383   4.085  1.00  0.00     0.014 A 
ATOM     33  C   UNL     1      -2.388 -10.204   4.655  1.00  0.00     0.014 A 
ATOM     34  C   UNL     1      -2.022 -12.892   5.292  1.00  0.00     0.010 A 
ATOM     35  C   UNL     1      -2.799 -10.690   5.897  1.00  0.00     0.010 A 
ATOM     36  C   UNL     1      -2.627 -12.041   6.230  1.00  0.00    -0.014 A 
BRANCH  36  37
ATOM     37  C   UNL     1      -3.101 -12.547   7.548  1.00  0.00     0.031 A 
ATOM     38  C   UNL     1      -4.560 -12.460   7.917  1.00  0.00     0.074 A 
ATOM     39  C   UNL     1      -2.215 -13.020   8.447  1.00  0.00     0.049 A 
ATOM     40  N   UNL     1      -5.151 -12.778   9.042  1.00  0.00    -0.248 NA
ATOM     41  C   UNL     1      -5.468 -11.909   6.900  1.00  0.00     0.031 C 
ATOM     42  C   UNL     1      -0.766 -13.096   8.251  1.00  0.00     0.029 A 
ATOM     43  N   UNL     1      -2.403 -13.516   9.714  1.00  0.00    -0.354 N 
ATOM     44  C   UNL     1      -6.490 -12.443   8.876  1.00  0.00     0.074 A 
ATOM     45  C   UNL     1      -6.612 -11.844   7.564  1.00  0.00     0.031 C 
ATOM     46  C   UNL     1      -0.200 -13.626   9.347  1.00  0.00     0.029 A 
ATOM     47  C   UNL     1      -1.239 -13.905  10.335  1.00  0.00     0.049 A 
ATOM     48  H   UNL     1      -3.288 -13.586  10.139  1.00  0.00     0.167 HD
ATOM     49  C   UNL     1      -7.530 -12.636   9.723  1.00  0.00     0.037 A 
ATOM     50  C   UNL     1      -1.029 -14.431  11.557  1.00  0.00     0.037 A 
ATOM     51  C   UNL     1      -7.418 -13.264  11.014  1.00  0.00     0.049 A 
ATOM     52  C   UNL     1      -2.203 -14.706  12.454  1.00  0.00     0.074 A 
ATOM     53  C   UNL     1      -8.418 -13.547  11.928  1.00  0.00     0.029 A 
ATOM     54  N   UNL     1      -6.230 -13.716  11.571  1.00  0.00    -0.354 N 
ATOM     55  N   UNL     1      -3.470 -14.428  12.260  1.00  0.00    -0.248 NA
ATOM     56  C   UNL     1      -1.923 -15.384  13.727  1.00  0.00     0.031 C 
ATOM     57  C   UNL     1      -7.832 -14.155  13.045  1.00  0.00     0.029 A 
ATOM     58  C   UNL     1      -6.472 -14.281  12.812  1.00  0.00     0.049 A 
ATOM     59  H   UNL     1      -5.345 -13.646  11.146  1.00  0.00     0.167 HD
ATOM     60  C   UNL     1      -4.143 -14.922  13.373  1.00  0.00     0.074 A 
ATOM     61  C   UNL     1      -3.142 -15.522  14.232  1.00  0.00     0.031 C 
ATOM     62  C   UNL     1      -5.469 -14.884  13.654  1.00  0.00     0.037 A 
BRANCH  49  63
ATOM     63  C   UNL     1      -8.883 -12.165   9.262  1.00  0.00     0.058 A 
ATOM     64  C   UNL     1      -9.566 -12.807   8.215  1.00  0.00     0.135 A 
ATOM     65  C   UNL     1      -9.493 -11.048   9.853  1.00  0.00     0.135 A 
ATOM     66  F   UNL     1      -9.021 -13.871   7.605  1.00  0.00    -0.206 F 
ATOM     67  C   UNL     1     -10.779 -12.325   7.734  1.00  0.00     0.059 A 
ATOM     68  C   UNL     1     -10.721 -10.566   9.406  1.00  0.00     0.059 A 
ATOM     69  F   UNL     1      -8.889 -10.399  10.861  1.00  0.00    -0.206 F 
ATOM     70  C   UNL     1     -11.342 -11.196   8.328  1.00  0.00     0.060 A 
BRANCH  70  71
ATOM     71  S   UNL     1     -12.894 -10.552   7.668  1.00  0.00     0.124 S 
ATOM     72  O   UNL     1     -12.429  -9.843   6.479  1.00  0.00    -0.237 OA
ATOM     73  O   UNL     1     -13.662 -11.768   7.419  1.00  0.00    -0.237 OA
ATOM     74  O   UNL     1     -13.396  -9.708   8.748  1.00  0.00    -0.744 OA
ENDBRANCH  70  71
ENDBRANCH  49  63
BRANCH  50  75
ATOM     75  C   UNL     1       0.353 -14.784  11.974  1.00  0.00     0.058 A 
ATOM     76  C   UNL     1       0.779 -16.120  11.994  1.00  0.00     0.135 A 
ATOM     77  C   UNL     1       1.288 -13.792  12.309  1.00  0.00     0.135 A 
ATOM     78  F   UNL     1      -0.081 -17.102  11.686  1.00  0.00    -0.206 F 
ATOM     79  C   UNL     1       2.084 -16.463  12.333  1.00  0.00     0.059 A 
ATOM     80  C   UNL     1       2.603 -14.110  12.634  1.00  0.00     0.059 A 
ATOM     81  F   UNL     1       0.932 -12.498  12.287  1.00  0.00    -0.206 F 
ATOM     82  C   UNL     1       2.991 -15.450  12.645  1.00  0.00     0.060 A 
BRANCH  82  83
ATOM     83  S   UNL     1       4.705 -15.898  12.998  1.00  0.00     0.124 S 
ATOM     84  O   UNL     1       4.598 -16.427  14.352  1.00  0.00    -0.237 OA
ATOM     85  O   UNL     1       4.990 -16.875  11.951  1.00  0.00    -0.237 OA
ATOM     86  O   UNL     1       5.415 -14.629  12.867  1.00  0.00    -0.744 OA
ENDBRANCH  82  83
ENDBRANCH  50  75
BRANCH  62  87
ATOM     87  C   UNL     1      -5.921 -15.546  14.924  1.00  0.00     0.058 A 
ATOM     88  C   UNL     1      -5.690 -14.970  16.183  1.00  0.00     0.135 A 
ATOM     89  C   UNL     1      -6.621 -16.763  14.877  1.00  0.00     0.135 A 
ATOM     90  F   UNL     1      -5.023 -13.809  16.282  1.00  0.00    -0.206 F 
ATOM     91  C   UNL     1      -6.109 -15.592  17.354  1.00  0.00     0.059 A 
ATOM     92  C   UNL     1      -7.069 -17.392  16.035  1.00  0.00     0.059 A 
ATOM     93  F   UNL     1      -6.877 -17.351  13.698  1.00  0.00    -0.206 F 
ATOM     94  C   UNL     1      -6.793 -16.807  17.270  1.00  0.00     0.060 A 
BRANCH  94  95
ATOM     95  S   UNL     1      -7.343 -17.605  18.794  1.00  0.00     0.124 S 
ATOM     96  O   UNL     1      -6.103 -18.206  19.273  1.00  0.00    -0.237 OA
ATOM     97  O   UNL     1      -7.846 -16.479  19.577  1.00  0.00    -0.237 OA
ATOM     98  O   UNL     1      -8.362 -18.544  18.335  1.00  0.00    -0.744 OA
ENDBRANCH  94  95
ENDBRANCH  62  87
ENDBRANCH  36  37
ENDBRANCH  28  31
ENDBRANCH  26  27
ENDBRANCH   1  26
TORSDOF 15
