REMARK SMILES CN(CC(=O)NCCCNC(=O)c1ccc(-c2c3nc(c(-c4c(F)cc(S(=O)(=O)[O-])cc4F)c4ccc([nH]4)c(-c4c(F)cc(S(=O)(=O)[O-])cc4F)c4nc(c(-c5c(F)cc(S(=O)(=O)[O-])cc5F)c5ccc2[nH]5)C=C4)C=C3)cc1)c1nc2cc(N)ccc2[nH]1
REMARK SMILES IDX 8 1 7 2 6 3 4 4 5 5 3 7 2 8 1 9 79 10 80 11 88 12 81 13
REMARK SMILES IDX 87 14 82 16 86 17 83 18 85 19 84 20 9 23 10 24 11 25 12 27
REMARK SMILES IDX 13 28 14 29 78 30 15 31 77 32 16 33 17 34 18 35 71 36 19 37
REMARK SMILES IDX 76 38 70 39 72 40 20 41 75 42 69 43 68 44 21 46 55 47 34 48
REMARK SMILES IDX 54 49 35 50 38 51 53 52 73 53 36 54 37 55 52 57 74 58 39 59
REMARK SMILES IDX 22 60 23 61 32 62 24 63 25 64 31 65 33 66 26 67 27 68 28 69
REMARK SMILES IDX 29 70 30 71 56 72 57 73 66 74 58 75 59 76 65 77 67 78 60 79
REMARK SMILES IDX 61 80 62 81 63 82 64 83 40 84 41 85 50 86 42 87 43 88 49 89
REMARK SMILES IDX 51 90 44 91 45 92 46 93 47 94 48 95
REMARK H PARENT 6 6 88 15 84 21 84 22 10 26 72 45 38 56
REMARK Flexibility Score: inf
ROOT
ATOM      1  C   UNL     1      -1.953  -0.855   1.357  1.00  0.00     0.042 C 
ENDROOT
BRANCH   1   2
ATOM      2  C   UNL     1      -2.108  -0.274  -0.043  1.00  0.00     0.117 C 
BRANCH   2   3
ATOM      3  N   UNL     1      -2.440   1.133  -0.053  1.00  0.00    -0.354 N 
ATOM      4  C   UNL     1      -1.636   2.191  -0.386  1.00  0.00     0.239 C 
ATOM      5  O   UNL     1      -2.171   3.289  -0.563  1.00  0.00    -0.273 OA
ATOM      6  H   UNL     1      -3.361   1.360   0.212  1.00  0.00     0.163 HD
BRANCH   4   7
ATOM      7  C   UNL     1      -0.141   1.960  -0.660  1.00  0.00     0.219 C 
BRANCH   7   8
ATOM      8  N   UNL     1       0.623   1.439   0.492  1.00  0.00    -0.336 N 
ATOM      9  C   UNL     1       1.506   0.308   0.292  1.00  0.00     0.147 C 
BRANCH   8  10
ATOM     10  C   UNL     1       0.654   2.210   1.608  1.00  0.00     0.204 A 
ATOM     11  N   UNL     1      -0.226   3.118   1.955  1.00  0.00    -0.213 NA
ATOM     12  N   UNL     1       1.686   2.175   2.517  1.00  0.00    -0.324 N 
ATOM     13  C   UNL     1       0.268   3.725   3.076  1.00  0.00     0.093 A 
ATOM     14  C   UNL     1       1.493   3.181   3.432  1.00  0.00     0.067 A 
ATOM     15  H   UNL     1       2.436   1.537   2.513  1.00  0.00     0.170 HD
ATOM     16  C   UNL     1      -0.268   4.780   3.828  1.00  0.00     0.056 A 
ATOM     17  C   UNL     1       2.258   3.667   4.492  1.00  0.00     0.030 A 
ATOM     18  C   UNL     1       0.450   5.274   4.923  1.00  0.00     0.034 A 
ATOM     19  C   UNL     1       1.713   4.742   5.213  1.00  0.00     0.028 A 
BRANCH  18  20
ATOM     20  N   UNL     1      -0.022   6.383   5.617  1.00  0.00    -0.399 N 
ATOM     21  H   UNL     1      -0.911   6.752   5.408  1.00  0.00     0.156 HD
ATOM     22  H   UNL     1       0.532   6.799   6.316  1.00  0.00     0.156 HD
ENDBRANCH  18  20
ENDBRANCH   8  10
ENDBRANCH   7   8
ENDBRANCH   4   7
ENDBRANCH   2   3
ENDBRANCH   1   2
BRANCH   1  23
ATOM     23  C   UNL     1      -3.222  -0.825   2.204  1.00  0.00     0.118 C 
BRANCH  23  24
ATOM     24  N   UNL     1      -4.328  -1.551   1.594  1.00  0.00    -0.352 N 
ATOM     25  C   UNL     1      -5.068  -2.617   2.040  1.00  0.00     0.251 C 
ATOM     26  H   UNL     1      -4.590  -1.218   0.706  1.00  0.00     0.163 HD
ATOM     27  O   UNL     1      -5.837  -3.168   1.256  1.00  0.00    -0.269 OA
BRANCH  25  28
ATOM     28  C   UNL     1      -4.951  -3.121   3.429  1.00  0.00     0.039 A 
ATOM     29  C   UNL     1      -5.065  -4.498   3.648  1.00  0.00     0.014 A 
ATOM     30  C   UNL     1      -4.797  -2.261   4.519  1.00  0.00     0.014 A 
ATOM     31  C   UNL     1      -4.973  -5.012   4.945  1.00  0.00     0.010 A 
ATOM     32  C   UNL     1      -4.627  -2.780   5.803  1.00  0.00     0.010 A 
ATOM     33  C   UNL     1      -4.724  -4.160   6.033  1.00  0.00    -0.014 A 
BRANCH  33  34
ATOM     34  C   UNL     1      -4.569  -4.703   7.409  1.00  0.00     0.031 A 
ATOM     35  C   UNL     1      -5.553  -4.338   8.489  1.00  0.00     0.074 A 
ATOM     36  C   UNL     1      -3.517  -5.494   7.697  1.00  0.00     0.049 A 
ATOM     37  N   UNL     1      -5.565  -4.692   9.749  1.00  0.00    -0.248 NA
ATOM     38  C   UNL     1      -6.655  -3.439   8.111  1.00  0.00     0.031 C 
ATOM     39  C   UNL     1      -2.467  -5.881   6.751  1.00  0.00     0.029 A 
ATOM     40  N   UNL     1      -3.152  -6.112   8.867  1.00  0.00    -0.354 N 
ATOM     41  C   UNL     1      -6.664  -4.054  10.315  1.00  0.00     0.074 A 
ATOM     42  C   UNL     1      -7.262  -3.248   9.273  1.00  0.00     0.031 C 
ATOM     43  C   UNL     1      -1.595  -6.693   7.370  1.00  0.00     0.029 A 
ATOM     44  C   UNL     1      -2.001  -6.858   8.762  1.00  0.00     0.049 A 
ATOM     45  H   UNL     1      -3.666  -6.030   9.702  1.00  0.00     0.167 HD
ATOM     46  C   UNL     1      -7.145  -4.150  11.578  1.00  0.00     0.037 A 
ATOM     47  C   UNL     1      -1.345  -7.592   9.682  1.00  0.00     0.037 A 
ATOM     48  C   UNL     1      -6.558  -4.971  12.606  1.00  0.00     0.049 A 
ATOM     49  C   UNL     1      -1.903  -7.690  11.076  1.00  0.00     0.074 A 
ATOM     50  C   UNL     1      -6.997  -5.173  13.903  1.00  0.00     0.029 A 
ATOM     51  N   UNL     1      -5.405  -5.727  12.454  1.00  0.00    -0.354 N 
ATOM     52  N   UNL     1      -2.976  -7.125  11.576  1.00  0.00    -0.248 NA
ATOM     53  C   UNL     1      -1.168  -8.534  12.027  1.00  0.00     0.031 C 
ATOM     54  C   UNL     1      -6.088  -6.020  14.547  1.00  0.00     0.029 A 
ATOM     55  C   UNL     1      -5.110  -6.386  13.637  1.00  0.00     0.049 A 
ATOM     56  H   UNL     1      -4.874  -5.787  11.627  1.00  0.00     0.167 HD
ATOM     57  C   UNL     1      -3.062  -7.571  12.890  1.00  0.00     0.074 A 
ATOM     58  C   UNL     1      -1.938  -8.458  13.104  1.00  0.00     0.031 C 
ATOM     59  C   UNL     1      -3.991  -7.275  13.833  1.00  0.00     0.037 A 
BRANCH  46  60
ATOM     60  C   UNL     1      -8.373  -3.349  11.918  1.00  0.00     0.058 A 
ATOM     61  C   UNL     1      -9.634  -3.674  11.389  1.00  0.00     0.135 A 
ATOM     62  C   UNL     1      -8.298  -2.262  12.805  1.00  0.00     0.135 A 
ATOM     63  F   UNL     1      -9.762  -4.694  10.527  1.00  0.00    -0.206 F 
ATOM     64  C   UNL     1     -10.768  -2.930  11.700  1.00  0.00     0.059 A 
ATOM     65  C   UNL     1      -9.426  -1.522  13.152  1.00  0.00     0.059 A 
ATOM     66  F   UNL     1      -7.120  -1.908  13.342  1.00  0.00    -0.206 F 
ATOM     67  C   UNL     1     -10.653  -1.854  12.581  1.00  0.00     0.060 A 
BRANCH  67  68
ATOM     68  S   UNL     1     -12.134  -0.899  12.973  1.00  0.00     0.124 S 
ATOM     69  O   UNL     1     -12.329  -0.145  11.738  1.00  0.00    -0.237 OA
ATOM     70  O   UNL     1     -13.119  -1.942  13.239  1.00  0.00    -0.237 OA
ATOM     71  O   UNL     1     -11.733  -0.109  14.133  1.00  0.00    -0.744 OA
ENDBRANCH  67  68
ENDBRANCH  46  60
BRANCH  47  72
ATOM     72  C   UNL     1      -0.107  -8.322   9.302  1.00  0.00     0.058 A 
ATOM     73  C   UNL     1      -0.100  -9.721   9.193  1.00  0.00     0.135 A 
ATOM     74  C   UNL     1       1.086  -7.639   9.021  1.00  0.00     0.135 A 
ATOM     75  F   UNL     1      -1.215 -10.419   9.457  1.00  0.00    -0.206 F 
ATOM     76  C   UNL     1       1.049 -10.419   8.835  1.00  0.00     0.059 A 
ATOM     77  C   UNL     1       2.241  -8.313   8.637  1.00  0.00     0.059 A 
ATOM     78  F   UNL     1       1.127  -6.300   9.092  1.00  0.00    -0.206 F 
ATOM     79  C   UNL     1       2.215  -9.705   8.556  1.00  0.00     0.060 A 
BRANCH  79  80
ATOM     80  S   UNL     1       3.687 -10.615   8.040  1.00  0.00     0.124 S 
ATOM     81  O   UNL     1       4.118 -11.213   9.298  1.00  0.00    -0.237 OA
ATOM     82  O   UNL     1       3.145 -11.537   7.046  1.00  0.00    -0.237 OA
ATOM     83  O   UNL     1       4.556  -9.571   7.505  1.00  0.00    -0.744 OA
ENDBRANCH  79  80
ENDBRANCH  47  72
BRANCH  59  84
ATOM     84  C   UNL     1      -3.858  -7.949  15.171  1.00  0.00     0.058 A 
ATOM     85  C   UNL     1      -2.855  -7.591  16.085  1.00  0.00     0.135 A 
ATOM     86  C   UNL     1      -4.772  -8.943  15.556  1.00  0.00     0.135 A 
ATOM     87  F   UNL     1      -1.952  -6.651  15.763  1.00  0.00    -0.206 F 
ATOM     88  C   UNL     1      -2.746  -8.214  17.324  1.00  0.00     0.059 A 
ATOM     89  C   UNL     1      -4.699  -9.560  16.801  1.00  0.00     0.059 A 
ATOM     90  F   UNL     1      -5.757  -9.316  14.724  1.00  0.00    -0.206 F 
ATOM     91  C   UNL     1      -3.673  -9.198  17.673  1.00  0.00     0.060 A 
BRANCH  91  92
ATOM     92  S   UNL     1      -3.534  -9.985  19.292  1.00  0.00     0.124 S 
ATOM     93  O   UNL     1      -2.394 -10.873  19.090  1.00  0.00    -0.237 OA
ATOM     94  O   UNL     1      -3.302  -8.846  20.175  1.00  0.00    -0.237 OA
ATOM     95  O   UNL     1      -4.825 -10.646  19.460  1.00  0.00    -0.744 OA
ENDBRANCH  91  92
ENDBRANCH  59  84
ENDBRANCH  33  34
ENDBRANCH  25  28
ENDBRANCH  23  24
ENDBRANCH   1  23
TORSDOF 16
