REMARK SMILES O=C(COCC(=O)/[NH+]=C1\S[C@@H]2CS(=O)(=O)C[C@H]2N1c1ccc(Cl)cc1)NCCCNC(=O)c1ccc(-c2c3nc(c(-c4c(F)cc(S(=O)(=O)[O-])cc4F)c4ccc([nH]4)c(-c4c(F)cc(S(=O)(=O)[O-])cc4F)c4nc(c(-c5c(F)cc(S(=O)(=O)[O-])cc5F)c5ccc2[nH]5)C=C4)C=C3)cc1
REMARK SMILES IDX 27 1 26 2 2 3 1 4 3 6 4 7 5 8 6 9 7 10 8 11 9 12 10 14 18 15
REMARK SMILES IDX 11 16 17 17 12 18 16 19 13 20 14 21 15 22 19 23 20 24 25 25
REMARK SMILES IDX 21 26 24 27 22 28 23 29 28 30 29 31 30 32 31 33 32 35 33 36
REMARK SMILES IDX 34 37 98 38 35 39 97 40 36 41 37 42 38 43 91 44 39 45 96 46
REMARK SMILES IDX 90 47 92 48 40 49 95 50 89 51 88 52 41 54 75 55 54 56 74 57
REMARK SMILES IDX 55 58 58 59 73 60 93 61 56 62 57 63 72 65 94 66 59 67 42 68
REMARK SMILES IDX 43 69 52 70 44 71 45 72 51 73 53 74 46 75 47 76 48 77 49 78
REMARK SMILES IDX 50 79 76 80 77 81 86 82 78 83 79 84 85 85 87 86 80 87 81 88
REMARK SMILES IDX 82 89 83 90 84 91 60 92 61 93 70 94 62 95 63 96 69 97 71 98
REMARK SMILES IDX 64 99 65 100 66 101 67 102 68 103
REMARK H PARENT 26 5 8 13 30 34 92 53 58 64
REMARK Flexibility Score: inf
ROOT
ATOM      1  C   UNL     1       4.035  -1.971  -4.421  1.00  0.00     0.117 C 
ENDROOT
BRANCH   1   2
ATOM      2  N   UNL     1       2.615  -1.673  -4.381  1.00  0.00    -0.354 N 
ATOM      3  C   UNL     1       1.974  -0.683  -3.690  1.00  0.00     0.246 C 
ATOM      4  O   UNL     1       0.759  -0.543  -3.826  1.00  0.00    -0.272 OA
ATOM      5  H   UNL     1       2.038  -2.260  -4.922  1.00  0.00     0.163 HD
BRANCH   3   6
ATOM      6  C   UNL     1       2.785   0.221  -2.759  1.00  0.00     0.260 C 
BRANCH   6   7
ATOM      7  O   UNL     1       3.462  -0.494  -1.737  1.00  0.00    -0.359 OA
BRANCH   7   8
ATOM      8  C   UNL     1       2.580  -0.982  -0.733  1.00  0.00     0.288 C 
BRANCH   8   9
ATOM      9  C   UNL     1       2.299  -0.067   0.478  1.00  0.00     0.333 C 
ATOM     10  O   UNL     1       1.314  -0.284   1.184  1.00  0.00    -0.244 OA
ATOM     11  N   UNL     1       3.115   1.012   0.721  1.00  0.00    -0.202 N 
ATOM     12  C   UNL     1       4.385   0.899   0.919  1.00  0.00     0.319 C 
ATOM     13  H   UNL     1       2.713   1.911   0.745  1.00  0.00     0.316 HD
ATOM     14  S   UNL     1       5.328  -0.621   0.763  1.00  0.00    -0.029 SA
ATOM     15  N   UNL     1       5.271   1.940   1.248  1.00  0.00    -0.217 N 
ATOM     16  C   UNL     1       6.786   0.361   0.362  1.00  0.00     0.120 C 
ATOM     17  C   UNL     1       6.657   1.462   1.421  1.00  0.00     0.212 C 
ATOM     18  C   UNL     1       8.169  -0.227   0.458  1.00  0.00     0.156 C 
ATOM     19  C   UNL     1       7.831   2.368   1.147  1.00  0.00     0.188 C 
ATOM     20  S   UNL     1       9.169   1.206   0.877  1.00  0.00     0.155 S 
ATOM     21  O   UNL     1       9.898   1.640  -0.297  1.00  0.00    -0.229 OA
ATOM     22  O   UNL     1       9.812   0.961   2.147  1.00  0.00    -0.229 OA
BRANCH  15  23
ATOM     23  C   UNL     1       4.874   3.126   1.892  1.00  0.00     0.128 A 
ATOM     24  C   UNL     1       5.470   4.359   1.580  1.00  0.00     0.053 A 
ATOM     25  C   UNL     1       3.861   3.134   2.865  1.00  0.00     0.053 A 
ATOM     26  C   UNL     1       5.110   5.539   2.242  1.00  0.00     0.025 A 
ATOM     27  C   UNL     1       3.488   4.312   3.527  1.00  0.00     0.025 A 
ATOM     28  C   UNL     1       4.123   5.509   3.220  1.00  0.00     0.041 A 
ATOM     29  Cl  UNL     1       3.684   6.957   4.036  1.00  0.00    -0.084 Cl
ENDBRANCH  15  23
ENDBRANCH   8   9
ENDBRANCH   7   8
ENDBRANCH   6   7
ENDBRANCH   3   6
ENDBRANCH   1   2
BRANCH   1  30
ATOM     30  C   UNL     1       4.393  -3.281  -3.724  1.00  0.00     0.042 C 
BRANCH  30  31
ATOM     31  C   UNL     1       3.728  -4.524  -4.311  1.00  0.00     0.118 C 
BRANCH  31  32
ATOM     32  N   UNL     1       4.011  -4.708  -5.726  1.00  0.00    -0.352 N 
ATOM     33  C   UNL     1       4.498  -5.793  -6.411  1.00  0.00     0.251 C 
ATOM     34  H   UNL     1       3.822  -3.921  -6.287  1.00  0.00     0.163 HD
ATOM     35  O   UNL     1       4.811  -5.653  -7.591  1.00  0.00    -0.269 OA
BRANCH  33  36
ATOM     36  C   UNL     1       4.667  -7.111  -5.755  1.00  0.00     0.039 A 
ATOM     37  C   UNL     1       5.767  -7.896  -6.115  1.00  0.00     0.014 A 
ATOM     38  C   UNL     1       3.739  -7.604  -4.835  1.00  0.00     0.014 A 
ATOM     39  C   UNL     1       5.959  -9.145  -5.519  1.00  0.00     0.010 A 
ATOM     40  C   UNL     1       3.976  -8.813  -4.179  1.00  0.00     0.010 A 
ATOM     41  C   UNL     1       5.083  -9.603  -4.521  1.00  0.00    -0.014 A 
BRANCH  41  42
ATOM     42  C   UNL     1       5.323 -10.902  -3.835  1.00  0.00     0.031 A 
ATOM     43  C   UNL     1       4.326 -12.026  -3.945  1.00  0.00     0.074 A 
ATOM     44  C   UNL     1       6.431 -11.056  -3.081  1.00  0.00     0.049 A 
ATOM     45  N   UNL     1       4.368 -13.221  -3.413  1.00  0.00    -0.248 NA
ATOM     46  C   UNL     1       3.112 -11.768  -4.736  1.00  0.00     0.031 C 
ATOM     47  C   UNL     1       7.445 -10.025  -2.849  1.00  0.00     0.029 A 
ATOM     48  N   UNL     1       6.891 -12.137  -2.370  1.00  0.00    -0.354 N 
ATOM     49  C   UNL     1       3.189 -13.852  -3.796  1.00  0.00     0.074 A 
ATOM     50  C   UNL     1       2.425 -12.887  -4.556  1.00  0.00     0.031 C 
ATOM     51  C   UNL     1       8.422 -10.532  -2.080  1.00  0.00     0.029 A 
ATOM     52  C   UNL     1       8.087 -11.908  -1.730  1.00  0.00     0.049 A 
ATOM     53  H   UNL     1       6.411 -12.995  -2.323  1.00  0.00     0.167 HD
ATOM     54  C   UNL     1       2.791 -15.125  -3.557  1.00  0.00     0.037 A 
ATOM     55  C   UNL     1       8.831 -12.713  -0.946  1.00  0.00     0.037 A 
ATOM     56  C   UNL     1       3.565 -16.086  -2.813  1.00  0.00     0.049 A 
ATOM     57  C   UNL     1       8.369 -14.124  -0.700  1.00  0.00     0.074 A 
ATOM     58  C   UNL     1       3.274 -17.416  -2.563  1.00  0.00     0.029 A 
ATOM     59  N   UNL     1       4.778 -15.822  -2.193  1.00  0.00    -0.354 N 
ATOM     60  N   UNL     1       7.284 -14.725  -1.130  1.00  0.00    -0.248 NA
ATOM     61  C   UNL     1       9.239 -14.973   0.125  1.00  0.00     0.031 C 
ATOM     62  C   UNL     1       4.282 -17.940  -1.746  1.00  0.00     0.029 A 
ATOM     63  C   UNL     1       5.237 -16.956  -1.543  1.00  0.00     0.049 A 
ATOM     64  H   UNL     1       5.245 -14.955  -2.213  1.00  0.00     0.167 HD
ATOM     65  C   UNL     1       7.359 -16.030  -0.655  1.00  0.00     0.074 A 
ATOM     66  C   UNL     1       8.602 -16.134   0.080  1.00  0.00     0.031 C 
ATOM     67  C   UNL     1       6.479 -17.050  -0.816  1.00  0.00     0.037 A 
BRANCH  54  68
ATOM     68  C   UNL     1       1.456 -15.559  -4.106  1.00  0.00     0.058 A 
ATOM     69  C   UNL     1       1.236 -15.712  -5.485  1.00  0.00     0.135 A 
ATOM     70  C   UNL     1       0.397 -15.875  -3.239  1.00  0.00     0.135 A 
ATOM     71  F   UNL     1       2.206 -15.411  -6.362  1.00  0.00    -0.206 F 
ATOM     72  C   UNL     1       0.009 -16.136  -5.985  1.00  0.00     0.059 A 
ATOM     73  C   UNL     1      -0.829 -16.332  -3.715  1.00  0.00     0.059 A 
ATOM     74  F   UNL     1       0.548 -15.748  -1.911  1.00  0.00    -0.206 F 
ATOM     75  C   UNL     1      -1.018 -16.447  -5.091  1.00  0.00     0.060 A 
BRANCH  75  76
ATOM     76  S   UNL     1      -2.598 -17.012  -5.758  1.00  0.00     0.124 S 
ATOM     77  O   UNL     1      -3.116 -15.785  -6.356  1.00  0.00    -0.237 OA
ATOM     78  O   UNL     1      -2.185 -18.049  -6.698  1.00  0.00    -0.237 OA
ATOM     79  O   UNL     1      -3.315 -17.486  -4.579  1.00  0.00    -0.744 OA
ENDBRANCH  75  76
ENDBRANCH  54  68
BRANCH  55  80
ATOM     80  C   UNL     1      10.102 -12.211  -0.356  1.00  0.00     0.058 A 
ATOM     81  C   UNL     1      11.345 -12.712  -0.772  1.00  0.00     0.135 A 
ATOM     82  C   UNL     1      10.100 -11.215   0.633  1.00  0.00     0.135 A 
ATOM     83  F   UNL     1      11.402 -13.669  -1.712  1.00  0.00    -0.206 F 
ATOM     84  C   UNL     1      12.537 -12.262  -0.215  1.00  0.00     0.059 A 
ATOM     85  C   UNL     1      11.280 -10.726   1.183  1.00  0.00     0.059 A 
ATOM     86  F   UNL     1       8.939 -10.687   1.053  1.00  0.00    -0.206 F 
ATOM     87  C   UNL     1      12.494 -11.266   0.762  1.00  0.00     0.060 A 
BRANCH  87  88
ATOM     88  S   UNL     1      14.049 -10.657   1.448  1.00  0.00     0.124 S 
ATOM     89  O   UNL     1      14.471 -11.787   2.267  1.00  0.00    -0.237 OA
ATOM     90  O   UNL     1      14.837 -10.409   0.245  1.00  0.00    -0.237 OA
ATOM     91  O   UNL     1      13.646  -9.461   2.182  1.00  0.00    -0.744 OA
ENDBRANCH  87  88
ENDBRANCH  55  80
BRANCH  67  92
ATOM     92  C   UNL     1       6.854 -18.385  -0.227  1.00  0.00     0.058 A 
ATOM     93  C   UNL     1       6.895 -18.604   1.160  1.00  0.00     0.135 A 
ATOM     94  C   UNL     1       7.158 -19.468  -1.068  1.00  0.00     0.135 A 
ATOM     95  F   UNL     1       6.616 -17.603   2.011  1.00  0.00    -0.206 F 
ATOM     96  C   UNL     1       7.269 -19.834   1.691  1.00  0.00     0.059 A 
ATOM     97  C   UNL     1       7.499 -20.717  -0.559  1.00  0.00     0.059 A 
ATOM     98  F   UNL     1       7.120 -19.322  -2.402  1.00  0.00    -0.206 F 
ATOM     99  C   UNL     1       7.573 -20.884   0.823  1.00  0.00     0.060 A 
BRANCH  99 100
ATOM    100  S   UNL     1       8.059 -22.475   1.524  1.00  0.00     0.124 S 
ATOM    101  O   UNL     1       9.403 -22.183   2.010  1.00  0.00    -0.237 OA
ATOM    102  O   UNL     1       7.044 -22.685   2.552  1.00  0.00    -0.237 OA
ATOM    103  O   UNL     1       7.987 -23.386   0.385  1.00  0.00    -0.744 OA
ENDBRANCH  99 100
ENDBRANCH  67  92
ENDBRANCH  41  42
ENDBRANCH  33  36
ENDBRANCH  31  32
ENDBRANCH  30  31
ENDBRANCH   1  30
TORSDOF 17
