REMARK SMILES CN1N=C(CC(=O)NCCCNC(=O)c2ccc(-c3c4nc(c(-c5c(F)cc(S(=O)(=O)[O-])cc5F)c5ccc([nH]5)c(-c5c(F)cc(S(=O)(=O)[O-])cc5F)c5nc(c(-c6c(F)cc(S(=O)(=O)[O-])cc6F)c6ccc3[nH]6)C=C5)C=C4)cc2)CC1=O
REMARK SMILES IDX 11 1 10 2 9 3 8 4 6 5 7 6 5 8 4 9 1 10 2 11 3 12 82 13 81 14
REMARK SMILES IDX 83 15 12 16 13 17 14 19 15 20 16 21 80 22 17 23 79 24 18 25
REMARK SMILES IDX 19 26 20 27 73 28 21 29 78 30 72 31 74 32 22 33 77 34 71 35
REMARK SMILES IDX 70 36 23 38 57 39 36 40 56 41 37 42 40 43 55 44 75 45 38 46
REMARK SMILES IDX 39 47 54 49 76 50 41 51 24 52 25 53 34 54 26 55 27 56 33 57
REMARK SMILES IDX 35 58 28 59 29 60 30 61 31 62 32 63 58 64 59 65 68 66 60 67
REMARK SMILES IDX 61 68 67 69 69 70 62 71 63 72 64 73 65 74 66 75 42 76 43 77
REMARK SMILES IDX 52 78 44 79 45 80 51 81 53 82 46 83 47 84 48 85 49 86 50 87
REMARK H PARENT 8 7 12 18 74 37 40 48
REMARK Flexibility Score: inf
ROOT
ATOM      1  C   UNL     1      -2.731  -3.364   2.989  1.00  0.00     0.118 C 
ENDROOT
BRANCH   1   2
ATOM      2  C   UNL     1      -1.815  -3.778   1.841  1.00  0.00     0.042 C 
BRANCH   2   3
ATOM      3  C   UNL     1      -2.522  -4.556   0.736  1.00  0.00     0.117 C 
BRANCH   3   4
ATOM      4  N   UNL     1      -3.463  -3.735  -0.001  1.00  0.00    -0.356 N 
ATOM      5  C   UNL     1      -3.310  -3.120  -1.209  1.00  0.00     0.225 C 
ATOM      6  O   UNL     1      -4.254  -2.475  -1.667  1.00  0.00    -0.275 OA
ATOM      7  H   UNL     1      -4.337  -3.602   0.433  1.00  0.00     0.163 HD
BRANCH   5   8
ATOM      8  C   UNL     1      -2.040  -3.321  -1.991  1.00  0.00     0.153 C 
BRANCH   8   9
ATOM      9  C   UNL     1      -0.829  -2.675  -1.410  1.00  0.00     0.057 C 
ATOM     10  C   UNL     1       0.949   0.037  -0.075  1.00  0.00     0.177 C 
ATOM     11  N   UNL     1       0.531  -1.239  -0.600  1.00  0.00    -0.237 N 
ATOM     12  N   UNL     1      -0.764  -1.438  -1.023  1.00  0.00    -0.179 NA
ATOM     13  C   UNL     1       1.352  -2.357  -0.708  1.00  0.00     0.248 C 
ATOM     14  C   UNL     1       0.464  -3.423  -1.269  1.00  0.00     0.156 C 
ATOM     15  O   UNL     1       2.529  -2.483  -0.419  1.00  0.00    -0.273 OA
ENDBRANCH   8   9
ENDBRANCH   5   8
ENDBRANCH   3   4
ENDBRANCH   2   3
ENDBRANCH   1   2
BRANCH   1  16
ATOM     16  N   UNL     1      -3.284  -4.510   3.694  1.00  0.00    -0.352 N 
ATOM     17  C   UNL     1      -3.253  -4.837   5.025  1.00  0.00     0.251 C 
ATOM     18  H   UNL     1      -3.759  -5.155   3.122  1.00  0.00     0.163 HD
ATOM     19  O   UNL     1      -3.609  -5.964   5.362  1.00  0.00    -0.269 OA
BRANCH  17  20
ATOM     20  C   UNL     1      -2.801  -3.866   6.048  1.00  0.00     0.039 A 
ATOM     21  C   UNL     1      -2.112  -4.348   7.166  1.00  0.00     0.014 A 
ATOM     22  C   UNL     1      -3.109  -2.506   5.960  1.00  0.00     0.014 A 
ATOM     23  C   UNL     1      -1.718  -3.468   8.176  1.00  0.00     0.010 A 
ATOM     24  C   UNL     1      -2.640  -1.617   6.926  1.00  0.00     0.010 A 
ATOM     25  C   UNL     1      -1.966  -2.091   8.059  1.00  0.00    -0.014 A 
BRANCH  25  26
ATOM     26  C   UNL     1      -1.568  -1.152   9.141  1.00  0.00     0.031 A 
ATOM     27  C   UNL     1      -2.618  -0.388   9.906  1.00  0.00     0.074 A 
ATOM     28  C   UNL     1      -0.262  -0.968   9.419  1.00  0.00     0.049 A 
ATOM     29  N   UNL     1      -2.469   0.475  10.879  1.00  0.00    -0.248 NA
ATOM     30  C   UNL     1      -4.020  -0.601   9.509  1.00  0.00     0.031 C 
ATOM     31  C   UNL     1       0.851  -1.607   8.714  1.00  0.00     0.029 A 
ATOM     32  N   UNL     1       0.350  -0.192  10.370  1.00  0.00    -0.354 N 
ATOM     33  C   UNL     1      -3.750   0.912  11.200  1.00  0.00     0.074 A 
ATOM     34  C   UNL     1      -4.658   0.270  10.276  1.00  0.00     0.031 C 
ATOM     35  C   UNL     1       2.008  -1.223   9.278  1.00  0.00     0.029 A 
ATOM     36  C   UNL     1       1.722  -0.288  10.362  1.00  0.00     0.049 A 
ATOM     37  H   UNL     1      -0.145   0.380  11.000  1.00  0.00     0.167 HD
ATOM     38  C   UNL     1      -4.139   1.750  12.192  1.00  0.00     0.037 A 
ATOM     39  C   UNL     1       2.645   0.306  11.143  1.00  0.00     0.037 A 
ATOM     40  C   UNL     1      -3.232   2.367  13.125  1.00  0.00     0.049 A 
ATOM     41  C   UNL     1       2.187   1.217  12.251  1.00  0.00     0.074 A 
ATOM     42  C   UNL     1      -3.527   3.191  14.197  1.00  0.00     0.029 A 
ATOM     43  N   UNL     1      -1.852   2.226  13.099  1.00  0.00    -0.354 N 
ATOM     44  N   UNL     1       0.967   1.571  12.579  1.00  0.00    -0.248 NA
ATOM     45  C   UNL     1       3.232   1.794  13.106  1.00  0.00     0.031 C 
ATOM     46  C   UNL     1      -2.323   3.583  14.793  1.00  0.00     0.029 A 
ATOM     47  C   UNL     1      -1.281   2.958  14.127  1.00  0.00     0.049 A 
ATOM     48  H   UNL     1      -1.352   1.685  12.446  1.00  0.00     0.167 HD
ATOM     49  C   UNL     1       1.096   2.387  13.698  1.00  0.00     0.074 A 
ATOM     50  C   UNL     1       2.511   2.458  13.999  1.00  0.00     0.031 C 
ATOM     51  C   UNL     1       0.131   3.018  14.414  1.00  0.00     0.037 A 
BRANCH  38  52
ATOM     52  C   UNL     1      -5.611   2.041  12.321  1.00  0.00     0.058 A 
ATOM     53  C   UNL     1      -6.525   1.058  12.738  1.00  0.00     0.135 A 
ATOM     54  C   UNL     1      -6.114   3.324  12.050  1.00  0.00     0.135 A 
ATOM     55  F   UNL     1      -6.104  -0.191  12.995  1.00  0.00    -0.206 F 
ATOM     56  C   UNL     1      -7.885   1.326  12.849  1.00  0.00     0.059 A 
ATOM     57  C   UNL     1      -7.468   3.623  12.185  1.00  0.00     0.059 A 
ATOM     58  F   UNL     1      -5.289   4.303  11.649  1.00  0.00    -0.206 F 
ATOM     59  C   UNL     1      -8.348   2.613  12.569  1.00  0.00     0.060 A 
BRANCH  59  60
ATOM     60  S   UNL     1     -10.116   2.944  12.721  1.00  0.00     0.124 S 
ATOM     61  O   UNL     1     -10.644   2.243  11.555  1.00  0.00    -0.237 OA
ATOM     62  O   UNL     1     -10.435   2.351  14.015  1.00  0.00    -0.237 OA
ATOM     63  O   UNL     1     -10.195   4.401  12.665  1.00  0.00    -0.744 OA
ENDBRANCH  59  60
ENDBRANCH  38  52
BRANCH  39  64
ATOM     64  C   UNL     1       4.091   0.027  10.931  1.00  0.00     0.058 A 
ATOM     65  C   UNL     1       4.827  -0.720  11.863  1.00  0.00     0.135 A 
ATOM     66  C   UNL     1       4.764   0.496   9.792  1.00  0.00     0.135 A 
ATOM     67  F   UNL     1       4.230  -1.187  12.970  1.00  0.00    -0.206 F 
ATOM     68  C   UNL     1       6.183  -0.975  11.686  1.00  0.00     0.059 A 
ATOM     69  C   UNL     1       6.113   0.230   9.579  1.00  0.00     0.059 A 
ATOM     70  F   UNL     1       4.101   1.199   8.861  1.00  0.00    -0.206 F 
ATOM     71  C   UNL     1       6.817  -0.495  10.539  1.00  0.00     0.060 A 
BRANCH  71  72
ATOM     72  S   UNL     1       8.568  -0.867  10.299  1.00  0.00     0.124 S 
ATOM     73  O   UNL     1       9.192   0.009  11.283  1.00  0.00    -0.237 OA
ATOM     74  O   UNL     1       8.621  -2.296  10.591  1.00  0.00    -0.237 OA
ATOM     75  O   UNL     1       8.798  -0.512   8.902  1.00  0.00    -0.744 OA
ENDBRANCH  71  72
ENDBRANCH  39  64
BRANCH  51  76
ATOM     76  C   UNL     1       0.576   3.805  15.618  1.00  0.00     0.058 A 
ATOM     77  C   UNL     1       1.298   5.003  15.497  1.00  0.00     0.135 A 
ATOM     78  C   UNL     1       0.265   3.356  16.912  1.00  0.00     0.135 A 
ATOM     79  F   UNL     1       1.623   5.478  14.284  1.00  0.00    -0.206 F 
ATOM     80  C   UNL     1       1.741   5.700  16.617  1.00  0.00     0.059 A 
ATOM     81  C   UNL     1       0.669   4.055  18.045  1.00  0.00     0.059 A 
ATOM     82  F   UNL     1      -0.439   2.226  17.086  1.00  0.00    -0.206 F 
ATOM     83  C   UNL     1       1.427   5.214  17.887  1.00  0.00     0.060 A 
BRANCH  83  84
ATOM     84  S   UNL     1       2.017   6.118  19.333  1.00  0.00     0.124 S 
ATOM     85  O   UNL     1       3.432   5.762  19.343  1.00  0.00    -0.237 OA
ATOM     86  O   UNL     1       1.714   7.503  18.983  1.00  0.00    -0.237 OA
ATOM     87  O   UNL     1       1.223   5.567  20.427  1.00  0.00    -0.744 OA
ENDBRANCH  83  84
ENDBRANCH  51  76
ENDBRANCH  25  26
ENDBRANCH  17  20
ENDBRANCH   1  16
TORSDOF 14
