REMARK SMILES CC(C)(C[NH+]1CCC(C(N)=S)CC1)C(=O)NCCCNC(=O)c1ccc(-c2c3nc(c(-c4c(F)cc(S(=O)(=O)[O-])cc4F)c4ccc([nH]4)c(-c4c(F)cc(S(=O)(=O)[O-])cc4F)c4nc(c(-c5c(F)cc(S(=O)(=O)[O-])cc5F)c5ccc2[nH]5)C=C4)C=C3)cc1
REMARK SMILES IDX 17 1 16 2 14 3 15 4 2 6 1 7 3 8 4 9 5 10 6 11 13 12 7 14
REMARK SMILES IDX 12 15 8 16 9 17 11 18 10 19 18 22 19 23 20 24 21 25 22 27
REMARK SMILES IDX 23 28 24 29 88 30 25 31 87 32 26 33 27 34 28 35 81 36 29 37
REMARK SMILES IDX 86 38 80 39 82 40 30 41 85 42 79 43 78 44 31 46 65 47 44 48
REMARK SMILES IDX 64 49 45 50 48 51 63 52 83 53 46 54 47 55 62 57 84 58 49 59
REMARK SMILES IDX 32 60 33 61 42 62 34 63 35 64 41 65 43 66 36 67 37 68 38 69
REMARK SMILES IDX 39 70 40 71 66 72 67 73 76 74 68 75 69 76 75 77 77 78 70 79
REMARK SMILES IDX 71 80 72 81 73 82 74 83 50 84 51 85 60 86 52 87 53 88 59 89
REMARK SMILES IDX 61 90 54 91 55 92 56 93 57 94 58 95
REMARK H PARENT 16 5 5 13 10 20 10 21 20 26 82 45 48 56
REMARK Flexibility Score: inf
ROOT
ATOM      1  C   UNL     1      -0.199  -2.107   3.969  1.00  0.00     0.117 C 
ENDROOT
BRANCH   1   2
ATOM      2  N   UNL     1       0.757  -2.410   2.918  1.00  0.00    -0.355 N 
ATOM      3  C   UNL     1       1.222  -1.723   1.842  1.00  0.00     0.231 C 
ATOM      4  O   UNL     1       2.165  -2.263   1.250  1.00  0.00    -0.274 OA
ATOM      5  H   UNL     1       1.154  -3.307   3.004  1.00  0.00     0.163 HD
BRANCH   3   6
ATOM      6  C   UNL     1       0.637  -0.384   1.351  1.00  0.00     0.092 C 
ATOM      7  C   UNL     1       1.510   0.129   0.178  1.00  0.00     0.027 C 
ATOM      8  C   UNL     1       0.802   0.703   2.440  1.00  0.00     0.027 C 
BRANCH   6   9
ATOM      9  C   UNL     1      -0.868  -0.502   0.937  1.00  0.00     0.278 C 
BRANCH   9  10
ATOM     10  N   UNL     1      -1.349  -1.345  -0.177  1.00  0.00    -0.334 N 
ATOM     11  C   UNL     1      -0.985  -0.877  -1.514  1.00  0.00     0.262 C 
ATOM     12  C   UNL     1      -1.172  -2.785   0.021  1.00  0.00     0.262 C 
ATOM     13  H   UNL     1      -2.360  -1.211  -0.141  1.00  0.00     0.348 HD
ATOM     14  C   UNL     1      -1.651  -1.690  -2.628  1.00  0.00     0.072 C 
ATOM     15  C   UNL     1      -1.839  -3.620  -1.077  1.00  0.00     0.072 C 
ATOM     16  C   UNL     1      -1.322  -3.174  -2.445  1.00  0.00     0.058 C 
BRANCH  16  17
ATOM     17  C   UNL     1      -1.803  -4.051  -3.591  1.00  0.00     0.076 C 
ATOM     18  S   UNL     1      -3.381  -4.198  -4.103  1.00  0.00    -0.066 S 
BRANCH  17  19
ATOM     19  N   UNL     1      -0.825  -4.762  -4.231  1.00  0.00    -0.393 N 
ATOM     20  H   UNL     1       0.112  -4.684  -3.938  1.00  0.00     0.157 HD
ATOM     21  H   UNL     1      -1.058  -5.352  -4.984  1.00  0.00     0.157 HD
ENDBRANCH  17  19
ENDBRANCH  16  17
ENDBRANCH   9  10
ENDBRANCH   6   9
ENDBRANCH   3   6
ENDBRANCH   1   2
BRANCH   1  22
ATOM     22  C   UNL     1      -1.404  -3.039   4.004  1.00  0.00     0.042 C 
BRANCH  22  23
ATOM     23  C   UNL     1      -1.071  -4.522   4.111  1.00  0.00     0.118 C 
BRANCH  23  24
ATOM     24  N   UNL     1      -0.421  -4.858   5.368  1.00  0.00    -0.352 N 
ATOM     25  C   UNL     1      -0.890  -5.555   6.456  1.00  0.00     0.251 C 
ATOM     26  H   UNL     1       0.504  -4.533   5.454  1.00  0.00     0.163 HD
ATOM     27  O   UNL     1      -0.248  -5.528   7.503  1.00  0.00    -0.269 OA
BRANCH  25  28
ATOM     28  C   UNL     1      -2.159  -6.319   6.388  1.00  0.00     0.039 A 
ATOM     29  C   UNL     1      -3.016  -6.302   7.493  1.00  0.00     0.014 A 
ATOM     30  C   UNL     1      -2.487  -7.089   5.270  1.00  0.00     0.014 A 
ATOM     31  C   UNL     1      -4.225  -7.003   7.450  1.00  0.00     0.010 A 
ATOM     32  C   UNL     1      -3.727  -7.722   5.197  1.00  0.00     0.010 A 
ATOM     33  C   UNL     1      -4.607  -7.693   6.289  1.00  0.00    -0.014 A 
BRANCH  33  34
ATOM     34  C   UNL     1      -5.915  -8.396   6.197  1.00  0.00     0.031 A 
ATOM     35  C   UNL     1      -5.960  -9.889   6.009  1.00  0.00     0.074 A 
ATOM     36  C   UNL     1      -7.059  -7.684   6.212  1.00  0.00     0.049 A 
ATOM     37  N   UNL     1      -6.995 -10.667   5.815  1.00  0.00    -0.248 NA
ATOM     38  C   UNL     1      -4.671 -10.599   6.011  1.00  0.00     0.031 C 
ATOM     39  C   UNL     1      -7.149  -6.228   6.340  1.00  0.00     0.029 A 
ATOM     40  N   UNL     1      -8.367  -8.087   6.102  1.00  0.00    -0.354 N 
ATOM     41  C   UNL     1      -6.482 -11.949   5.651  1.00  0.00     0.074 A 
ATOM     42  C   UNL     1      -5.041 -11.838   5.722  1.00  0.00     0.031 C 
ATOM     43  C   UNL     1      -8.441  -5.862   6.319  1.00  0.00     0.029 A 
ATOM     44  C   UNL     1      -9.270  -7.050   6.138  1.00  0.00     0.049 A 
ATOM     45  H   UNL     1      -8.634  -9.030   6.006  1.00  0.00     0.167 HD
ATOM     46  C   UNL     1      -7.150 -13.115   5.476  1.00  0.00     0.037 A 
ATOM     47  C   UNL     1     -10.613  -7.053   6.027  1.00  0.00     0.037 A 
ATOM     48  C   UNL     1      -8.585 -13.226   5.441  1.00  0.00     0.049 A 
ATOM     49  C   UNL     1     -11.334  -8.361   5.850  1.00  0.00     0.074 A 
ATOM     50  C   UNL     1      -9.357 -14.370   5.335  1.00  0.00     0.029 A 
ATOM     51  N   UNL     1      -9.465 -12.156   5.514  1.00  0.00    -0.354 N 
ATOM     52  N   UNL     1     -10.834  -9.571   5.755  1.00  0.00    -0.248 NA
ATOM     53  C   UNL     1     -12.800  -8.308   5.770  1.00  0.00     0.031 C 
ATOM     54  C   UNL     1     -10.703 -13.988   5.307  1.00  0.00     0.029 A 
ATOM     55  C   UNL     1     -10.771 -12.611   5.439  1.00  0.00     0.049 A 
ATOM     56  H   UNL     1      -9.200 -11.212   5.605  1.00  0.00     0.167 HD
ATOM     57  C   UNL     1     -11.925 -10.423   5.628  1.00  0.00     0.074 A 
ATOM     58  C   UNL     1     -13.112  -9.593   5.671  1.00  0.00     0.031 C 
ATOM     59  C   UNL     1     -11.943 -11.772   5.491  1.00  0.00     0.037 A 
BRANCH  46  60
ATOM     60  C   UNL     1      -6.334 -14.368   5.317  1.00  0.00     0.058 A 
ATOM     61  C   UNL     1      -5.630 -14.931   6.394  1.00  0.00     0.135 A 
ATOM     62  C   UNL     1      -6.280 -15.034   4.082  1.00  0.00     0.135 A 
ATOM     63  F   UNL     1      -5.636 -14.328   7.594  1.00  0.00    -0.206 F 
ATOM     64  C   UNL     1      -4.876 -16.090   6.245  1.00  0.00     0.059 A 
ATOM     65  C   UNL     1      -5.553 -16.210   3.916  1.00  0.00     0.059 A 
ATOM     66  F   UNL     1      -6.934 -14.542   3.018  1.00  0.00    -0.206 F 
ATOM     67  C   UNL     1      -4.842 -16.722   5.001  1.00  0.00     0.060 A 
BRANCH  67  68
ATOM     68  S   UNL     1      -3.858 -18.225   4.824  1.00  0.00     0.124 S 
ATOM     69  O   UNL     1      -2.502 -17.684   4.804  1.00  0.00    -0.237 OA
ATOM     70  O   UNL     1      -4.221 -18.980   6.018  1.00  0.00    -0.237 OA
ATOM     71  O   UNL     1      -4.326 -18.791   3.562  1.00  0.00    -0.744 OA
ENDBRANCH  67  68
ENDBRANCH  46  60
BRANCH  47  72
ATOM     72  C   UNL     1     -11.365  -5.773   6.106  1.00  0.00     0.058 A 
ATOM     73  C   UNL     1     -12.138  -5.462   7.234  1.00  0.00     0.135 A 
ATOM     74  C   UNL     1     -11.312  -4.830   5.068  1.00  0.00     0.135 A 
ATOM     75  F   UNL     1     -12.225  -6.335   8.249  1.00  0.00    -0.206 F 
ATOM     76  C   UNL     1     -12.844  -4.267   7.327  1.00  0.00     0.059 A 
ATOM     77  C   UNL     1     -11.990  -3.618   5.148  1.00  0.00     0.059 A 
ATOM     78  F   UNL     1     -10.573  -5.074   3.975  1.00  0.00    -0.206 F 
ATOM     79  C   UNL     1     -12.761  -3.349   6.278  1.00  0.00     0.060 A 
BRANCH  79  80
ATOM     80  S   UNL     1     -13.635  -1.776   6.433  1.00  0.00     0.124 S 
ATOM     81  O   UNL     1     -15.016  -2.183   6.201  1.00  0.00    -0.237 OA
ATOM     82  O   UNL     1     -13.307  -1.374   7.797  1.00  0.00    -0.237 OA
ATOM     83  O   UNL     1     -13.033  -0.955   5.386  1.00  0.00    -0.744 OA
ENDBRANCH  79  80
ENDBRANCH  47  72
BRANCH  59  84
ATOM     84  C   UNL     1     -13.286 -12.442   5.409  1.00  0.00     0.058 A 
ATOM     85  C   UNL     1     -14.077 -12.367   4.253  1.00  0.00     0.135 A 
ATOM     86  C   UNL     1     -13.763 -13.210   6.484  1.00  0.00     0.135 A 
ATOM     87  F   UNL     1     -13.668 -11.640   3.200  1.00  0.00    -0.206 F 
ATOM     88  C   UNL     1     -15.305 -13.015   4.171  1.00  0.00     0.059 A 
ATOM     89  C   UNL     1     -14.977 -13.886   6.415  1.00  0.00     0.059 A 
ATOM     90  F   UNL     1     -13.040 -13.320   7.609  1.00  0.00    -0.206 F 
ATOM     91  C   UNL     1     -15.746 -13.773   5.257  1.00  0.00     0.060 A 
BRANCH  91  92
ATOM     92  S   UNL     1     -17.325 -14.639   5.127  1.00  0.00     0.124 S 
ATOM     93  O   UNL     1     -18.275 -13.544   5.295  1.00  0.00    -0.237 OA
ATOM     94  O   UNL     1     -17.256 -15.219   3.789  1.00  0.00    -0.237 OA
ATOM     95  O   UNL     1     -17.276 -15.602   6.223  1.00  0.00    -0.744 OA
ENDBRANCH  91  92
ENDBRANCH  59  84
ENDBRANCH  33  34
ENDBRANCH  25  28
ENDBRANCH  23  24
ENDBRANCH  22  23
ENDBRANCH   1  22
TORSDOF 17
