REMARK SMILES C=CCn1nc(C(=O)NCCCNC(=O)c2ccc(-c3c4nc(c(-c5c(F)cc(S(=O)(=O)[O-])cc5F)c5ccc([nH]5)c(-c5c(F)cc(S(=O)(=O)[O-])cc5F)c5nc(c(-c6c(F)cc(S(=O)(=O)[O-])cc6F)c6ccc3[nH]6)C=C5)C=C4)cc2)c2c1CC[C@@H]([NH2+]Cc1nc(C)cc(=O)[nH]1)C2
REMARK SMILES IDX 11 1 10 2 9 3 7 4 8 5 6 7 4 8 5 9 83 10 82 11 84 12 97 13
REMARK SMILES IDX 85 14 86 15 3 16 2 17 1 18 87 19 88 22 89 23 90 24 96 25
REMARK SMILES IDX 91 26 94 27 92 29 93 30 95 31 12 32 13 33 14 34 15 36 16 37
REMARK SMILES IDX 17 38 81 39 18 40 80 41 19 42 20 43 21 44 74 45 22 46 79 47
REMARK SMILES IDX 73 48 75 49 23 50 78 51 72 52 71 53 24 55 58 56 37 57 57 58
REMARK SMILES IDX 38 59 41 60 56 61 76 62 39 63 40 64 55 66 77 67 42 68 25 69
REMARK SMILES IDX 26 70 35 71 27 72 28 73 34 74 36 75 29 76 30 77 31 78 32 79
REMARK SMILES IDX 33 80 59 81 60 82 69 83 61 84 62 85 68 86 70 87 63 88 64 89
REMARK SMILES IDX 65 90 66 91 67 92 43 93 44 94 53 95 45 96 46 97 52 98 54 99
REMARK SMILES IDX 47 100 48 101 49 102 50 103 51 104
REMARK H PARENT 9 6 87 20 87 21 96 28 13 35 75 54 41 65
REMARK Flexibility Score: inf
ROOT
ATOM      1  C   UNL     1      -3.889  -5.436   5.160  1.00  0.00     0.042 C 
ENDROOT
BRANCH   1   2
ATOM      2  C   UNL     1      -2.357  -5.470   5.070  1.00  0.00     0.118 C 
BRANCH   2   3
ATOM      3  N   UNL     1      -1.878  -5.502   3.698  1.00  0.00    -0.351 N 
ATOM      4  C   UNL     1      -1.500  -4.551   2.772  1.00  0.00     0.272 C 
ATOM      5  O   UNL     1      -0.972  -5.031   1.761  1.00  0.00    -0.267 OA
ATOM      6  H   UNL     1      -1.805  -6.419   3.347  1.00  0.00     0.163 HD
BRANCH   4   7
ATOM      7  C   UNL     1      -1.672  -3.075   2.920  1.00  0.00     0.153 A 
ATOM      8  N   UNL     1      -1.404  -1.017   2.312  1.00  0.00    -0.265 N 
ATOM      9  N   UNL     1      -1.018  -2.276   2.047  1.00  0.00    -0.167 NA
ATOM     10  C   UNL     1      -2.213  -0.938   3.404  1.00  0.00     0.043 A 
ATOM     11  C   UNL     1      -2.470  -2.242   3.764  1.00  0.00     0.012 A 
ATOM     12  C   UNL     1      -2.818   0.282   4.001  1.00  0.00     0.062 C 
ATOM     13  C   UNL     1      -3.478  -2.552   4.786  1.00  0.00     0.105 C 
ATOM     14  C   UNL     1      -3.688  -0.079   5.226  1.00  0.00     0.072 C 
ATOM     15  C   UNL     1      -4.454  -1.425   5.146  1.00  0.00     0.187 C 
BRANCH   8  16
ATOM     16  C   UNL     1      -1.050   0.051   1.380  1.00  0.00     0.171 C 
BRANCH  16  17
ATOM     17  C   UNL     1       0.434   0.207   1.213  1.00  0.00    -0.011 C 
ATOM     18  C   UNL     1       1.067   0.167   0.032  1.00  0.00     0.006 C 
ENDBRANCH  16  17
ENDBRANCH   8  16
BRANCH  15  19
ATOM     19  N   UNL     1      -5.665  -1.589   4.302  1.00  0.00    -0.337 N 
ATOM     20  H   UNL     1      -6.466  -1.745   4.913  1.00  0.00     0.346 HD
ATOM     21  H   UNL     1      -5.494  -2.380   3.681  1.00  0.00     0.346 HD
BRANCH  19  22
ATOM     22  C   UNL     1      -5.942  -0.438   3.464  1.00  0.00     0.337 C 
BRANCH  22  23
ATOM     23  C   UNL     1      -7.113  -0.639   2.534  1.00  0.00     0.164 A 
ATOM     24  N   UNL     1      -7.812   0.403   2.227  1.00  0.00    -0.234 NA
ATOM     25  N   UNL     1      -7.295  -1.866   1.972  1.00  0.00    -0.306 N 
ATOM     26  C   UNL     1      -8.750   0.270   1.242  1.00  0.00     0.045 A 
ATOM     27  C   UNL     1      -8.237  -2.078   1.009  1.00  0.00     0.251 A 
ATOM     28  H   UNL     1      -6.733  -2.618   2.268  1.00  0.00     0.171 HD
ATOM     29  C   UNL     1      -9.424   1.552   0.854  1.00  0.00     0.067 C 
ATOM     30  C   UNL     1      -9.001  -0.883   0.608  1.00  0.00     0.095 A 
ATOM     31  O   UNL     1      -8.438  -3.166   0.487  1.00  0.00    -0.270 OA
ENDBRANCH  22  23
ENDBRANCH  19  22
ENDBRANCH  15  19
ENDBRANCH   4   7
ENDBRANCH   2   3
ENDBRANCH   1   2
BRANCH   1  32
ATOM     32  C   UNL     1      -4.565  -6.694   5.619  1.00  0.00     0.118 C 
BRANCH  32  33
ATOM     33  N   UNL     1      -4.420  -6.912   7.061  1.00  0.00    -0.352 N 
ATOM     34  C   UNL     1      -4.819  -8.032   7.769  1.00  0.00     0.251 C 
ATOM     35  H   UNL     1      -3.997  -6.189   7.578  1.00  0.00     0.163 HD
ATOM     36  O   UNL     1      -5.061  -7.966   8.973  1.00  0.00    -0.269 OA
BRANCH  34  37
ATOM     37  C   UNL     1      -4.961  -9.287   7.018  1.00  0.00     0.039 A 
ATOM     38  C   UNL     1      -6.050 -10.139   7.181  1.00  0.00     0.014 A 
ATOM     39  C   UNL     1      -4.042  -9.488   5.997  1.00  0.00     0.014 A 
ATOM     40  C   UNL     1      -6.252 -11.126   6.220  1.00  0.00     0.010 A 
ATOM     41  C   UNL     1      -4.424 -10.230   4.918  1.00  0.00     0.010 A 
ATOM     42  C   UNL     1      -5.460 -11.131   5.055  1.00  0.00    -0.014 A 
BRANCH  42  43
ATOM     43  C   UNL     1      -5.747 -12.009   3.927  1.00  0.00     0.031 A 
ATOM     44  C   UNL     1      -7.187 -12.113   3.599  1.00  0.00     0.074 A 
ATOM     45  C   UNL     1      -4.806 -12.599   3.155  1.00  0.00     0.049 A 
ATOM     46  N   UNL     1      -7.984 -13.050   3.987  1.00  0.00    -0.248 NA
ATOM     47  C   UNL     1      -7.869 -10.973   2.969  1.00  0.00     0.031 C 
ATOM     48  C   UNL     1      -3.348 -12.411   3.147  1.00  0.00     0.029 A 
ATOM     49  N   UNL     1      -4.984 -13.485   2.139  1.00  0.00    -0.354 N 
ATOM     50  C   UNL     1      -9.209 -12.765   3.405  1.00  0.00     0.074 A 
ATOM     51  C   UNL     1      -9.141 -11.384   3.001  1.00  0.00     0.031 C 
ATOM     52  C   UNL     1      -2.815 -12.976   2.042  1.00  0.00     0.029 A 
ATOM     53  C   UNL     1      -3.852 -13.732   1.370  1.00  0.00     0.049 A 
ATOM     54  H   UNL     1      -5.850 -13.919   1.962  1.00  0.00     0.167 HD
ATOM     55  C   UNL     1     -10.051 -13.777   3.058  1.00  0.00     0.037 A 
ATOM     56  C   UNL     1      -3.763 -14.528   0.274  1.00  0.00     0.037 A 
ATOM     57  C   UNL     1      -9.649 -15.021   3.679  1.00  0.00     0.049 A 
ATOM     58  C   UNL     1      -4.884 -15.499   0.366  1.00  0.00     0.074 A 
ATOM     59  C   UNL     1      -9.427 -15.424   4.984  1.00  0.00     0.029 A 
ATOM     60  N   UNL     1      -8.995 -15.943   2.894  1.00  0.00    -0.354 N 
ATOM     61  N   UNL     1      -4.958 -16.424   1.284  1.00  0.00    -0.248 NA
ATOM     62  C   UNL     1      -6.150 -15.131  -0.248  1.00  0.00     0.031 C 
ATOM     63  C   UNL     1      -8.259 -16.244   4.925  1.00  0.00     0.029 A 
ATOM     64  C   UNL     1      -7.888 -16.372   3.586  1.00  0.00     0.049 A 
ATOM     65  H   UNL     1      -9.270 -16.242   1.997  1.00  0.00     0.167 HD
ATOM     66  C   UNL     1      -6.287 -16.419   1.684  1.00  0.00     0.074 A 
ATOM     67  C   UNL     1      -6.989 -15.667   0.643  1.00  0.00     0.031 C 
ATOM     68  C   UNL     1      -6.647 -16.772   2.955  1.00  0.00     0.037 A 
BRANCH  55  69
ATOM     69  C   UNL     1     -10.973 -13.735   1.865  1.00  0.00     0.058 A 
ATOM     70  C   UNL     1     -11.922 -14.763   1.698  1.00  0.00     0.135 A 
ATOM     71  C   UNL     1     -10.782 -12.893   0.746  1.00  0.00     0.135 A 
ATOM     72  F   UNL     1     -12.174 -15.628   2.693  1.00  0.00    -0.206 F 
ATOM     73  C   UNL     1     -12.579 -14.982   0.487  1.00  0.00     0.059 A 
ATOM     74  C   UNL     1     -11.467 -13.059  -0.451  1.00  0.00     0.059 A 
ATOM     75  F   UNL     1      -9.853 -11.931   0.719  1.00  0.00    -0.206 F 
ATOM     76  C   UNL     1     -12.334 -14.129  -0.585  1.00  0.00     0.060 A 
BRANCH  76  77
ATOM     77  S   UNL     1     -13.115 -14.460  -2.172  1.00  0.00     0.124 S 
ATOM     78  O   UNL     1     -12.438 -15.685  -2.578  1.00  0.00    -0.237 OA
ATOM     79  O   UNL     1     -14.517 -14.598  -1.792  1.00  0.00    -0.237 OA
ATOM     80  O   UNL     1     -12.798 -13.270  -2.956  1.00  0.00    -0.744 OA
ENDBRANCH  76  77
ENDBRANCH  55  69
BRANCH  56  81
ATOM     81  C   UNL     1      -3.018 -14.270  -0.989  1.00  0.00     0.058 A 
ATOM     82  C   UNL     1      -2.949 -15.248  -1.998  1.00  0.00     0.135 A 
ATOM     83  C   UNL     1      -2.627 -12.968  -1.363  1.00  0.00     0.135 A 
ATOM     84  F   UNL     1      -3.304 -16.515  -1.735  1.00  0.00    -0.206 F 
ATOM     85  C   UNL     1      -2.596 -14.940  -3.317  1.00  0.00     0.059 A 
ATOM     86  C   UNL     1      -2.264 -12.638  -2.668  1.00  0.00     0.059 A 
ATOM     87  F   UNL     1      -2.680 -11.951  -0.489  1.00  0.00    -0.206 F 
ATOM     88  C   UNL     1      -2.284 -13.623  -3.649  1.00  0.00     0.060 A 
BRANCH  88  89
ATOM     89  S   UNL     1      -2.041 -13.176  -5.386  1.00  0.00     0.124 S 
ATOM     90  O   UNL     1      -0.751 -13.791  -5.679  1.00  0.00    -0.237 OA
ATOM     91  O   UNL     1      -3.199 -13.789  -6.028  1.00  0.00    -0.237 OA
ATOM     92  O   UNL     1      -2.047 -11.716  -5.364  1.00  0.00    -0.744 OA
ENDBRANCH  88  89
ENDBRANCH  56  81
BRANCH  68  93
ATOM     93  C   UNL     1      -5.617 -17.460   3.821  1.00  0.00     0.058 A 
ATOM     94  C   UNL     1      -4.375 -16.910   4.197  1.00  0.00     0.135 A 
ATOM     95  C   UNL     1      -5.949 -18.704   4.379  1.00  0.00     0.135 A 
ATOM     96  F   UNL     1      -4.020 -15.678   3.810  1.00  0.00    -0.206 F 
ATOM     97  C   UNL     1      -3.482 -17.597   5.024  1.00  0.00     0.059 A 
ATOM     98  C   UNL     1      -5.090 -19.390   5.234  1.00  0.00     0.059 A 
ATOM     99  F   UNL     1      -7.144 -19.260   4.120  1.00  0.00    -0.206 F 
ATOM    100  C   UNL     1      -3.845 -18.843   5.531  1.00  0.00     0.060 A 
BRANCH 100 101
ATOM    101  S   UNL     1      -2.698 -19.727   6.611  1.00  0.00     0.124 S 
ATOM    102  O   UNL     1      -1.643 -20.120   5.683  1.00  0.00    -0.237 OA
ATOM    103  O   UNL     1      -2.333 -18.709   7.591  1.00  0.00    -0.237 OA
ATOM    104  O   UNL     1      -3.504 -20.826   7.139  1.00  0.00    -0.744 OA
ENDBRANCH 100 101
ENDBRANCH  68  93
ENDBRANCH  42  43
ENDBRANCH  34  37
ENDBRANCH  32  33
ENDBRANCH   1  32
TORSDOF 18
