REMARK SMILES Cc1ccc(C(=O)C2=C(NCCCNC(=O)c3ccc(-c4c5nc(c(-c6c(F)cc(S(=O)(=O)[O-])cc6F)c6ccc([nH]6)c(-c6c(F)cc(S(=O)(=O)[O-])cc6F)c6nc(c(-c7c(F)cc(S(=O)(=O)[O-])cc7F)c7ccc4[nH]7)C=C6)C=C5)cc3)C(=O)N(CCCC(=O)[O-])[C@H]2c2ccc3c(c2)OCO3)cc1
REMARK SMILES IDX 11 1 10 2 9 4 8 5 92 6 83 7 85 8 84 9 6 10 7 11 5 12 1 13
REMARK SMILES IDX 2 14 3 15 103 16 4 17 102 18 93 19 94 20 98 21 95 22 97 23
REMARK SMILES IDX 96 24 99 25 101 26 100 27 86 28 87 29 88 30 89 31 90 32
REMARK SMILES IDX 91 33 12 34 13 35 14 36 15 37 16 39 17 40 18 41 82 42 19 43
REMARK SMILES IDX 81 44 20 45 21 46 22 47 75 48 23 49 80 50 74 51 76 52 24 53
REMARK SMILES IDX 79 54 73 55 72 56 25 58 59 59 38 60 58 61 39 62 42 63 57 64
REMARK SMILES IDX 77 65 40 66 41 67 56 69 78 70 43 71 26 72 27 73 36 74 28 75
REMARK SMILES IDX 29 76 35 77 37 78 30 79 31 80 32 81 33 82 34 83 60 84 61 85
REMARK SMILES IDX 70 86 62 87 63 88 69 89 71 90 64 91 65 92 66 93 67 94 68 95
REMARK SMILES IDX 44 96 45 97 54 98 46 99 47 100 53 101 55 102 48 103 49 104
REMARK SMILES IDX 50 105 51 106 52 107
REMARK H PARENT 10 3 14 38 76 57 42 68
REMARK Flexibility Score: inf
ROOT
ATOM      1  C   UNL     1      -7.646  -0.394   0.382  1.00  0.00     0.115 C 
ENDROOT
BRANCH   1   2
ATOM      2  N   UNL     1      -6.194  -0.428   0.176  1.00  0.00    -0.380 N 
ATOM      3  H   UNL     1      -5.763  -1.300   0.025  1.00  0.00     0.160 HD
BRANCH   2   4
ATOM      4  C   UNL     1      -5.407   0.690   0.183  1.00  0.00     0.110 C 
ATOM      5  C   UNL     1      -4.295   1.048  -0.487  1.00  0.00     0.056 C 
ATOM      6  C   UNL     1      -3.916   2.466  -0.148  1.00  0.00     0.153 C 
ATOM      7  C   UNL     1      -5.750   1.874   1.060  1.00  0.00     0.271 C 
ATOM      8  N   UNL     1      -5.142   2.970   0.447  1.00  0.00    -0.326 N 
ATOM      9  O   UNL     1      -6.511   1.913   1.996  1.00  0.00    -0.267 OA
BRANCH   5  10
ATOM     10  C   UNL     1      -3.573   0.123  -1.413  1.00  0.00     0.193 C 
ATOM     11  O   UNL     1      -4.197  -0.737  -2.031  1.00  0.00    -0.289 OA
BRANCH  10  12
ATOM     12  C   UNL     1      -2.075   0.110  -1.511  1.00  0.00     0.022 A 
ATOM     13  C   UNL     1       2.240  -0.101  -1.155  1.00  0.00     0.044 C 
ATOM     14  C   UNL     1       0.756  -0.041  -1.393  1.00  0.00    -0.051 A 
ATOM     15  C   UNL     1      -0.021  -1.198  -1.295  1.00  0.00     0.004 A 
ATOM     16  C   UNL     1       0.114   1.164  -1.695  1.00  0.00     0.004 A 
ATOM     17  C   UNL     1      -1.422  -1.122  -1.344  1.00  0.00     0.012 A 
ATOM     18  C   UNL     1      -1.290   1.235  -1.776  1.00  0.00     0.012 A 
ENDBRANCH  10  12
ENDBRANCH   5  10
BRANCH   6  19
ATOM     19  C   UNL     1      -2.739   2.471   0.846  1.00  0.00    -0.017 A 
ATOM     20  C   UNL     1      -1.629   3.325   0.644  1.00  0.00     0.010 A 
ATOM     21  C   UNL     1      -2.626   1.411   1.770  1.00  0.00     0.056 A 
ATOM     22  C   UNL     1      -0.367   2.970   1.148  1.00  0.00     0.051 A 
ATOM     23  C   UNL     1      -1.368   1.034   2.152  1.00  0.00     0.166 A 
ATOM     24  C   UNL     1      -0.260   1.767   1.815  1.00  0.00     0.165 A 
ATOM     25  O   UNL     1      -1.061  -0.160   2.724  1.00  0.00    -0.454 OA
ATOM     26  O   UNL     1       0.889   1.097   2.115  1.00  0.00    -0.454 OA
ATOM     27  C   UNL     1       0.342  -0.211   2.419  1.00  0.00     0.468 C 
ENDBRANCH   6  19
BRANCH   8  28
ATOM     28  C   UNL     1      -6.115   3.722  -0.348  1.00  0.00     0.121 C 
BRANCH  28  29
ATOM     29  C   UNL     1      -7.032   4.624   0.489  1.00  0.00     0.028 C 
BRANCH  29  30
ATOM     30  C   UNL     1      -6.294   5.817   1.085  1.00  0.00     0.054 C 
BRANCH  30  31
ATOM     31  C   UNL     1      -5.713   6.755   0.060  1.00  0.00     0.041 C 
ATOM     32  O   UNL     1      -4.881   7.620   0.282  1.00  0.00    -0.550 OA
ATOM     33  O   UNL     1      -6.209   6.610  -1.183  1.00  0.00    -0.550 OA
ENDBRANCH  30  31
ENDBRANCH  29  30
ENDBRANCH  28  29
ENDBRANCH   8  28
ENDBRANCH   2   4
ENDBRANCH   1   2
BRANCH   1  34
ATOM     34  C   UNL     1      -8.349  -0.257  -0.965  1.00  0.00     0.042 C 
BRANCH  34  35
ATOM     35  C   UNL     1      -8.389  -1.588  -1.677  1.00  0.00     0.118 C 
BRANCH  35  36
ATOM     36  N   UNL     1      -9.544  -2.410  -1.341  1.00  0.00    -0.352 N 
ATOM     37  C   UNL     1      -9.961  -3.505  -2.089  1.00  0.00     0.251 C 
ATOM     38  H   UNL     1     -10.061  -2.175  -0.536  1.00  0.00     0.163 HD
ATOM     39  O   UNL     1     -11.130  -3.769  -2.330  1.00  0.00    -0.269 OA
BRANCH  37  40
ATOM     40  C   UNL     1      -8.887  -4.450  -2.450  1.00  0.00     0.039 A 
ATOM     41  C   UNL     1      -8.818  -5.659  -1.744  1.00  0.00     0.014 A 
ATOM     42  C   UNL     1      -7.801  -3.955  -3.161  1.00  0.00     0.014 A 
ATOM     43  C   UNL     1      -7.585  -6.265  -1.570  1.00  0.00     0.010 A 
ATOM     44  C   UNL     1      -6.567  -4.444  -2.842  1.00  0.00     0.010 A 
ATOM     45  C   UNL     1      -6.470  -5.578  -2.027  1.00  0.00    -0.014 A 
BRANCH  45  46
ATOM     46  C   UNL     1      -5.110  -6.038  -1.899  1.00  0.00     0.031 A 
ATOM     47  C   UNL     1      -4.608  -6.791  -3.060  1.00  0.00     0.074 A 
ATOM     48  C   UNL     1      -4.378  -5.473  -0.917  1.00  0.00     0.049 A 
ATOM     49  N   UNL     1      -3.489  -7.406  -3.111  1.00  0.00    -0.248 NA
ATOM     50  C   UNL     1      -5.385  -6.931  -4.295  1.00  0.00     0.031 C 
ATOM     51  C   UNL     1      -2.933  -5.370  -0.777  1.00  0.00     0.029 A 
ATOM     52  N   UNL     1      -4.870  -5.047   0.323  1.00  0.00    -0.354 N 
ATOM     53  C   UNL     1      -3.244  -7.704  -4.439  1.00  0.00     0.074 A 
ATOM     54  C   UNL     1      -4.500  -7.508  -5.108  1.00  0.00     0.031 C 
ATOM     55  C   UNL     1      -2.638  -5.237   0.531  1.00  0.00     0.029 A 
ATOM     56  C   UNL     1      -3.886  -5.408   1.264  1.00  0.00     0.049 A 
ATOM     57  H   UNL     1      -5.725  -4.591   0.501  1.00  0.00     0.167 HD
ATOM     58  C   UNL     1      -1.948  -7.908  -4.807  1.00  0.00     0.037 A 
ATOM     59  C   UNL     1      -4.147  -6.449   2.114  1.00  0.00     0.037 A 
ATOM     60  C   UNL     1      -1.122  -7.927  -3.596  1.00  0.00     0.049 A 
ATOM     61  C   UNL     1      -3.244  -7.634   1.830  1.00  0.00     0.074 A 
ATOM     62  C   UNL     1      -0.391  -6.939  -2.956  1.00  0.00     0.029 A 
ATOM     63  N   UNL     1      -1.345  -8.928  -2.657  1.00  0.00    -0.354 N 
ATOM     64  N   UNL     1      -2.741  -7.918   0.654  1.00  0.00    -0.248 NA
ATOM     65  C   UNL     1      -2.731  -8.505   2.882  1.00  0.00     0.031 C 
ATOM     66  C   UNL     1      -0.271  -7.312  -1.587  1.00  0.00     0.029 A 
ATOM     67  C   UNL     1      -0.917  -8.525  -1.405  1.00  0.00     0.049 A 
ATOM     68  H   UNL     1      -1.750  -9.803  -2.856  1.00  0.00     0.167 HD
ATOM     69  C   UNL     1      -1.825  -8.934   0.780  1.00  0.00     0.074 A 
ATOM     70  C   UNL     1      -1.860  -9.264   2.195  1.00  0.00     0.031 C 
ATOM     71  C   UNL     1      -1.074  -9.411  -0.261  1.00  0.00     0.037 A 
BRANCH  58  72
ATOM     72  C   UNL     1      -1.376  -7.814  -6.209  1.00  0.00     0.058 A 
ATOM     73  C   UNL     1       0.016  -7.629  -6.379  1.00  0.00     0.135 A 
ATOM     74  C   UNL     1      -2.104  -7.840  -7.418  1.00  0.00     0.135 A 
ATOM     75  F   UNL     1       0.854  -7.616  -5.333  1.00  0.00    -0.206 F 
ATOM     76  C   UNL     1       0.621  -7.440  -7.622  1.00  0.00     0.059 A 
ATOM     77  C   UNL     1      -1.524  -7.632  -8.675  1.00  0.00     0.059 A 
ATOM     78  F   UNL     1      -3.412  -8.103  -7.458  1.00  0.00    -0.206 F 
ATOM     79  C   UNL     1      -0.157  -7.431  -8.769  1.00  0.00     0.060 A 
BRANCH  79  80
ATOM     80  S   UNL     1       0.646  -7.194 -10.362  1.00  0.00     0.124 S 
ATOM     81  O   UNL     1       1.244  -5.871 -10.208  1.00  0.00    -0.237 OA
ATOM     82  O   UNL     1       1.581  -8.313 -10.402  1.00  0.00    -0.237 OA
ATOM     83  O   UNL     1      -0.457  -7.269 -11.316  1.00  0.00    -0.744 OA
ENDBRANCH  79  80
ENDBRANCH  58  72
BRANCH  59  84
ATOM     84  C   UNL     1      -5.587  -6.467   2.543  1.00  0.00     0.058 A 
ATOM     85  C   UNL     1      -6.050  -5.330   3.247  1.00  0.00     0.135 A 
ATOM     86  C   UNL     1      -6.557  -7.248   1.899  1.00  0.00     0.135 A 
ATOM     87  F   UNL     1      -5.175  -4.559   3.914  1.00  0.00    -0.206 F 
ATOM     88  C   UNL     1      -7.364  -4.875   3.144  1.00  0.00     0.059 A 
ATOM     89  C   UNL     1      -7.893  -6.826   1.814  1.00  0.00     0.059 A 
ATOM     90  F   UNL     1      -6.202  -8.353   1.228  1.00  0.00    -0.206 F 
ATOM     91  C   UNL     1      -8.264  -5.598   2.369  1.00  0.00     0.060 A 
BRANCH  91  92
ATOM     92  S   UNL     1      -9.859  -4.829   1.977  1.00  0.00     0.124 S 
ATOM     93  O   UNL     1     -10.474  -4.721   3.295  1.00  0.00    -0.237 OA
ATOM     94  O   UNL     1      -9.456  -3.564   1.357  1.00  0.00    -0.237 OA
ATOM     95  O   UNL     1     -10.482  -5.788   1.072  1.00  0.00    -0.744 OA
ENDBRANCH  91  92
ENDBRANCH  59  84
BRANCH  71  96
ATOM     96  C   UNL     1      -0.333 -10.735  -0.283  1.00  0.00     0.058 A 
ATOM     97  C   UNL     1      -0.639 -11.819   0.554  1.00  0.00     0.135 A 
ATOM     98  C   UNL     1       0.626 -11.009  -1.296  1.00  0.00     0.135 A 
ATOM     99  F   UNL     1      -1.621 -11.755   1.463  1.00  0.00    -0.206 F 
ATOM    100  C   UNL     1       0.016 -13.046   0.460  1.00  0.00     0.059 A 
ATOM    101  C   UNL     1       1.224 -12.253  -1.464  1.00  0.00     0.059 A 
ATOM    102  F   UNL     1       1.009 -10.081  -2.184  1.00  0.00    -0.206 F 
ATOM    103  C   UNL     1       0.945 -13.255  -0.553  1.00  0.00     0.060 A 
BRANCH 103 104
ATOM    104  S   UNL     1       1.756 -14.852  -0.688  1.00  0.00     0.124 S 
ATOM    105  O   UNL     1       2.814 -14.719   0.308  1.00  0.00    -0.237 OA
ATOM    106  O   UNL     1       0.683 -15.782  -0.349  1.00  0.00    -0.237 OA
ATOM    107  O   UNL     1       2.197 -14.893  -2.078  1.00  0.00    -0.744 OA
ENDBRANCH 103 104
ENDBRANCH  71  96
ENDBRANCH  45  46
ENDBRANCH  37  40
ENDBRANCH  35  36
ENDBRANCH  34  35
ENDBRANCH   1  34
TORSDOF 20
