REMARK SMILES CC1(C)[C@H](C(=O)NCCCNC(=O)c2ccc(-c3c4nc(c(-c5c(F)cc(S(=O)(=O)[O-])cc5F)c5ccc([nH]5)c(-c5c(F)cc(S(=O)(=O)[O-])cc5F)c5nc(c(-c6c(F)cc(S(=O)(=O)[O-])cc6F)c6ccc3[nH]6)C=C5)C=C4)cc2)[C@H]1C(=O)Nc1ccc(C(=O)NCCc2ccccc2)cc1
REMARK SMILES IDX 5 1 6 2 7 3 4 5 1 6 2 7 3 8 80 9 81 10 82 11 83 12 84 14
REMARK SMILES IDX 85 15 100 16 86 17 99 18 87 19 88 20 89 21 90 22 91 24 92 25
REMARK SMILES IDX 93 26 94 27 98 28 95 29 97 30 96 31 8 32 9 33 10 34 11 35
REMARK SMILES IDX 12 36 13 38 14 39 15 40 79 41 16 42 78 43 17 44 18 45 19 46
REMARK SMILES IDX 72 47 20 48 77 49 71 50 73 51 21 52 76 53 70 54 69 55 22 57
REMARK SMILES IDX 56 58 35 59 55 60 36 61 39 62 54 63 74 64 37 65 38 66 53 68
REMARK SMILES IDX 75 69 40 70 23 71 24 72 33 73 25 74 26 75 32 76 34 77 27 78
REMARK SMILES IDX 28 79 29 80 30 81 31 82 57 83 58 84 67 85 59 86 60 87 66 88
REMARK SMILES IDX 68 89 61 90 62 91 63 92 64 93 65 94 41 95 42 96 51 97 43 98
REMARK SMILES IDX 44 99 50 100 52 101 45 102 46 103 47 104 48 105 49 106
REMARK H PARENT 7 4 83 13 90 23 11 37 73 56 39 67
REMARK Flexibility Score: inf
ROOT
ATOM      1  C   UNL     1      -1.344   0.788  -1.449  1.00  0.00     0.224 C 
ATOM      2  O   UNL     1      -1.657   0.282  -2.529  1.00  0.00    -0.275 OA
ATOM      3  N   UNL     1      -1.830   2.045  -1.242  1.00  0.00    -0.356 N 
ATOM      4  H   UNL     1      -2.433   2.335  -1.964  1.00  0.00     0.163 HD
ENDROOT
BRANCH   1   5
ATOM      5  C   UNL     1      -0.549  -0.063  -0.526  1.00  0.00     0.098 C 
ATOM      6  C   UNL     1       1.774  -0.750   0.314  1.00  0.00     0.013 C 
ATOM      7  C   UNL     1       0.625   0.230   0.405  1.00  0.00    -0.011 C 
ATOM      8  C   UNL     1       1.145   1.597   0.746  1.00  0.00     0.013 C 
ATOM      9  C   UNL     1      -0.760  -0.156   0.955  1.00  0.00     0.098 C 
BRANCH   9  10
ATOM     10  C   UNL     1      -1.088  -1.411   1.711  1.00  0.00     0.228 C 
ATOM     11  O   UNL     1      -1.093  -1.367   2.938  1.00  0.00    -0.274 OA
ATOM     12  N   UNL     1      -1.704  -2.437   1.029  1.00  0.00    -0.326 N 
ATOM     13  H   UNL     1      -2.660  -2.590   1.209  1.00  0.00     0.169 HD
BRANCH  12  14
ATOM     14  C   UNL     1      -1.082  -3.280   0.100  1.00  0.00     0.041 A 
ATOM     15  C   UNL     1      -1.833  -3.808  -0.948  1.00  0.00     0.027 A 
ATOM     16  C   UNL     1       0.280  -3.567   0.192  1.00  0.00     0.027 A 
ATOM     17  C   UNL     1      -1.175  -4.433  -2.012  1.00  0.00     0.016 A 
ATOM     18  C   UNL     1       0.936  -4.210  -0.856  1.00  0.00     0.016 A 
ATOM     19  C   UNL     1       0.219  -4.559  -1.999  1.00  0.00     0.039 A 
BRANCH  19  20
ATOM     20  C   UNL     1       0.902  -5.055  -3.212  1.00  0.00     0.251 C 
ATOM     21  O   UNL     1       0.490  -6.075  -3.759  1.00  0.00    -0.269 OA
ATOM     22  N   UNL     1       1.954  -4.356  -3.751  1.00  0.00    -0.352 N 
ATOM     23  H   UNL     1       2.394  -4.800  -4.512  1.00  0.00     0.163 HD
BRANCH  22  24
ATOM     24  C   UNL     1       2.530  -3.063  -3.384  1.00  0.00     0.121 C 
BRANCH  24  25
ATOM     25  C   UNL     1       3.966  -3.194  -2.859  1.00  0.00     0.057 C 
BRANCH  25  26
ATOM     26  C   UNL     1       4.960  -3.469  -3.963  1.00  0.00    -0.046 A 
ATOM     27  C   UNL     1       5.202  -4.779  -4.400  1.00  0.00     0.004 A 
ATOM     28  C   UNL     1       5.628  -2.409  -4.593  1.00  0.00     0.004 A 
ATOM     29  C   UNL     1       6.083  -5.021  -5.455  1.00  0.00     0.000 A 
ATOM     30  C   UNL     1       6.513  -2.655  -5.644  1.00  0.00     0.000 A 
ATOM     31  C   UNL     1       6.736  -3.959  -6.078  1.00  0.00     0.000 A 
ENDBRANCH  25  26
ENDBRANCH  24  25
ENDBRANCH  22  24
ENDBRANCH  19  20
ENDBRANCH  12  14
ENDBRANCH   9  10
ENDBRANCH   1   5
BRANCH   3  32
ATOM     32  C   UNL     1      -1.675   3.057  -0.219  1.00  0.00     0.117 C 
BRANCH  32  33
ATOM     33  C   UNL     1      -0.571   4.047  -0.583  1.00  0.00     0.042 C 
BRANCH  33  34
ATOM     34  C   UNL     1      -1.001   5.112  -1.585  1.00  0.00     0.118 C 
BRANCH  34  35
ATOM     35  N   UNL     1      -1.816   6.146  -0.968  1.00  0.00    -0.352 N 
ATOM     36  C   UNL     1      -1.524   7.456  -0.673  1.00  0.00     0.251 C 
ATOM     37  H   UNL     1      -2.725   5.860  -0.720  1.00  0.00     0.163 HD
ATOM     38  O   UNL     1      -2.283   8.079   0.063  1.00  0.00    -0.269 OA
BRANCH  36  39
ATOM     39  C   UNL     1      -0.312   8.121  -1.214  1.00  0.00     0.039 A 
ATOM     40  C   UNL     1       0.374   9.032  -0.403  1.00  0.00     0.014 A 
ATOM     41  C   UNL     1       0.117   7.914  -2.527  1.00  0.00     0.014 A 
ATOM     42  C   UNL     1       1.511   9.689  -0.887  1.00  0.00     0.010 A 
ATOM     43  C   UNL     1       1.295   8.508  -2.983  1.00  0.00     0.010 A 
ATOM     44  C   UNL     1       1.999   9.411  -2.174  1.00  0.00    -0.014 A 
BRANCH  44  45
ATOM     45  C   UNL     1       3.218  10.077  -2.708  1.00  0.00     0.031 A 
ATOM     46  C   UNL     1       3.116  10.975  -3.914  1.00  0.00     0.074 A 
ATOM     47  C   UNL     1       4.421   9.831  -2.153  1.00  0.00     0.049 A 
ATOM     48  N   UNL     1       4.070  11.543  -4.607  1.00  0.00    -0.248 NA
ATOM     49  C   UNL     1       1.762  11.249  -4.425  1.00  0.00     0.031 C 
ATOM     50  C   UNL     1       4.662   8.960  -1.000  1.00  0.00     0.029 A 
ATOM     51  N   UNL     1       5.674  10.280  -2.493  1.00  0.00    -0.354 N 
ATOM     52  C   UNL     1       3.437  12.222  -5.642  1.00  0.00     0.074 A 
ATOM     53  C   UNL     1       2.020  11.958  -5.515  1.00  0.00     0.031 C 
ATOM     54  C   UNL     1       5.976   8.950  -0.721  1.00  0.00     0.029 A 
ATOM     55  C   UNL     1       6.677   9.780  -1.695  1.00  0.00     0.049 A 
ATOM     56  H   UNL     1       5.838  10.901  -3.239  1.00  0.00     0.167 HD
ATOM     57  C   UNL     1       3.981  13.011  -6.599  1.00  0.00     0.037 A 
ATOM     58  C   UNL     1       8.011   9.961  -1.750  1.00  0.00     0.037 A 
ATOM     59  C   UNL     1       5.386  13.306  -6.700  1.00  0.00     0.049 A 
ATOM     60  C   UNL     1       8.592  10.847  -2.820  1.00  0.00     0.074 A 
ATOM     61  C   UNL     1       6.032  14.122  -7.614  1.00  0.00     0.029 A 
ATOM     62  N   UNL     1       6.362  12.809  -5.850  1.00  0.00    -0.354 N 
ATOM     63  N   UNL     1       7.973  11.497  -3.776  1.00  0.00    -0.248 NA
ATOM     64  C   UNL     1      10.051  11.026  -2.817  1.00  0.00     0.031 C 
ATOM     65  C   UNL     1       7.401  14.100  -7.330  1.00  0.00     0.029 A 
ATOM     66  C   UNL     1       7.604  13.299  -6.218  1.00  0.00     0.049 A 
ATOM     67  H   UNL     1       6.197  12.198  -5.096  1.00  0.00     0.167 HD
ATOM     68  C   UNL     1       8.963  12.187  -4.467  1.00  0.00     0.074 A 
ATOM     69  C   UNL     1      10.220  11.880  -3.818  1.00  0.00     0.031 C 
ATOM     70  C   UNL     1       8.841  13.002  -5.543  1.00  0.00     0.037 A 
BRANCH  57  71
ATOM     71  C   UNL     1       3.053  13.631  -7.606  1.00  0.00     0.058 A 
ATOM     72  C   UNL     1       2.190  14.682  -7.256  1.00  0.00     0.135 A 
ATOM     73  C   UNL     1       3.056  13.204  -8.944  1.00  0.00     0.135 A 
ATOM     74  F   UNL     1       2.135  15.117  -5.987  1.00  0.00    -0.206 F 
ATOM     75  C   UNL     1       1.347  15.273  -8.191  1.00  0.00     0.059 A 
ATOM     76  C   UNL     1       2.239  13.799  -9.902  1.00  0.00     0.059 A 
ATOM     77  F   UNL     1       3.862  12.203  -9.332  1.00  0.00    -0.206 F 
ATOM     78  C   UNL     1       1.379  14.825  -9.512  1.00  0.00     0.060 A 
BRANCH  78  79
ATOM     79  S   UNL     1       0.289  15.612 -10.717  1.00  0.00     0.124 S 
ATOM     80  O   UNL     1      -1.005  15.043 -10.352  1.00  0.00    -0.237 OA
ATOM     81  O   UNL     1       0.464  17.030 -10.418  1.00  0.00    -0.237 OA
ATOM     82  O   UNL     1       0.829  15.174 -12.000  1.00  0.00    -0.744 OA
ENDBRANCH  78  79
ENDBRANCH  57  71
BRANCH  58  83
ATOM     83  C   UNL     1       8.898   9.303  -0.754  1.00  0.00     0.058 A 
ATOM     84  C   UNL     1       9.549  10.054   0.236  1.00  0.00     0.135 A 
ATOM     85  C   UNL     1       9.124   7.919  -0.779  1.00  0.00     0.135 A 
ATOM     86  F   UNL     1       9.368  11.382   0.296  1.00  0.00    -0.206 F 
ATOM     87  C   UNL     1      10.414   9.462   1.150  1.00  0.00     0.059 A 
ATOM     88  C   UNL     1       9.966   7.299   0.139  1.00  0.00     0.059 A 
ATOM     89  F   UNL     1       8.511   7.153  -1.695  1.00  0.00    -0.206 F 
ATOM     90  C   UNL     1      10.619   8.082   1.091  1.00  0.00     0.060 A 
BRANCH  90  91
ATOM     91  S   UNL     1      11.724   7.315   2.296  1.00  0.00     0.124 S 
ATOM     92  O   UNL     1      13.033   7.673   1.761  1.00  0.00    -0.237 OA
ATOM     93  O   UNL     1      11.337   7.978   3.537  1.00  0.00    -0.237 OA
ATOM     94  O   UNL     1      11.373   5.900   2.215  1.00  0.00    -0.744 OA
ENDBRANCH  90  91
ENDBRANCH  58  83
BRANCH  70  95
ATOM     95  C   UNL     1      10.089  13.662  -6.058  1.00  0.00     0.058 A 
ATOM     96  C   UNL     1      11.042  12.954  -6.804  1.00  0.00     0.135 A 
ATOM     97  C   UNL     1      10.299  15.035  -5.853  1.00  0.00     0.135 A 
ATOM     98  F   UNL     1      10.889  11.639  -7.022  1.00  0.00    -0.206 F 
ATOM     99  C   UNL     1      12.171  13.583  -7.319  1.00  0.00     0.059 A 
ATOM    100  C   UNL     1      11.410  15.688  -6.376  1.00  0.00     0.059 A 
ATOM    101  F   UNL     1       9.411  15.758  -5.152  1.00  0.00    -0.206 F 
ATOM    102  C   UNL     1      12.345  14.951  -7.101  1.00  0.00     0.060 A 
BRANCH 102 103
ATOM    103  S   UNL     1      13.790  15.766  -7.813  1.00  0.00     0.124 S 
ATOM    104  O   UNL     1      14.848  15.335  -6.905  1.00  0.00    -0.237 OA
ATOM    105  O   UNL     1      13.840  15.200  -9.158  1.00  0.00    -0.237 OA
ATOM    106  O   UNL     1      13.446  17.183  -7.750  1.00  0.00    -0.744 OA
ENDBRANCH 102 103
ENDBRANCH  70  95
ENDBRANCH  44  45
ENDBRANCH  36  39
ENDBRANCH  34  35
ENDBRANCH  33  34
ENDBRANCH  32  33
ENDBRANCH   3  32
TORSDOF 19
