REMARK SMILES CCOc1cccc(OCC)c1-c1ccc([C@@H](C)C(=O)NCCCNC(=O)c2ccc(-c3c4nc(c(-c5c(F)cc(S(=O)(=O)[O-])cc5F)c5ccc([nH]5)c(-c5c(F)cc(S(=O)(=O)[O-])cc5F)c5nc(c(-c6c(F)cc(S(=O)(=O)[O-])cc6F)c6ccc3[nH]6)C=C5)C=C4)cc2)cc1F
REMARK SMILES IDX 22 1 21 2 19 3 20 4 17 6 18 7 16 8 13 9 14 10 95 11 15 12
REMARK SMILES IDX 94 13 96 14 12 15 4 16 5 17 6 18 8 19 7 20 3 21 2 22 1 23
REMARK SMILES IDX 9 24 10 25 11 26 23 27 24 28 25 29 26 30 27 32 28 33 29 34
REMARK SMILES IDX 93 35 30 36 92 37 31 38 32 39 33 40 86 41 34 42 91 43 85 44
REMARK SMILES IDX 87 45 35 46 90 47 84 48 83 49 36 51 70 52 49 53 69 54 50 55
REMARK SMILES IDX 53 56 68 57 88 58 51 59 52 60 67 62 89 63 54 64 37 65 38 66
REMARK SMILES IDX 47 67 39 68 40 69 46 70 48 71 41 72 42 73 43 74 44 75 45 76
REMARK SMILES IDX 71 77 72 78 81 79 73 80 74 81 80 82 82 83 75 84 76 85 77 86
REMARK SMILES IDX 78 87 79 88 55 89 56 90 65 91 57 92 58 93 64 94 66 95 59 96
REMARK SMILES IDX 60 97 61 98 62 99 63 100
REMARK H PARENT 21 5 25 31 87 50 53 61
REMARK Flexibility Score: inf
ROOT
ATOM      1  C   UNL     1       3.198   4.918   1.367  1.00  0.00     0.117 C 
ENDROOT
BRANCH   1   2
ATOM      2  N   UNL     1       1.760   4.815   1.612  1.00  0.00    -0.356 N 
ATOM      3  C   UNL     1       0.954   3.991   2.343  1.00  0.00     0.227 C 
ATOM      4  O   UNL     1      -0.258   4.242   2.258  1.00  0.00    -0.274 OA
ATOM      5  H   UNL     1       1.249   5.508   1.134  1.00  0.00     0.163 HD
BRANCH   3   6
ATOM      6  C   UNL     1       1.408   2.813   3.244  1.00  0.00     0.105 C 
ATOM      7  C   UNL     1       2.466   3.184   4.278  1.00  0.00     0.023 C 
BRANCH   6   8
ATOM      8  C   UNL     1       1.747   1.532   2.500  1.00  0.00    -0.033 A 
ATOM      9  C   UNL     1       2.493  -0.773   1.002  1.00  0.00     0.025 A 
ATOM     10  C   UNL     1       2.901   0.501   0.629  1.00  0.00     0.012 A 
ATOM     11  C   UNL     1       1.643  -0.874   2.110  1.00  0.00     0.131 A 
ATOM     12  C   UNL     1       2.625   1.587   1.433  1.00  0.00     0.005 A 
ATOM     13  C   UNL     1       1.246   0.267   2.837  1.00  0.00     0.044 A 
ATOM     14  F   UNL     1       1.180  -2.070   2.503  1.00  0.00    -0.206 F 
BRANCH   9  15
ATOM     15  C   UNL     1       2.956  -1.877   0.156  1.00  0.00     0.069 A 
ATOM     16  C   UNL     1       2.035  -2.407  -0.786  1.00  0.00     0.130 A 
ATOM     17  C   UNL     1       2.420  -3.325  -1.764  1.00  0.00     0.047 A 
ATOM     18  C   UNL     1       3.748  -3.723  -1.842  1.00  0.00     0.008 A 
ATOM     19  C   UNL     1       4.302  -2.311   0.080  1.00  0.00     0.130 A 
ATOM     20  C   UNL     1       4.668  -3.233  -0.918  1.00  0.00     0.047 A 
BRANCH  16  21
ATOM     21  O   UNL     1       0.709  -2.053  -0.693  1.00  0.00    -0.493 OA
BRANCH  21  22
ATOM     22  C   UNL     1       0.277  -1.194  -1.754  1.00  0.00     0.226 C 
ATOM     23  C   UNL     1      -0.268   0.090  -1.146  1.00  0.00     0.049 C 
ENDBRANCH  21  22
ENDBRANCH  16  21
BRANCH  19  24
ATOM     24  O   UNL     1       5.380  -2.025   0.879  1.00  0.00    -0.493 OA
BRANCH  24  25
ATOM     25  C   UNL     1       5.566  -0.790   1.555  1.00  0.00     0.226 C 
ATOM     26  C   UNL     1       6.096   0.296   0.628  1.00  0.00     0.049 C 
ENDBRANCH  24  25
ENDBRANCH  19  24
ENDBRANCH   9  15
ENDBRANCH   6   8
ENDBRANCH   3   6
ENDBRANCH   1   2
BRANCH   1  27
ATOM     27  C   UNL     1       3.595   4.435  -0.041  1.00  0.00     0.042 C 
BRANCH  27  28
ATOM     28  C   UNL     1       3.475   5.456  -1.159  1.00  0.00     0.118 C 
BRANCH  28  29
ATOM     29  N   UNL     1       4.583   6.392  -1.180  1.00  0.00    -0.352 N 
ATOM     30  C   UNL     1       5.643   6.523  -2.046  1.00  0.00     0.251 C 
ATOM     31  H   UNL     1       4.574   7.048  -0.445  1.00  0.00     0.163 HD
ATOM     32  O   UNL     1       6.562   7.274  -1.723  1.00  0.00    -0.269 OA
BRANCH  30  33
ATOM     33  C   UNL     1       5.726   5.781  -3.334  1.00  0.00     0.039 A 
ATOM     34  C   UNL     1       6.990   5.393  -3.797  1.00  0.00     0.014 A 
ATOM     35  C   UNL     1       4.609   5.527  -4.134  1.00  0.00     0.014 A 
ATOM     36  C   UNL     1       7.125   4.715  -5.015  1.00  0.00     0.010 A 
ATOM     37  C   UNL     1       4.734   4.778  -5.308  1.00  0.00     0.010 A 
ATOM     38  C   UNL     1       5.994   4.370  -5.769  1.00  0.00    -0.014 A 
BRANCH  38  39
ATOM     39  C   UNL     1       6.107   3.612  -7.047  1.00  0.00     0.031 A 
ATOM     40  C   UNL     1       5.658   4.238  -8.344  1.00  0.00     0.074 A 
ATOM     41  C   UNL     1       6.567   2.344  -7.041  1.00  0.00     0.049 A 
ATOM     42  N   UNL     1       5.568   3.702  -9.535  1.00  0.00    -0.248 NA
ATOM     43  C   UNL     1       5.236   5.647  -8.290  1.00  0.00     0.031 C 
ATOM     44  C   UNL     1       7.016   1.610  -5.856  1.00  0.00     0.029 A 
ATOM     45  N   UNL     1       6.721   1.440  -8.064  1.00  0.00    -0.354 N 
ATOM     46  C   UNL     1       5.076   4.702 -10.368  1.00  0.00     0.074 A 
ATOM     47  C   UNL     1       4.834   5.861  -9.535  1.00  0.00     0.031 C 
ATOM     48  C   UNL     1       7.409   0.379  -6.220  1.00  0.00     0.029 A 
ATOM     49  C   UNL     1       7.198   0.215  -7.655  1.00  0.00     0.049 A 
ATOM     50  H   UNL     1       6.510   1.648  -9.003  1.00  0.00     0.167 HD
ATOM     51  C   UNL     1       4.869   4.670 -11.707  1.00  0.00     0.037 A 
ATOM     52  C   UNL     1       7.423  -0.916  -8.352  1.00  0.00     0.037 A 
ATOM     53  C   UNL     1       5.128   3.525 -12.540  1.00  0.00     0.049 A 
ATOM     54  C   UNL     1       7.146  -0.938  -9.832  1.00  0.00     0.074 A 
ATOM     55  C   UNL     1       4.963   3.400 -13.909  1.00  0.00     0.029 A 
ATOM     56  N   UNL     1       5.618   2.309 -12.087  1.00  0.00    -0.354 N 
ATOM     57  N   UNL     1       6.699   0.025 -10.602  1.00  0.00    -0.248 NA
ATOM     58  C   UNL     1       7.403  -2.202 -10.539  1.00  0.00     0.031 C 
ATOM     59  C   UNL     1       5.324   2.100 -14.279  1.00  0.00     0.029 A 
ATOM     60  C   UNL     1       5.753   1.428 -13.147  1.00  0.00     0.049 A 
ATOM     61  H   UNL     1       5.838   2.103 -11.149  1.00  0.00     0.167 HD
ATOM     62  C   UNL     1       6.651  -0.508 -11.886  1.00  0.00     0.074 A 
ATOM     63  C   UNL     1       7.126  -1.872 -11.793  1.00  0.00     0.031 C 
ATOM     64  C   UNL     1       6.246   0.079 -13.040  1.00  0.00     0.037 A 
BRANCH  51  65
ATOM     65  C   UNL     1       4.353   5.921 -12.366  1.00  0.00     0.058 A 
ATOM     66  C   UNL     1       5.172   7.051 -12.526  1.00  0.00     0.135 A 
ATOM     67  C   UNL     1       3.052   5.976 -12.892  1.00  0.00     0.135 A 
ATOM     68  F   UNL     1       6.418   7.058 -12.028  1.00  0.00    -0.206 F 
ATOM     69  C   UNL     1       4.713   8.198 -13.165  1.00  0.00     0.059 A 
ATOM     70  C   UNL     1       2.581   7.104 -13.559  1.00  0.00     0.059 A 
ATOM     71  F   UNL     1       2.228   4.925 -12.767  1.00  0.00    -0.206 F 
ATOM     72  C   UNL     1       3.416   8.214 -13.681  1.00  0.00     0.060 A 
BRANCH  72  73
ATOM     73  S   UNL     1       2.846   9.705 -14.524  1.00  0.00     0.124 S 
ATOM     74  O   UNL     1       2.667  10.623 -13.403  1.00  0.00    -0.237 OA
ATOM     75  O   UNL     1       3.960  10.005 -15.417  1.00  0.00    -0.237 OA
ATOM     76  O   UNL     1       1.616   9.274 -15.183  1.00  0.00    -0.744 OA
ENDBRANCH  72  73
ENDBRANCH  51  65
BRANCH  52  77
ATOM     77  C   UNL     1       7.937  -2.134  -7.667  1.00  0.00     0.058 A 
ATOM     78  C   UNL     1       9.228  -2.618  -7.928  1.00  0.00     0.135 A 
ATOM     79  C   UNL     1       7.137  -2.858  -6.769  1.00  0.00     0.135 A 
ATOM     80  F   UNL     1      10.028  -1.964  -8.784  1.00  0.00    -0.206 F 
ATOM     81  C   UNL     1       9.697  -3.794  -7.353  1.00  0.00     0.059 A 
ATOM     82  C   UNL     1       7.594  -4.022  -6.160  1.00  0.00     0.059 A 
ATOM     83  F   UNL     1       5.901  -2.430  -6.472  1.00  0.00    -0.206 F 
ATOM     84  C   UNL     1       8.868  -4.493  -6.474  1.00  0.00     0.060 A 
BRANCH  84  85
ATOM     85  S   UNL     1       9.483  -6.018  -5.726  1.00  0.00     0.124 S 
ATOM     86  O   UNL     1       9.373  -6.953  -6.840  1.00  0.00    -0.237 OA
ATOM     87  O   UNL     1      10.838  -5.645  -5.334  1.00  0.00    -0.237 OA
ATOM     88  O   UNL     1       8.557  -6.241  -4.619  1.00  0.00    -0.744 OA
ENDBRANCH  84  85
ENDBRANCH  52  77
BRANCH  64  89
ATOM     89  C   UNL     1       6.340  -0.736 -14.300  1.00  0.00     0.058 A 
ATOM     90  C   UNL     1       5.446  -1.784 -14.569  1.00  0.00     0.135 A 
ATOM     91  C   UNL     1       7.308  -0.434 -15.271  1.00  0.00     0.135 A 
ATOM     92  F   UNL     1       4.507  -2.118 -13.669  1.00  0.00    -0.206 F 
ATOM     93  C   UNL     1       5.523  -2.520 -15.746  1.00  0.00     0.059 A 
ATOM     94  C   UNL     1       7.387  -1.139 -16.468  1.00  0.00     0.059 A 
ATOM     95  F   UNL     1       8.181   0.566 -15.068  1.00  0.00    -0.206 F 
ATOM     96  C   UNL     1       6.497  -2.189 -16.691  1.00  0.00     0.060 A 
BRANCH  96  97
ATOM     97  S   UNL     1       6.564  -3.129 -18.231  1.00  0.00     0.124 S 
ATOM     98  O   UNL     1       7.160  -4.383 -17.784  1.00  0.00    -0.237 OA
ATOM     99  O   UNL     1       5.158  -3.197 -18.618  1.00  0.00    -0.237 OA
ATOM    100  O   UNL     1       7.405  -2.305 -19.095  1.00  0.00    -0.744 OA
ENDBRANCH  96  97
ENDBRANCH  64  89
ENDBRANCH  38  39
ENDBRANCH  30  33
ENDBRANCH  28  29
ENDBRANCH  27  28
ENDBRANCH   1  27
TORSDOF 19
