REMARK SMILES O=C(NCCCNC(=O)c1ccc(-c2c3nc(c(-c4c(F)cc(S(=O)(=O)[O-])cc4F)c4ccc([nH]4)c(-c4c(F)cc(S(=O)(=O)[O-])cc4F)c4nc(c(-c5c(F)cc(S(=O)(=O)[O-])cc5F)c5ccc2[nH]5)C=C4)C=C3)cc1)C1=C([O-])N(c2ccc3c(c2)OCCO3)CC1
REMARK SMILES IDX 6 1 5 2 4 3 3 4 1 5 2 6 76 8 77 9 91 10 78 11 79 12 90 13
REMARK SMILES IDX 80 14 81 15 85 16 82 17 84 18 83 19 86 20 89 21 87 22 88 23
REMARK SMILES IDX 7 24 8 25 9 27 10 28 11 29 75 30 12 31 74 32 13 33 14 34
REMARK SMILES IDX 15 35 68 36 16 37 73 38 67 39 69 40 17 41 72 42 66 43 65 44
REMARK SMILES IDX 18 46 52 47 31 48 51 49 32 50 35 51 50 52 70 53 33 54 34 55
REMARK SMILES IDX 49 57 71 58 36 59 19 60 20 61 29 62 21 63 22 64 28 65 30 66
REMARK SMILES IDX 23 67 24 68 25 69 26 70 27 71 53 72 54 73 63 74 55 75 56 76
REMARK SMILES IDX 62 77 64 78 57 79 58 80 59 81 60 82 61 83 37 84 38 85 47 86
REMARK SMILES IDX 39 87 40 88 46 89 48 90 41 91 42 92 43 93 44 94 45 95
REMARK H PARENT 3 7 7 26 69 45 35 56
REMARK Flexibility Score: inf
ROOT
ATOM      1  C   UNL     1       4.262   3.516  -1.145  1.00  0.00     0.118 C 
ENDROOT
BRANCH   1   2
ATOM      2  C   UNL     1       4.805   2.098  -1.203  1.00  0.00     0.042 C 
BRANCH   2   3
ATOM      3  C   UNL     1       4.487   1.254   0.018  1.00  0.00     0.118 C 
BRANCH   3   4
ATOM      4  N   UNL     1       3.061   1.108   0.272  1.00  0.00    -0.352 N 
ATOM      5  O   UNL     1       1.066   0.091   0.489  1.00  0.00    -0.270 OA
ATOM      6  C   UNL     1       2.272  -0.002   0.237  1.00  0.00     0.248 C 
ATOM      7  H   UNL     1       2.593   1.942   0.504  1.00  0.00     0.163 HD
BRANCH   6   8
ATOM      8  C   UNL     1       2.902  -1.284  -0.043  1.00  0.00     0.027 C 
ATOM      9  C   UNL     1       2.589  -2.130  -1.038  1.00  0.00    -0.028 C 
ATOM     10  C   UNL     1       3.974  -1.893   0.812  1.00  0.00     0.064 C 
ATOM     11  O   UNL     1       1.616  -1.973  -1.966  1.00  0.00    -0.860 OA
ATOM     12  N   UNL     1       3.468  -3.191  -1.106  1.00  0.00    -0.354 N 
ATOM     13  C   UNL     1       4.564  -2.953  -0.133  1.00  0.00     0.126 C 
BRANCH  12  14
ATOM     14  C   UNL     1       3.122  -4.558  -1.179  1.00  0.00     0.044 A 
ATOM     15  C   UNL     1       3.640  -5.329  -2.230  1.00  0.00     0.030 A 
ATOM     16  C   UNL     1       2.581  -5.193  -0.052  1.00  0.00     0.076 A 
ATOM     17  C   UNL     1       3.769  -6.710  -2.090  1.00  0.00     0.052 A 
ATOM     18  C   UNL     1       2.824  -6.545   0.139  1.00  0.00     0.163 A 
ATOM     19  C   UNL     1       3.450  -7.287  -0.866  1.00  0.00     0.161 A 
ATOM     20  O   UNL     1       2.581  -7.027   1.399  1.00  0.00    -0.486 OA
ATOM     21  O   UNL     1       3.917  -8.557  -0.624  1.00  0.00    -0.486 OA
ATOM     22  C   UNL     1       3.252  -8.263   1.679  1.00  0.00     0.271 C 
ATOM     23  C   UNL     1       4.402  -8.563   0.726  1.00  0.00     0.271 C 
ENDBRANCH  12  14
ENDBRANCH   6   8
ENDBRANCH   3   4
ENDBRANCH   2   3
ENDBRANCH   1   2
BRANCH   1  24
ATOM     24  N   UNL     1       4.814   4.297  -0.042  1.00  0.00    -0.352 N 
ATOM     25  C   UNL     1       5.636   5.397  -0.060  1.00  0.00     0.251 C 
ATOM     26  H   UNL     1       4.557   3.986   0.856  1.00  0.00     0.163 HD
ATOM     27  O   UNL     1       6.118   5.813   0.996  1.00  0.00    -0.269 OA
BRANCH  25  28
ATOM     28  C   UNL     1       5.972   6.057  -1.338  1.00  0.00     0.039 A 
ATOM     29  C   UNL     1       7.297   6.426  -1.589  1.00  0.00     0.014 A 
ATOM     30  C   UNL     1       4.989   6.292  -2.300  1.00  0.00     0.014 A 
ATOM     31  C   UNL     1       7.650   6.934  -2.842  1.00  0.00     0.010 A 
ATOM     32  C   UNL     1       5.356   6.706  -3.575  1.00  0.00     0.010 A 
ATOM     33  C   UNL     1       6.692   7.025  -3.864  1.00  0.00    -0.014 A 
BRANCH  33  34
ATOM     34  C   UNL     1       7.047   7.437  -5.247  1.00  0.00     0.031 A 
ATOM     35  C   UNL     1       6.402   8.654  -5.853  1.00  0.00     0.074 A 
ATOM     36  C   UNL     1       7.858   6.658  -5.992  1.00  0.00     0.049 A 
ATOM     37  N   UNL     1       6.441   9.082  -7.088  1.00  0.00    -0.248 NA
ATOM     38  C   UNL     1       5.574   9.479  -4.957  1.00  0.00     0.031 C 
ATOM     39  C   UNL     1       8.512   5.430  -5.534  1.00  0.00     0.029 A 
ATOM     40  N   UNL     1       8.252   6.771  -7.303  1.00  0.00    -0.354 N 
ATOM     41  C   UNL     1       5.623  10.204  -7.125  1.00  0.00     0.074 A 
ATOM     42  C   UNL     1       5.066  10.366  -5.800  1.00  0.00     0.031 C 
ATOM     43  C   UNL     1       9.232   4.911  -6.542  1.00  0.00     0.029 A 
ATOM     44  C   UNL     1       9.055   5.739  -7.730  1.00  0.00     0.049 A 
ATOM     45  H   UNL     1       7.984   7.521  -7.883  1.00  0.00     0.167 HD
ATOM     46  C   UNL     1       5.374  11.037  -8.163  1.00  0.00     0.037 A 
ATOM     47  C   UNL     1       9.572   5.476  -8.947  1.00  0.00     0.037 A 
ATOM     48  C   UNL     1       5.962  10.892  -9.469  1.00  0.00     0.049 A 
ATOM     49  C   UNL     1       9.283   6.416 -10.086  1.00  0.00     0.074 A 
ATOM     50  C   UNL     1       5.824  11.718 -10.570  1.00  0.00     0.029 A 
ATOM     51  N   UNL     1       6.802   9.855  -9.849  1.00  0.00    -0.354 N 
ATOM     52  N   UNL     1       8.549   7.502 -10.090  1.00  0.00    -0.248 NA
ATOM     53  C   UNL     1       9.892   6.097 -11.385  1.00  0.00     0.031 C 
ATOM     54  C   UNL     1       6.550  11.161 -11.627  1.00  0.00     0.029 A 
ATOM     55  C   UNL     1       7.177  10.012 -11.172  1.00  0.00     0.049 A 
ATOM     56  H   UNL     1       7.088   9.117  -9.264  1.00  0.00     0.167 HD
ATOM     57  C   UNL     1       8.631   8.012 -11.381  1.00  0.00     0.074 A 
ATOM     58  C   UNL     1       9.490   7.118 -12.129  1.00  0.00     0.031 C 
ATOM     59  C   UNL     1       8.050   9.122 -11.897  1.00  0.00     0.037 A 
BRANCH  46  60
ATOM     60  C   UNL     1       4.430  12.183  -7.928  1.00  0.00     0.058 A 
ATOM     61  C   UNL     1       4.785  13.276  -7.122  1.00  0.00     0.135 A 
ATOM     62  C   UNL     1       3.167  12.205  -8.541  1.00  0.00     0.135 A 
ATOM     63  F   UNL     1       5.974  13.299  -6.500  1.00  0.00    -0.206 F 
ATOM     64  C   UNL     1       3.910  14.335  -6.906  1.00  0.00     0.059 A 
ATOM     65  C   UNL     1       2.286  13.268  -8.362  1.00  0.00     0.059 A 
ATOM     66  F   UNL     1       2.776  11.185  -9.322  1.00  0.00    -0.206 F 
ATOM     67  C   UNL     1       2.662  14.321  -7.530  1.00  0.00     0.060 A 
BRANCH  67  68
ATOM     68  S   UNL     1       1.539  15.705  -7.242  1.00  0.00     0.124 S 
ATOM     69  O   UNL     1       1.095  15.439  -5.877  1.00  0.00    -0.237 OA
ATOM     70  O   UNL     1       2.417  16.860  -7.407  1.00  0.00    -0.237 OA
ATOM     71  O   UNL     1       0.523  15.540  -8.276  1.00  0.00    -0.744 OA
ENDBRANCH  67  68
ENDBRANCH  46  60
BRANCH  47  72
ATOM     72  C   UNL     1      10.426   4.275  -9.146  1.00  0.00     0.058 A 
ATOM     73  C   UNL     1      11.808   4.403  -9.353  1.00  0.00     0.135 A 
ATOM     74  C   UNL     1       9.887   2.979  -9.118  1.00  0.00     0.135 A 
ATOM     75  F   UNL     1      12.369   5.621  -9.396  1.00  0.00    -0.206 F 
ATOM     76  C   UNL     1      12.624   3.291  -9.538  1.00  0.00     0.059 A 
ATOM     77  C   UNL     1      10.686   1.851  -9.276  1.00  0.00     0.059 A 
ATOM     78  F   UNL     1       8.574   2.802  -8.906  1.00  0.00    -0.206 F 
ATOM     79  C   UNL     1      12.053   2.018  -9.495  1.00  0.00     0.060 A 
BRANCH  79  80
ATOM     80  S   UNL     1      13.130   0.580  -9.682  1.00  0.00     0.124 S 
ATOM     81  O   UNL     1      13.423   0.616 -11.110  1.00  0.00    -0.237 OA
ATOM     82  O   UNL     1      14.239   0.909  -8.793  1.00  0.00    -0.237 OA
ATOM     83  O   UNL     1      12.289  -0.528  -9.237  1.00  0.00    -0.744 OA
ENDBRANCH  79  80
ENDBRANCH  47  72
BRANCH  59  84
ATOM     84  C   UNL     1       8.352   9.468 -13.328  1.00  0.00     0.058 A 
ATOM     85  C   UNL     1       7.772   8.766 -14.395  1.00  0.00     0.135 A 
ATOM     86  C   UNL     1       9.165  10.573 -13.631  1.00  0.00     0.135 A 
ATOM     87  F   UNL     1       6.995   7.697 -14.158  1.00  0.00    -0.206 F 
ATOM     88  C   UNL     1       7.992   9.144 -15.715  1.00  0.00     0.059 A 
ATOM     89  C   UNL     1       9.378  10.983 -14.943  1.00  0.00     0.059 A 
ATOM     90  F   UNL     1       9.736  11.282 -12.645  1.00  0.00    -0.206 F 
ATOM     91  C   UNL     1       8.790  10.259 -15.979  1.00  0.00     0.060 A 
BRANCH  91  92
ATOM     92  S   UNL     1       9.012  10.779 -17.694  1.00  0.00     0.124 S 
ATOM     93  O   UNL     1       9.930   9.761 -18.193  1.00  0.00    -0.237 OA
ATOM     94  O   UNL     1       7.651  10.718 -18.218  1.00  0.00    -0.237 OA
ATOM     95  O   UNL     1       9.571  12.123 -17.572  1.00  0.00    -0.744 OA
ENDBRANCH  91  92
ENDBRANCH  59  84
ENDBRANCH  33  34
ENDBRANCH  25  28
ENDBRANCH   1  24
TORSDOF 14
