REMARK SMILES CCc1nc(N2CCC[C@@H](C(=O)NCCCNC(=O)c3ccc(-c4c5nc(c(-c6c(F)cc(S(=O)(=O)[O-])cc6F)c6ccc([nH]6)c(-c6c(F)cc(S(=O)(=O)[O-])cc6F)c6nc(c(-c7c(F)cc(S(=O)(=O)[O-])cc7F)c7ccc4[nH]7)C=C6)C=C5)cc3)C2)c2c(C)c(C)oc2n1
REMARK SMILES IDX 15 1 14 2 13 3 11 4 12 5 10 7 6 8 7 9 86 10 8 11 9 12 5 13
REMARK SMILES IDX 3 14 4 15 94 16 93 17 87 18 92 19 88 20 90 21 89 22 91 23
REMARK SMILES IDX 2 24 1 25 16 26 17 27 18 28 19 30 20 31 21 32 85 33 22 34
REMARK SMILES IDX 84 35 23 36 24 37 25 38 78 39 26 40 83 41 77 42 79 43 27 44
REMARK SMILES IDX 82 45 76 46 75 47 28 49 62 50 41 51 61 52 42 53 45 54 60 55
REMARK SMILES IDX 80 56 43 57 44 58 59 60 81 61 46 62 29 63 30 64 39 65 31 66
REMARK SMILES IDX 32 67 38 68 40 69 33 70 34 71 35 72 36 73 37 74 63 75 64 76
REMARK SMILES IDX 73 77 65 78 66 79 72 80 74 81 67 82 68 83 69 84 70 85 71 86
REMARK SMILES IDX 47 87 48 88 57 89 49 90 50 91 56 92 58 93 51 94 52 95 53 96
REMARK SMILES IDX 54 97 55 98
REMARK H PARENT 13 6 17 29 79 48 45 59
REMARK Flexibility Score: inf
ROOT
ATOM      1  C   UNL     1      -0.627  -2.682  10.152  1.00  0.00     0.042 C 
ENDROOT
BRANCH   1   2
ATOM      2  C   UNL     1      -0.708  -2.081   8.738  1.00  0.00     0.117 C 
BRANCH   2   3
ATOM      3  N   UNL     1       0.110  -0.892   8.534  1.00  0.00    -0.356 N 
ATOM      4  C   UNL     1       1.029  -0.589   7.567  1.00  0.00     0.224 C 
ATOM      5  O   UNL     1       1.362   0.592   7.441  1.00  0.00    -0.275 OA
ATOM      6  H   UNL     1      -0.021  -0.186   9.208  1.00  0.00     0.163 HD
BRANCH   4   7
ATOM      7  C   UNL     1       1.693  -1.675   6.733  1.00  0.00     0.098 C 
ATOM      8  N   UNL     1       2.430  -2.351   4.558  1.00  0.00    -0.355 N 
ATOM      9  C   UNL     1       3.842  -2.524   4.860  1.00  0.00     0.118 C 
ATOM     10  C   UNL     1       1.759  -1.259   5.253  1.00  0.00     0.131 C 
ATOM     11  C   UNL     1       4.013  -2.779   6.362  1.00  0.00     0.022 C 
ATOM     12  C   UNL     1       3.120  -1.919   7.271  1.00  0.00     0.017 C 
BRANCH   8  13
ATOM     13  C   UNL     1       1.929  -2.847   3.376  1.00  0.00     0.143 A 
ATOM     14  C   UNL     1       1.128  -2.524   1.190  1.00  0.00     0.134 A 
ATOM     15  N   UNL     1       1.586  -2.013   2.360  1.00  0.00    -0.215 NA
ATOM     16  N   UNL     1       0.956  -3.824   0.905  1.00  0.00    -0.197 NA
ATOM     17  C   UNL     1       1.240  -4.610   1.946  1.00  0.00     0.231 A 
ATOM     18  C   UNL     1       1.696  -4.222   3.194  1.00  0.00     0.086 A 
ATOM     19  O   UNL     1       1.086  -5.963   1.903  1.00  0.00    -0.443 OA
ATOM     20  C   UNL     1       1.743  -5.416   3.989  1.00  0.00     0.004 A 
ATOM     21  C   UNL     1       1.392  -6.446   3.136  1.00  0.00     0.107 A 
ATOM     22  C   UNL     1       2.050  -5.552   5.430  1.00  0.00     0.049 C 
ATOM     23  C   UNL     1       1.253  -7.905   3.322  1.00  0.00     0.088 C 
BRANCH  14  24
ATOM     24  C   UNL     1       0.684  -1.580   0.098  1.00  0.00     0.074 C 
ATOM     25  C   UNL     1       1.148  -0.140   0.240  1.00  0.00     0.012 C 
ENDBRANCH  14  24
ENDBRANCH   8  13
ENDBRANCH   4   7
ENDBRANCH   2   3
ENDBRANCH   1   2
BRANCH   1  26
ATOM     26  C   UNL     1      -1.307  -1.891  11.292  1.00  0.00     0.118 C 
BRANCH  26  27
ATOM     27  N   UNL     1      -2.755  -1.850  11.143  1.00  0.00    -0.352 N 
ATOM     28  C   UNL     1      -3.803  -2.034  12.012  1.00  0.00     0.251 C 
ATOM     29  H   UNL     1      -3.044  -1.647  10.224  1.00  0.00     0.163 HD
ATOM     30  O   UNL     1      -4.921  -2.144  11.503  1.00  0.00    -0.269 OA
BRANCH  28  31
ATOM     31  C   UNL     1      -3.693  -2.111  13.495  1.00  0.00     0.039 A 
ATOM     32  C   UNL     1      -4.625  -2.926  14.164  1.00  0.00     0.014 A 
ATOM     33  C   UNL     1      -2.842  -1.310  14.259  1.00  0.00     0.014 A 
ATOM     34  C   UNL     1      -4.681  -2.975  15.565  1.00  0.00     0.010 A 
ATOM     35  C   UNL     1      -2.902  -1.361  15.668  1.00  0.00     0.010 A 
ATOM     36  C   UNL     1      -3.806  -2.206  16.338  1.00  0.00    -0.014 A 
BRANCH  36  37
ATOM     37  C   UNL     1      -3.737  -2.479  17.801  1.00  0.00     0.031 A 
ATOM     38  C   UNL     1      -2.352  -2.620  18.343  1.00  0.00     0.074 A 
ATOM     39  C   UNL     1      -4.694  -2.173  18.707  1.00  0.00     0.049 A 
ATOM     40  N   UNL     1      -1.616  -1.591  18.646  1.00  0.00    -0.248 NA
ATOM     41  C   UNL     1      -1.625  -3.888  18.333  1.00  0.00     0.031 C 
ATOM     42  C   UNL     1      -5.552  -0.988  18.615  1.00  0.00     0.029 A 
ATOM     43  N   UNL     1      -4.919  -2.653  19.985  1.00  0.00    -0.354 N 
ATOM     44  C   UNL     1      -0.325  -2.047  18.819  1.00  0.00     0.074 A 
ATOM     45  C   UNL     1      -0.378  -3.481  18.622  1.00  0.00     0.031 C 
ATOM     46  C   UNL     1      -6.074  -0.736  19.835  1.00  0.00     0.029 A 
ATOM     47  C   UNL     1      -5.733  -1.820  20.757  1.00  0.00     0.049 A 
ATOM     48  H   UNL     1      -4.543  -3.499  20.318  1.00  0.00     0.167 HD
ATOM     49  C   UNL     1       0.714  -1.221  19.105  1.00  0.00     0.037 A 
ATOM     50  C   UNL     1      -5.675  -1.684  22.115  1.00  0.00     0.037 A 
ATOM     51  C   UNL     1       0.377   0.159  19.295  1.00  0.00     0.049 A 
ATOM     52  C   UNL     1      -4.362  -0.964  22.280  1.00  0.00     0.074 A 
ATOM     53  C   UNL     1       0.329   1.312  18.541  1.00  0.00     0.029 A 
ATOM     54  N   UNL     1      -0.092   0.537  20.532  1.00  0.00    -0.354 N 
ATOM     55  N   UNL     1      -4.154   0.314  22.107  1.00  0.00    -0.248 NA
ATOM     56  C   UNL     1      -3.150  -1.784  22.300  1.00  0.00     0.031 C 
ATOM     57  C   UNL     1      -0.590   2.175  19.220  1.00  0.00     0.029 A 
ATOM     58  C   UNL     1      -1.076   1.469  20.319  1.00  0.00     0.049 A 
ATOM     59  H   UNL     1       0.219   0.202  21.404  1.00  0.00     0.167 HD
ATOM     60  C   UNL     1      -2.818   0.419  21.716  1.00  0.00     0.074 A 
ATOM     61  C   UNL     1      -2.252  -0.905  21.881  1.00  0.00     0.031 C 
ATOM     62  C   UNL     1      -2.291   1.517  21.102  1.00  0.00     0.037 A 
BRANCH  49  63
ATOM     63  C   UNL     1       2.088  -1.672  19.394  1.00  0.00     0.058 A 
ATOM     64  C   UNL     1       2.500  -1.720  20.734  1.00  0.00     0.135 A 
ATOM     65  C   UNL     1       3.052  -1.833  18.393  1.00  0.00     0.135 A 
ATOM     66  F   UNL     1       1.599  -1.566  21.718  1.00  0.00    -0.206 F 
ATOM     67  C   UNL     1       3.835  -1.861  21.077  1.00  0.00     0.059 A 
ATOM     68  C   UNL     1       4.400  -1.985  18.714  1.00  0.00     0.059 A 
ATOM     69  F   UNL     1       2.700  -1.790  17.099  1.00  0.00    -0.206 F 
ATOM     70  C   UNL     1       4.782  -1.969  20.058  1.00  0.00     0.060 A 
BRANCH  70  71
ATOM     71  S   UNL     1       6.523  -2.033  20.530  1.00  0.00     0.124 S 
ATOM     72  O   UNL     1       6.707  -0.736  21.172  1.00  0.00    -0.237 OA
ATOM     73  O   UNL     1       6.550  -3.192  21.416  1.00  0.00    -0.237 OA
ATOM     74  O   UNL     1       7.213  -2.205  19.255  1.00  0.00    -0.744 OA
ENDBRANCH  70  71
ENDBRANCH  49  63
BRANCH  50  75
ATOM     75  C   UNL     1      -6.053  -2.882  22.941  1.00  0.00     0.058 A 
ATOM     76  C   UNL     1      -7.268  -3.539  22.654  1.00  0.00     0.135 A 
ATOM     77  C   UNL     1      -5.309  -3.418  24.006  1.00  0.00     0.135 A 
ATOM     78  F   UNL     1      -8.125  -3.016  21.762  1.00  0.00    -0.206 F 
ATOM     79  C   UNL     1      -7.630  -4.742  23.257  1.00  0.00     0.059 A 
ATOM     80  C   UNL     1      -5.633  -4.639  24.606  1.00  0.00     0.059 A 
ATOM     81  F   UNL     1      -4.229  -2.786  24.486  1.00  0.00    -0.206 F 
ATOM     82  C   UNL     1      -6.776  -5.315  24.193  1.00  0.00     0.060 A 
BRANCH  82  83
ATOM     83  S   UNL     1      -7.136  -6.979  24.791  1.00  0.00     0.124 S 
ATOM     84  O   UNL     1      -8.388  -6.776  25.519  1.00  0.00    -0.237 OA
ATOM     85  O   UNL     1      -7.248  -7.725  23.538  1.00  0.00    -0.237 OA
ATOM     86  O   UNL     1      -5.979  -7.308  25.607  1.00  0.00    -0.744 OA
ENDBRANCH  82  83
ENDBRANCH  50  75
BRANCH  62  87
ATOM     87  C   UNL     1      -3.155   2.733  21.064  1.00  0.00     0.058 A 
ATOM     88  C   UNL     1      -3.362   3.482  22.230  1.00  0.00     0.135 A 
ATOM     89  C   UNL     1      -3.711   3.214  19.868  1.00  0.00     0.135 A 
ATOM     90  F   UNL     1      -2.847   3.071  23.401  1.00  0.00    -0.206 F 
ATOM     91  C   UNL     1      -4.055   4.689  22.204  1.00  0.00     0.059 A 
ATOM     92  C   UNL     1      -4.388   4.430  19.815  1.00  0.00     0.059 A 
ATOM     93  F   UNL     1      -3.567   2.529  18.721  1.00  0.00    -0.206 F 
ATOM     94  C   UNL     1      -4.544   5.166  20.988  1.00  0.00     0.060 A 
BRANCH  94  95
ATOM     95  S   UNL     1      -5.307   6.801  20.948  1.00  0.00     0.124 S 
ATOM     96  O   UNL     1      -6.551   6.578  21.678  1.00  0.00    -0.237 OA
ATOM     97  O   UNL     1      -4.312   7.624  21.631  1.00  0.00    -0.237 OA
ATOM     98  O   UNL     1      -5.459   7.076  19.522  1.00  0.00    -0.744 OA
ENDBRANCH  94  95
ENDBRANCH  62  87
ENDBRANCH  36  37
ENDBRANCH  28  31
ENDBRANCH  26  27
ENDBRANCH   1  26
TORSDOF 15
