REMARK SMILES O=C(NCCCNC(=O)c1ccc(N2C(=O)/C(=C\c3ccc4c(c3)OCO4)[NH+]=C2c2ccccc2)cc1)c1ccc(-c2c3nc(c(-c4c(F)cc(S(=O)(=O)[O-])cc4F)c4ccc([nH]4)c(-c4c(F)cc(S(=O)(=O)[O-])cc4F)c4nc(c(-c5c(F)cc(S(=O)(=O)[O-])cc5F)c5ccc2[nH]5)C=C4)C=C3)cc1
REMARK SMILES IDX 4 1 3 2 1 3 2 4 38 6 39 7 103 8 40 9 102 10 41 11 42 12
REMARK SMILES IDX 43 13 96 14 44 15 101 16 95 17 97 18 45 19 100 20 94 21
REMARK SMILES IDX 93 22 46 24 80 25 59 26 79 27 60 28 63 29 78 30 98 31 61 32
REMARK SMILES IDX 62 33 77 35 99 36 64 37 47 38 48 39 57 40 49 41 50 42 56 43
REMARK SMILES IDX 58 44 51 45 52 46 53 47 54 48 55 49 81 50 82 51 91 52 83 53
REMARK SMILES IDX 84 54 90 55 92 56 85 57 86 58 87 59 88 60 89 61 65 62 66 63
REMARK SMILES IDX 75 64 67 65 68 66 74 67 76 68 69 69 70 70 71 71 72 72 73 73
REMARK SMILES IDX 5 74 6 75 7 76 8 77 9 79 10 80 11 81 37 82 12 83 36 84 13 85
REMARK SMILES IDX 14 86 15 87 29 88 16 89 17 90 28 91 18 92 30 94 31 95 35 96
REMARK SMILES IDX 32 97 34 98 33 99 19 100 20 101 24 102 21 103 23 104 22 105
REMARK SMILES IDX 25 106 27 107 26 108
REMARK H PARENT 3 5 97 23 63 34 7 78 28 93
REMARK Flexibility Score: inf
ROOT
ATOM      1  C   UNL     1       4.664  -0.861   0.898  1.00  0.00     0.118 C 
ENDROOT
BRANCH   1   2
ATOM      2  N   UNL     1       3.227  -0.863   0.668  1.00  0.00    -0.352 N 
ATOM      3  O   UNL     1       1.226  -0.106  -0.010  1.00  0.00    -0.269 OA
ATOM      4  C   UNL     1       2.449  -0.050  -0.119  1.00  0.00     0.251 C 
ATOM      5  H   UNL     1       2.732  -1.560   1.157  1.00  0.00     0.163 HD
BRANCH   4   6
ATOM      6  C   UNL     1       3.063   0.899  -1.074  1.00  0.00     0.039 A 
ATOM      7  C   UNL     1       4.144   0.527  -1.879  1.00  0.00     0.014 A 
ATOM      8  C   UNL     1       2.506   2.174  -1.204  1.00  0.00     0.014 A 
ATOM      9  C   UNL     1       4.747   1.464  -2.715  1.00  0.00     0.010 A 
ATOM     10  C   UNL     1       3.064   3.091  -2.098  1.00  0.00     0.010 A 
ATOM     11  C   UNL     1       4.207   2.753  -2.841  1.00  0.00    -0.014 A 
BRANCH  11  12
ATOM     12  C   UNL     1       4.806   3.732  -3.783  1.00  0.00     0.031 A 
ATOM     13  C   UNL     1       5.428   5.001  -3.275  1.00  0.00     0.074 A 
ATOM     14  C   UNL     1       4.750   3.489  -5.106  1.00  0.00     0.049 A 
ATOM     15  N   UNL     1       5.912   6.011  -3.951  1.00  0.00    -0.248 NA
ATOM     16  C   UNL     1       5.508   5.161  -1.815  1.00  0.00     0.031 C 
ATOM     17  C   UNL     1       4.164   2.295  -5.719  1.00  0.00     0.029 A 
ATOM     18  N   UNL     1       5.173   4.238  -6.175  1.00  0.00    -0.354 N 
ATOM     19  C   UNL     1       6.327   6.939  -3.004  1.00  0.00     0.074 A 
ATOM     20  C   UNL     1       6.021   6.378  -1.705  1.00  0.00     0.031 C 
ATOM     21  C   UNL     1       4.264   2.391  -7.052  1.00  0.00     0.029 A 
ATOM     22  C   UNL     1       4.868   3.676  -7.391  1.00  0.00     0.049 A 
ATOM     23  H   UNL     1       5.649   5.094  -6.080  1.00  0.00     0.167 HD
ATOM     24  C   UNL     1       6.911   8.146  -3.202  1.00  0.00     0.037 A 
ATOM     25  C   UNL     1       5.020   4.153  -8.642  1.00  0.00     0.037 A 
ATOM     26  C   UNL     1       7.217   8.691  -4.500  1.00  0.00     0.049 A 
ATOM     27  C   UNL     1       5.648   5.501  -8.842  1.00  0.00     0.074 A 
ATOM     28  C   UNL     1       7.845   9.886  -4.806  1.00  0.00     0.029 A 
ATOM     29  N   UNL     1       6.906   8.082  -5.709  1.00  0.00    -0.354 N 
ATOM     30  N   UNL     1       6.072   6.350  -7.937  1.00  0.00    -0.248 NA
ATOM     31  C   UNL     1       5.822   5.958 -10.227  1.00  0.00     0.031 C 
ATOM     32  C   UNL     1       7.874  10.020  -6.199  1.00  0.00     0.029 A 
ATOM     33  C   UNL     1       7.308   8.887  -6.762  1.00  0.00     0.049 A 
ATOM     34  H   UNL     1       6.464   7.208  -5.803  1.00  0.00     0.167 HD
ATOM     35  C   UNL     1       6.583   7.433  -8.641  1.00  0.00     0.074 A 
ATOM     36  C   UNL     1       6.416   7.132 -10.049  1.00  0.00     0.031 C 
ATOM     37  C   UNL     1       7.145   8.569  -8.161  1.00  0.00     0.037 A 
BRANCH  24  38
ATOM     38  C   UNL     1       7.222   8.972  -1.984  1.00  0.00     0.058 A 
ATOM     39  C   UNL     1       8.246   8.620  -1.090  1.00  0.00     0.135 A 
ATOM     40  C   UNL     1       6.480  10.131  -1.703  1.00  0.00     0.135 A 
ATOM     41  F   UNL     1       8.980   7.516  -1.303  1.00  0.00    -0.206 F 
ATOM     42  C   UNL     1       8.490   9.359   0.064  1.00  0.00     0.059 A 
ATOM     43  C   UNL     1       6.724  10.900  -0.569  1.00  0.00     0.059 A 
ATOM     44  F   UNL     1       5.494  10.519  -2.527  1.00  0.00    -0.206 F 
ATOM     45  C   UNL     1       7.715  10.490   0.322  1.00  0.00     0.060 A 
BRANCH  45  46
ATOM     46  S   UNL     1       8.003  11.406   1.851  1.00  0.00     0.124 S 
ATOM     47  O   UNL     1       7.377  10.528   2.835  1.00  0.00    -0.237 OA
ATOM     48  O   UNL     1       9.460  11.479   1.905  1.00  0.00    -0.237 OA
ATOM     49  O   UNL     1       7.324  12.677   1.619  1.00  0.00    -0.744 OA
ENDBRANCH  45  46
ENDBRANCH  24  38
BRANCH  25  50
ATOM     50  C   UNL     1       4.551   3.329  -9.785  1.00  0.00     0.058 A 
ATOM     51  C   UNL     1       5.458   2.646 -10.604  1.00  0.00     0.135 A 
ATOM     52  C   UNL     1       3.179   3.131 -10.014  1.00  0.00     0.135 A 
ATOM     53  F   UNL     1       6.778   2.809 -10.425  1.00  0.00    -0.206 F 
ATOM     54  C   UNL     1       5.024   1.782 -11.604  1.00  0.00     0.059 A 
ATOM     55  C   UNL     1       2.721   2.255 -10.992  1.00  0.00     0.059 A 
ATOM     56  F   UNL     1       2.272   3.750  -9.242  1.00  0.00    -0.206 F 
ATOM     57  C   UNL     1       3.653   1.583 -11.781  1.00  0.00     0.060 A 
BRANCH  57  58
ATOM     58  S   UNL     1       3.105   0.374 -13.007  1.00  0.00     0.124 S 
ATOM     59  O   UNL     1       3.353   1.087 -14.254  1.00  0.00    -0.237 OA
ATOM     60  O   UNL     1       3.983  -0.759 -12.733  1.00  0.00    -0.237 OA
ATOM     61  O   UNL     1       1.701   0.164 -12.665  1.00  0.00    -0.744 OA
ENDBRANCH  57  58
ENDBRANCH  25  50
BRANCH  37  62
ATOM     62  C   UNL     1       7.662   9.568  -9.157  1.00  0.00     0.058 A 
ATOM     63  C   UNL     1       6.801  10.422  -9.860  1.00  0.00     0.135 A 
ATOM     64  C   UNL     1       9.046   9.738  -9.331  1.00  0.00     0.135 A 
ATOM     65  F   UNL     1       5.470  10.292  -9.736  1.00  0.00    -0.206 F 
ATOM     66  C   UNL     1       7.293  11.416 -10.700  1.00  0.00     0.059 A 
ATOM     67  C   UNL     1       9.560  10.738 -10.149  1.00  0.00     0.059 A 
ATOM     68  F   UNL     1       9.911   8.948  -8.676  1.00  0.00    -0.206 F 
ATOM     69  C   UNL     1       8.675  11.573 -10.830  1.00  0.00     0.060 A 
BRANCH  69  70
ATOM     70  S   UNL     1       9.302  12.920 -11.856  1.00  0.00     0.124 S 
ATOM     71  O   UNL     1       9.054  12.407 -13.200  1.00  0.00    -0.237 OA
ATOM     72  O   UNL     1       8.468  14.044 -11.442  1.00  0.00    -0.237 OA
ATOM     73  O   UNL     1      10.707  13.015 -11.470  1.00  0.00    -0.744 OA
ENDBRANCH  69  70
ENDBRANCH  37  62
ENDBRANCH  11  12
ENDBRANCH   4   6
ENDBRANCH   1   2
BRANCH   1  74
ATOM     74  C   UNL     1       5.031  -0.465   2.324  1.00  0.00     0.042 C 
BRANCH  74  75
ATOM     75  C   UNL     1       4.493  -1.403   3.399  1.00  0.00     0.118 C 
BRANCH  75  76
ATOM     76  N   UNL     1       4.997  -2.761   3.255  1.00  0.00    -0.352 N 
ATOM     77  C   UNL     1       5.809  -3.485   4.090  1.00  0.00     0.251 C 
ATOM     78  H   UNL     1       4.713  -3.229   2.437  1.00  0.00     0.163 HD
ATOM     79  O   UNL     1       6.285  -4.554   3.723  1.00  0.00    -0.269 OA
BRANCH  77  80
ATOM     80  C   UNL     1       6.124  -2.971   5.436  1.00  0.00     0.040 A 
ATOM     81  C   UNL     1       7.457  -2.895   5.834  1.00  0.00     0.018 A 
ATOM     82  C   UNL     1       5.106  -2.616   6.321  1.00  0.00     0.018 A 
ATOM     83  C   UNL     1       7.776  -2.384   7.096  1.00  0.00     0.053 A 
ATOM     84  C   UNL     1       5.430  -2.112   7.582  1.00  0.00     0.053 A 
ATOM     85  C   UNL     1       6.769  -1.958   7.975  1.00  0.00     0.136 A 
BRANCH  85  86
ATOM     86  N   UNL     1       7.082  -1.427   9.250  1.00  0.00    -0.154 N 
ATOM     87  C   UNL     1       6.350  -1.698  10.380  1.00  0.00     0.385 C 
ATOM     88  C   UNL     1       8.139  -0.639   9.633  1.00  0.00     0.295 C 
ATOM     89  O   UNL     1       5.295  -2.295  10.506  1.00  0.00    -0.236 OA
ATOM     90  C   UNL     1       7.191  -1.095  11.469  1.00  0.00     0.216 C 
ATOM     91  N   UNL     1       8.245  -0.408  10.911  1.00  0.00    -0.233 N 
ATOM     92  C   UNL     1       7.028  -1.281  12.787  1.00  0.00     0.068 C 
ATOM     93  H   UNL     1       8.924   0.135  11.373  1.00  0.00     0.312 HD
BRANCH  88  94
ATOM     94  C   UNL     1       9.057  -0.027   8.662  1.00  0.00     0.065 A 
ATOM     95  C   UNL     1      10.424  -0.299   8.754  1.00  0.00     0.017 A 
ATOM     96  C   UNL     1       8.561   0.826   7.671  1.00  0.00     0.017 A 
ATOM     97  C   UNL     1      11.296   0.255   7.817  1.00  0.00     0.001 A 
ATOM     98  C   UNL     1       9.440   1.386   6.745  1.00  0.00     0.001 A 
ATOM     99  C   UNL     1      10.804   1.094   6.815  1.00  0.00     0.000 A 
ENDBRANCH  88  94
BRANCH  92 100
ATOM    100  C   UNL     1       6.068  -2.250  13.317  1.00  0.00    -0.017 A 
ATOM    101  C   UNL     1       4.816  -1.844  13.820  1.00  0.00     0.012 A 
ATOM    102  C   UNL     1       6.363  -3.614  13.163  1.00  0.00     0.059 A 
ATOM    103  C   UNL     1       3.830  -2.795  14.113  1.00  0.00     0.051 A 
ATOM    104  C   UNL     1       5.361  -4.518  13.418  1.00  0.00     0.166 A 
ATOM    105  C   UNL     1       4.124  -4.121  13.869  1.00  0.00     0.165 A 
ATOM    106  O   UNL     1       5.432  -5.859  13.201  1.00  0.00    -0.454 OA
ATOM    107  O   UNL     1       3.264  -5.169  13.987  1.00  0.00    -0.454 OA
ATOM    108  C   UNL     1       4.047  -6.215  13.372  1.00  0.00     0.468 C 
ENDBRANCH  92 100
ENDBRANCH  85  86
ENDBRANCH  77  80
ENDBRANCH  75  76
ENDBRANCH  74  75
ENDBRANCH   1  74
TORSDOF 16
