REMARK SMILES C[NH2+][C@](C)(CC[N@H+]1CCC(C)(C)C1)C(=O)NCCCNC(=O)c1ccc(-c2c3nc(c(-c4c(F)cc(S(=O)(=O)[O-])cc4F)c4ccc([nH]4)c(-c4c(F)cc(S(=O)(=O)[O-])cc4F)c4nc(c(-c5c(F)cc(S(=O)(=O)[O-])cc5F)c5ccc2[nH]5)C=C4)C=C3)cc1
REMARK SMILES IDX 18 1 17 2 16 3 14 4 15 5 3 7 4 8 2 9 1 10 5 13 6 14 7 15
REMARK SMILES IDX 8 16 13 17 9 19 10 20 11 21 12 22 19 23 20 24 21 25 22 27
REMARK SMILES IDX 23 28 24 29 88 30 25 31 87 32 26 33 27 34 28 35 81 36 29 37
REMARK SMILES IDX 86 38 80 39 82 40 30 41 85 42 79 43 78 44 31 46 65 47 44 48
REMARK SMILES IDX 64 49 45 50 48 51 63 52 83 53 46 54 47 55 62 57 84 58 49 59
REMARK SMILES IDX 32 60 33 61 42 62 34 63 35 64 41 65 43 66 36 67 37 68 38 69
REMARK SMILES IDX 39 70 40 71 66 72 67 73 76 74 68 75 69 76 75 77 77 78 70 79
REMARK SMILES IDX 71 80 72 81 73 82 74 83 50 84 51 85 60 86 52 87 53 88 59 89
REMARK SMILES IDX 61 90 54 91 55 92 56 93 57 94 58 95
REMARK H PARENT 16 6 2 11 2 12 7 18 20 26 82 45 48 56
REMARK Flexibility Score: inf
ROOT
ATOM      1  C   UNL     1      -5.023   0.960   1.386  1.00  0.00     0.042 C 
ENDROOT
BRANCH   1   2
ATOM      2  C   UNL     1      -3.969   0.246   0.540  1.00  0.00     0.118 C 
BRANCH   2   3
ATOM      3  N   UNL     1      -2.933   1.112   0.002  1.00  0.00    -0.351 N 
ATOM      4  C   UNL     1      -1.574   1.162   0.136  1.00  0.00     0.281 C 
ATOM      5  O   UNL     1      -0.995   1.890  -0.681  1.00  0.00    -0.268 OA
ATOM      6  H   UNL     1      -3.288   1.815  -0.589  1.00  0.00     0.163 HD
BRANCH   4   7
ATOM      7  C   UNL     1      -0.770   0.335   1.195  1.00  0.00     0.177 C 
ATOM      8  C   UNL     1       0.745   0.577   0.997  1.00  0.00     0.090 C 
BRANCH   7   9
ATOM      9  N   UNL     1      -0.990  -1.140   1.035  1.00  0.00    -0.336 N 
ATOM     10  C   UNL     1      -0.850  -1.652  -0.322  1.00  0.00     0.331 C 
ATOM     11  H   UNL     1      -0.312  -1.624   1.625  1.00  0.00     0.346 HD
ATOM     12  H   UNL     1      -1.960  -1.309   1.300  1.00  0.00     0.346 HD
ENDBRANCH   7   9
BRANCH   7  13
ATOM     13  C   UNL     1      -1.177   0.717   2.649  1.00  0.00     0.140 C 
BRANCH  13  14
ATOM     14  C   UNL     1      -0.743   2.108   3.167  1.00  0.00     0.269 C 
BRANCH  14  15
ATOM     15  N   UNL     1      -1.335   3.231   2.449  1.00  0.00    -0.334 N 
ATOM     16  C   UNL     1      -2.761   3.428   2.728  1.00  0.00     0.263 C 
ATOM     17  C   UNL     1      -0.680   4.516   2.720  1.00  0.00     0.268 C 
ATOM     18  H   UNL     1      -1.201   2.961   1.475  1.00  0.00     0.348 HD
ATOM     19  C   UNL     1      -3.006   4.932   2.770  1.00  0.00     0.073 C 
ATOM     20  C   UNL     1      -1.712   5.543   2.231  1.00  0.00     0.019 C 
ATOM     21  C   UNL     1      -1.751   5.629   0.693  1.00  0.00     0.017 C 
ATOM     22  C   UNL     1      -1.468   6.936   2.808  1.00  0.00     0.017 C 
ENDBRANCH  14  15
ENDBRANCH  13  14
ENDBRANCH   7  13
ENDBRANCH   4   7
ENDBRANCH   2   3
ENDBRANCH   1   2
BRANCH   1  23
ATOM     23  C   UNL     1      -5.678   2.178   0.738  1.00  0.00     0.118 C 
BRANCH  23  24
ATOM     24  N   UNL     1      -6.587   1.819  -0.334  1.00  0.00    -0.352 N 
ATOM     25  C   UNL     1      -7.909   2.146  -0.512  1.00  0.00     0.251 C 
ATOM     26  H   UNL     1      -6.197   1.256  -1.041  1.00  0.00     0.163 HD
ATOM     27  O   UNL     1      -8.540   1.589  -1.407  1.00  0.00    -0.269 OA
BRANCH  25  28
ATOM     28  C   UNL     1      -8.589   3.134   0.363  1.00  0.00     0.039 A 
ATOM     29  C   UNL     1      -9.900   2.863   0.765  1.00  0.00     0.014 A 
ATOM     30  C   UNL     1      -7.989   4.342   0.737  1.00  0.00     0.014 A 
ATOM     31  C   UNL     1     -10.592   3.776   1.566  1.00  0.00     0.010 A 
ATOM     32  C   UNL     1      -8.662   5.229   1.585  1.00  0.00     0.010 A 
ATOM     33  C   UNL     1      -9.975   4.961   2.001  1.00  0.00    -0.014 A 
BRANCH  33  34
ATOM     34  C   UNL     1     -10.710   5.903   2.888  1.00  0.00     0.031 A 
ATOM     35  C   UNL     1     -11.128   7.264   2.398  1.00  0.00     0.074 A 
ATOM     36  C   UNL     1     -11.005   5.529   4.149  1.00  0.00     0.049 A 
ATOM     37  N   UNL     1     -11.825   8.184   3.015  1.00  0.00    -0.248 NA
ATOM     38  C   UNL     1     -10.692   7.649   1.047  1.00  0.00     0.031 C 
ATOM     39  C   UNL     1     -10.610   4.262   4.769  1.00  0.00     0.029 A 
ATOM     40  N   UNL     1     -11.712   6.173   5.135  1.00  0.00    -0.354 N 
ATOM     41  C   UNL     1     -11.914   9.255   2.132  1.00  0.00     0.074 A 
ATOM     42  C   UNL     1     -11.154   8.889   0.956  1.00  0.00     0.031 C 
ATOM     43  C   UNL     1     -11.105   4.209   6.016  1.00  0.00     0.029 A 
ATOM     44  C   UNL     1     -11.836   5.443   6.293  1.00  0.00     0.049 A 
ATOM     45  H   UNL     1     -12.093   7.074   5.023  1.00  0.00     0.167 HD
ATOM     46  C   UNL     1     -12.584  10.424   2.276  1.00  0.00     0.037 A 
ATOM     47  C   UNL     1     -12.475   5.725   7.445  1.00  0.00     0.037 A 
ATOM     48  C   UNL     1     -13.355  10.783   3.440  1.00  0.00     0.049 A 
ATOM     49  C   UNL     1     -13.234   7.017   7.571  1.00  0.00     0.074 A 
ATOM     50  C   UNL     1     -14.113  11.922   3.655  1.00  0.00     0.029 A 
ATOM     51  N   UNL     1     -13.466  10.011   4.587  1.00  0.00    -0.354 N 
ATOM     52  N   UNL     1     -13.364   7.985   6.697  1.00  0.00    -0.248 NA
ATOM     53  C   UNL     1     -13.946   7.246   8.836  1.00  0.00     0.031 C 
ATOM     54  C   UNL     1     -14.655  11.853   4.944  1.00  0.00     0.029 A 
ATOM     55  C   UNL     1     -14.266  10.655   5.519  1.00  0.00     0.049 A 
ATOM     56  H   UNL     1     -13.039   9.134   4.720  1.00  0.00     0.167 HD
ATOM     57  C   UNL     1     -14.181   8.934   7.301  1.00  0.00     0.074 A 
ATOM     58  C   UNL     1     -14.535   8.412   8.605  1.00  0.00     0.031 C 
ATOM     59  C   UNL     1     -14.600  10.131   6.819  1.00  0.00     0.037 A 
BRANCH  46  60
ATOM     60  C   UNL     1     -12.524  11.404   1.136  1.00  0.00     0.058 A 
ATOM     61  C   UNL     1     -13.208  11.170  -0.068  1.00  0.00     0.135 A 
ATOM     62  C   UNL     1     -11.806  12.604   1.257  1.00  0.00     0.135 A 
ATOM     63  F   UNL     1     -13.899  10.032  -0.242  1.00  0.00    -0.206 F 
ATOM     64  C   UNL     1     -13.158  12.076  -1.122  1.00  0.00     0.059 A 
ATOM     65  C   UNL     1     -11.762  13.537   0.225  1.00  0.00     0.059 A 
ATOM     66  F   UNL     1     -11.136  12.880   2.387  1.00  0.00    -0.206 F 
ATOM     67  C   UNL     1     -12.429  13.257  -0.967  1.00  0.00     0.060 A 
BRANCH  67  68
ATOM     68  S   UNL     1     -12.373  14.424  -2.343  1.00  0.00     0.124 S 
ATOM     69  O   UNL     1     -11.444  13.758  -3.251  1.00  0.00    -0.237 OA
ATOM     70  O   UNL     1     -13.765  14.464  -2.779  1.00  0.00    -0.237 OA
ATOM     71  O   UNL     1     -11.878  15.652  -1.727  1.00  0.00    -0.744 OA
ENDBRANCH  67  68
ENDBRANCH  46  60
BRANCH  47  72
ATOM     72  C   UNL     1     -12.452   4.744   8.560  1.00  0.00     0.058 A 
ATOM     73  C   UNL     1     -13.593   3.995   8.887  1.00  0.00     0.135 A 
ATOM     74  C   UNL     1     -11.285   4.521   9.306  1.00  0.00     0.135 A 
ATOM     75  F   UNL     1     -14.733   4.180   8.205  1.00  0.00    -0.206 F 
ATOM     76  C   UNL     1     -13.582   3.067   9.922  1.00  0.00     0.059 A 
ATOM     77  C   UNL     1     -11.243   3.582  10.332  1.00  0.00     0.059 A 
ATOM     78  F   UNL     1     -10.164   5.200   9.020  1.00  0.00    -0.206 F 
ATOM     79  C   UNL     1     -12.400   2.865  10.637  1.00  0.00     0.060 A 
BRANCH  79  80
ATOM     80  S   UNL     1     -12.374   1.611  11.938  1.00  0.00     0.124 S 
ATOM     81  O   UNL     1     -13.069   2.297  13.020  1.00  0.00    -0.237 OA
ATOM     82  O   UNL     1     -13.093   0.505  11.315  1.00  0.00    -0.237 OA
ATOM     83  O   UNL     1     -10.947   1.380  12.147  1.00  0.00    -0.744 OA
ENDBRANCH  79  80
ENDBRANCH  47  72
BRANCH  59  84
ATOM     84  C   UNL     1     -15.492  10.950   7.709  1.00  0.00     0.058 A 
ATOM     85  C   UNL     1     -14.992  11.607   8.845  1.00  0.00     0.135 A 
ATOM     86  C   UNL     1     -16.859  11.089   7.420  1.00  0.00     0.135 A 
ATOM     87  F   UNL     1     -13.693  11.502   9.168  1.00  0.00    -0.206 F 
ATOM     88  C   UNL     1     -15.823  12.342   9.684  1.00  0.00     0.059 A 
ATOM     89  C   UNL     1     -17.704  11.839   8.233  1.00  0.00     0.059 A 
ATOM     90  F   UNL     1     -17.386  10.491   6.340  1.00  0.00    -0.206 F 
ATOM     91  C   UNL     1     -17.180  12.446   9.374  1.00  0.00     0.060 A 
BRANCH  91  92
ATOM     92  S   UNL     1     -18.252  13.400  10.470  1.00  0.00     0.124 S 
ATOM     93  O   UNL     1     -18.451  12.464  11.571  1.00  0.00    -0.237 OA
ATOM     94  O   UNL     1     -17.434  14.570  10.773  1.00  0.00    -0.237 OA
ATOM     95  O   UNL     1     -19.428  13.663   9.647  1.00  0.00    -0.744 OA
ENDBRANCH  91  92
ENDBRANCH  59  84
ENDBRANCH  33  34
ENDBRANCH  25  28
ENDBRANCH  23  24
ENDBRANCH   1  23
TORSDOF 17
