REMARK SMILES COc1ccc([C@H](C(=O)NCCCNC(=O)c2ccc(-c3c4nc(c(-c5c(F)cc(S(=O)(=O)[O-])cc5F)c5ccc([nH]5)c(-c5c(F)cc(S(=O)(=O)[O-])cc5F)c5nc(c(-c6c(F)cc(S(=O)(=O)[O-])cc6F)c6ccc3[nH]6)C=C5)C=C4)cc2)[N@@H+]2CCC[N@H+](Cc3ccccn3)CC2)cn1
REMARK SMILES IDX 8 1 9 2 10 3 7 5 6 6 3 7 4 8 98 9 5 10 97 11 2 12 1 13 83 14
REMARK SMILES IDX 84 16 85 17 86 18 87 19 88 21 89 22 90 23 94 24 91 25 93 26
REMARK SMILES IDX 92 27 95 28 96 30 11 32 12 33 13 34 14 35 15 36 16 38 17 39
REMARK SMILES IDX 18 40 82 41 19 42 81 43 20 44 21 45 22 46 75 47 23 48 80 49
REMARK SMILES IDX 74 50 76 51 24 52 79 53 73 54 72 55 25 57 59 58 38 59 58 60
REMARK SMILES IDX 39 61 42 62 57 63 77 64 40 65 41 66 56 68 78 69 43 70 26 71
REMARK SMILES IDX 27 72 36 73 28 74 29 75 35 76 37 77 30 78 31 79 32 80 33 81
REMARK SMILES IDX 34 82 60 83 61 84 70 85 62 86 63 87 69 88 71 89 64 90 65 91
REMARK SMILES IDX 66 92 67 93 68 94 44 95 45 96 54 97 46 98 47 99 53 100
REMARK SMILES IDX 55 101 48 102 49 103 50 104 51 105 52 106
REMARK H PARENT 10 4 83 15 87 20 14 37 76 56 42 67
REMARK Flexibility Score: 80.00
ROOT
ATOM      1  C   UNL     1       1.337   3.505   4.280  1.00  0.00     0.283 C 
ATOM      2  O   UNL     1       0.252   3.164   3.805  1.00  0.00    -0.268 OA
ATOM      3  N   UNL     1       2.302   3.765   3.349  1.00  0.00    -0.351 N 
ATOM      4  H   UNL     1       2.233   3.265   2.503  1.00  0.00     0.163 HD
ENDROOT
BRANCH   1   5
ATOM      5  C   UNL     1       1.636   3.744   5.790  1.00  0.00     0.307 C 
BRANCH   5   6
ATOM      6  C   UNL     1       1.283   5.143   6.263  1.00  0.00     0.038 A 
ATOM      7  C   UNL     1      -0.136   6.975   7.685  1.00  0.00     0.212 A 
ATOM      8  C   UNL     1       1.021   6.456   8.253  1.00  0.00     0.069 A 
ATOM      9  N   UNL     1      -0.486   6.761   6.402  1.00  0.00    -0.222 NA
ATOM     10  C   UNL     1       1.763   5.549   7.513  1.00  0.00     0.017 A 
ATOM     11  C   UNL     1       0.224   5.850   5.712  1.00  0.00     0.125 A 
BRANCH   7  12
ATOM     12  O   UNL     1      -1.128   7.587   8.392  1.00  0.00    -0.481 OA
ATOM     13  C   UNL     1      -0.721   8.322   9.528  1.00  0.00     0.280 C 
ENDBRANCH   7  12
ENDBRANCH   5   6
BRANCH   5  14
ATOM     14  N   UNL     1       0.957   2.813   6.763  1.00  0.00    -0.316 N 
ATOM     15  H   UNL     1       0.895   3.304   7.654  1.00  0.00     0.349 HD
BRANCH  14  16
ATOM     16  C   UNL     1       1.767   1.656   7.098  1.00  0.00     0.269 C 
BRANCH  16  17
ATOM     17  C   UNL     1       1.435   0.921   8.403  1.00  0.00     0.123 C 
BRANCH  17  18
ATOM     18  C   UNL     1       0.098   0.199   8.616  1.00  0.00     0.268 C 
BRANCH  18  19
ATOM     19  N   UNL     1      -1.015   0.430   7.727  1.00  0.00    -0.325 N 
ATOM     20  H   UNL     1      -1.812   0.112   8.278  1.00  0.00     0.348 HD
BRANCH  19  21
ATOM     21  C   UNL     1      -1.212  -0.502   6.602  1.00  0.00     0.319 C 
BRANCH  21  22
ATOM     22  C   UNL     1      -0.106  -0.668   5.571  1.00  0.00     0.095 A 
ATOM     23  C   UNL     1       1.058  -1.378   5.862  1.00  0.00     0.030 A 
ATOM     24  N   UNL     1      -0.271  -0.037   4.382  1.00  0.00    -0.255 NA
ATOM     25  C   UNL     1       2.128  -1.322   4.966  1.00  0.00     0.004 A 
ATOM     26  C   UNL     1       0.779   0.006   3.533  1.00  0.00     0.111 A 
ATOM     27  C   UNL     1       1.998  -0.593   3.790  1.00  0.00     0.020 A 
ENDBRANCH  21  22
ENDBRANCH  19  21
BRANCH  19  28
ATOM     28  C   UNL     1      -1.307   1.839   7.500  1.00  0.00     0.324 CG0
ATOM     29  G   UNL     1      -0.460   2.574   6.456  1.00  0.00     0.000 G0
ENDBRANCH  19  28
ENDBRANCH  18  19
ENDBRANCH  17  18
ENDBRANCH  16  17
ENDBRANCH  14  16
BRANCH  14  30
ATOM     30  C   UNL     1      -0.460   2.574   6.456  1.00  0.00     0.325 CG0
ATOM     31  G   UNL     1      -1.307   1.839   7.500  1.00  0.00     0.000 G0
ENDBRANCH  14  30
ENDBRANCH   5  14
ENDBRANCH   1   5
BRANCH   3  32
ATOM     32  C   UNL     1       3.413   4.685   3.456  1.00  0.00     0.118 C 
BRANCH  32  33
ATOM     33  C   UNL     1       4.691   4.123   2.860  1.00  0.00     0.042 C 
BRANCH  33  34
ATOM     34  C   UNL     1       4.560   3.651   1.416  1.00  0.00     0.118 C 
BRANCH  34  35
ATOM     35  N   UNL     1       4.120   4.699   0.505  1.00  0.00    -0.352 N 
ATOM     36  C   UNL     1       4.793   5.340  -0.510  1.00  0.00     0.251 C 
ATOM     37  H   UNL     1       3.191   4.998   0.638  1.00  0.00     0.163 HD
ATOM     38  O   UNL     1       4.295   6.323  -1.041  1.00  0.00    -0.269 OA
BRANCH  36  39
ATOM     39  C   UNL     1       6.125   4.858  -0.936  1.00  0.00     0.039 A 
ATOM     40  C   UNL     1       7.137   5.790  -1.177  1.00  0.00     0.014 A 
ATOM     41  C   UNL     1       6.378   3.494  -1.093  1.00  0.00     0.014 A 
ATOM     42  C   UNL     1       8.424   5.346  -1.489  1.00  0.00     0.010 A 
ATOM     43  C   UNL     1       7.680   3.052  -1.302  1.00  0.00     0.010 A 
ATOM     44  C   UNL     1       8.718   3.973  -1.505  1.00  0.00    -0.014 A 
BRANCH  44  45
ATOM     45  C   UNL     1      10.100   3.476  -1.730  1.00  0.00     0.031 A 
ATOM     46  C   UNL     1      10.402   2.592  -2.911  1.00  0.00     0.074 A 
ATOM     47  C   UNL     1      11.066   3.761  -0.834  1.00  0.00     0.049 A 
ATOM     48  N   UNL     1      11.521   1.997  -3.233  1.00  0.00    -0.248 NA
ATOM     49  C   UNL     1       9.289   2.314  -3.835  1.00  0.00     0.031 C 
ATOM     50  C   UNL     1      10.889   4.570   0.375  1.00  0.00     0.029 A 
ATOM     51  N   UNL     1      12.389   3.397  -0.794  1.00  0.00    -0.354 N 
ATOM     52  C   UNL     1      11.246   1.269  -4.385  1.00  0.00     0.074 A 
ATOM     53  C   UNL     1       9.838   1.443  -4.667  1.00  0.00     0.031 C 
ATOM     54  C   UNL     1      12.064   4.668   1.016  1.00  0.00     0.029 A 
ATOM     55  C   UNL     1      13.067   3.891   0.296  1.00  0.00     0.049 A 
ATOM     56  H   UNL     1      12.813   2.834  -1.482  1.00  0.00     0.167 HD
ATOM     57  C   UNL     1      12.094   0.544  -5.154  1.00  0.00     0.037 A 
ATOM     58  C   UNL     1      14.350   3.731   0.676  1.00  0.00     0.037 A 
ATOM     59  C   UNL     1      13.498   0.391  -4.875  1.00  0.00     0.049 A 
ATOM     60  C   UNL     1      15.267   2.899  -0.179  1.00  0.00     0.074 A 
ATOM     61  C   UNL     1      14.454  -0.279  -5.618  1.00  0.00     0.029 A 
ATOM     62  N   UNL     1      14.147   0.910  -3.764  1.00  0.00    -0.354 N 
ATOM     63  N   UNL     1      15.004   2.269  -1.300  1.00  0.00    -0.248 NA
ATOM     64  C   UNL     1      16.655   2.756   0.280  1.00  0.00     0.031 C 
ATOM     65  C   UNL     1      15.669  -0.213  -4.928  1.00  0.00     0.029 A 
ATOM     66  C   UNL     1      15.485   0.551  -3.786  1.00  0.00     0.049 A 
ATOM     67  H   UNL     1      13.720   1.452  -3.062  1.00  0.00     0.167 HD
ATOM     68  C   UNL     1      16.202   1.685  -1.698  1.00  0.00     0.074 A 
ATOM     69  C   UNL     1      17.191   2.044  -0.702  1.00  0.00     0.031 C 
ATOM     70  C   UNL     1      16.460   0.923  -2.790  1.00  0.00     0.037 A 
BRANCH  57  71
ATOM     71  C   UNL     1      11.522  -0.138  -6.369  1.00  0.00     0.058 A 
ATOM     72  C   UNL     1      11.053   0.591  -7.475  1.00  0.00     0.135 A 
ATOM     73  C   UNL     1      11.457  -1.539  -6.438  1.00  0.00     0.135 A 
ATOM     74  F   UNL     1      11.077   1.934  -7.460  1.00  0.00    -0.206 F 
ATOM     75  C   UNL     1      10.505  -0.041  -8.585  1.00  0.00     0.059 A 
ATOM     76  C   UNL     1      10.944  -2.194  -7.553  1.00  0.00     0.059 A 
ATOM     77  F   UNL     1      11.891  -2.288  -5.411  1.00  0.00    -0.206 F 
ATOM     78  C   UNL     1      10.452  -1.435  -8.614  1.00  0.00     0.060 A 
BRANCH  78  79
ATOM     79  S   UNL     1       9.726  -2.239 -10.058  1.00  0.00     0.124 S 
ATOM     80  O   UNL     1       8.311  -1.930  -9.881  1.00  0.00    -0.237 OA
ATOM     81  O   UNL     1      10.390  -1.554 -11.162  1.00  0.00    -0.237 OA
ATOM     82  O   UNL     1      10.088  -3.642  -9.885  1.00  0.00    -0.744 OA
ENDBRANCH  78  79
ENDBRANCH  57  71
BRANCH  58  83
ATOM     83  C   UNL     1      14.850   4.396   1.910  1.00  0.00     0.058 A 
ATOM     84  C   UNL     1      15.771   5.452   1.835  1.00  0.00     0.135 A 
ATOM     85  C   UNL     1      14.415   3.999   3.184  1.00  0.00     0.135 A 
ATOM     86  F   UNL     1      16.223   5.863   0.641  1.00  0.00    -0.206 F 
ATOM     87  C   UNL     1      16.256   6.080   2.978  1.00  0.00     0.059 A 
ATOM     88  C   UNL     1      14.863   4.631   4.340  1.00  0.00     0.059 A 
ATOM     89  F   UNL     1      13.521   3.005   3.312  1.00  0.00    -0.206 F 
ATOM     90  C   UNL     1      15.792   5.664   4.227  1.00  0.00     0.060 A 
BRANCH  90  91
ATOM     91  S   UNL     1      16.392   6.519   5.700  1.00  0.00     0.124 S 
ATOM     92  O   UNL     1      17.771   6.050   5.770  1.00  0.00    -0.237 OA
ATOM     93  O   UNL     1      16.210   7.920   5.335  1.00  0.00    -0.237 OA
ATOM     94  O   UNL     1      15.506   6.033   6.754  1.00  0.00    -0.744 OA
ENDBRANCH  90  91
ENDBRANCH  58  83
BRANCH  70  95
ATOM     95  C   UNL     1      17.877   0.457  -2.992  1.00  0.00     0.058 A 
ATOM     96  C   UNL     1      18.456  -0.530  -2.180  1.00  0.00     0.135 A 
ATOM     97  C   UNL     1      18.646   0.968  -4.052  1.00  0.00     0.135 A 
ATOM     98  F   UNL     1      17.768  -1.046  -1.149  1.00  0.00    -0.206 F 
ATOM     99  C   UNL     1      19.755  -0.979  -2.396  1.00  0.00     0.059 A 
ATOM    100  C   UNL     1      19.935   0.511  -4.306  1.00  0.00     0.059 A 
ATOM    101  F   UNL     1      18.137   1.907  -4.865  1.00  0.00    -0.206 F 
ATOM    102  C   UNL     1      20.485  -0.455  -3.465  1.00  0.00     0.060 A 
BRANCH 102 103
ATOM    103  S   UNL     1      22.155  -1.076  -3.757  1.00  0.00     0.124 S 
ATOM    104  O   UNL     1      22.890  -0.477  -2.648  1.00  0.00    -0.237 OA
ATOM    105  O   UNL     1      21.966  -2.521  -3.687  1.00  0.00    -0.237 OA
ATOM    106  O   UNL     1      22.484  -0.557  -5.082  1.00  0.00    -0.744 OA
ENDBRANCH 102 103
ENDBRANCH  70  95
ENDBRANCH  44  45
ENDBRANCH  36  39
ENDBRANCH  34  35
ENDBRANCH  33  34
ENDBRANCH  32  33
ENDBRANCH   3  32
TORSDOF 18
