REMARK SMILES C[C@H]1[C@H](C(=O)NCCCNC(=O)c2ccc(-c3c4nc(c(-c5c(F)cc(S(=O)(=O)[O-])cc5F)c5ccc([nH]5)c(-c5c(F)cc(S(=O)(=O)[O-])cc5F)c5nc(c(-c6c(F)cc(S(=O)(=O)[O-])cc6F)c6ccc3[nH]6)C=C5)C=C4)cc2)CCN1C(=O)CC[NH2+]C1CC1
REMARK SMILES IDX 7 1 6 2 4 3 5 4 3 6 1 7 2 8 81 9 79 10 80 11 82 12 83 13
REMARK SMILES IDX 84 14 85 15 86 16 87 19 88 20 89 21 8 22 9 23 10 24 11 25
REMARK SMILES IDX 12 27 13 28 14 29 78 30 15 31 77 32 16 33 17 34 18 35 71 36
REMARK SMILES IDX 19 37 76 38 70 39 72 40 20 41 75 42 69 43 68 44 21 46 55 47
REMARK SMILES IDX 34 48 54 49 35 50 38 51 53 52 73 53 36 54 37 55 52 57 74 58
REMARK SMILES IDX 39 59 22 60 23 61 32 62 24 63 25 64 31 65 33 66 26 67 27 68
REMARK SMILES IDX 28 69 29 70 30 71 56 72 57 73 66 74 58 75 59 76 65 77 67 78
REMARK SMILES IDX 60 79 61 80 62 81 63 82 64 83 40 84 41 85 50 86 42 87 43 88
REMARK SMILES IDX 49 89 51 90 44 91 45 92 46 93 47 94 48 95
REMARK H PARENT 6 5 86 17 86 18 10 26 72 45 38 56
REMARK Flexibility Score: inf
ROOT
ATOM      1  C   UNL     1      -1.263   0.492   3.016  1.00  0.00     0.117 C 
ENDROOT
BRANCH   1   2
ATOM      2  N   UNL     1      -0.902   1.818   2.550  1.00  0.00    -0.356 N 
ATOM      3  C   UNL     1      -0.648   2.285   1.304  1.00  0.00     0.225 C 
ATOM      4  O   UNL     1      -0.331   3.473   1.198  1.00  0.00    -0.275 OA
ATOM      5  H   UNL     1      -0.831   2.495   3.261  1.00  0.00     0.163 HD
BRANCH   3   6
ATOM      6  C   UNL     1      -0.698   1.406   0.071  1.00  0.00     0.102 C 
ATOM      7  C   UNL     1       1.241   0.564  -1.229  1.00  0.00     0.032 C 
ATOM      8  C   UNL     1       0.432   0.369   0.053  1.00  0.00     0.094 C 
ATOM      9  N   UNL     1      -0.236  -0.928   0.029  1.00  0.00    -0.339 N 
ATOM     10  C   UNL     1      -2.000   0.639  -0.173  1.00  0.00     0.037 C 
ATOM     11  C   UNL     1      -1.581  -0.792  -0.492  1.00  0.00     0.120 C 
BRANCH   9  12
ATOM     12  C   UNL     1       0.278  -2.174   0.335  1.00  0.00     0.228 C 
ATOM     13  O   UNL     1      -0.340  -3.201   0.041  1.00  0.00    -0.275 OA
BRANCH  12  14
ATOM     14  C   UNL     1       1.595  -2.276   1.093  1.00  0.00     0.161 C 
BRANCH  14  15
ATOM     15  C   UNL     1       2.813  -2.434   0.181  1.00  0.00     0.270 C 
BRANCH  15  16
ATOM     16  N   UNL     1       3.678  -1.248   0.216  1.00  0.00    -0.343 N 
ATOM     17  H   UNL     1       4.136  -1.215   1.127  1.00  0.00     0.346 HD
ATOM     18  H   UNL     1       3.074  -0.444   0.044  1.00  0.00     0.346 HD
BRANCH  16  19
ATOM     19  C   UNL     1       4.714  -1.222  -0.820  1.00  0.00     0.182 C 
ATOM     20  C   UNL     1       4.388  -1.252  -2.289  1.00  0.00     0.071 C 
ATOM     21  C   UNL     1       4.856   0.024  -1.660  1.00  0.00     0.071 C 
ENDBRANCH  16  19
ENDBRANCH  15  16
ENDBRANCH  14  15
ENDBRANCH  12  14
ENDBRANCH   9  12
ENDBRANCH   3   6
ENDBRANCH   1   2
BRANCH   1  22
ATOM     22  C   UNL     1      -0.246  -0.066   3.999  1.00  0.00     0.042 C 
BRANCH  22  23
ATOM     23  C   UNL     1      -0.117   0.745   5.280  1.00  0.00     0.118 C 
BRANCH  23  24
ATOM     24  N   UNL     1      -1.389   0.899   5.973  1.00  0.00    -0.352 N 
ATOM     25  C   UNL     1      -1.782   0.450   7.206  1.00  0.00     0.251 C 
ATOM     26  H   UNL     1      -2.073   1.406   5.478  1.00  0.00     0.163 HD
ATOM     27  O   UNL     1      -2.976   0.481   7.507  1.00  0.00    -0.269 OA
BRANCH  25  28
ATOM     28  C   UNL     1      -0.787  -0.075   8.162  1.00  0.00     0.039 A 
ATOM     29  C   UNL     1      -1.113  -1.190   8.937  1.00  0.00     0.014 A 
ATOM     30  C   UNL     1       0.459   0.542   8.310  1.00  0.00     0.014 A 
ATOM     31  C   UNL     1      -0.168  -1.717   9.818  1.00  0.00     0.010 A 
ATOM     32  C   UNL     1       1.431  -0.042   9.114  1.00  0.00     0.010 A 
ATOM     33  C   UNL     1       1.125  -1.170   9.886  1.00  0.00    -0.014 A 
BRANCH  33  34
ATOM     34  C   UNL     1       2.163  -1.766  10.763  1.00  0.00     0.031 A 
ATOM     35  C   UNL     1       2.760  -0.964  11.888  1.00  0.00     0.074 A 
ATOM     36  C   UNL     1       2.603  -3.015  10.511  1.00  0.00     0.049 A 
ATOM     37  N   UNL     1       3.697  -1.302  12.735  1.00  0.00    -0.248 NA
ATOM     38  C   UNL     1       2.258   0.409  12.068  1.00  0.00     0.031 C 
ATOM     39  C   UNL     1       2.145  -3.865   9.409  1.00  0.00     0.029 A 
ATOM     40  N   UNL     1       3.536  -3.785  11.157  1.00  0.00    -0.354 N 
ATOM     41  C   UNL     1       3.900  -0.188  13.541  1.00  0.00     0.074 A 
ATOM     42  C   UNL     1       3.038   0.859  13.039  1.00  0.00     0.031 C 
ATOM     43  C   UNL     1       2.777  -5.047   9.473  1.00  0.00     0.029 A 
ATOM     44  C   UNL     1       3.712  -5.026  10.593  1.00  0.00     0.049 A 
ATOM     45  H   UNL     1       4.032  -3.478  11.950  1.00  0.00     0.167 HD
ATOM     46  C   UNL     1       4.708  -0.058  14.621  1.00  0.00     0.037 A 
ATOM     47  C   UNL     1       4.538  -6.033  10.937  1.00  0.00     0.037 A 
ATOM     48  C   UNL     1       5.554  -1.112  15.120  1.00  0.00     0.049 A 
ATOM     49  C   UNL     1       5.425  -5.868  12.139  1.00  0.00     0.074 A 
ATOM     50  C   UNL     1       6.375  -1.101  16.234  1.00  0.00     0.029 A 
ATOM     51  N   UNL     1       5.690  -2.363  14.536  1.00  0.00    -0.354 N 
ATOM     52  N   UNL     1       5.554  -4.831  12.933  1.00  0.00    -0.248 NA
ATOM     53  C   UNL     1       6.271  -7.013  12.502  1.00  0.00     0.031 C 
ATOM     54  C   UNL     1       7.045  -2.328  16.294  1.00  0.00     0.029 A 
ATOM     55  C   UNL     1       6.598  -3.126  15.253  1.00  0.00     0.049 A 
ATOM     56  H   UNL     1       5.212  -2.665  13.730  1.00  0.00     0.167 HD
ATOM     57  C   UNL     1       6.479  -5.205  13.901  1.00  0.00     0.074 A 
ATOM     58  C   UNL     1       6.859  -6.572  13.605  1.00  0.00     0.031 C 
ATOM     59  C   UNL     1       6.971  -4.484  14.940  1.00  0.00     0.037 A 
BRANCH  46  60
ATOM     60  C   UNL     1       4.709   1.267  15.335  1.00  0.00     0.058 A 
ATOM     61  C   UNL     1       3.590   1.717  16.057  1.00  0.00     0.135 A 
ATOM     62  C   UNL     1       5.848   2.088  15.324  1.00  0.00     0.135 A 
ATOM     63  F   UNL     1       2.467   0.982  16.090  1.00  0.00    -0.206 F 
ATOM     64  C   UNL     1       3.588   2.945  16.710  1.00  0.00     0.059 A 
ATOM     65  C   UNL     1       5.880   3.306  15.998  1.00  0.00     0.059 A 
ATOM     66  F   UNL     1       6.947   1.711  14.651  1.00  0.00    -0.206 F 
ATOM     67  C   UNL     1       4.739   3.733  16.675  1.00  0.00     0.060 A 
BRANCH  67  68
ATOM     68  S   UNL     1       4.719   5.322  17.531  1.00  0.00     0.124 S 
ATOM     69  O   UNL     1       3.842   6.107  16.667  1.00  0.00    -0.237 OA
ATOM     70  O   UNL     1       4.170   4.967  18.835  1.00  0.00    -0.237 OA
ATOM     71  O   UNL     1       6.122   5.726  17.533  1.00  0.00    -0.744 OA
ENDBRANCH  67  68
ENDBRANCH  46  60
BRANCH  47  72
ATOM     72  C   UNL     1       4.544  -7.289  10.139  1.00  0.00     0.058 A 
ATOM     73  C   UNL     1       4.036  -8.486  10.666  1.00  0.00     0.135 A 
ATOM     74  C   UNL     1       5.036  -7.311   8.824  1.00  0.00     0.135 A 
ATOM     75  F   UNL     1       3.559  -8.518  11.919  1.00  0.00    -0.206 F 
ATOM     76  C   UNL     1       4.030  -9.663   9.925  1.00  0.00     0.059 A 
ATOM     77  C   UNL     1       5.014  -8.469   8.054  1.00  0.00     0.059 A 
ATOM     78  F   UNL     1       5.515  -6.188   8.267  1.00  0.00    -0.206 F 
ATOM     79  C   UNL     1       4.517  -9.643   8.617  1.00  0.00     0.060 A 
BRANCH  79  80
ATOM     80  S   UNL     1       4.455 -11.165   7.646  1.00  0.00     0.124 S 
ATOM     81  O   UNL     1       5.500 -11.960   8.279  1.00  0.00    -0.237 OA
ATOM     82  O   UNL     1       3.084 -11.615   7.872  1.00  0.00    -0.237 OA
ATOM     83  O   UNL     1       4.741 -10.709   6.289  1.00  0.00    -0.744 OA
ENDBRANCH  79  80
ENDBRANCH  47  72
BRANCH  59  84
ATOM     84  C   UNL     1       7.956  -5.170  15.847  1.00  0.00     0.058 A 
ATOM     85  C   UNL     1       9.259  -5.478  15.426  1.00  0.00     0.135 A 
ATOM     86  C   UNL     1       7.599  -5.498  17.166  1.00  0.00     0.135 A 
ATOM     87  F   UNL     1       9.651  -5.191  14.175  1.00  0.00    -0.206 F 
ATOM     88  C   UNL     1      10.162  -6.120  16.267  1.00  0.00     0.059 A 
ATOM     89  C   UNL     1       8.497  -6.111  18.035  1.00  0.00     0.059 A 
ATOM     90  F   UNL     1       6.370  -5.214  17.625  1.00  0.00    -0.206 F 
ATOM     91  C   UNL     1       9.771  -6.434  17.570  1.00  0.00     0.060 A 
BRANCH  91  92
ATOM     92  S   UNL     1      10.955  -7.258  18.654  1.00  0.00     0.124 S 
ATOM     93  O   UNL     1      10.975  -8.606  18.097  1.00  0.00    -0.237 OA
ATOM     94  O   UNL     1      12.166  -6.469  18.450  1.00  0.00    -0.237 OA
ATOM     95  O   UNL     1      10.349  -7.134  19.977  1.00  0.00    -0.744 OA
ENDBRANCH  91  92
ENDBRANCH  59  84
ENDBRANCH  33  34
ENDBRANCH  25  28
ENDBRANCH  23  24
ENDBRANCH  22  23
ENDBRANCH   1  22
TORSDOF 18
