REMARK SMILES O=C(NCCCNC(=O)c1ccc(-c2c3nc(c(-c4c(F)cc(S(=O)(=O)[O-])cc4F)c4ccc([nH]4)c(-c4c(F)cc(S(=O)(=O)[O-])cc4F)c4nc(c(-c5c(F)cc(S(=O)(=O)[O-])cc5F)c5ccc2[nH]5)C=C4)C=C3)cc1)c1ccc(NC(=O)[C@H]2CCS(=O)(=O)C2)cc1
REMARK SMILES IDX 5 1 4 2 3 3 1 4 2 5 76 7 77 8 91 9 78 10 90 11 79 12 80 13
REMARK SMILES IDX 81 14 82 16 83 17 84 18 89 19 85 20 86 21 87 22 88 23 6 24
REMARK SMILES IDX 7 25 8 26 9 28 10 29 11 30 75 31 12 32 74 33 13 34 14 35
REMARK SMILES IDX 15 36 68 37 16 38 73 39 67 40 69 41 17 42 72 43 66 44 65 45
REMARK SMILES IDX 18 47 52 48 31 49 51 50 32 51 35 52 50 53 70 54 33 55 34 56
REMARK SMILES IDX 49 58 71 59 36 60 19 61 20 62 29 63 21 64 22 65 28 66 30 67
REMARK SMILES IDX 23 68 24 69 25 70 26 71 27 72 53 73 54 74 63 75 55 76 56 77
REMARK SMILES IDX 62 78 64 79 57 80 58 81 59 82 60 83 61 84 37 85 38 86 47 87
REMARK SMILES IDX 39 88 40 89 46 90 48 91 41 92 42 93 43 94 44 95 45 96
REMARK H PARENT 3 6 80 15 7 27 69 46 35 57
REMARK Flexibility Score: inf
ROOT
ATOM      1  C   UNL     1       0.355   2.324  -1.322  1.00  0.00     0.042 C 
ENDROOT
BRANCH   1   2
ATOM      2  C   UNL     1       0.936   2.885  -2.606  1.00  0.00     0.118 C 
BRANCH   2   3
ATOM      3  N   UNL     1       0.865   4.345  -2.671  1.00  0.00    -0.352 N 
ATOM      4  O   UNL     1       1.651   6.470  -2.572  1.00  0.00    -0.269 OA
ATOM      5  C   UNL     1       1.883   5.272  -2.689  1.00  0.00     0.251 C 
ATOM      6  H   UNL     1      -0.045   4.719  -2.707  1.00  0.00     0.163 HD
BRANCH   5   7
ATOM      7  C   UNL     1       3.271   4.807  -2.879  1.00  0.00     0.039 A 
ATOM      8  C   UNL     1       3.523   3.861  -3.857  1.00  0.00     0.016 A 
ATOM      9  C   UNL     1       4.323   5.283  -2.100  1.00  0.00     0.016 A 
ATOM     10  C   UNL     1       4.771   3.259  -3.939  1.00  0.00     0.027 A 
ATOM     11  C   UNL     1       5.605   4.721  -2.245  1.00  0.00     0.027 A 
ATOM     12  C   UNL     1       5.842   3.666  -3.145  1.00  0.00     0.041 A 
BRANCH  12  13
ATOM     13  N   UNL     1       7.156   3.135  -3.200  1.00  0.00    -0.326 N 
ATOM     14  C   UNL     1       7.730   2.069  -3.856  1.00  0.00     0.228 C 
ATOM     15  H   UNL     1       7.797   3.638  -2.647  1.00  0.00     0.169 HD
ATOM     16  O   UNL     1       8.953   1.931  -3.823  1.00  0.00    -0.274 OA
BRANCH  14  17
ATOM     17  C   UNL     1       6.859   1.048  -4.535  1.00  0.00     0.095 C 
ATOM     18  C   UNL     1       7.454   0.055  -5.533  1.00  0.00     0.030 C 
ATOM     19  C   UNL     1       6.195   0.170  -3.478  1.00  0.00     0.150 C 
ATOM     20  C   UNL     1       6.250  -0.817  -5.932  1.00  0.00     0.138 C 
ATOM     21  S   UNL     1       5.284  -1.012  -4.434  1.00  0.00     0.151 S 
ATOM     22  O   UNL     1       3.962  -0.465  -4.657  1.00  0.00    -0.229 OA
ATOM     23  O   UNL     1       5.506  -2.334  -3.890  1.00  0.00    -0.229 OA
ENDBRANCH  14  17
ENDBRANCH  12  13
ENDBRANCH   5   7
ENDBRANCH   2   3
ENDBRANCH   1   2
BRANCH   1  24
ATOM     24  C   UNL     1      -1.134   2.561  -1.168  1.00  0.00     0.118 C 
BRANCH  24  25
ATOM     25  N   UNL     1      -1.922   1.902  -2.199  1.00  0.00    -0.352 N 
ATOM     26  C   UNL     1      -2.966   1.019  -2.083  1.00  0.00     0.251 C 
ATOM     27  H   UNL     1      -1.666   2.124  -3.124  1.00  0.00     0.163 HD
ATOM     28  O   UNL     1      -3.391   0.459  -3.091  1.00  0.00    -0.269 OA
BRANCH  26  29
ATOM     29  C   UNL     1      -3.565   0.727  -0.761  1.00  0.00     0.039 A 
ATOM     30  C   UNL     1      -3.992  -0.576  -0.492  1.00  0.00     0.014 A 
ATOM     31  C   UNL     1      -3.730   1.724   0.204  1.00  0.00     0.014 A 
ATOM     32  C   UNL     1      -4.544  -0.880   0.754  1.00  0.00     0.010 A 
ATOM     33  C   UNL     1      -4.173   1.395   1.480  1.00  0.00     0.010 A 
ATOM     34  C   UNL     1      -4.614   0.096   1.762  1.00  0.00    -0.014 A 
BRANCH  34  35
ATOM     35  C   UNL     1      -5.186  -0.221   3.096  1.00  0.00     0.031 A 
ATOM     36  C   UNL     1      -6.415   0.502   3.585  1.00  0.00     0.074 A 
ATOM     37  C   UNL     1      -4.580  -1.133   3.882  1.00  0.00     0.049 A 
ATOM     38  N   UNL     1      -7.059   0.363   4.715  1.00  0.00    -0.248 NA
ATOM     39  C   UNL     1      -6.979   1.537   2.702  1.00  0.00     0.031 C 
ATOM     40  C   UNL     1      -3.347  -1.851   3.549  1.00  0.00     0.029 A 
ATOM     41  N   UNL     1      -4.917  -1.613   5.122  1.00  0.00    -0.354 N 
ATOM     42  C   UNL     1      -8.089   1.298   4.684  1.00  0.00     0.074 A 
ATOM     43  C   UNL     1      -7.944   2.043   3.454  1.00  0.00     0.031 C 
ATOM     44  C   UNL     1      -3.053  -2.705   4.542  1.00  0.00     0.029 A 
ATOM     45  C   UNL     1      -4.053  -2.570   5.597  1.00  0.00     0.049 A 
ATOM     46  H   UNL     1      -5.705  -1.301   5.624  1.00  0.00     0.167 HD
ATOM     47  C   UNL     1      -9.082   1.498   5.582  1.00  0.00     0.037 A 
ATOM     48  C   UNL     1      -4.064  -3.264   6.752  1.00  0.00     0.037 A 
ATOM     49  C   UNL     1      -9.234   0.733   6.793  1.00  0.00     0.049 A 
ATOM     50  C   UNL     1      -5.189  -3.041   7.726  1.00  0.00     0.074 A 
ATOM     51  C   UNL     1     -10.241   0.810   7.739  1.00  0.00     0.029 A 
ATOM     52  N   UNL     1      -8.351  -0.245   7.229  1.00  0.00    -0.354 N 
ATOM     53  N   UNL     1      -6.200  -2.207   7.643  1.00  0.00    -0.248 NA
ATOM     54  C   UNL     1      -5.186  -3.864   8.942  1.00  0.00     0.031 C 
ATOM     55  C   UNL     1      -9.938  -0.081   8.774  1.00  0.00     0.029 A 
ATOM     56  C   UNL     1      -8.777  -0.762   8.442  1.00  0.00     0.049 A 
ATOM     57  H   UNL     1      -7.542  -0.530   6.747  1.00  0.00     0.167 HD
ATOM     58  C   UNL     1      -6.968  -2.427   8.782  1.00  0.00     0.074 A 
ATOM     59  C   UNL     1      -6.313  -3.483   9.526  1.00  0.00     0.031 C 
ATOM     60  C   UNL     1      -8.113  -1.812   9.174  1.00  0.00     0.037 A 
BRANCH  47  61
ATOM     61  C   UNL     1     -10.082   2.586   5.289  1.00  0.00     0.058 A 
ATOM     62  C   UNL     1     -10.994   2.490   4.224  1.00  0.00     0.135 A 
ATOM     63  C   UNL     1     -10.146   3.732   6.099  1.00  0.00     0.135 A 
ATOM     64  F   UNL     1     -10.970   1.426   3.406  1.00  0.00    -0.206 F 
ATOM     65  C   UNL     1     -11.907   3.505   3.952  1.00  0.00     0.059 A 
ATOM     66  C   UNL     1     -11.074   4.743   5.866  1.00  0.00     0.059 A 
ATOM     67  F   UNL     1      -9.300   3.879   7.130  1.00  0.00    -0.206 F 
ATOM     68  C   UNL     1     -11.939   4.628   4.779  1.00  0.00     0.060 A 
BRANCH  68  69
ATOM     69  S   UNL     1     -13.130   5.934   4.413  1.00  0.00     0.124 S 
ATOM     70  O   UNL     1     -12.558   6.520   3.205  1.00  0.00    -0.237 OA
ATOM     71  O   UNL     1     -14.368   5.183   4.227  1.00  0.00    -0.237 OA
ATOM     72  O   UNL     1     -13.086   6.779   5.602  1.00  0.00    -0.744 OA
ENDBRANCH  68  69
ENDBRANCH  47  61
BRANCH  48  73
ATOM     73  C   UNL     1      -2.990  -4.255   7.031  1.00  0.00     0.058 A 
ATOM     74  C   UNL     1      -3.256  -5.632   7.037  1.00  0.00     0.135 A 
ATOM     75  C   UNL     1      -1.669  -3.845   7.274  1.00  0.00     0.135 A 
ATOM     76  F   UNL     1      -4.503  -6.075   6.815  1.00  0.00    -0.206 F 
ATOM     77  C   UNL     1      -2.258  -6.568   7.291  1.00  0.00     0.059 A 
ATOM     78  C   UNL     1      -0.648  -4.762   7.501  1.00  0.00     0.059 A 
ATOM     79  F   UNL     1      -1.357  -2.540   7.261  1.00  0.00    -0.206 F 
ATOM     80  C   UNL     1      -0.955  -6.122   7.518  1.00  0.00     0.060 A 
BRANCH  80  81
ATOM     81  S   UNL     1       0.344  -7.346   7.792  1.00  0.00     0.124 S 
ATOM     82  O   UNL     1       0.013  -7.832   9.127  1.00  0.00    -0.237 OA
ATOM     83  O   UNL     1       0.116  -8.284   6.696  1.00  0.00    -0.237 OA
ATOM     84  O   UNL     1       1.571  -6.562   7.691  1.00  0.00    -0.744 OA
ENDBRANCH  80  81
ENDBRANCH  48  73
BRANCH  60  85
ATOM     85  C   UNL     1      -8.753  -2.296  10.448  1.00  0.00     0.058 A 
ATOM     86  C   UNL     1      -8.171  -2.070  11.706  1.00  0.00     0.135 A 
ATOM     87  C   UNL     1      -9.980  -2.979  10.409  1.00  0.00     0.135 A 
ATOM     88  F   UNL     1      -6.998  -1.423  11.802  1.00  0.00    -0.206 F 
ATOM     89  C   UNL     1      -8.759  -2.544  12.874  1.00  0.00     0.059 A 
ATOM     90  C   UNL     1     -10.603  -3.431  11.567  1.00  0.00     0.059 A 
ATOM     91  F   UNL     1     -10.589  -3.209   9.235  1.00  0.00    -0.206 F 
ATOM     92  C   UNL     1      -9.974  -3.227  12.794  1.00  0.00     0.060 A 
BRANCH  92  93
ATOM     93  S   UNL     1     -10.725  -3.840  14.316  1.00  0.00     0.124 S 
ATOM     94  O   UNL     1      -9.858  -4.969  14.637  1.00  0.00    -0.237 OA
ATOM     95  O   UNL     1     -10.618  -2.687  15.204  1.00  0.00    -0.237 OA
ATOM     96  O   UNL     1     -12.084  -4.187  13.910  1.00  0.00    -0.744 OA
ENDBRANCH  92  93
ENDBRANCH  60  85
ENDBRANCH  34  35
ENDBRANCH  26  29
ENDBRANCH  24  25
ENDBRANCH   1  24
TORSDOF 15
