REMARK SMILES CO[C@H]1CCC[C@H]1NC(=O)N[C@](C)(C(=O)NCCCNC(=O)c1ccc(-c2c3nc(c(-c4c(F)cc(S(=O)(=O)[O-])cc4F)c4ccc([nH]4)c(-c4c(F)cc(S(=O)(=O)[O-])cc4F)c4nc(c(-c5c(F)cc(S(=O)(=O)[O-])cc5F)c5ccc2[nH]5)C=C4)C=C3)cc1)C(F)(F)F
REMARK SMILES IDX 18 1 17 2 16 3 14 4 15 5 12 7 13 8 11 9 8 10 9 11 10 13 7 15
REMARK SMILES IDX 3 16 4 17 5 18 6 19 2 20 1 21 89 22 90 23 91 24 92 25 19 26
REMARK SMILES IDX 20 27 21 28 22 30 23 31 24 32 88 33 25 34 87 35 26 36 27 37
REMARK SMILES IDX 28 38 81 39 29 40 86 41 80 42 82 43 30 44 85 45 79 46 78 47
REMARK SMILES IDX 31 49 65 50 44 51 64 52 45 53 48 54 63 55 83 56 46 57 47 58
REMARK SMILES IDX 62 60 84 61 49 62 32 63 33 64 42 65 34 66 35 67 41 68 43 69
REMARK SMILES IDX 36 70 37 71 38 72 39 73 40 74 66 75 67 76 76 77 68 78 69 79
REMARK SMILES IDX 75 80 77 81 70 82 71 83 72 84 73 85 74 86 50 87 51 88 60 89
REMARK SMILES IDX 52 90 53 91 59 92 61 93 54 94 55 95 56 96 57 97 58 98
REMARK H PARENT 16 6 8 12 11 14 20 29 82 48 48 59
REMARK Flexibility Score: inf
ROOT
ATOM      1  C   UNL     1      -2.818  -1.905  -3.853  1.00  0.00     0.042 C 
ENDROOT
BRANCH   1   2
ATOM      2  C   UNL     1      -1.367  -2.274  -3.536  1.00  0.00     0.117 C 
BRANCH   2   3
ATOM      3  N   UNL     1      -0.772  -1.296  -2.631  1.00  0.00    -0.354 N 
ATOM      4  C   UNL     1      -0.532  -1.334  -1.279  1.00  0.00     0.255 C 
ATOM      5  O   UNL     1      -0.365  -0.234  -0.746  1.00  0.00    -0.272 OA
ATOM      6  H   UNL     1      -0.492  -0.459  -3.068  1.00  0.00     0.163 HD
BRANCH   4   7
ATOM      7  C   UNL     1      -0.577  -2.664  -0.478  1.00  0.00     0.213 C 
ATOM      8  C   UNL     1      -2.067  -3.083  -0.421  1.00  0.00     0.056 C 
BRANCH   7   9
ATOM      9  N   UNL     1       0.217  -3.667  -1.256  1.00  0.00    -0.316 N 
ATOM     10  N   UNL     1       2.491  -2.944  -1.302  1.00  0.00    -0.333 N 
ATOM     11  C   UNL     1       1.509  -3.807  -1.579  1.00  0.00     0.316 C 
ATOM     12  H   UNL     1       3.345  -3.234  -1.695  1.00  0.00     0.165 HD
ATOM     13  O   UNL     1       1.810  -4.821  -2.215  1.00  0.00    -0.249 OA
ATOM     14  H   UNL     1      -0.341  -4.396  -1.612  1.00  0.00     0.166 HD
BRANCH  10  15
ATOM     15  C   UNL     1       2.637  -1.693  -0.578  1.00  0.00     0.112 C 
ATOM     16  C   UNL     1       3.482  -1.730   0.715  1.00  0.00     0.140 C 
ATOM     17  C   UNL     1       3.606  -0.233   1.021  1.00  0.00     0.034 C 
ATOM     18  C   UNL     1       3.665   0.465  -0.344  1.00  0.00     0.005 C 
ATOM     19  C   UNL     1       3.344  -0.608  -1.387  1.00  0.00     0.028 C 
BRANCH  16  20
ATOM     20  O   UNL     1       4.804  -2.247   0.516  1.00  0.00    -0.379 OA
ATOM     21  C   UNL     1       4.901  -3.638   0.797  1.00  0.00     0.195 C 
ENDBRANCH  16  20
ENDBRANCH  10  15
ENDBRANCH   7   9
BRANCH   7  22
ATOM     22  C   UNL     1      -0.123  -2.558   1.007  1.00  0.00     0.420 C 
ATOM     23  F   UNL     1      -0.022  -1.306   1.490  1.00  0.00    -0.168 F 
ATOM     24  F   UNL     1      -0.973  -3.220   1.839  1.00  0.00    -0.168 F 
ATOM     25  F   UNL     1       1.076  -3.157   1.213  1.00  0.00    -0.168 F 
ENDBRANCH   7  22
ENDBRANCH   4   7
ENDBRANCH   2   3
ENDBRANCH   1   2
BRANCH   1  26
ATOM     26  C   UNL     1      -2.951  -0.719  -4.800  1.00  0.00     0.118 C 
BRANCH  26  27
ATOM     27  N   UNL     1      -2.596  -1.069  -6.166  1.00  0.00    -0.352 N 
ATOM     28  C   UNL     1      -3.372  -1.083  -7.300  1.00  0.00     0.251 C 
ATOM     29  H   UNL     1      -1.658  -1.335  -6.298  1.00  0.00     0.163 HD
ATOM     30  O   UNL     1      -2.940  -1.623  -8.314  1.00  0.00    -0.269 OA
BRANCH  28  31
ATOM     31  C   UNL     1      -4.724  -0.477  -7.301  1.00  0.00     0.039 A 
ATOM     32  C   UNL     1      -5.755  -1.130  -7.983  1.00  0.00     0.014 A 
ATOM     33  C   UNL     1      -4.978   0.741  -6.664  1.00  0.00     0.014 A 
ATOM     34  C   UNL     1      -7.046  -0.595  -7.974  1.00  0.00     0.010 A 
ATOM     35  C   UNL     1      -6.281   1.229  -6.584  1.00  0.00     0.010 A 
ATOM     36  C   UNL     1      -7.330   0.571  -7.244  1.00  0.00    -0.014 A 
BRANCH  36  37
ATOM     37  C   UNL     1      -8.713   1.114  -7.162  1.00  0.00     0.031 A 
ATOM     38  C   UNL     1      -9.023   2.487  -7.701  1.00  0.00     0.074 A 
ATOM     39  C   UNL     1      -9.675   0.398  -6.543  1.00  0.00     0.049 A 
ATOM     40  N   UNL     1     -10.148   3.155  -7.657  1.00  0.00    -0.248 NA
ATOM     41  C   UNL     1      -7.922   3.218  -8.350  1.00  0.00     0.031 C 
ATOM     42  C   UNL     1      -9.487  -0.920  -5.931  1.00  0.00     0.029 A 
ATOM     43  N   UNL     1     -10.998   0.682  -6.310  1.00  0.00    -0.354 N 
ATOM     44  C   UNL     1      -9.883   4.387  -8.245  1.00  0.00     0.074 A 
ATOM     45  C   UNL     1      -8.483   4.391  -8.606  1.00  0.00     0.031 C 
ATOM     46  C   UNL     1     -10.652  -1.334  -5.406  1.00  0.00     0.029 A 
ATOM     47  C   UNL     1     -11.659  -0.297  -5.604  1.00  0.00     0.049 A 
ATOM     48  H   UNL     1     -11.433   1.509  -6.619  1.00  0.00     0.167 HD
ATOM     49  C   UNL     1     -10.735   5.413  -8.477  1.00  0.00     0.037 A 
ATOM     50  C   UNL     1     -12.928  -0.349  -5.152  1.00  0.00     0.037 A 
ATOM     51  C   UNL     1     -12.139   5.384  -8.158  1.00  0.00     0.049 A 
ATOM     52  C   UNL     1     -13.857   0.801  -5.443  1.00  0.00     0.074 A 
ATOM     53  C   UNL     1     -13.103   6.336  -8.444  1.00  0.00     0.029 A 
ATOM     54  N   UNL     1     -12.779   4.359  -7.479  1.00  0.00    -0.354 N 
ATOM     55  N   UNL     1     -13.610   1.917  -6.087  1.00  0.00    -0.248 NA
ATOM     56  C   UNL     1     -15.238   0.683  -4.955  1.00  0.00     0.031 C 
ATOM     57  C   UNL     1     -14.312   5.915  -7.886  1.00  0.00     0.029 A 
ATOM     58  C   UNL     1     -14.118   4.671  -7.307  1.00  0.00     0.049 A 
ATOM     59  H   UNL     1     -12.347   3.532  -7.165  1.00  0.00     0.167 HD
ATOM     60  C   UNL     1     -14.812   2.618  -6.108  1.00  0.00     0.074 A 
ATOM     61  C   UNL     1     -15.788   1.794  -5.426  1.00  0.00     0.031 C 
ATOM     62  C   UNL     1     -15.083   3.834  -6.642  1.00  0.00     0.037 A 
BRANCH  49  63
ATOM     63  C   UNL     1     -10.191   6.665  -9.109  1.00  0.00     0.058 A 
ATOM     64  C   UNL     1      -9.813   6.711 -10.460  1.00  0.00     0.135 A 
ATOM     65  C   UNL     1     -10.137   7.861  -8.374  1.00  0.00     0.135 A 
ATOM     66  F   UNL     1      -9.829   5.595 -11.205  1.00  0.00    -0.206 F 
ATOM     67  C   UNL     1      -9.396   7.896 -11.058  1.00  0.00     0.059 A 
ATOM     68  C   UNL     1      -9.749   9.063  -8.958  1.00  0.00     0.059 A 
ATOM     69  F   UNL     1     -10.483   7.873  -7.077  1.00  0.00    -0.206 F 
ATOM     70  C   UNL     1      -9.377   9.069 -10.301  1.00  0.00     0.060 A 
BRANCH  70  71
ATOM     71  S   UNL     1      -8.884  10.607 -11.109  1.00  0.00     0.124 S 
ATOM     72  O   UNL     1      -7.453  10.392 -11.296  1.00  0.00    -0.237 OA
ATOM     73  O   UNL     1      -9.692  10.592 -12.324  1.00  0.00    -0.237 OA
ATOM     74  O   UNL     1      -9.242  11.633 -10.134  1.00  0.00    -0.744 OA
ENDBRANCH  70  71
ENDBRANCH  49  63
BRANCH  50  75
ATOM     75  C   UNL     1     -13.401  -1.523  -4.367  1.00  0.00     0.058 A 
ATOM     76  C   UNL     1     -14.374  -2.395  -4.878  1.00  0.00     0.135 A 
ATOM     77  C   UNL     1     -12.912  -1.777  -3.076  1.00  0.00     0.135 A 
ATOM     78  F   UNL     1     -14.877  -2.194  -6.106  1.00  0.00    -0.206 F 
ATOM     79  C   UNL     1     -14.874  -3.453  -4.125  1.00  0.00     0.059 A 
ATOM     80  C   UNL     1     -13.373  -2.848  -2.316  1.00  0.00     0.059 A 
ATOM     81  F   UNL     1     -11.966  -0.987  -2.546  1.00  0.00    -0.206 F 
ATOM     82  C   UNL     1     -14.370  -3.668  -2.841  1.00  0.00     0.060 A 
BRANCH  82  83
ATOM     83  S   UNL     1     -15.019  -5.046  -1.872  1.00  0.00     0.124 S 
ATOM     84  O   UNL     1     -16.339  -4.548  -1.503  1.00  0.00    -0.237 OA
ATOM     85  O   UNL     1     -14.995  -6.139  -2.839  1.00  0.00    -0.237 OA
ATOM     86  O   UNL     1     -14.060  -5.166  -0.778  1.00  0.00    -0.744 OA
ENDBRANCH  82  83
ENDBRANCH  50  75
BRANCH  62  87
ATOM     87  C   UNL     1     -16.500   4.332  -6.558  1.00  0.00     0.058 A 
ATOM     88  C   UNL     1     -17.067   4.755  -5.345  1.00  0.00     0.135 A 
ATOM     89  C   UNL     1     -17.283   4.439  -7.720  1.00  0.00     0.135 A 
ATOM     90  F   UNL     1     -16.364   4.669  -4.205  1.00  0.00    -0.206 F 
ATOM     91  C   UNL     1     -18.368   5.243  -5.283  1.00  0.00     0.059 A 
ATOM     92  C   UNL     1     -18.575   4.954  -7.686  1.00  0.00     0.059 A 
ATOM     93  F   UNL     1     -16.786   4.059  -8.908  1.00  0.00    -0.206 F 
ATOM     94  C   UNL     1     -19.113   5.341  -6.460  1.00  0.00     0.060 A 
BRANCH  94  95
ATOM     95  S   UNL     1     -20.788   6.007  -6.370  1.00  0.00     0.124 S 
ATOM     96  O   UNL     1     -21.510   4.906  -5.741  1.00  0.00    -0.237 OA
ATOM     97  O   UNL     1     -20.607   7.199  -5.547  1.00  0.00    -0.237 OA
ATOM     98  O   UNL     1     -21.128   6.264  -7.767  1.00  0.00    -0.744 OA
ENDBRANCH  94  95
ENDBRANCH  62  87
ENDBRANCH  36  37
ENDBRANCH  28  31
ENDBRANCH  26  27
ENDBRANCH   1  26
TORSDOF 17
