REMARK SMILES C[C@@H](C(=O)NCCCNC(=O)c1ccc(-c2c3nc(c(-c4c(F)cc(S(=O)(=O)[O-])cc4F)c4ccc([nH]4)c(-c4c(F)cc(S(=O)(=O)[O-])cc4F)c4nc(c(-c5c(F)cc(S(=O)(=O)[O-])cc5F)c5ccc2[nH]5)C=C4)C=C3)cc1)c1ccc(C[C@H]2CCCC2=O)cc1
REMARK SMILES IDX 7 1 6 2 5 3 3 4 4 5 2 7 1 8 78 9 79 10 90 11 80 12 89 13
REMARK SMILES IDX 81 14 82 15 83 16 84 17 87 18 85 19 86 20 88 21 8 22 9 23
REMARK SMILES IDX 10 24 11 26 12 27 13 28 77 29 14 30 76 31 15 32 16 33 17 34
REMARK SMILES IDX 70 35 18 36 75 37 69 38 71 39 19 40 74 41 68 42 67 43 20 45
REMARK SMILES IDX 54 46 33 47 53 48 34 49 37 50 52 51 72 52 35 53 36 54 51 56
REMARK SMILES IDX 73 57 38 58 21 59 22 60 31 61 23 62 24 63 30 64 32 65 25 66
REMARK SMILES IDX 26 67 27 68 28 69 29 70 55 71 56 72 65 73 57 74 58 75 64 76
REMARK SMILES IDX 66 77 59 78 60 79 61 80 62 81 63 82 39 83 40 84 49 85 41 86
REMARK SMILES IDX 42 87 48 88 50 89 43 90 44 91 45 92 46 93 47 94
REMARK H PARENT 5 6 9 25 71 44 37 55
REMARK Flexibility Score: inf
ROOT
ATOM      1  C   UNL     1       4.310   0.824   0.792  1.00  0.00     0.042 C 
ENDROOT
BRANCH   1   2
ATOM      2  C   UNL     1       3.444   0.194   1.880  1.00  0.00     0.117 C 
BRANCH   2   3
ATOM      3  N   UNL     1       2.402   1.093   2.335  1.00  0.00    -0.356 N 
ATOM      4  C   UNL     1       1.061   1.111   2.087  1.00  0.00     0.227 C 
ATOM      5  O   UNL     1       0.429   2.022   2.626  1.00  0.00    -0.274 OA
ATOM      6  H   UNL     1       2.717   1.816   2.925  1.00  0.00     0.163 HD
BRANCH   4   7
ATOM      7  C   UNL     1       0.412   0.014   1.221  1.00  0.00     0.105 C 
ATOM      8  C   UNL     1       0.815   0.105  -0.252  1.00  0.00     0.023 C 
BRANCH   7   9
ATOM      9  C   UNL     1      -1.113   0.004   1.302  1.00  0.00    -0.036 A 
ATOM     10  C   UNL     1      -1.864   1.153   1.014  1.00  0.00     0.005 A 
ATOM     11  C   UNL     1      -1.797  -1.179   1.615  1.00  0.00     0.005 A 
ATOM     12  C   UNL     1      -3.256   1.135   1.082  1.00  0.00     0.004 A 
ATOM     13  C   UNL     1      -3.193  -1.198   1.682  1.00  0.00     0.004 A 
ATOM     14  C   UNL     1      -3.934  -0.035   1.439  1.00  0.00    -0.047 A 
BRANCH  14  15
ATOM     15  C   UNL     1      -5.435  -0.027   1.590  1.00  0.00     0.047 C 
BRANCH  15  16
ATOM     16  C   UNL     1      -5.972   0.544   2.908  1.00  0.00     0.060 C 
ATOM     17  C   UNL     1      -5.441  -0.094   4.195  1.00  0.00     0.012 C 
ATOM     18  C   UNL     1      -5.608   1.998   3.108  1.00  0.00     0.136 C 
ATOM     19  C   UNL     1      -4.303   0.798   4.677  1.00  0.00     0.009 C 
ATOM     20  C   UNL     1      -4.707   2.215   4.296  1.00  0.00     0.076 C 
ATOM     21  O   UNL     1      -6.032   2.906   2.401  1.00  0.00    -0.299 OA
ENDBRANCH  15  16
ENDBRANCH  14  15
ENDBRANCH   7   9
ENDBRANCH   4   7
ENDBRANCH   2   3
ENDBRANCH   1   2
BRANCH   1  22
ATOM     22  C   UNL     1       5.022   2.106   1.215  1.00  0.00     0.118 C 
BRANCH  22  23
ATOM     23  N   UNL     1       6.016   1.885   2.256  1.00  0.00    -0.352 N 
ATOM     24  C   UNL     1       7.370   2.121   2.234  1.00  0.00     0.251 C 
ATOM     25  H   UNL     1       5.667   1.512   3.098  1.00  0.00     0.163 HD
ATOM     26  O   UNL     1       8.075   1.709   3.151  1.00  0.00    -0.269 OA
BRANCH  24  27
ATOM     27  C   UNL     1       7.976   2.845   1.096  1.00  0.00     0.039 A 
ATOM     28  C   UNL     1       9.134   2.333   0.504  1.00  0.00     0.014 A 
ATOM     29  C   UNL     1       7.400   4.022   0.612  1.00  0.00     0.014 A 
ATOM     30  C   UNL     1       9.670   2.960  -0.625  1.00  0.00     0.010 A 
ATOM     31  C   UNL     1       7.892   4.602  -0.553  1.00  0.00     0.010 A 
ATOM     32  C   UNL     1       9.030   4.075  -1.186  1.00  0.00    -0.014 A 
BRANCH  32  33
ATOM     33  C   UNL     1       9.515   4.718  -2.434  1.00  0.00     0.031 A 
ATOM     34  C   UNL     1       9.975   6.149  -2.406  1.00  0.00     0.074 A 
ATOM     35  C   UNL     1       9.428   4.059  -3.606  1.00  0.00     0.049 A 
ATOM     36  N   UNL     1      10.263   6.946  -3.401  1.00  0.00    -0.248 NA
ATOM     37  C   UNL     1      10.090   6.775  -1.079  1.00  0.00     0.031 C 
ATOM     38  C   UNL     1       8.955   2.683  -3.769  1.00  0.00     0.029 A 
ATOM     39  N   UNL     1       9.698   4.472  -4.887  1.00  0.00    -0.354 N 
ATOM     40  C   UNL     1      10.562   8.175  -2.826  1.00  0.00     0.074 A 
ATOM     41  C   UNL     1      10.381   8.027  -1.397  1.00  0.00     0.031 C 
ATOM     42  C   UNL     1       8.960   2.369  -5.074  1.00  0.00     0.029 A 
ATOM     43  C   UNL     1       9.393   3.532  -5.843  1.00  0.00     0.049 A 
ATOM     44  H   UNL     1      10.075   5.356  -5.101  1.00  0.00     0.167 HD
ATOM     45  C   UNL     1      10.963   9.318  -3.432  1.00  0.00     0.037 A 
ATOM     46  C   UNL     1       9.428   3.606  -7.189  1.00  0.00     0.037 A 
ATOM     47  C   UNL     1      11.164   9.448  -4.851  1.00  0.00     0.049 A 
ATOM     48  C   UNL     1       9.890   4.876  -7.845  1.00  0.00     0.074 A 
ATOM     49  C   UNL     1      11.633  10.541  -5.557  1.00  0.00     0.029 A 
ATOM     50  N   UNL     1      10.902   8.452  -5.781  1.00  0.00    -0.354 N 
ATOM     51  N   UNL     1      10.232   6.012  -7.285  1.00  0.00    -0.248 NA
ATOM     52  C   UNL     1       9.980   4.878  -9.312  1.00  0.00     0.031 C 
ATOM     53  C   UNL     1      11.618  10.219  -6.919  1.00  0.00     0.029 A 
ATOM     54  C   UNL     1      11.183   8.910  -7.057  1.00  0.00     0.049 A 
ATOM     55  H   UNL     1      10.567   7.552  -5.565  1.00  0.00     0.167 HD
ATOM     56  C   UNL     1      10.599   6.856  -8.326  1.00  0.00     0.074 A 
ATOM     57  C   UNL     1      10.440   6.100  -9.552  1.00  0.00     0.031 C 
ATOM     58  C   UNL     1      11.033   8.140  -8.268  1.00  0.00     0.037 A 
BRANCH  45  59
ATOM     59  C   UNL     1      11.194  10.518  -2.554  1.00  0.00     0.058 A 
ATOM     60  C   UNL     1      12.268  10.576  -1.651  1.00  0.00     0.135 A 
ATOM     61  C   UNL     1      10.323  11.618  -2.607  1.00  0.00     0.135 A 
ATOM     62  F   UNL     1      13.125   9.547  -1.552  1.00  0.00    -0.206 F 
ATOM     63  C   UNL     1      12.438  11.657  -0.792  1.00  0.00     0.059 A 
ATOM     64  C   UNL     1      10.492  12.724  -1.778  1.00  0.00     0.059 A 
ATOM     65  F   UNL     1       9.284  11.619  -3.456  1.00  0.00    -0.206 F 
ATOM     66  C   UNL     1      11.537  12.721  -0.855  1.00  0.00     0.060 A 
BRANCH  66  67
ATOM     67  S   UNL     1      11.741  14.095   0.297  1.00  0.00     0.124 S 
ATOM     68  O   UNL     1      11.226  13.515   1.533  1.00  0.00    -0.237 OA
ATOM     69  O   UNL     1      13.181  14.328   0.259  1.00  0.00    -0.237 OA
ATOM     70  O   UNL     1      10.924  15.153  -0.289  1.00  0.00    -0.744 OA
ENDBRANCH  66  67
ENDBRANCH  45  59
BRANCH  46  71
ATOM     71  C   UNL     1       9.016   2.424  -7.991  1.00  0.00     0.058 A 
ATOM     72  C   UNL     1       9.967   1.622  -8.637  1.00  0.00     0.135 A 
ATOM     73  C   UNL     1       7.669   2.033  -8.066  1.00  0.00     0.135 A 
ATOM     74  F   UNL     1      11.265   1.960  -8.599  1.00  0.00    -0.206 F 
ATOM     75  C   UNL     1       9.601   0.468  -9.322  1.00  0.00     0.059 A 
ATOM     76  C   UNL     1       7.281   0.872  -8.728  1.00  0.00     0.059 A 
ATOM     77  F   UNL     1       6.723   2.758  -7.449  1.00  0.00    -0.206 F 
ATOM     78  C   UNL     1       8.255   0.096  -9.353  1.00  0.00     0.060 A 
BRANCH  78  79
ATOM     79  S   UNL     1       7.805  -1.457 -10.159  1.00  0.00     0.124 S 
ATOM     80  O   UNL     1       7.938  -1.107 -11.568  1.00  0.00    -0.237 OA
ATOM     81  O   UNL     1       8.806  -2.378  -9.631  1.00  0.00    -0.237 OA
ATOM     82  O   UNL     1       6.442  -1.693  -9.692  1.00  0.00    -0.744 OA
ENDBRANCH  78  79
ENDBRANCH  46  71
BRANCH  58  83
ATOM     83  C   UNL     1      11.407   8.813  -9.559  1.00  0.00     0.058 A 
ATOM     84  C   UNL     1      10.434   9.295 -10.447  1.00  0.00     0.135 A 
ATOM     85  C   UNL     1      12.755   9.074  -9.853  1.00  0.00     0.135 A 
ATOM     86  F   UNL     1       9.133   9.064 -10.214  1.00  0.00    -0.206 F 
ATOM     87  C   UNL     1      10.785  10.019 -11.582  1.00  0.00     0.059 A 
ATOM     88  C   UNL     1      13.128   9.813 -10.971  1.00  0.00     0.059 A 
ATOM     89  F   UNL     1      13.723   8.638  -9.031  1.00  0.00    -0.206 F 
ATOM     90  C   UNL     1      12.135  10.282 -11.830  1.00  0.00     0.060 A 
BRANCH  90  91
ATOM     91  S   UNL     1      12.572  11.294 -13.260  1.00  0.00     0.124 S 
ATOM     92  O   UNL     1      12.358  10.359 -14.360  1.00  0.00    -0.237 OA
ATOM     93  O   UNL     1      11.617  12.394 -13.168  1.00  0.00    -0.237 OA
ATOM     94  O   UNL     1      13.963  11.658 -13.007  1.00  0.00    -0.744 OA
ENDBRANCH  90  91
ENDBRANCH  58  83
ENDBRANCH  32  33
ENDBRANCH  24  27
ENDBRANCH  22  23
ENDBRANCH   1  22
TORSDOF 16
