REMARK SMILES C[NH+]1CCN(C(=O)c2ccc3c(c2)N(CC(=O)NCCCNC(=O)c2ccc(-c4c5nc(c(-c6c(F)cc(S(=O)(=O)[O-])cc6F)c6ccc([nH]6)c(-c6c(F)cc(S(=O)(=O)[O-])cc6F)c6nc(c(-c7c(F)cc(S(=O)(=O)[O-])cc7F)c7ccc4[nH]7)C=C6)C=C5)cc2)C(=O)CO3)CC1
REMARK SMILES IDX 20 1 19 2 18 3 16 4 17 5 15 7 14 8 8 9 9 10 13 11 10 12
REMARK SMILES IDX 12 13 11 14 94 15 91 16 93 17 92 18 6 19 1 20 2 21 3 22
REMARK SMILES IDX 96 23 4 25 95 26 5 27 7 28 21 29 22 30 23 31 24 33 25 34
REMARK SMILES IDX 26 35 90 36 27 37 89 38 28 39 29 40 30 41 83 42 31 43 88 44
REMARK SMILES IDX 82 45 84 46 32 47 87 48 81 49 80 50 33 52 67 53 46 54 66 55
REMARK SMILES IDX 47 56 50 57 65 58 85 59 48 60 49 61 64 63 86 64 51 65 34 66
REMARK SMILES IDX 35 67 44 68 36 69 37 70 43 71 45 72 38 73 39 74 40 75 41 76
REMARK SMILES IDX 42 77 68 78 69 79 78 80 70 81 71 82 77 83 79 84 72 85 73 86
REMARK SMILES IDX 74 87 75 88 76 89 52 90 53 91 62 92 54 93 55 94 61 95 63 96
REMARK SMILES IDX 56 97 57 98 58 99 59 100 60 101
REMARK H PARENT 18 6 2 24 22 32 84 51 50 62
REMARK Flexibility Score: inf
ROOT
ATOM      1  C   UNL     1      -2.444  -6.824   0.538  1.00  0.00     0.042 C 
ENDROOT
BRANCH   1   2
ATOM      2  C   UNL     1      -1.419  -6.683   1.659  1.00  0.00     0.117 C 
BRANCH   2   3
ATOM      3  N   UNL     1      -0.739  -5.403   1.638  1.00  0.00    -0.354 N 
ATOM      4  C   UNL     1      -0.880  -4.338   2.476  1.00  0.00     0.240 C 
ATOM      5  O   UNL     1      -0.080  -3.406   2.354  1.00  0.00    -0.273 OA
ATOM      6  H   UNL     1      -0.082  -5.286   0.914  1.00  0.00     0.163 HD
BRANCH   4   7
ATOM      7  C   UNL     1      -1.940  -4.318   3.584  1.00  0.00     0.225 C 
BRANCH   7   8
ATOM      8  N   UNL     1      -3.322  -4.406   3.112  1.00  0.00    -0.296 N 
ATOM      9  C   UNL     1      -3.770  -1.296   1.062  1.00  0.00     0.042 A 
ATOM     10  C   UNL     1      -4.992  -1.559   0.443  1.00  0.00     0.018 A 
ATOM     11  C   UNL     1      -3.227  -2.200   1.986  1.00  0.00     0.044 A 
ATOM     12  C   UNL     1      -5.654  -2.751   0.718  1.00  0.00     0.049 A 
ATOM     13  C   UNL     1      -3.877  -3.412   2.255  1.00  0.00     0.087 A 
ATOM     14  C   UNL     1      -5.105  -3.664   1.622  1.00  0.00     0.143 A 
ATOM     15  O   UNL     1      -5.807  -4.827   1.777  1.00  0.00    -0.482 OA
ATOM     16  C   UNL     1      -4.098  -5.489   3.506  1.00  0.00     0.265 C 
ATOM     17  C   UNL     1      -5.534  -5.483   2.998  1.00  0.00     0.330 C 
ATOM     18  O   UNL     1      -3.696  -6.370   4.268  1.00  0.00    -0.270 OA
BRANCH   9  19
ATOM     19  C   UNL     1      -3.091  -0.016   0.769  1.00  0.00     0.254 C 
ATOM     20  C   UNL     1       2.448   0.094   0.058  1.00  0.00     0.332 C 
ATOM     21  N   UNL     1       1.043   0.082  -0.344  1.00  0.00    -0.334 N 
ATOM     22  C   UNL     1       0.326   1.245   0.225  1.00  0.00     0.283 C 
ATOM     23  C   UNL     1       0.390  -1.164   0.110  1.00  0.00     0.283 C 
ATOM     24  H   UNL     1       1.006   0.134  -1.362  1.00  0.00     0.347 HD
ATOM     25  C   UNL     1      -1.176   1.242  -0.120  1.00  0.00     0.181 C 
ATOM     26  C   UNL     1      -1.098  -1.208  -0.288  1.00  0.00     0.181 C 
ATOM     27  N   UNL     1      -1.817  -0.031   0.217  1.00  0.00    -0.327 N 
ATOM     28  O   UNL     1      -3.710   1.015   1.027  1.00  0.00    -0.269 OA
ENDBRANCH   9  19
ENDBRANCH   7   8
ENDBRANCH   4   7
ENDBRANCH   2   3
ENDBRANCH   1   2
BRANCH   1  29
ATOM     29  C   UNL     1      -1.843  -6.856  -0.866  1.00  0.00     0.118 C 
BRANCH  29  30
ATOM     30  N   UNL     1      -0.949  -7.987  -1.072  1.00  0.00    -0.352 N 
ATOM     31  C   UNL     1      -0.992  -9.003  -1.994  1.00  0.00     0.251 C 
ATOM     32  H   UNL     1      -0.189  -8.030  -0.448  1.00  0.00     0.163 HD
ATOM     33  O   UNL     1      -0.226  -9.958  -1.863  1.00  0.00    -0.269 OA
BRANCH  31  34
ATOM     34  C   UNL     1      -1.946  -8.974  -3.124  1.00  0.00     0.039 A 
ATOM     35  C   UNL     1      -2.585 -10.162  -3.494  1.00  0.00     0.014 A 
ATOM     36  C   UNL     1      -2.184  -7.803  -3.848  1.00  0.00     0.014 A 
ATOM     37  C   UNL     1      -3.506 -10.161  -4.546  1.00  0.00     0.010 A 
ATOM     38  C   UNL     1      -3.153  -7.788  -4.851  1.00  0.00     0.010 A 
ATOM     39  C   UNL     1      -3.825  -8.967  -5.211  1.00  0.00    -0.014 A 
BRANCH  39  40
ATOM     40  C   UNL     1      -4.864  -8.928  -6.273  1.00  0.00     0.031 A 
ATOM     41  C   UNL     1      -4.496  -8.565  -7.687  1.00  0.00     0.074 A 
ATOM     42  C   UNL     1      -6.153  -9.155  -5.949  1.00  0.00     0.049 A 
ATOM     43  N   UNL     1      -5.274  -8.398  -8.725  1.00  0.00    -0.248 NA
ATOM     44  C   UNL     1      -3.070  -8.334  -7.964  1.00  0.00     0.031 C 
ATOM     45  C   UNL     1      -6.644  -9.472  -4.605  1.00  0.00     0.029 A 
ATOM     46  N   UNL     1      -7.289  -9.139  -6.719  1.00  0.00    -0.354 N 
ATOM     47  C   UNL     1      -4.438  -8.028  -9.772  1.00  0.00     0.074 A 
ATOM     48  C   UNL     1      -3.098  -7.951  -9.233  1.00  0.00     0.031 C 
ATOM     49  C   UNL     1      -7.976  -9.634  -4.649  1.00  0.00     0.029 A 
ATOM     50  C   UNL     1      -8.441  -9.396  -6.012  1.00  0.00     0.049 A 
ATOM     51  H   UNL     1      -7.281  -8.961  -7.687  1.00  0.00     0.167 HD
ATOM     52  C   UNL     1      -4.755  -7.793 -11.069  1.00  0.00     0.037 A 
ATOM     53  C   UNL     1      -9.727  -9.423  -6.411  1.00  0.00     0.037 A 
ATOM     54  C   UNL     1      -6.088  -7.899 -11.606  1.00  0.00     0.049 A 
ATOM     55  C   UNL     1     -10.054  -9.162  -7.856  1.00  0.00     0.074 A 
ATOM     56  C   UNL     1      -6.501  -7.741 -12.918  1.00  0.00     0.029 A 
ATOM     57  N   UNL     1      -7.223  -8.188 -10.863  1.00  0.00    -0.354 N 
ATOM     58  N   UNL     1      -9.241  -8.874  -8.845  1.00  0.00    -0.248 NA
ATOM     59  C   UNL     1     -11.469  -9.236  -8.243  1.00  0.00     0.031 C 
ATOM     60  C   UNL     1      -7.891  -7.893 -12.961  1.00  0.00     0.029 A 
ATOM     61  C   UNL     1      -8.338  -8.194 -11.685  1.00  0.00     0.049 A 
ATOM     62  H   UNL     1      -7.234  -8.364  -9.894  1.00  0.00     0.167 HD
ATOM     63  C   UNL     1     -10.043  -8.759  -9.975  1.00  0.00     0.074 A 
ATOM     64  C   UNL     1     -11.403  -9.021  -9.550  1.00  0.00     0.031 C 
ATOM     65  C   UNL     1      -9.686  -8.465 -11.249  1.00  0.00     0.037 A 
BRANCH  52  66
ATOM     66  C   UNL     1      -3.642  -7.403 -12.003  1.00  0.00     0.058 A 
ATOM     67  C   UNL     1      -2.663  -8.325 -12.407  1.00  0.00     0.135 A 
ATOM     68  C   UNL     1      -3.581  -6.107 -12.540  1.00  0.00     0.135 A 
ATOM     69  F   UNL     1      -2.666  -9.574 -11.915  1.00  0.00    -0.206 F 
ATOM     70  C   UNL     1      -1.648  -7.968 -13.289  1.00  0.00     0.059 A 
ATOM     71  C   UNL     1      -2.590  -5.736 -13.445  1.00  0.00     0.059 A 
ATOM     72  F   UNL     1      -4.492  -5.186 -12.189  1.00  0.00    -0.206 F 
ATOM     73  C   UNL     1      -1.620  -6.671 -13.803  1.00  0.00     0.060 A 
BRANCH  73  74
ATOM     74  S   UNL     1      -0.302  -6.229 -14.955  1.00  0.00     0.124 S 
ATOM     75  O   UNL     1       0.849  -6.143 -14.061  1.00  0.00    -0.237 OA
ATOM     76  O   UNL     1      -0.303  -7.359 -15.879  1.00  0.00    -0.237 OA
ATOM     77  O   UNL     1      -0.754  -4.961 -15.519  1.00  0.00    -0.744 OA
ENDBRANCH  73  74
ENDBRANCH  52  66
BRANCH  53  78
ATOM     78  C   UNL     1     -10.804  -9.723  -5.429  1.00  0.00     0.058 A 
ATOM     79  C   UNL     1     -11.507 -10.935  -5.477  1.00  0.00     0.135 A 
ATOM     80  C   UNL     1     -11.147  -8.808  -4.422  1.00  0.00     0.135 A 
ATOM     81  F   UNL     1     -11.220 -11.840  -6.426  1.00  0.00    -0.206 F 
ATOM     82  C   UNL     1     -12.525 -11.224  -4.574  1.00  0.00     0.059 A 
ATOM     83  C   UNL     1     -12.143  -9.085  -3.491  1.00  0.00     0.059 A 
ATOM     84  F   UNL     1     -10.492  -7.641  -4.321  1.00  0.00    -0.206 F 
ATOM     85  C   UNL     1     -12.835 -10.291  -3.583  1.00  0.00     0.060 A 
BRANCH  85  86
ATOM     86  S   UNL     1     -14.129 -10.693  -2.388  1.00  0.00     0.124 S 
ATOM     87  O   UNL     1     -15.333 -10.530  -3.194  1.00  0.00    -0.237 OA
ATOM     88  O   UNL     1     -13.789 -12.063  -2.016  1.00  0.00    -0.237 OA
ATOM     89  O   UNL     1     -13.932  -9.700  -1.336  1.00  0.00    -0.744 OA
ENDBRANCH  85  86
ENDBRANCH  53  78
BRANCH  65  90
ATOM     90  C   UNL     1     -10.774  -8.444 -12.287  1.00  0.00     0.058 A 
ATOM     91  C   UNL     1     -11.715  -7.406 -12.350  1.00  0.00     0.135 A 
ATOM     92  C   UNL     1     -10.842  -9.452 -13.263  1.00  0.00     0.135 A 
ATOM     93  F   UNL     1     -11.698  -6.422 -11.437  1.00  0.00    -0.206 F 
ATOM     94  C   UNL     1     -12.700  -7.377 -13.332  1.00  0.00     0.059 A 
ATOM     95  C   UNL     1     -11.802  -9.430 -14.270  1.00  0.00     0.059 A 
ATOM     96  F   UNL     1      -9.959 -10.464 -13.254  1.00  0.00    -0.206 F 
ATOM     97  C   UNL     1     -12.734  -8.393 -14.289  1.00  0.00     0.060 A 
BRANCH  97  98
ATOM     98  S   UNL     1     -13.996  -8.326 -15.579  1.00  0.00     0.124 S 
ATOM     99  O   UNL     1     -15.192  -8.719 -14.841  1.00  0.00    -0.237 OA
ATOM    100  O   UNL     1     -13.940  -6.929 -15.999  1.00  0.00    -0.237 OA
ATOM    101  O   UNL     1     -13.523  -9.291 -16.567  1.00  0.00    -0.744 OA
ENDBRANCH  97  98
ENDBRANCH  65  90
ENDBRANCH  39  40
ENDBRANCH  31  34
ENDBRANCH  29  30
ENDBRANCH   1  29
TORSDOF 15
