REMARK SMILES O=C(CNS(=O)(=O)c1ccccc1)N[C@@H](CO)C(=O)NCCCNC(=O)c1ccc(-c2c3nc(c(-c4c(F)cc(S(=O)(=O)[O-])cc4F)c4ccc([nH]4)c(-c4c(F)cc(S(=O)(=O)[O-])cc4F)c4nc(c(-c5c(F)cc(S(=O)(=O)[O-])cc5F)c5ccc2[nH]5)C=C4)C=C3)cc1
REMARK SMILES IDX 21 1 20 2 18 3 19 4 15 6 14 7 1 8 2 9 3 11 4 12 5 14 6 15
REMARK SMILES IDX 7 16 8 17 9 18 13 19 10 20 12 21 11 22 16 23 17 24 22 26
REMARK SMILES IDX 23 27 24 28 25 29 26 31 27 32 28 33 92 34 29 35 91 36 30 37
REMARK SMILES IDX 31 38 32 39 85 40 33 41 90 42 84 43 86 44 34 45 89 46 83 47
REMARK SMILES IDX 82 48 35 50 69 51 48 52 68 53 49 54 52 55 67 56 87 57 50 58
REMARK SMILES IDX 51 59 66 61 88 62 53 63 36 64 37 65 46 66 38 67 39 68 45 69
REMARK SMILES IDX 47 70 40 71 41 72 42 73 43 74 44 75 70 76 71 77 80 78 72 79
REMARK SMILES IDX 73 80 79 81 81 82 74 83 75 84 76 85 77 86 78 87 54 88 55 89
REMARK SMILES IDX 64 90 56 91 57 92 63 93 65 94 58 95 59 96 60 97 61 98 62 99
REMARK H PARENT 20 5 14 10 4 13 17 25 24 30 86 49 52 60
REMARK Flexibility Score: inf
ROOT
ATOM      1  C   UNL     1       5.140   1.390  -3.049  1.00  0.00     0.117 C 
ENDROOT
BRANCH   1   2
ATOM      2  N   UNL     1       3.986   0.874  -3.762  1.00  0.00    -0.354 N 
ATOM      3  C   UNL     1       2.657   0.924  -3.475  1.00  0.00     0.244 C 
ATOM      4  O   UNL     1       1.881   0.639  -4.394  1.00  0.00    -0.273 OA
ATOM      5  H   UNL     1       4.202   0.406  -4.600  1.00  0.00     0.163 HD
BRANCH   3   6
ATOM      6  C   UNL     1       2.106   1.380  -2.114  1.00  0.00     0.197 C 
BRANCH   6   7
ATOM      7  N   UNL     1       2.698   0.670  -0.980  1.00  0.00    -0.341 N 
ATOM      8  O   UNL     1       0.785   0.686   0.273  1.00  0.00    -0.274 OA
ATOM      9  C   UNL     1       1.934   0.285   0.101  1.00  0.00     0.235 C 
ATOM     10  H   UNL     1       3.661   0.463  -0.989  1.00  0.00     0.164 HD
BRANCH   9  11
ATOM     11  C   UNL     1       2.615  -0.668   1.077  1.00  0.00     0.198 C 
BRANCH  11  12
ATOM     12  N   UNL     1       3.876  -1.209   0.519  1.00  0.00    -0.202 NA
ATOM     13  H   UNL     1       4.459  -0.421   0.236  1.00  0.00     0.141 HD
BRANCH  12  14
ATOM     14  S   UNL     1       4.782  -2.178   1.580  1.00  0.00     0.241 S 
ATOM     15  O   UNL     1       3.841  -2.826   2.464  1.00  0.00    -0.207 OA
ATOM     16  O   UNL     1       5.669  -2.919   0.713  1.00  0.00    -0.207 OA
BRANCH  14  17
ATOM     17  C   UNL     1       5.768  -1.058   2.530  1.00  0.00     0.082 A 
ATOM     18  C   UNL     1       6.503  -1.588   3.596  1.00  0.00     0.022 A 
ATOM     19  C   UNL     1       5.800   0.312   2.256  1.00  0.00     0.022 A 
ATOM     20  C   UNL     1       7.273  -0.740   4.392  1.00  0.00     0.001 A 
ATOM     21  C   UNL     1       6.563   1.155   3.065  1.00  0.00     0.001 A 
ATOM     22  C   UNL     1       7.298   0.629   4.130  1.00  0.00     0.000 A 
ENDBRANCH  14  17
ENDBRANCH  12  14
ENDBRANCH  11  12
ENDBRANCH   9  11
ENDBRANCH   6   7
BRANCH   6  23
ATOM     23  C   UNL     1       2.089   2.908  -1.968  1.00  0.00     0.191 C 
BRANCH  23  24
ATOM     24  O   UNL     1       3.333   3.452  -1.529  1.00  0.00    -0.394 OA
ATOM     25  H   UNL     1       3.544   3.106  -0.648  1.00  0.00     0.210 HD
ENDBRANCH  23  24
ENDBRANCH   6  23
ENDBRANCH   3   6
ENDBRANCH   1   2
BRANCH   1  26
ATOM     26  C   UNL     1       6.207   0.329  -2.811  1.00  0.00     0.042 C 
BRANCH  26  27
ATOM     27  C   UNL     1       6.771  -0.315  -4.073  1.00  0.00     0.118 C 
BRANCH  27  28
ATOM     28  N   UNL     1       7.470   0.624  -4.938  1.00  0.00    -0.352 N 
ATOM     29  C   UNL     1       8.788   0.671  -5.329  1.00  0.00     0.251 C 
ATOM     30  H   UNL     1       6.907   1.345  -5.303  1.00  0.00     0.163 HD
ATOM     31  O   UNL     1       9.188   1.647  -5.958  1.00  0.00    -0.269 OA
BRANCH  29  32
ATOM     32  C   UNL     1       9.732  -0.415  -4.975  1.00  0.00     0.039 A 
ATOM     33  C   UNL     1      11.024  -0.072  -4.567  1.00  0.00     0.014 A 
ATOM     34  C   UNL     1       9.367  -1.761  -5.058  1.00  0.00     0.014 A 
ATOM     35  C   UNL     1      11.917  -1.070  -4.164  1.00  0.00     0.010 A 
ATOM     36  C   UNL     1      10.227  -2.747  -4.576  1.00  0.00     0.010 A 
ATOM     37  C   UNL     1      11.510  -2.414  -4.121  1.00  0.00    -0.014 A 
BRANCH  37  38
ATOM     38  C   UNL     1      12.407  -3.474  -3.590  1.00  0.00     0.031 A 
ATOM     39  C   UNL     1      12.867  -4.601  -4.477  1.00  0.00     0.074 A 
ATOM     40  C   UNL     1      12.753  -3.461  -2.287  1.00  0.00     0.049 A 
ATOM     41  N   UNL     1      13.591  -5.648  -4.173  1.00  0.00    -0.248 NA
ATOM     42  C   UNL     1      12.433  -4.561  -5.882  1.00  0.00     0.031 C 
ATOM     43  C   UNL     1      12.322  -2.461  -1.307  1.00  0.00     0.029 A 
ATOM     44  N   UNL     1      13.539  -4.318  -1.559  1.00  0.00    -0.354 N 
ATOM     45  C   UNL     1      13.680  -6.401  -5.338  1.00  0.00     0.074 A 
ATOM     46  C   UNL     1      12.899  -5.713  -6.344  1.00  0.00     0.031 C 
ATOM     47  C   UNL     1      12.867  -2.749  -0.114  1.00  0.00     0.029 A 
ATOM     48  C   UNL     1      13.659  -3.968  -0.234  1.00  0.00     0.049 A 
ATOM     49  H   UNL     1      13.976  -5.110  -1.948  1.00  0.00     0.167 HD
ATOM     50  C   UNL     1      14.367  -7.548  -5.558  1.00  0.00     0.037 A 
ATOM     51  C   UNL     1      14.329  -4.562   0.772  1.00  0.00     0.037 A 
ATOM     52  C   UNL     1      15.175  -8.210  -4.567  1.00  0.00     0.049 A 
ATOM     53  C   UNL     1      15.115  -5.813   0.494  1.00  0.00     0.074 A 
ATOM     54  C   UNL     1      15.963  -9.338  -4.713  1.00  0.00     0.029 A 
ATOM     55  N   UNL     1      15.301  -7.802  -3.248  1.00  0.00    -0.354 N 
ATOM     56  N   UNL     1      15.236  -6.477  -0.630  1.00  0.00    -0.248 NA
ATOM     57  C   UNL     1      15.862  -6.391   1.620  1.00  0.00     0.031 C 
ATOM     58  C   UNL     1      16.547  -9.628  -3.474  1.00  0.00     0.029 A 
ATOM     59  C   UNL     1      16.147  -8.662  -2.565  1.00  0.00     0.049 A 
ATOM     60  H   UNL     1      14.856  -7.018  -2.854  1.00  0.00     0.167 HD
ATOM     61  C   UNL     1      16.083  -7.543  -0.352  1.00  0.00     0.074 A 
ATOM     62  C   UNL     1      16.459  -7.425   1.042  1.00  0.00     0.031 C 
ATOM     63  C   UNL     1      16.509  -8.531  -1.176  1.00  0.00     0.037 A 
BRANCH  50  64
ATOM     64  C   UNL     1      14.284  -8.151  -6.933  1.00  0.00     0.058 A 
ATOM     65  C   UNL     1      14.930  -7.562  -8.032  1.00  0.00     0.135 A 
ATOM     66  C   UNL     1      13.572  -9.341  -7.152  1.00  0.00     0.135 A 
ATOM     67  F   UNL     1      15.611  -6.415  -7.881  1.00  0.00    -0.206 F 
ATOM     68  C   UNL     1      14.846  -8.113  -9.306  1.00  0.00     0.059 A 
ATOM     69  C   UNL     1      13.495  -9.924  -8.414  1.00  0.00     0.059 A 
ATOM     70  F   UNL     1      12.937  -9.946  -6.136  1.00  0.00    -0.206 F 
ATOM     71  C   UNL     1      14.122  -9.293  -9.488  1.00  0.00     0.060 A 
BRANCH  71  72
ATOM     72  S   UNL     1      14.017  -9.995 -11.148  1.00  0.00     0.124 S 
ATOM     73  O   UNL     1      13.036  -9.113 -11.774  1.00  0.00    -0.237 OA
ATOM     74  O   UNL     1      15.387  -9.864 -11.633  1.00  0.00    -0.237 OA
ATOM     75  O   UNL     1      13.569 -11.364 -10.909  1.00  0.00    -0.744 OA
ENDBRANCH  71  72
ENDBRANCH  50  64
BRANCH  51  76
ATOM     76  C   UNL     1      14.307  -3.961   2.130  1.00  0.00     0.058 A 
ATOM     77  C   UNL     1      15.431  -3.293   2.638  1.00  0.00     0.135 A 
ATOM     78  C   UNL     1      13.159  -4.016   2.934  1.00  0.00     0.135 A 
ATOM     79  F   UNL     1      16.554  -3.220   1.908  1.00  0.00    -0.206 F 
ATOM     80  C   UNL     1      15.422  -2.707   3.900  1.00  0.00     0.059 A 
ATOM     81  C   UNL     1      13.118  -3.421   4.191  1.00  0.00     0.059 A 
ATOM     82  F   UNL     1      12.053  -4.630   2.485  1.00  0.00    -0.206 F 
ATOM     83  C   UNL     1      14.258  -2.774   4.668  1.00  0.00     0.060 A 
BRANCH  83  84
ATOM     84  S   UNL     1      14.227  -1.952   6.276  1.00  0.00     0.124 S 
ATOM     85  O   UNL     1      14.960  -2.900   7.106  1.00  0.00    -0.237 OA
ATOM     86  O   UNL     1      14.906  -0.691   5.994  1.00  0.00    -0.237 OA
ATOM     87  O   UNL     1      12.799  -1.831   6.560  1.00  0.00    -0.744 OA
ENDBRANCH  83  84
ENDBRANCH  51  76
BRANCH  63  88
ATOM     88  C   UNL     1      17.443  -9.553  -0.594  1.00  0.00     0.058 A 
ATOM     89  C   UNL     1      16.984 -10.555   0.275  1.00  0.00     0.135 A 
ATOM     90  C   UNL     1      18.806  -9.547  -0.931  1.00  0.00     0.135 A 
ATOM     91  F   UNL     1      15.691 -10.598   0.632  1.00  0.00    -0.206 F 
ATOM     92  C   UNL     1      17.849 -11.503   0.810  1.00  0.00     0.059 A 
ATOM     93  C   UNL     1      19.685 -10.499  -0.424  1.00  0.00     0.059 A 
ATOM     94  F   UNL     1      19.292  -8.614  -1.765  1.00  0.00    -0.206 F 
ATOM     95  C   UNL     1      19.199 -11.464   0.457  1.00  0.00     0.060 A 
BRANCH  95  96
ATOM     96  S   UNL     1      20.313 -12.710   1.142  1.00  0.00     0.124 S 
ATOM     97  O   UNL     1      20.531 -12.197   2.491  1.00  0.00    -0.237 OA
ATOM     98  O   UNL     1      19.518 -13.930   1.050  1.00  0.00    -0.237 OA
ATOM     99  O   UNL     1      21.469 -12.654   0.253  1.00  0.00    -0.744 OA
ENDBRANCH  95  96
ENDBRANCH  63  88
ENDBRANCH  37  38
ENDBRANCH  29  32
ENDBRANCH  27  28
ENDBRANCH  26  27
ENDBRANCH   1  26
TORSDOF 20
