REMARK SMILES O=C(NCCCNC(=O)[C@@H]1C=C[C@@H](NC(=O)[C@@H]2CCS(=O)(=O)C2)C1)c1ccc(-c2c3nc(c(-c4c(F)cc(S(=O)(=O)[O-])cc4F)c4ccc([nH]4)c(-c4c(F)cc(S(=O)(=O)[O-])cc4F)c4nc(c(-c5c(F)cc(S(=O)(=O)[O-])cc5F)c5ccc2[nH]5)C=C4)C=C3)cc1
REMARK SMILES IDX 4 1 3 2 1 3 2 4 25 6 26 7 90 8 27 9 89 10 28 11 29 12 30 13
REMARK SMILES IDX 83 14 31 15 88 16 82 17 84 18 32 19 87 20 81 21 80 22 33 24
REMARK SMILES IDX 67 25 46 26 66 27 47 28 50 29 65 30 85 31 48 32 49 33 64 35
REMARK SMILES IDX 86 36 51 37 34 38 35 39 44 40 36 41 37 42 43 43 45 44 38 45
REMARK SMILES IDX 39 46 40 47 41 48 42 49 68 50 69 51 78 52 70 53 71 54 77 55
REMARK SMILES IDX 79 56 72 57 73 58 74 59 75 60 76 61 52 62 53 63 62 64 54 65
REMARK SMILES IDX 55 66 61 67 63 68 56 69 57 70 58 71 59 72 60 73 5 74 6 75
REMARK SMILES IDX 7 76 8 77 9 79 10 80 11 81 24 82 12 83 13 84 14 85 15 86
REMARK SMILES IDX 16 88 17 89 18 90 23 91 19 92 20 93 21 94 22 95
REMARK H PARENT 3 5 84 23 50 34 7 78 14 87
REMARK Flexibility Score: inf
ROOT
ATOM      1  C   UNL     1       5.509  -3.333   1.317  1.00  0.00     0.118 C 
ENDROOT
BRANCH   1   2
ATOM      2  N   UNL     1       5.520  -1.911   1.634  1.00  0.00    -0.352 N 
ATOM      3  O   UNL     1       4.899   0.003   2.637  1.00  0.00    -0.269 OA
ATOM      4  C   UNL     1       4.918  -1.224   2.662  1.00  0.00     0.251 C 
ATOM      5  H   UNL     1       6.041  -1.352   1.013  1.00  0.00     0.163 HD
BRANCH   4   6
ATOM      6  C   UNL     1       4.273  -1.956   3.775  1.00  0.00     0.039 A 
ATOM      7  C   UNL     1       4.868  -3.094   4.320  1.00  0.00     0.014 A 
ATOM      8  C   UNL     1       3.055  -1.497   4.285  1.00  0.00     0.014 A 
ATOM      9  C   UNL     1       4.162  -3.877   5.223  1.00  0.00     0.010 A 
ATOM     10  C   UNL     1       2.399  -2.227   5.283  1.00  0.00     0.010 A 
ATOM     11  C   UNL     1       2.922  -3.451   5.726  1.00  0.00    -0.014 A 
BRANCH  11  12
ATOM     12  C   UNL     1       2.222  -4.294   6.732  1.00  0.00     0.031 A 
ATOM     13  C   UNL     1       0.867  -4.887   6.448  1.00  0.00     0.074 A 
ATOM     14  C   UNL     1       2.845  -4.564   7.897  1.00  0.00     0.049 A 
ATOM     15  N   UNL     1       0.146  -5.688   7.192  1.00  0.00    -0.248 NA
ATOM     16  C   UNL     1       0.231  -4.531   5.170  1.00  0.00     0.031 C 
ATOM     17  C   UNL     1       4.155  -4.037   8.293  1.00  0.00     0.029 A 
ATOM     18  N   UNL     1       2.482  -5.365   8.949  1.00  0.00    -0.354 N 
ATOM     19  C   UNL     1      -1.032  -5.912   6.489  1.00  0.00     0.074 A 
ATOM     20  C   UNL     1      -0.944  -5.139   5.269  1.00  0.00     0.031 C 
ATOM     21  C   UNL     1       4.511  -4.576   9.467  1.00  0.00     0.029 A 
ATOM     22  C   UNL     1       3.430  -5.428   9.944  1.00  0.00     0.049 A 
ATOM     23  H   UNL     1       1.626  -5.849   8.989  1.00  0.00     0.167 HD
ATOM     24  C   UNL     1      -2.086  -6.696   6.826  1.00  0.00     0.037 A 
ATOM     25  C   UNL     1       3.427  -6.088  11.118  1.00  0.00     0.037 A 
ATOM     26  C   UNL     1      -2.156  -7.476   8.037  1.00  0.00     0.049 A 
ATOM     27  C   UNL     1       2.239  -6.936  11.473  1.00  0.00     0.074 A 
ATOM     28  C   UNL     1      -3.161  -8.336   8.449  1.00  0.00     0.029 A 
ATOM     29  N   UNL     1      -1.191  -7.488   9.034  1.00  0.00    -0.354 N 
ATOM     30  N   UNL     1       1.153  -7.166  10.775  1.00  0.00    -0.248 NA
ATOM     31  C   UNL     1       2.277  -7.614  12.775  1.00  0.00     0.031 C 
ATOM     32  C   UNL     1      -2.832  -8.820   9.719  1.00  0.00     0.029 A 
ATOM     33  C   UNL     1      -1.590  -8.317  10.071  1.00  0.00     0.049 A 
ATOM     34  H   UNL     1      -0.348  -6.981   9.009  1.00  0.00     0.167 HD
ATOM     35  C   UNL     1       0.391  -8.042  11.540  1.00  0.00     0.074 A 
ATOM     36  C   UNL     1       1.149  -8.309  12.746  1.00  0.00     0.031 C 
ATOM     37  C   UNL     1      -0.824  -8.579  11.266  1.00  0.00     0.037 A 
BRANCH  24  38
ATOM     38  C   UNL     1      -3.265  -6.734   5.888  1.00  0.00     0.058 A 
ATOM     39  C   UNL     1      -3.199  -7.351   4.628  1.00  0.00     0.135 A 
ATOM     40  C   UNL     1      -4.497  -6.180   6.277  1.00  0.00     0.135 A 
ATOM     41  F   UNL     1      -2.046  -7.885   4.197  1.00  0.00    -0.206 F 
ATOM     42  C   UNL     1      -4.300  -7.390   3.777  1.00  0.00     0.059 A 
ATOM     43  C   UNL     1      -5.619  -6.234   5.455  1.00  0.00     0.059 A 
ATOM     44  F   UNL     1      -4.622  -5.580   7.471  1.00  0.00    -0.206 F 
ATOM     45  C   UNL     1      -5.506  -6.827   4.199  1.00  0.00     0.060 A 
BRANCH  45  46
ATOM     46  S   UNL     1      -6.922  -6.882   3.080  1.00  0.00     0.124 S 
ATOM     47  O   UNL     1      -6.522  -5.918   2.059  1.00  0.00    -0.237 OA
ATOM     48  O   UNL     1      -6.933  -8.280   2.660  1.00  0.00    -0.237 OA
ATOM     49  O   UNL     1      -8.040  -6.474   3.924  1.00  0.00    -0.744 OA
ENDBRANCH  45  46
ENDBRANCH  24  38
BRANCH  25  50
ATOM     50  C   UNL     1       4.593  -5.974  12.034  1.00  0.00     0.058 A 
ATOM     51  C   UNL     1       5.429  -7.073  12.282  1.00  0.00     0.135 A 
ATOM     52  C   UNL     1       4.905  -4.760  12.667  1.00  0.00     0.135 A 
ATOM     53  F   UNL     1       5.173  -8.256  11.703  1.00  0.00    -0.206 F 
ATOM     54  C   UNL     1       6.521  -6.978  13.138  1.00  0.00     0.059 A 
ATOM     55  C   UNL     1       6.009  -4.632  13.502  1.00  0.00     0.059 A 
ATOM     56  F   UNL     1       4.147  -3.674  12.449  1.00  0.00    -0.206 F 
ATOM     57  C   UNL     1       6.805  -5.752  13.741  1.00  0.00     0.060 A 
BRANCH  57  58
ATOM     58  S   UNL     1       8.249  -5.629  14.816  1.00  0.00     0.124 S 
ATOM     59  O   UNL     1       7.808  -6.377  15.987  1.00  0.00    -0.237 OA
ATOM     60  O   UNL     1       9.287  -6.261  14.007  1.00  0.00    -0.237 OA
ATOM     61  O   UNL     1       8.404  -4.190  15.008  1.00  0.00    -0.744 OA
ENDBRANCH  57  58
ENDBRANCH  25  50
BRANCH  37  62
ATOM     62  C   UNL     1      -1.387  -9.552  12.266  1.00  0.00     0.058 A 
ATOM     63  C   UNL     1      -1.840  -9.143  13.531  1.00  0.00     0.135 A 
ATOM     64  C   UNL     1      -1.496 -10.915  11.942  1.00  0.00     0.135 A 
ATOM     65  F   UNL     1      -1.753  -7.854  13.896  1.00  0.00    -0.206 F 
ATOM     66  C   UNL     1      -2.343 -10.056  14.452  1.00  0.00     0.059 A 
ATOM     67  C   UNL     1      -2.027 -11.839  12.835  1.00  0.00     0.059 A 
ATOM     68  F   UNL     1      -1.089 -11.359  10.742  1.00  0.00    -0.206 F 
ATOM     69  C   UNL     1      -2.432 -11.403  14.095  1.00  0.00     0.060 A 
BRANCH  69  70
ATOM     70  S   UNL     1      -3.098 -12.575  15.294  1.00  0.00     0.124 S 
ATOM     71  O   UNL     1      -1.998 -12.675  16.249  1.00  0.00    -0.237 OA
ATOM     72  O   UNL     1      -4.293 -11.888  15.773  1.00  0.00    -0.237 OA
ATOM     73  O   UNL     1      -3.348 -13.773  14.497  1.00  0.00    -0.744 OA
ENDBRANCH  69  70
ENDBRANCH  37  62
ENDBRANCH  11  12
ENDBRANCH   4   6
ENDBRANCH   1   2
BRANCH   1  74
ATOM     74  C   UNL     1       4.782  -3.641   0.015  1.00  0.00     0.042 C 
BRANCH  74  75
ATOM     75  C   UNL     1       5.489  -3.094  -1.220  1.00  0.00     0.117 C 
BRANCH  75  76
ATOM     76  N   UNL     1       6.765  -3.753  -1.437  1.00  0.00    -0.356 N 
ATOM     77  C   UNL     1       7.073  -4.762  -2.304  1.00  0.00     0.227 C 
ATOM     78  H   UNL     1       7.511  -3.427  -0.883  1.00  0.00     0.163 HD
ATOM     79  O   UNL     1       8.192  -5.272  -2.234  1.00  0.00    -0.274 OA
BRANCH  77  80
ATOM     80  C   UNL     1       6.033  -5.188  -3.344  1.00  0.00     0.103 C 
ATOM     81  C   UNL     1       4.965  -6.058  -2.749  1.00  0.00    -0.016 C 
ATOM     82  C   UNL     1       6.638  -6.110  -4.416  1.00  0.00     0.047 C 
ATOM     83  C   UNL     1       5.093  -7.338  -3.110  1.00  0.00    -0.006 C 
ATOM     84  C   UNL     1       6.262  -7.543  -4.007  1.00  0.00     0.106 C 
BRANCH  84  85
ATOM     85  N   UNL     1       5.821  -8.302  -5.155  1.00  0.00    -0.350 N 
ATOM     86  C   UNL     1       6.441  -9.306  -5.825  1.00  0.00     0.224 C 
ATOM     87  H   UNL     1       4.935  -8.052  -5.505  1.00  0.00     0.164 HD
ATOM     88  O   UNL     1       6.001  -9.636  -6.925  1.00  0.00    -0.275 OA
BRANCH  86  89
ATOM     89  C   UNL     1       7.604 -10.039  -5.178  1.00  0.00     0.094 C 
ATOM     90  C   UNL     1       8.582 -10.604  -6.216  1.00  0.00     0.030 C 
ATOM     91  C   UNL     1       7.074 -11.227  -4.375  1.00  0.00     0.150 C 
ATOM     92  C   UNL     1       7.959 -11.854  -6.829  1.00  0.00     0.138 C 
ATOM     93  S   UNL     1       7.021 -12.607  -5.513  1.00  0.00     0.151 S 
ATOM     94  O   UNL     1       5.657 -12.812  -5.954  1.00  0.00    -0.229 OA
ATOM     95  O   UNL     1       7.814 -13.684  -4.957  1.00  0.00    -0.229 OA
ENDBRANCH  86  89
ENDBRANCH  84  85
ENDBRANCH  77  80
ENDBRANCH  75  76
ENDBRANCH  74  75
ENDBRANCH   1  74
TORSDOF 15
