REMARK SMILES CC1=C(C)C[C@@H](C(=O)NCCCNC(=O)c2ccc(-c3c4nc(c(-c5c(F)cc(S(=O)(=O)[O-])cc5F)c5ccc([nH]5)c(-c5c(F)cc(S(=O)(=O)[O-])cc5F)c5nc(c(-c6c(F)cc(S(=O)(=O)[O-])cc6F)c6ccc3[nH]6)C=C5)C=C4)cc2)[C@@H](C(=O)N2CCN(c3cccc(C(F)(F)F)c3)CC2)C1
REMARK SMILES IDX 11 1 10 2 9 3 7 4 8 5 6 7 1 8 2 9 3 10 101 11 4 12 5 13
REMARK SMILES IDX 82 14 83 15 84 16 85 17 86 18 100 19 87 20 99 21 88 22 89 23
REMARK SMILES IDX 90 24 98 25 91 26 93 27 92 28 94 29 95 30 96 31 97 32 12 33
REMARK SMILES IDX 13 34 14 35 15 37 16 38 17 39 81 40 18 41 80 42 19 43 20 44
REMARK SMILES IDX 21 45 74 46 22 47 79 48 73 49 75 50 23 51 78 52 72 53 71 54
REMARK SMILES IDX 24 56 58 57 37 58 57 59 38 60 41 61 56 62 76 63 39 64 40 65
REMARK SMILES IDX 55 67 77 68 42 69 25 70 26 71 35 72 27 73 28 74 34 75 36 76
REMARK SMILES IDX 29 77 30 78 31 79 32 80 33 81 59 82 60 83 69 84 61 85 62 86
REMARK SMILES IDX 68 87 70 88 63 89 64 90 65 91 66 92 67 93 43 94 44 95 53 96
REMARK SMILES IDX 45 97 46 98 52 99 54 100 47 101 48 102 49 103 50 104 51 105
REMARK H PARENT 9 6 13 36 75 55 41 66
REMARK Flexibility Score: inf
ROOT
ATOM      1  C   UNL     1      -2.578   2.080   0.088  1.00  0.00     0.042 C 
ENDROOT
BRANCH   1   2
ATOM      2  C   UNL     1      -2.641   1.389  -1.265  1.00  0.00     0.117 C 
BRANCH   2   3
ATOM      3  N   UNL     1      -2.798   2.307  -2.374  1.00  0.00    -0.356 N 
ATOM      4  C   UNL     1      -1.954   2.721  -3.342  1.00  0.00     0.224 C 
ATOM      5  O   UNL     1      -2.425   3.478  -4.200  1.00  0.00    -0.275 OA
ATOM      6  H   UNL     1      -3.695   2.708  -2.433  1.00  0.00     0.163 HD
BRANCH   4   7
ATOM      7  C   UNL     1      -0.490   2.308  -3.441  1.00  0.00     0.095 C 
ATOM      8  C   UNL     1       1.387  -0.095  -0.220  1.00  0.00     0.039 C 
ATOM      9  C   UNL     1       0.884   0.608  -1.461  1.00  0.00    -0.074 C 
ATOM     10  C   UNL     1       0.279   0.008  -2.504  1.00  0.00    -0.074 C 
ATOM     11  C   UNL     1       1.073   2.106  -1.383  1.00  0.00     0.045 C 
ATOM     12  C   UNL     1       0.025  -1.473  -2.636  1.00  0.00     0.039 C 
ATOM     13  C   UNL     1      -0.274   0.805  -3.657  1.00  0.00     0.045 C 
ATOM     14  C   UNL     1       0.486   3.017  -2.494  1.00  0.00     0.095 C 
BRANCH  14  15
ATOM     15  C   UNL     1      -0.012   4.332  -1.848  1.00  0.00     0.226 C 
ATOM     16  O   UNL     1      -0.214   4.386  -0.631  1.00  0.00    -0.275 OA
ATOM     17  N   UNL     1      -0.135   5.485  -2.594  1.00  0.00    -0.339 N 
ATOM     18  C   UNL     1      -0.227   6.768  -1.875  1.00  0.00     0.141 C 
ATOM     19  C   UNL     1      -0.188   5.638  -4.053  1.00  0.00     0.141 C 
ATOM     20  C   UNL     1       0.941   7.676  -2.294  1.00  0.00     0.138 C 
ATOM     21  C   UNL     1       0.834   6.661  -4.591  1.00  0.00     0.138 C 
ATOM     22  N   UNL     1       0.911   7.858  -3.750  1.00  0.00    -0.368 N 
BRANCH  22  23
ATOM     23  C   UNL     1       0.833   9.130  -4.261  1.00  0.00     0.037 A 
ATOM     24  C   UNL     1       1.875  10.041  -4.055  1.00  0.00     0.026 A 
ATOM     25  C   UNL     1      -0.311   9.572  -4.932  1.00  0.00     0.039 A 
ATOM     26  C   UNL     1       1.786  11.357  -4.507  1.00  0.00     0.003 A 
ATOM     27  C   UNL     1      -0.434  10.903  -5.366  1.00  0.00     0.058 A 
ATOM     28  C   UNL     1       0.632  11.789  -5.155  1.00  0.00     0.013 A 
BRANCH  27  29
ATOM     29  C   UNL     1      -1.699  11.393  -6.021  1.00  0.00     0.416 C 
ATOM     30  F   UNL     1      -2.265  12.435  -5.351  1.00  0.00    -0.166 F 
ATOM     31  F   UNL     1      -1.484  11.843  -7.290  1.00  0.00    -0.166 F 
ATOM     32  F   UNL     1      -2.671  10.444  -6.126  1.00  0.00    -0.166 F 
ENDBRANCH  27  29
ENDBRANCH  22  23
ENDBRANCH  14  15
ENDBRANCH   4   7
ENDBRANCH   2   3
ENDBRANCH   1   2
BRANCH   1  33
ATOM     33  C   UNL     1      -3.792   2.946   0.392  1.00  0.00     0.118 C 
BRANCH  33  34
ATOM     34  N   UNL     1      -5.004   2.146   0.506  1.00  0.00    -0.352 N 
ATOM     35  C   UNL     1      -5.807   1.939   1.599  1.00  0.00     0.251 C 
ATOM     36  H   UNL     1      -5.287   1.689  -0.319  1.00  0.00     0.163 HD
ATOM     37  O   UNL     1      -6.623   1.022   1.585  1.00  0.00    -0.269 OA
BRANCH  35  38
ATOM     38  C   UNL     1      -5.689   2.816   2.783  1.00  0.00     0.039 A 
ATOM     39  C   UNL     1      -5.762   2.249   4.057  1.00  0.00     0.014 A 
ATOM     40  C   UNL     1      -5.555   4.200   2.636  1.00  0.00     0.014 A 
ATOM     41  C   UNL     1      -5.666   3.067   5.185  1.00  0.00     0.010 A 
ATOM     42  C   UNL     1      -5.389   5.005   3.759  1.00  0.00     0.010 A 
ATOM     43  C   UNL     1      -5.463   4.449   5.044  1.00  0.00    -0.014 A 
BRANCH  43  44
ATOM     44  C   UNL     1      -5.373   5.336   6.229  1.00  0.00     0.031 A 
ATOM     45  C   UNL     1      -6.443   6.366   6.475  1.00  0.00     0.074 A 
ATOM     46  C   UNL     1      -4.310   5.249   7.052  1.00  0.00     0.049 A 
ATOM     47  N   UNL     1      -6.518   7.271   7.417  1.00  0.00    -0.248 NA
ATOM     48  C   UNL     1      -7.562   6.403   5.519  1.00  0.00     0.031 C 
ATOM     49  C   UNL     1      -3.186   4.325   6.887  1.00  0.00     0.029 A 
ATOM     50  N   UNL     1      -3.998   5.954   8.186  1.00  0.00    -0.354 N 
ATOM     51  C   UNL     1      -7.677   7.993   7.157  1.00  0.00     0.074 A 
ATOM     52  C   UNL     1      -8.249   7.454   5.943  1.00  0.00     0.031 C 
ATOM     53  C   UNL     1      -2.318   4.505   7.897  1.00  0.00     0.029 A 
ATOM     54  C   UNL     1      -2.809   5.573   8.762  1.00  0.00     0.049 A 
ATOM     55  H   UNL     1      -4.571   6.665   8.553  1.00  0.00     0.167 HD
ATOM     56  C   UNL     1      -8.229   8.997   7.878  1.00  0.00     0.037 A 
ATOM     57  C   UNL     1      -2.188   6.035   9.864  1.00  0.00     0.037 A 
ATOM     58  C   UNL     1      -7.677   9.503   9.107  1.00  0.00     0.049 A 
ATOM     59  C   UNL     1      -2.834   7.132  10.665  1.00  0.00     0.074 A 
ATOM     60  C   UNL     1      -8.189  10.477   9.946  1.00  0.00     0.029 A 
ATOM     61  N   UNL     1      -6.489   9.069   9.676  1.00  0.00    -0.354 N 
ATOM     62  N   UNL     1      -3.959   7.766  10.434  1.00  0.00    -0.248 NA
ATOM     63  C   UNL     1      -2.132   7.571  11.878  1.00  0.00     0.031 C 
ATOM     64  C   UNL     1      -7.296  10.650  11.010  1.00  0.00     0.029 A 
ATOM     65  C   UNL     1      -6.246   9.761  10.850  1.00  0.00     0.049 A 
ATOM     66  H   UNL     1      -5.904   8.371   9.300  1.00  0.00     0.167 HD
ATOM     67  C   UNL     1      -4.111   8.664  11.485  1.00  0.00     0.074 A 
ATOM     68  C   UNL     1      -2.968   8.482  12.357  1.00  0.00     0.031 C 
ATOM     69  C   UNL     1      -5.105   9.559  11.707  1.00  0.00     0.037 A 
BRANCH  56  70
ATOM     70  C   UNL     1      -9.503   9.604   7.360  1.00  0.00     0.058 A 
ATOM     71  C   UNL     1     -10.721   8.907   7.411  1.00  0.00     0.135 A 
ATOM     72  C   UNL     1      -9.513  10.902   6.825  1.00  0.00     0.135 A 
ATOM     73  F   UNL     1     -10.764   7.656   7.897  1.00  0.00    -0.206 F 
ATOM     74  C   UNL     1     -11.898   9.462   6.921  1.00  0.00     0.059 A 
ATOM     75  C   UNL     1     -10.684  11.487   6.352  1.00  0.00     0.059 A 
ATOM     76  F   UNL     1      -8.377  11.612   6.752  1.00  0.00    -0.206 F 
ATOM     77  C   UNL     1     -11.869  10.752   6.390  1.00  0.00     0.060 A 
BRANCH  77  78
ATOM     78  S   UNL     1     -13.404  11.461   5.758  1.00  0.00     0.124 S 
ATOM     79  O   UNL     1     -13.540  10.767   4.481  1.00  0.00    -0.237 OA
ATOM     80  O   UNL     1     -14.371  11.089   6.786  1.00  0.00    -0.237 OA
ATOM     81  O   UNL     1     -13.108  12.887   5.668  1.00  0.00    -0.744 OA
ENDBRANCH  77  78
ENDBRANCH  56  70
BRANCH  57  82
ATOM     82  C   UNL     1      -0.898   5.435  10.293  1.00  0.00     0.058 A 
ATOM     83  C   UNL     1      -0.836   4.593  11.413  1.00  0.00     0.135 A 
ATOM     84  C   UNL     1       0.290   5.676   9.587  1.00  0.00     0.135 A 
ATOM     85  F   UNL     1      -1.945   4.338  12.122  1.00  0.00    -0.206 F 
ATOM     86  C   UNL     1       0.362   4.020  11.827  1.00  0.00     0.059 A 
ATOM     87  C   UNL     1       1.496   5.098   9.969  1.00  0.00     0.059 A 
ATOM     88  F   UNL     1       0.278   6.462   8.499  1.00  0.00    -0.206 F 
ATOM     89  C   UNL     1       1.524   4.278  11.098  1.00  0.00     0.060 A 
BRANCH  89  90
ATOM     90  S   UNL     1       3.066   3.490  11.612  1.00  0.00     0.124 S 
ATOM     91  O   UNL     1       3.440   4.302  12.764  1.00  0.00    -0.237 OA
ATOM     92  O   UNL     1       2.634   2.126  11.905  1.00  0.00    -0.237 OA
ATOM     93  O   UNL     1       3.919   3.628  10.436  1.00  0.00    -0.744 OA
ENDBRANCH  89  90
ENDBRANCH  57  82
BRANCH  69  94
ATOM     94  C   UNL     1      -5.014  10.390  12.954  1.00  0.00     0.058 A 
ATOM     95  C   UNL     1      -4.121  11.467  13.053  1.00  0.00     0.135 A 
ATOM     96  C   UNL     1      -5.865  10.137  14.041  1.00  0.00     0.135 A 
ATOM     97  F   UNL     1      -3.283  11.745  12.042  1.00  0.00    -0.206 F 
ATOM     98  C   UNL     1      -4.060  12.255  14.198  1.00  0.00     0.059 A 
ATOM     99  C   UNL     1      -5.836  10.925  15.187  1.00  0.00     0.059 A 
ATOM    100  F   UNL     1      -6.744   9.123  13.991  1.00  0.00    -0.206 F 
ATOM    101  C   UNL     1      -4.922  11.975  15.260  1.00  0.00     0.060 A 
BRANCH 101 102
ATOM    102  S   UNL     1      -4.859  13.024  16.728  1.00  0.00     0.124 S 
ATOM    103  O   UNL     1      -3.664  12.520  17.397  1.00  0.00    -0.237 OA
ATOM    104  O   UNL     1      -4.748  14.362  16.156  1.00  0.00    -0.237 OA
ATOM    105  O   UNL     1      -6.124  12.740  17.401  1.00  0.00    -0.744 OA
ENDBRANCH 101 102
ENDBRANCH  69  94
ENDBRANCH  43  44
ENDBRANCH  35  38
ENDBRANCH  33  34
ENDBRANCH   1  33
TORSDOF 16
