REMARK SMILES CC[NH2+][C@]1(C(=O)NCCCNC(=O)c2ccc(-c3c4nc(c(-c5c(F)cc(S(=O)(=O)[O-])cc5F)c5ccc([nH]5)c(-c5c(F)cc(S(=O)(=O)[O-])cc5F)c5nc(c(-c6c(F)cc(S(=O)(=O)[O-])cc6F)c6ccc3[nH]6)C=C5)C=C4)cc2)CC[C@@H]([N@@H+](C)CC(C)(C)C)C1
REMARK SMILES IDX 9 1 8 2 7 3 5 4 6 5 4 7 80 8 90 9 81 10 82 11 3 12 2 15 1 16
REMARK SMILES IDX 83 17 84 18 85 20 86 21 87 22 88 23 89 24 10 25 11 26 12 27
REMARK SMILES IDX 13 29 14 30 15 31 79 32 16 33 78 34 17 35 18 36 19 37 72 38
REMARK SMILES IDX 20 39 77 40 71 41 73 42 21 43 76 44 70 45 69 46 22 48 56 49
REMARK SMILES IDX 35 50 55 51 36 52 39 53 54 54 74 55 37 56 38 57 53 59 75 60
REMARK SMILES IDX 40 61 23 62 24 63 33 64 25 65 26 66 32 67 34 68 27 69 28 70
REMARK SMILES IDX 29 71 30 72 31 73 57 74 58 75 67 76 59 77 60 78 66 79 68 80
REMARK SMILES IDX 61 81 62 82 63 83 64 84 65 85 41 86 42 87 51 88 43 89 44 90
REMARK SMILES IDX 50 91 52 92 45 93 46 94 47 95 48 96 49 97
REMARK H PARENT 7 6 3 13 3 14 83 19 11 28 73 47 39 58
REMARK Flexibility Score: inf
ROOT
ATOM      1  C   UNL     1       2.604  -2.751   0.315  1.00  0.00     0.042 C 
ENDROOT
BRANCH   1   2
ATOM      2  C   UNL     1       3.024  -1.851   1.480  1.00  0.00     0.118 C 
BRANCH   2   3
ATOM      3  N   UNL     1       2.083  -0.772   1.719  1.00  0.00    -0.351 N 
ATOM      4  C   UNL     1       1.127  -0.578   2.674  1.00  0.00     0.281 C 
ATOM      5  O   UNL     1       0.518   0.498   2.600  1.00  0.00    -0.268 OA
ATOM      6  H   UNL     1       2.147  -0.038   1.066  1.00  0.00     0.163 HD
BRANCH   4   7
ATOM      7  C   UNL     1       0.830  -1.601   3.824  1.00  0.00     0.181 C 
ATOM      8  C   UNL     1      -0.685  -1.493   4.146  1.00  0.00     0.085 C 
ATOM      9  C   UNL     1       0.938  -3.079   3.422  1.00  0.00     0.144 C 
ATOM     10  C   UNL     1      -1.082  -2.825   4.773  1.00  0.00     0.072 C 
ATOM     11  C   UNL     1      -0.162  -3.866   4.141  1.00  0.00     0.190 C 
BRANCH   7  12
ATOM     12  N   UNL     1       1.524  -1.202   5.069  1.00  0.00    -0.334 N 
ATOM     13  H   UNL     1       1.340  -0.210   5.217  1.00  0.00     0.347 HD
ATOM     14  H   UNL     1       1.153  -1.825   5.786  1.00  0.00     0.347 HD
BRANCH  12  15
ATOM     15  C   UNL     1       2.962  -1.391   5.119  1.00  0.00     0.257 C 
ATOM     16  C   UNL     1       3.484  -0.710   6.379  1.00  0.00     0.071 C 
ENDBRANCH  12  15
ENDBRANCH   7  12
BRANCH  11  17
ATOM     17  N   UNL     1      -0.788  -4.913   3.347  1.00  0.00    -0.334 N 
ATOM     18  C   UNL     1      -1.157  -6.121   4.057  1.00  0.00     0.332 C 
ATOM     19  H   UNL     1       0.038  -4.691   2.792  1.00  0.00     0.348 HD
BRANCH  17  20
ATOM     20  C   UNL     1      -1.231  -4.796   1.962  1.00  0.00     0.268 C 
BRANCH  20  21
ATOM     21  C   UNL     1      -2.675  -4.324   1.594  1.00  0.00     0.011 C 
ATOM     22  C   UNL     1      -2.869  -2.814   1.774  1.00  0.00     0.017 C 
ATOM     23  C   UNL     1      -2.894  -4.618   0.091  1.00  0.00     0.017 C 
ATOM     24  C   UNL     1      -3.752  -5.066   2.396  1.00  0.00     0.017 C 
ENDBRANCH  20  21
ENDBRANCH  17  20
ENDBRANCH  11  17
ENDBRANCH   4   7
ENDBRANCH   2   3
ENDBRANCH   1   2
BRANCH   1  25
ATOM     25  C   UNL     1       3.040  -2.238  -1.056  1.00  0.00     0.118 C 
BRANCH  25  26
ATOM     26  N   UNL     1       4.489  -2.243  -1.203  1.00  0.00    -0.352 N 
ATOM     27  C   UNL     1       5.297  -2.854  -2.127  1.00  0.00     0.251 C 
ATOM     28  H   UNL     1       4.970  -1.719  -0.523  1.00  0.00     0.163 HD
ATOM     29  O   UNL     1       6.506  -2.903  -1.910  1.00  0.00    -0.269 OA
BRANCH  27  30
ATOM     30  C   UNL     1       4.747  -3.451  -3.367  1.00  0.00     0.039 A 
ATOM     31  C   UNL     1       5.344  -4.614  -3.867  1.00  0.00     0.014 A 
ATOM     32  C   UNL     1       3.710  -2.844  -4.080  1.00  0.00     0.014 A 
ATOM     33  C   UNL     1       4.875  -5.188  -5.050  1.00  0.00     0.010 A 
ATOM     34  C   UNL     1       3.197  -3.456  -5.224  1.00  0.00     0.010 A 
ATOM     35  C   UNL     1       3.779  -4.629  -5.726  1.00  0.00    -0.014 A 
BRANCH  35  36
ATOM     36  C   UNL     1       3.225  -5.272  -6.945  1.00  0.00     0.031 A 
ATOM     37  C   UNL     1       3.268  -4.568  -8.274  1.00  0.00     0.074 A 
ATOM     38  C   UNL     1       2.618  -6.470  -6.838  1.00  0.00     0.049 A 
ATOM     39  N   UNL     1       2.803  -4.961  -9.432  1.00  0.00    -0.248 NA
ATOM     40  C   UNL     1       3.890  -3.236  -8.297  1.00  0.00     0.031 C 
ATOM     41  C   UNL     1       2.451  -7.220  -5.591  1.00  0.00     0.029 A 
ATOM     42  N   UNL     1       2.016  -7.260  -7.784  1.00  0.00    -0.354 N 
ATOM     43  C   UNL     1       3.055  -3.919 -10.317  1.00  0.00     0.074 A 
ATOM     44  C   UNL     1       3.673  -2.858  -9.549  1.00  0.00     0.031 C 
ATOM     45  C   UNL     1       1.802  -8.365  -5.851  1.00  0.00     0.029 A 
ATOM     46  C   UNL     1       1.480  -8.417  -7.274  1.00  0.00     0.049 A 
ATOM     47  H   UNL     1       1.972  -7.020  -8.738  1.00  0.00     0.167 HD
ATOM     48  C   UNL     1       2.811  -3.858 -11.649  1.00  0.00     0.037 A 
ATOM     49  C   UNL     1       0.798  -9.409  -7.879  1.00  0.00     0.037 A 
ATOM     50  C   UNL     1       2.212  -4.927 -12.407  1.00  0.00     0.049 A 
ATOM     51  C   UNL     1       0.569  -9.342  -9.361  1.00  0.00     0.074 A 
ATOM     52  C   UNL     1       2.002  -5.003 -13.773  1.00  0.00     0.029 A 
ATOM     53  N   UNL     1       1.715  -6.103 -11.862  1.00  0.00    -0.354 N 
ATOM     54  N   UNL     1       0.899  -8.390 -10.202  1.00  0.00    -0.248 NA
ATOM     55  C   UNL     1      -0.112 -10.486  -9.981  1.00  0.00     0.031 C 
ATOM     56  C   UNL     1       1.335  -6.203 -14.048  1.00  0.00     0.029 A 
ATOM     57  C   UNL     1       1.172  -6.899 -12.860  1.00  0.00     0.049 A 
ATOM     58  H   UNL     1       1.744  -6.338 -10.907  1.00  0.00     0.167 HD
ATOM     59  C   UNL     1       0.474  -8.822 -11.453  1.00  0.00     0.074 A 
ATOM     60  C   UNL     1      -0.118 -10.132 -11.260  1.00  0.00     0.031 C 
ATOM     61  C   UNL     1       0.567  -8.192 -12.650  1.00  0.00     0.037 A 
BRANCH  48  62
ATOM     62  C   UNL     1       3.180  -2.583 -12.362  1.00  0.00     0.058 A 
ATOM     63  C   UNL     1       4.519  -2.196 -12.543  1.00  0.00     0.135 A 
ATOM     64  C   UNL     1       2.183  -1.731 -12.863  1.00  0.00     0.135 A 
ATOM     65  F   UNL     1       5.515  -2.967 -12.077  1.00  0.00    -0.206 F 
ATOM     66  C   UNL     1       4.853  -0.986 -13.143  1.00  0.00     0.059 A 
ATOM     67  C   UNL     1       2.495  -0.530 -13.494  1.00  0.00     0.059 A 
ATOM     68  F   UNL     1       0.887  -2.053 -12.726  1.00  0.00    -0.206 F 
ATOM     69  C   UNL     1       3.833  -0.154 -13.605  1.00  0.00     0.060 A 
BRANCH  69  70
ATOM     70  S   UNL     1       4.279   1.433 -14.341  1.00  0.00     0.124 S 
ATOM     71  O   UNL     1       4.632   2.212 -13.158  1.00  0.00    -0.237 OA
ATOM     72  O   UNL     1       5.389   1.074 -15.216  1.00  0.00    -0.237 OA
ATOM     73  O   UNL     1       3.056   1.847 -15.023  1.00  0.00    -0.744 OA
ENDBRANCH  69  70
ENDBRANCH  48  62
BRANCH  49  74
ATOM     74  C   UNL     1       0.316 -10.555  -7.065  1.00  0.00     0.058 A 
ATOM     75  C   UNL     1       0.957 -11.800  -7.120  1.00  0.00     0.135 A 
ATOM     76  C   UNL     1      -0.740 -10.400  -6.153  1.00  0.00     0.135 A 
ATOM     77  F   UNL     1       1.967 -11.997  -7.981  1.00  0.00    -0.206 F 
ATOM     78  C   UNL     1       0.578 -12.850  -6.291  1.00  0.00     0.059 A 
ATOM     79  C   UNL     1      -1.123 -11.428  -5.298  1.00  0.00     0.059 A 
ATOM     80  F   UNL     1      -1.373  -9.220  -6.051  1.00  0.00    -0.206 F 
ATOM     81  C   UNL     1      -0.456 -12.650  -5.373  1.00  0.00     0.060 A 
BRANCH  81  82
ATOM     82  S   UNL     1      -0.864 -13.982  -4.223  1.00  0.00     0.124 S 
ATOM     83  O   UNL     1      -1.557 -14.923  -5.096  1.00  0.00    -0.237 OA
ATOM     84  O   UNL     1       0.455 -14.398  -3.756  1.00  0.00    -0.237 OA
ATOM     85  O   UNL     1      -1.693 -13.319  -3.222  1.00  0.00    -0.744 OA
ENDBRANCH  81  82
ENDBRANCH  49  74
BRANCH  61  86
ATOM     86  C   UNL     1       0.013  -8.913 -13.849  1.00  0.00     0.058 A 
ATOM     87  C   UNL     1      -1.369  -9.052 -14.049  1.00  0.00     0.135 A 
ATOM     88  C   UNL     1       0.874  -9.438 -14.827  1.00  0.00     0.135 A 
ATOM     89  F   UNL     1      -2.235  -8.574 -13.141  1.00  0.00    -0.206 F 
ATOM     90  C   UNL     1      -1.879  -9.712 -15.162  1.00  0.00     0.059 A 
ATOM     91  C   UNL     1       0.385 -10.079 -15.961  1.00  0.00     0.059 A 
ATOM     92  F   UNL     1       2.204  -9.323 -14.689  1.00  0.00    -0.206 F 
ATOM     93  C   UNL     1      -0.994 -10.223 -16.113  1.00  0.00     0.060 A 
BRANCH  93  94
ATOM     94  S   UNL     1      -1.668 -11.060 -17.564  1.00  0.00     0.124 S 
ATOM     95  O   UNL     1      -2.084 -12.339 -16.997  1.00  0.00    -0.237 OA
ATOM     96  O   UNL     1      -2.747 -10.165 -17.970  1.00  0.00    -0.237 OA
ATOM     97  O   UNL     1      -0.532 -11.118 -18.480  1.00  0.00    -0.744 OA
ENDBRANCH  93  94
ENDBRANCH  61  86
ENDBRANCH  35  36
ENDBRANCH  27  30
ENDBRANCH  25  26
ENDBRANCH   1  25
TORSDOF 18
