REMARK SMILES [NH3+][C@@H](CCCCC(=O)NCCCNC(=O)c1ccc(-c2c3nc(c(-c4c(F)cc(S(=O)(=O)[O-])cc4F)c4ccc([nH]4)c(-c4c(F)cc(S(=O)(=O)[O-])cc4F)c4nc(c(-c5c(F)cc(S(=O)(=O)[O-])cc5F)c5ccc2[nH]5)C=C4)C=C3)cc1)c1ccc2[nH]c(=O)[nH]c2c1
REMARK SMILES IDX 10 1 9 2 7 3 8 4 6 6 5 7 4 8 3 9 2 10 1 11 82 15 83 16 91 17
REMARK SMILES IDX 84 18 90 19 85 20 89 21 86 22 87 23 88 26 11 27 12 28 13 29
REMARK SMILES IDX 14 30 15 32 16 33 17 34 81 35 18 36 80 37 19 38 20 39 21 40
REMARK SMILES IDX 74 41 22 42 79 43 73 44 75 45 23 46 78 47 72 48 71 49 24 51
REMARK SMILES IDX 58 52 37 53 57 54 38 55 41 56 56 57 76 58 39 59 40 60 55 62
REMARK SMILES IDX 77 63 42 64 25 65 26 66 35 67 27 68 28 69 34 70 36 71 29 72
REMARK SMILES IDX 30 73 31 74 32 75 33 76 59 77 60 78 69 79 61 80 62 81 68 82
REMARK SMILES IDX 70 83 63 84 64 85 65 86 66 87 67 88 43 89 44 90 53 91 45 92
REMARK SMILES IDX 46 93 52 94 54 95 47 96 48 97 49 98 50 99 51 100
REMARK H PARENT 9 5 1 12 1 13 1 14 89 24 86 25 13 31 75 50 41 61
REMARK Flexibility Score: inf
ROOT
ATOM      1  C   UNL     1       1.471  -0.250   5.266  1.00  0.00     0.117 C 
ENDROOT
BRANCH   1   2
ATOM      2  N   UNL     1       0.286   0.310   5.883  1.00  0.00    -0.356 N 
ATOM      3  C   UNL     1      -0.954   0.503   5.354  1.00  0.00     0.219 C 
ATOM      4  O   UNL     1      -1.792   1.099   6.033  1.00  0.00    -0.275 OA
ATOM      5  H   UNL     1       0.393   0.591   6.820  1.00  0.00     0.163 HD
BRANCH   3   6
ATOM      6  C   UNL     1      -1.295  -0.034   3.978  1.00  0.00     0.100 C 
BRANCH   6   7
ATOM      7  C   UNL     1      -1.111   0.977   2.844  1.00  0.00     0.010 C 
BRANCH   7   8
ATOM      8  C   UNL     1       0.190   0.956   2.017  1.00  0.00     0.007 C 
BRANCH   8   9
ATOM      9  C   UNL     1       0.773  -0.403   1.580  1.00  0.00     0.070 C 
BRANCH   9  10
ATOM     10  C   UNL     1       0.333  -0.930   0.194  1.00  0.00     0.212 C 
BRANCH  10  11
ATOM     11  N   UNL     1       0.972  -0.175  -0.884  1.00  0.00    -0.351 N 
ATOM     12  H   UNL     1       1.984  -0.185  -0.752  1.00  0.00     0.345 HD
ATOM     13  H   UNL     1       0.637   0.788  -0.869  1.00  0.00     0.345 HD
ATOM     14  H   UNL     1       0.742  -0.602  -1.781  1.00  0.00     0.345 HD
ENDBRANCH  10  11
BRANCH  10  15
ATOM     15  C   UNL     1      -1.183  -0.983   0.101  1.00  0.00     0.011 A 
ATOM     16  C   UNL     1      -1.926  -0.004  -0.618  1.00  0.00     0.012 A 
ATOM     17  C   UNL     1      -1.865  -1.940   0.881  1.00  0.00     0.038 A 
ATOM     18  C   UNL     1      -3.319   0.091  -0.510  1.00  0.00     0.029 A 
ATOM     19  C   UNL     1      -3.227  -1.811   0.985  1.00  0.00     0.067 A 
ATOM     20  C   UNL     1      -3.933  -0.812   0.320  1.00  0.00     0.066 A 
ATOM     21  N   UNL     1      -4.126  -2.524   1.770  1.00  0.00    -0.306 N 
ATOM     22  N   UNL     1      -5.266  -0.904   0.702  1.00  0.00    -0.306 N 
ATOM     23  C   UNL     1      -5.404  -1.963   1.614  1.00  0.00     0.323 A 
ATOM     24  H   UNL     1      -3.903  -3.294   2.341  1.00  0.00     0.171 HD
ATOM     25  H   UNL     1      -5.994  -0.323   0.386  1.00  0.00     0.171 HD
ATOM     26  O   UNL     1      -6.423  -2.319   2.167  1.00  0.00    -0.248 OA
ENDBRANCH  10  15
ENDBRANCH   9  10
ENDBRANCH   8   9
ENDBRANCH   7   8
ENDBRANCH   6   7
ENDBRANCH   3   6
ENDBRANCH   1   2
BRANCH   1  27
ATOM     27  C   UNL     1       2.383   0.851   4.746  1.00  0.00     0.042 C 
BRANCH  27  28
ATOM     28  C   UNL     1       3.277   1.461   5.809  1.00  0.00     0.118 C 
BRANCH  28  29
ATOM     29  N   UNL     1       4.368   0.579   6.186  1.00  0.00    -0.352 N 
ATOM     30  C   UNL     1       5.726   0.762   6.086  1.00  0.00     0.251 C 
ATOM     31  H   UNL     1       4.091  -0.283   6.573  1.00  0.00     0.163 HD
ATOM     32  O   UNL     1       6.471  -0.195   6.284  1.00  0.00    -0.269 OA
BRANCH  30  33
ATOM     33  C   UNL     1       6.294   2.083   5.723  1.00  0.00     0.039 A 
ATOM     34  C   UNL     1       7.440   2.128   4.923  1.00  0.00     0.014 A 
ATOM     35  C   UNL     1       5.734   3.274   6.192  1.00  0.00     0.014 A 
ATOM     36  C   UNL     1       7.992   3.361   4.558  1.00  0.00     0.010 A 
ATOM     37  C   UNL     1       6.220   4.498   5.744  1.00  0.00     0.010 A 
ATOM     38  C   UNL     1       7.370   4.558   4.945  1.00  0.00    -0.014 A 
BRANCH  38  39
ATOM     39  C   UNL     1       7.933   5.886   4.589  1.00  0.00     0.031 A 
ATOM     40  C   UNL     1       8.363   6.828   5.684  1.00  0.00     0.074 A 
ATOM     41  C   UNL     1       7.989   6.276   3.300  1.00  0.00     0.049 A 
ATOM     42  N   UNL     1       8.755   8.073   5.600  1.00  0.00    -0.248 NA
ATOM     43  C   UNL     1       8.305   6.311   7.061  1.00  0.00     0.031 C 
ATOM     44  C   UNL     1       7.561   5.475   2.152  1.00  0.00     0.029 A 
ATOM     45  N   UNL     1       8.415   7.455   2.742  1.00  0.00    -0.354 N 
ATOM     46  C   UNL     1       8.953   8.496   6.910  1.00  0.00     0.074 A 
ATOM     47  C   UNL     1       8.587   7.393   7.770  1.00  0.00     0.031 C 
ATOM     48  C   UNL     1       7.764   6.177   1.026  1.00  0.00     0.029 A 
ATOM     49  C   UNL     1       8.299   7.491   1.372  1.00  0.00     0.049 A 
ATOM     50  H   UNL     1       8.770   8.205   3.272  1.00  0.00     0.167 HD
ATOM     51  C   UNL     1       9.421   9.686   7.357  1.00  0.00     0.037 A 
ATOM     52  C   UNL     1       8.583   8.474   0.496  1.00  0.00     0.037 A 
ATOM     53  C   UNL     1       9.833  10.760   6.493  1.00  0.00     0.049 A 
ATOM     54  C   UNL     1       9.139   9.775   1.009  1.00  0.00     0.074 A 
ATOM     55  C   UNL     1      10.383  11.981   6.839  1.00  0.00     0.029 A 
ATOM     56  N   UNL     1       9.747  10.737   5.109  1.00  0.00    -0.354 N 
ATOM     57  N   UNL     1       9.364  10.142   2.248  1.00  0.00    -0.248 NA
ATOM     58  C   UNL     1       9.486  10.791   0.007  1.00  0.00     0.031 C 
ATOM     59  C   UNL     1      10.603  12.709   5.664  1.00  0.00     0.029 A 
ATOM     60  C   UNL     1      10.227  11.925   4.585  1.00  0.00     0.049 A 
ATOM     61  H   UNL     1       9.397   9.986   4.577  1.00  0.00     0.167 HD
ATOM     62  C   UNL     1       9.903  11.421   2.174  1.00  0.00     0.074 A 
ATOM     63  C   UNL     1       9.977  11.761   0.768  1.00  0.00     0.031 C 
ATOM     64  C   UNL     1      10.303  12.239   3.179  1.00  0.00     0.037 A 
BRANCH  51  65
ATOM     65  C   UNL     1       9.516   9.877   8.846  1.00  0.00     0.058 A 
ATOM     66  C   UNL     1      10.455   9.177   9.622  1.00  0.00     0.135 A 
ATOM     67  C   UNL     1       8.655  10.767   9.508  1.00  0.00     0.135 A 
ATOM     68  F   UNL     1      11.292   8.302   9.043  1.00  0.00    -0.206 F 
ATOM     69  C   UNL     1      10.506   9.317  11.005  1.00  0.00     0.059 A 
ATOM     70  C   UNL     1       8.709  10.945  10.888  1.00  0.00     0.059 A 
ATOM     71  F   UNL     1       7.740  11.464   8.817  1.00  0.00    -0.206 F 
ATOM     72  C   UNL     1       9.623  10.198  11.630  1.00  0.00     0.060 A 
BRANCH  72  73
ATOM     73  S   UNL     1       9.683  10.351  13.428  1.00  0.00     0.124 S 
ATOM     74  O   UNL     1       9.019   9.120  13.845  1.00  0.00    -0.237 OA
ATOM     75  O   UNL     1      11.117  10.416  13.690  1.00  0.00    -0.237 OA
ATOM     76  O   UNL     1       8.945  11.582  13.688  1.00  0.00    -0.744 OA
ENDBRANCH  72  73
ENDBRANCH  51  65
BRANCH  52  77
ATOM     77  C   UNL     1       8.378   8.246  -0.958  1.00  0.00     0.058 A 
ATOM     78  C   UNL     1       9.471   8.055  -1.817  1.00  0.00     0.135 A 
ATOM     79  C   UNL     1       7.090   8.173  -1.512  1.00  0.00     0.135 A 
ATOM     80  F   UNL     1      10.721   8.122  -1.335  1.00  0.00    -0.206 F 
ATOM     81  C   UNL     1       9.296   7.803  -3.173  1.00  0.00     0.059 A 
ATOM     82  C   UNL     1       6.890   7.901  -2.861  1.00  0.00     0.059 A 
ATOM     83  F   UNL     1       6.012   8.331  -0.728  1.00  0.00    -0.206 F 
ATOM     84  C   UNL     1       8.000   7.721  -3.686  1.00  0.00     0.060 A 
BRANCH  84  85
ATOM     85  S   UNL     1       7.783   7.317  -5.433  1.00  0.00     0.124 S 
ATOM     86  O   UNL     1       8.160   8.572  -6.074  1.00  0.00    -0.237 OA
ATOM     87  O   UNL     1       8.712   6.205  -5.608  1.00  0.00    -0.237 OA
ATOM     88  O   UNL     1       6.370   6.962  -5.520  1.00  0.00    -0.744 OA
ENDBRANCH  84  85
ENDBRANCH  52  77
BRANCH  64  89
ATOM     89  C   UNL     1      10.892  13.567   2.798  1.00  0.00     0.058 A 
ATOM     90  C   UNL     1      10.091  14.627   2.348  1.00  0.00     0.135 A 
ATOM     91  C   UNL     1      12.269  13.801   2.950  1.00  0.00     0.135 A 
ATOM     92  F   UNL     1       8.770  14.451   2.180  1.00  0.00    -0.206 F 
ATOM     93  C   UNL     1      10.636  15.870   2.045  1.00  0.00     0.059 A 
ATOM     94  C   UNL     1      12.832  15.042   2.676  1.00  0.00     0.059 A 
ATOM     95  F   UNL     1      13.076  12.822   3.388  1.00  0.00    -0.206 F 
ATOM     96  C   UNL     1      12.008  16.069   2.215  1.00  0.00     0.060 A 
BRANCH  96  97
ATOM     97  S   UNL     1      12.698  17.699   1.862  1.00  0.00     0.124 S 
ATOM     98  O   UNL     1      12.709  17.703   0.403  1.00  0.00    -0.237 OA
ATOM     99  O   UNL     1      11.730  18.592   2.491  1.00  0.00    -0.237 OA
ATOM    100  O   UNL     1      14.010  17.658   2.501  1.00  0.00    -0.744 OA
ENDBRANCH  96  97
ENDBRANCH  64  89
ENDBRANCH  38  39
ENDBRANCH  30  33
ENDBRANCH  28  29
ENDBRANCH  27  28
ENDBRANCH   1  27
TORSDOF 19
