REMARK SMILES CO[C@@H]1C[NH2+][C@@H](O[C@@H]2C[C@@H](C(=O)NCCCNC(=O)c3ccc(-c4c5nc(c(-c6c(F)cc(S(=O)(=O)[O-])cc6F)c6ccc([nH]6)c(-c6c(F)cc(S(=O)(=O)[O-])cc6F)c6nc(c(-c7c(F)cc(S(=O)(=O)[O-])cc7F)c7ccc4[nH]7)C=C6)C=C5)cc3)N(C(=O)OC(C)(C)C)C2)c2cc(Cl)ccc21
REMARK SMILES IDX 15 1 14 2 13 3 11 4 12 5 10 7 8 8 9 9 94 10 86 11 7 12 6 13
REMARK SMILES IDX 3 14 4 15 101 16 5 17 95 18 100 19 96 22 99 23 97 24 98 25
REMARK SMILES IDX 2 26 1 27 87 28 88 29 89 30 90 31 91 32 92 33 93 34 16 35
REMARK SMILES IDX 17 36 18 37 19 39 20 40 21 41 85 42 22 43 84 44 23 45 24 46
REMARK SMILES IDX 25 47 78 48 26 49 83 50 77 51 79 52 27 53 82 54 76 55 75 56
REMARK SMILES IDX 28 58 62 59 41 60 61 61 42 62 45 63 60 64 80 65 43 66 44 67
REMARK SMILES IDX 59 69 81 70 46 71 29 72 30 73 39 74 31 75 32 76 38 77 40 78
REMARK SMILES IDX 33 79 34 80 35 81 36 82 37 83 63 84 64 85 73 86 65 87 66 88
REMARK SMILES IDX 72 89 74 90 67 91 68 92 69 93 70 94 71 95 47 96 48 97 57 98
REMARK SMILES IDX 49 99 50 100 56 101 58 102 51 103 52 104 53 105 54 106
REMARK SMILES IDX 55 107
REMARK H PARENT 13 6 5 20 5 21 17 38 79 57 45 68
REMARK Flexibility Score: inf
ROOT
ATOM      1  C   UNL     1      -2.757   2.863  -2.070  1.00  0.00     0.042 C 
ENDROOT
BRANCH   1   2
ATOM      2  C   UNL     1      -2.074   1.619  -2.641  1.00  0.00     0.117 C 
BRANCH   2   3
ATOM      3  N   UNL     1      -1.669   1.794  -4.037  1.00  0.00    -0.354 N 
ATOM      4  C   UNL     1      -0.433   1.779  -4.646  1.00  0.00     0.243 C 
ATOM      5  O   UNL     1      -0.390   1.915  -5.871  1.00  0.00    -0.273 OA
ATOM      6  H   UNL     1      -2.418   1.952  -4.656  1.00  0.00     0.163 HD
BRANCH   4   7
ATOM      7  C   UNL     1       0.843   1.510  -3.819  1.00  0.00     0.180 C 
ATOM      8  C   UNL     1       3.264   1.875  -3.855  1.00  0.00     0.147 C 
ATOM      9  C   UNL     1       1.913   2.606  -3.934  1.00  0.00     0.069 C 
ATOM     10  C   UNL     1       2.964   0.483  -4.395  1.00  0.00     0.156 C 
ATOM     11  N   UNL     1       1.542   0.281  -4.203  1.00  0.00    -0.293 N 
BRANCH   8  12
ATOM     12  O   UNL     1       4.103   1.897  -2.704  1.00  0.00    -0.320 OA
BRANCH  12  13
ATOM     13  C   UNL     1       3.785   1.702  -1.334  1.00  0.00     0.354 C 
ATOM     14  C   UNL     1       1.190   0.591  -0.479  1.00  0.00     0.203 C 
ATOM     15  C   UNL     1       2.406  -0.289  -0.889  1.00  0.00     0.300 C 
ATOM     16  C   UNL     1       1.449   2.093  -0.454  1.00  0.00    -0.002 A 
ATOM     17  N   UNL     1       3.727   0.324  -0.885  1.00  0.00    -0.315 N 
ATOM     18  C   UNL     1       2.715   2.599  -0.786  1.00  0.00     0.046 A 
ATOM     19  C   UNL     1       0.425   3.012  -0.186  1.00  0.00     0.009 A 
ATOM     20  H   UNL     1       4.331  -0.229  -1.493  1.00  0.00     0.349 HD
ATOM     21  H   UNL     1       4.023   0.339   0.091  1.00  0.00     0.349 HD
ATOM     22  C   UNL     1       2.982   3.979  -0.675  1.00  0.00     0.033 A 
ATOM     23  C   UNL     1       0.665   4.393  -0.195  1.00  0.00     0.021 A 
ATOM     24  C   UNL     1       1.957   4.868  -0.385  1.00  0.00     0.041 A 
ATOM     25  Cl  UNL     1       2.290   6.551  -0.292  1.00  0.00    -0.084 Cl
BRANCH  14  26
ATOM     26  O   UNL     1       0.445   0.098   0.635  1.00  0.00    -0.371 OA
ATOM     27  C   UNL     1       1.117   0.103   1.877  1.00  0.00     0.196 C 
ENDBRANCH  14  26
ENDBRANCH  12  13
ENDBRANCH   8  12
BRANCH  11  28
ATOM     28  C   UNL     1       1.031  -0.992  -4.207  1.00  0.00     0.411 C 
ATOM     29  O   UNL     1       1.701  -1.973  -4.495  1.00  0.00    -0.224 OA
BRANCH  28  30
ATOM     30  O   UNL     1      -0.268  -1.028  -3.818  1.00  0.00    -0.444 OA
BRANCH  30  31
ATOM     31  C   UNL     1      -0.997  -2.283  -3.851  1.00  0.00     0.106 C 
ATOM     32  C   UNL     1      -1.071  -2.837  -5.279  1.00  0.00     0.056 C 
ATOM     33  C   UNL     1      -0.418  -3.300  -2.861  1.00  0.00     0.056 C 
ATOM     34  C   UNL     1      -2.420  -1.929  -3.397  1.00  0.00     0.056 C 
ENDBRANCH  30  31
ENDBRANCH  28  30
ENDBRANCH  11  28
ENDBRANCH   4   7
ENDBRANCH   2   3
ENDBRANCH   1   2
BRANCH   1  35
ATOM     35  C   UNL     1      -4.270   2.719  -1.966  1.00  0.00     0.118 C 
BRANCH  35  36
ATOM     36  N   UNL     1      -4.722   2.039  -0.752  1.00  0.00    -0.352 N 
ATOM     37  C   UNL     1      -5.897   2.247  -0.050  1.00  0.00     0.251 C 
ATOM     38  H   UNL     1      -4.118   1.351  -0.392  1.00  0.00     0.163 HD
ATOM     39  O   UNL     1      -6.082   1.685   1.025  1.00  0.00    -0.269 OA
BRANCH  37  40
ATOM     40  C   UNL     1      -6.907   3.195  -0.584  1.00  0.00     0.039 A 
ATOM     41  C   UNL     1      -7.197   3.209  -1.947  1.00  0.00     0.014 A 
ATOM     42  C   UNL     1      -7.516   4.123   0.266  1.00  0.00     0.014 A 
ATOM     43  C   UNL     1      -7.901   4.275  -2.490  1.00  0.00     0.010 A 
ATOM     44  C   UNL     1      -8.328   5.131  -0.273  1.00  0.00     0.010 A 
ATOM     45  C   UNL     1      -8.477   5.252  -1.663  1.00  0.00    -0.014 A 
BRANCH  45  46
ATOM     46  C   UNL     1      -9.218   6.382  -2.290  1.00  0.00     0.031 A 
ATOM     47  C   UNL     1      -8.755   7.806  -2.110  1.00  0.00     0.074 A 
ATOM     48  C   UNL     1     -10.266   6.110  -3.095  1.00  0.00     0.049 A 
ATOM     49  N   UNL     1      -9.276   8.907  -2.590  1.00  0.00    -0.248 NA
ATOM     50  C   UNL     1      -7.556   8.028  -1.285  1.00  0.00     0.031 C 
ATOM     51  C   UNL     1     -10.793   4.768  -3.365  1.00  0.00     0.029 A 
ATOM     52  N   UNL     1     -11.055   6.931  -3.859  1.00  0.00    -0.354 N 
ATOM     53  C   UNL     1      -8.487   9.948  -2.111  1.00  0.00     0.074 A 
ATOM     54  C   UNL     1      -7.466   9.351  -1.278  1.00  0.00     0.031 C 
ATOM     55  C   UNL     1     -11.768   4.852  -4.280  1.00  0.00     0.029 A 
ATOM     56  C   UNL     1     -11.998   6.256  -4.598  1.00  0.00     0.049 A 
ATOM     57  H   UNL     1     -10.955   7.910  -3.877  1.00  0.00     0.167 HD
ATOM     58  C   UNL     1      -8.598  11.276  -2.354  1.00  0.00     0.037 A 
ATOM     59  C   UNL     1     -12.961   6.712  -5.423  1.00  0.00     0.037 A 
ATOM     60  C   UNL     1      -9.601  11.857  -3.210  1.00  0.00     0.049 A 
ATOM     61  C   UNL     1     -13.093   8.193  -5.633  1.00  0.00     0.074 A 
ATOM     62  C   UNL     1      -9.790  13.191  -3.530  1.00  0.00     0.029 A 
ATOM     63  N   UNL     1     -10.578  11.143  -3.889  1.00  0.00    -0.354 N 
ATOM     64  N   UNL     1     -12.346   9.160  -5.157  1.00  0.00    -0.248 NA
ATOM     65  C   UNL     1     -14.206   8.647  -6.476  1.00  0.00     0.031 C 
ATOM     66  C   UNL     1     -10.908  13.288  -4.363  1.00  0.00     0.029 A 
ATOM     67  C   UNL     1     -11.385  12.011  -4.607  1.00  0.00     0.049 A 
ATOM     68  H   UNL     1     -10.683  10.165  -3.863  1.00  0.00     0.167 HD
ATOM     69  C   UNL     1     -12.892  10.338  -5.652  1.00  0.00     0.074 A 
ATOM     70  C   UNL     1     -14.017   9.960  -6.482  1.00  0.00     0.031 C 
ATOM     71  C   UNL     1     -12.501  11.617  -5.431  1.00  0.00     0.037 A 
BRANCH  58  72
ATOM     72  C   UNL     1      -7.619  12.207  -1.688  1.00  0.00     0.058 A 
ATOM     73  C   UNL     1      -6.279  12.286  -2.097  1.00  0.00     0.135 A 
ATOM     74  C   UNL     1      -8.047  13.090  -0.682  1.00  0.00     0.135 A 
ATOM     75  F   UNL     1      -5.810  11.455  -3.042  1.00  0.00    -0.206 F 
ATOM     76  C   UNL     1      -5.396  13.200  -1.528  1.00  0.00     0.059 A 
ATOM     77  C   UNL     1      -7.189  14.029  -0.116  1.00  0.00     0.059 A 
ATOM     78  F   UNL     1      -9.318  13.057  -0.251  1.00  0.00    -0.206 F 
ATOM     79  C   UNL     1      -5.862  14.072  -0.542  1.00  0.00     0.060 A 
BRANCH  79  80
ATOM     80  S   UNL     1      -4.709  15.270   0.162  1.00  0.00     0.124 S 
ATOM     81  O   UNL     1      -3.808  14.401   0.913  1.00  0.00    -0.237 OA
ATOM     82  O   UNL     1      -4.142  15.890  -1.031  1.00  0.00    -0.237 OA
ATOM     83  O   UNL     1      -5.563  16.134   0.970  1.00  0.00    -0.744 OA
ENDBRANCH  79  80
ENDBRANCH  58  72
BRANCH  59  84
ATOM     84  C   UNL     1     -13.883   5.752  -6.087  1.00  0.00     0.058 A 
ATOM     85  C   UNL     1     -13.850   5.558  -7.475  1.00  0.00     0.135 A 
ATOM     86  C   UNL     1     -14.798   4.989  -5.343  1.00  0.00     0.135 A 
ATOM     87  F   UNL     1     -12.999   6.267  -8.232  1.00  0.00    -0.206 F 
ATOM     88  C   UNL     1     -14.695   4.648  -8.103  1.00  0.00     0.059 A 
ATOM     89  C   UNL     1     -15.630   4.051  -5.943  1.00  0.00     0.059 A 
ATOM     90  F   UNL     1     -14.860   5.126  -4.009  1.00  0.00    -0.206 F 
ATOM     91  C   UNL     1     -15.578   3.895  -7.327  1.00  0.00     0.060 A 
BRANCH  91  92
ATOM     92  S   UNL     1     -16.633   2.681  -8.147  1.00  0.00     0.124 S 
ATOM     93  O   UNL     1     -17.570   3.541  -8.860  1.00  0.00    -0.237 OA
ATOM     94  O   UNL     1     -15.675   1.955  -8.975  1.00  0.00    -0.237 OA
ATOM     95  O   UNL     1     -17.194   1.918  -7.037  1.00  0.00    -0.744 OA
ENDBRANCH  91  92
ENDBRANCH  59  84
BRANCH  71  96
ATOM     96  C   UNL     1     -13.284  12.705  -6.109  1.00  0.00     0.058 A 
ATOM     97  C   UNL     1     -14.570  13.061  -5.676  1.00  0.00     0.135 A 
ATOM     98  C   UNL     1     -12.715  13.444  -7.159  1.00  0.00     0.135 A 
ATOM     99  F   UNL     1     -15.162  12.379  -4.683  1.00  0.00    -0.206 F 
ATOM    100  C   UNL     1     -15.273  14.102  -6.271  1.00  0.00     0.059 A 
ATOM    101  C   UNL     1     -13.389  14.508  -7.750  1.00  0.00     0.059 A 
ATOM    102  F   UNL     1     -11.483  13.149  -7.604  1.00  0.00    -0.206 F 
ATOM    103  C   UNL     1     -14.671  14.825  -7.303  1.00  0.00     0.060 A 
BRANCH 103 104
ATOM    104  S   UNL     1     -15.580  16.203  -8.033  1.00  0.00     0.124 S 
ATOM    105  O   UNL     1     -16.632  15.507  -8.765  1.00  0.00    -0.237 OA
ATOM    106  O   UNL     1     -16.013  16.947  -6.854  1.00  0.00    -0.237 OA
ATOM    107  O   UNL     1     -14.579  16.873  -8.858  1.00  0.00    -0.744 OA
ENDBRANCH 103 104
ENDBRANCH  71  96
ENDBRANCH  45  46
ENDBRANCH  37  40
ENDBRANCH  35  36
ENDBRANCH   1  35
TORSDOF 19
