REMARK SMILES C[C@@H](C(=O)NCCCNC(=O)c1ccc(-c2c3nc(c(-c4c(F)cc(S(=O)(=O)[O-])cc4F)c4ccc([nH]4)c(-c4c(F)cc(S(=O)(=O)[O-])cc4F)c4nc(c(-c5c(F)cc(S(=O)(=O)[O-])cc5F)c5ccc2[nH]5)C=C4)C=C3)cc1)c1ccc2c(c1)[nH]c1ccc(Cl)cc12
REMARK SMILES IDX 8 1 7 2 6 3 5 4 3 5 4 6 2 8 1 9 78 10 79 11 83 12 80 13
REMARK SMILES IDX 82 14 81 15 84 16 91 17 85 18 90 20 86 21 88 22 87 23 89 24
REMARK SMILES IDX 9 25 10 26 11 28 12 29 13 30 77 31 14 32 76 33 15 34 16 35
REMARK SMILES IDX 17 36 70 37 18 38 75 39 69 40 71 41 19 42 74 43 68 44 67 45
REMARK SMILES IDX 20 47 54 48 33 49 53 50 34 51 37 52 52 53 72 54 35 55 36 56
REMARK SMILES IDX 51 58 73 59 38 60 21 61 22 62 31 63 23 64 24 65 30 66 32 67
REMARK SMILES IDX 25 68 26 69 27 70 28 71 29 72 55 73 56 74 65 75 57 76 58 77
REMARK SMILES IDX 64 78 66 79 59 80 60 81 61 82 62 83 63 84 39 85 40 86 49 87
REMARK SMILES IDX 41 88 42 89 48 90 50 91 43 92 44 93 45 94 46 95 47 96
REMARK H PARENT 5 7 84 19 9 27 71 46 37 57
REMARK Flexibility Score: inf
ROOT
ATOM      1  C   UNL     1       4.996   1.671   1.790  1.00  0.00     0.118 C 
ENDROOT
BRANCH   1   2
ATOM      2  C   UNL     1       4.202   0.605   1.045  1.00  0.00     0.042 C 
BRANCH   2   3
ATOM      3  C   UNL     1       3.264  -0.205   1.933  1.00  0.00     0.117 C 
BRANCH   3   4
ATOM      4  N   UNL     1       2.178   0.601   2.463  1.00  0.00    -0.356 N 
ATOM      5  C   UNL     1       0.860   0.656   2.104  1.00  0.00     0.227 C 
ATOM      6  O   UNL     1       0.157   1.487   2.683  1.00  0.00    -0.274 OA
ATOM      7  H   UNL     1       2.432   1.205   3.197  1.00  0.00     0.163 HD
BRANCH   5   8
ATOM      8  C   UNL     1       0.328  -0.287   1.018  1.00  0.00     0.105 C 
ATOM      9  C   UNL     1       0.628   0.269  -0.375  1.00  0.00     0.023 C 
BRANCH   8  10
ATOM     10  C   UNL     1      -1.154  -0.613   1.188  1.00  0.00    -0.034 A 
ATOM     11  C   UNL     1      -2.152   0.335   0.923  1.00  0.00     0.005 A 
ATOM     12  C   UNL     1      -1.520  -1.898   1.627  1.00  0.00     0.031 A 
ATOM     13  C   UNL     1      -3.511   0.021   1.058  1.00  0.00     0.011 A 
ATOM     14  C   UNL     1      -2.882  -2.186   1.777  1.00  0.00     0.047 A 
ATOM     15  C   UNL     1      -3.886  -1.265   1.492  1.00  0.00     0.007 A 
ATOM     16  N   UNL     1      -3.496  -3.335   2.210  1.00  0.00    -0.355 N 
ATOM     17  C   UNL     1      -5.140  -1.907   1.749  1.00  0.00     0.009 A 
ATOM     18  C   UNL     1      -4.862  -3.185   2.234  1.00  0.00     0.047 A 
ATOM     19  H   UNL     1      -3.021  -4.157   2.470  1.00  0.00     0.167 HD
ATOM     20  C   UNL     1      -6.488  -1.509   1.631  1.00  0.00     0.031 A 
ATOM     21  C   UNL     1      -5.858  -4.078   2.646  1.00  0.00     0.028 A 
ATOM     22  C   UNL     1      -7.493  -2.396   2.027  1.00  0.00     0.041 A 
ATOM     23  C   UNL     1      -7.186  -3.655   2.538  1.00  0.00     0.022 A 
ATOM     24  Cl  UNL     1      -9.144  -1.922   1.885  1.00  0.00    -0.084 Cl
ENDBRANCH   8  10
ENDBRANCH   5   8
ENDBRANCH   3   4
ENDBRANCH   2   3
ENDBRANCH   1   2
BRANCH   1  25
ATOM     25  N   UNL     1       6.004   1.106   2.677  1.00  0.00    -0.352 N 
ATOM     26  C   UNL     1       7.363   1.328   2.709  1.00  0.00     0.251 C 
ATOM     27  H   UNL     1       5.665   0.474   3.351  1.00  0.00     0.163 HD
ATOM     28  O   UNL     1       8.077   0.634   3.422  1.00  0.00    -0.269 OA
BRANCH  26  29
ATOM     29  C   UNL     1       7.957   2.387   1.862  1.00  0.00     0.039 A 
ATOM     30  C   UNL     1       9.110   2.101   1.124  1.00  0.00     0.014 A 
ATOM     31  C   UNL     1       7.374   3.653   1.789  1.00  0.00     0.014 A 
ATOM     32  C   UNL     1       9.632   3.061   0.252  1.00  0.00     0.010 A 
ATOM     33  C   UNL     1       7.850   4.580   0.868  1.00  0.00     0.010 A 
ATOM     34  C   UNL     1       8.982   4.293   0.087  1.00  0.00    -0.014 A 
BRANCH  34  35
ATOM     35  C   UNL     1       9.447   5.313  -0.888  1.00  0.00     0.031 A 
ATOM     36  C   UNL     1       9.887   6.663  -0.397  1.00  0.00     0.074 A 
ATOM     37  C   UNL     1       9.352   5.074  -2.210  1.00  0.00     0.049 A 
ATOM     38  N   UNL     1      10.130   7.754  -1.075  1.00  0.00    -0.248 NA
ATOM     39  C   UNL     1      10.038   6.812   1.059  1.00  0.00     0.031 C 
ATOM     40  C   UNL     1       8.907   3.817  -2.813  1.00  0.00     0.029 A 
ATOM     41  N   UNL     1       9.589   5.894  -3.286  1.00  0.00    -0.354 N 
ATOM     42  C   UNL     1      10.426   8.728  -0.130  1.00  0.00     0.074 A 
ATOM     43  C   UNL     1      10.295   8.106   1.171  1.00  0.00     0.031 C 
ATOM     44  C   UNL     1       8.893   3.952  -4.149  1.00  0.00     0.029 A 
ATOM     45  C   UNL     1       9.281   5.316  -4.496  1.00  0.00     0.049 A 
ATOM     46  H   UNL     1       9.944   6.808  -3.200  1.00  0.00     0.167 HD
ATOM     47  C   UNL     1      10.784  10.020  -0.328  1.00  0.00     0.037 A 
ATOM     48  C   UNL     1       9.280   5.833  -5.741  1.00  0.00     0.037 A 
ATOM     49  C   UNL     1      10.934  10.622  -1.626  1.00  0.00     0.049 A 
ATOM     50  C   UNL     1       9.690   7.264  -5.946  1.00  0.00     0.074 A 
ATOM     51  C   UNL     1      11.347  11.905  -1.937  1.00  0.00     0.029 A 
ATOM     52  N   UNL     1      10.672   9.983  -2.830  1.00  0.00    -0.354 N 
ATOM     53  N   UNL     1      10.015   8.162  -5.045  1.00  0.00    -0.248 NA
ATOM     54  C   UNL     1       9.741   7.755  -7.330  1.00  0.00     0.031 C 
ATOM     55  C   UNL     1      11.299  12.054  -3.327  1.00  0.00     0.029 A 
ATOM     56  C   UNL     1      10.901  10.849  -3.885  1.00  0.00     0.049 A 
ATOM     57  H   UNL     1      10.368   9.051  -2.920  1.00  0.00     0.167 HD
ATOM     58  C   UNL     1      10.336   9.314  -5.754  1.00  0.00     0.074 A 
ATOM     59  C   UNL     1      10.164   9.002  -7.158  1.00  0.00     0.031 C 
ATOM     60  C   UNL     1      10.742  10.518  -5.281  1.00  0.00     0.037 A 
BRANCH  47  61
ATOM     61  C   UNL     1      11.017  10.864   0.896  1.00  0.00     0.058 A 
ATOM     62  C   UNL     1      12.113  10.646   1.747  1.00  0.00     0.135 A 
ATOM     63  C   UNL     1      10.120  11.891   1.234  1.00  0.00     0.135 A 
ATOM     64  F   UNL     1      12.994   9.670   1.478  1.00  0.00    -0.206 F 
ATOM     65  C   UNL     1      12.280  11.376   2.919  1.00  0.00     0.059 A 
ATOM     66  C   UNL     1      10.285  12.655   2.385  1.00  0.00     0.059 A 
ATOM     67  F   UNL     1       9.059  12.147   0.453  1.00  0.00    -0.206 F 
ATOM     68  C   UNL     1      11.353  12.370   3.236  1.00  0.00     0.060 A 
BRANCH  68  69
ATOM     69  S   UNL     1      11.550  13.275   4.785  1.00  0.00     0.124 S 
ATOM     70  O   UNL     1      11.076  12.293   5.755  1.00  0.00    -0.237 OA
ATOM     71  O   UNL     1      12.984  13.548   4.811  1.00  0.00    -0.237 OA
ATOM     72  O   UNL     1      10.696  14.445   4.606  1.00  0.00    -0.744 OA
ENDBRANCH  68  69
ENDBRANCH  47  61
BRANCH  48  73
ATOM     73  C   UNL     1       8.884   4.969  -6.883  1.00  0.00     0.058 A 
ATOM     74  C   UNL     1       9.845   4.459  -7.767  1.00  0.00     0.135 A 
ATOM     75  C   UNL     1       7.549   4.575  -7.068  1.00  0.00     0.135 A 
ATOM     76  F   UNL     1      11.132   4.814  -7.636  1.00  0.00    -0.206 F 
ATOM     77  C   UNL     1       9.500   3.580  -8.789  1.00  0.00     0.059 A 
ATOM     78  C   UNL     1       7.183   3.681  -8.069  1.00  0.00     0.059 A 
ATOM     79  F   UNL     1       6.595   5.023  -6.237  1.00  0.00    -0.206 F 
ATOM     80  C   UNL     1       8.167   3.187  -8.924  1.00  0.00     0.060 A 
BRANCH  80  81
ATOM     81  S   UNL     1       7.749   1.964 -10.186  1.00  0.00     0.124 S 
ATOM     82  O   UNL     1       7.852   2.753 -11.407  1.00  0.00    -0.237 OA
ATOM     83  O   UNL     1       8.786   0.955  -9.989  1.00  0.00    -0.237 OA
ATOM     84  O   UNL     1       6.401   1.545  -9.814  1.00  0.00    -0.744 OA
ENDBRANCH  80  81
ENDBRANCH  48  73
BRANCH  60  85
ATOM     85  C   UNL     1      11.081  11.588  -6.281  1.00  0.00     0.058 A 
ATOM     86  C   UNL     1      10.086  12.311  -6.955  1.00  0.00     0.135 A 
ATOM     87  C   UNL     1      12.419  11.965  -6.482  1.00  0.00     0.135 A 
ATOM     88  F   UNL     1       8.793  11.984  -6.804  1.00  0.00    -0.206 F 
ATOM     89  C   UNL     1      10.405  13.375  -7.793  1.00  0.00     0.059 A 
ATOM     90  C   UNL     1      12.760  13.039  -7.298  1.00  0.00     0.059 A 
ATOM     91  F   UNL     1      13.407  11.308  -5.854  1.00  0.00    -0.206 F 
ATOM     92  C   UNL     1      11.745  13.738  -7.950  1.00  0.00     0.060 A 
BRANCH  92  93
ATOM     93  S   UNL     1      12.141  15.172  -8.973  1.00  0.00     0.124 S 
ATOM     94  O   UNL     1      11.931  14.643 -10.317  1.00  0.00    -0.237 OA
ATOM     95  O   UNL     1      11.165  16.159  -8.521  1.00  0.00    -0.237 OA
ATOM     96  O   UNL     1      13.528  15.467  -8.624  1.00  0.00    -0.744 OA
ENDBRANCH  92  93
ENDBRANCH  60  85
ENDBRANCH  34  35
ENDBRANCH  26  29
ENDBRANCH   1  25
TORSDOF 14
