REMARK SMILES Cc1nsc(NC(=O)C2([NH3+])CCCCC2)c1C(=O)NCCCNC(=O)c1ccc(-c2c3nc(c(-c4c(F)cc(S(=O)(=O)[O-])cc4F)c4ccc([nH]4)c(-c4c(F)cc(S(=O)(=O)[O-])cc4F)c4nc(c(-c5c(F)cc(S(=O)(=O)[O-])cc5F)c5ccc2[nH]5)C=C4)C=C3)cc1
REMARK SMILES IDX 21 1 20 2 19 3 17 4 18 5 16 7 1 8 2 9 3 10 4 11 5 12 6 13
REMARK SMILES IDX 7 14 8 16 9 17 11 18 15 19 12 20 14 21 13 22 10 23 22 27
REMARK SMILES IDX 23 28 24 29 25 31 26 32 27 33 91 34 28 35 90 36 29 37 30 38
REMARK SMILES IDX 31 39 84 40 32 41 89 42 83 43 85 44 33 45 88 46 82 47 81 48
REMARK SMILES IDX 34 50 68 51 47 52 67 53 48 54 51 55 66 56 86 57 49 58 50 59
REMARK SMILES IDX 65 61 87 62 52 63 35 64 36 65 45 66 37 67 38 68 44 69 46 70
REMARK SMILES IDX 39 71 40 72 41 73 42 74 43 75 69 76 70 77 79 78 71 79 72 80
REMARK SMILES IDX 78 81 80 82 73 83 74 84 75 85 76 86 77 87 53 88 54 89 63 90
REMARK SMILES IDX 55 91 56 92 62 93 64 94 57 95 58 96 59 97 60 98 61 99
REMARK H PARENT 19 6 6 15 10 24 10 25 10 26 23 30 85 49 51 60
REMARK Flexibility Score: inf
ROOT
ATOM      1  C   UNL     1       1.647  -0.577  -2.226  1.00  0.00     0.042 C 
ENDROOT
BRANCH   1   2
ATOM      2  C   UNL     1       2.668   0.209  -1.395  1.00  0.00     0.118 C 
BRANCH   2   3
ATOM      3  N   UNL     1       2.482   1.627  -1.558  1.00  0.00    -0.352 N 
ATOM      4  C   UNL     1       1.836   2.584  -0.832  1.00  0.00     0.256 C 
ATOM      5  O   UNL     1       1.957   3.725  -1.292  1.00  0.00    -0.269 OA
ATOM      6  H   UNL     1       2.913   1.983  -2.368  1.00  0.00     0.163 HD
BRANCH   4   7
ATOM      7  C   UNL     1       1.128   2.372   0.441  1.00  0.00     0.097 A 
ATOM      8  C   UNL     1       0.377  -0.203   0.721  1.00  0.00     0.069 C 
ATOM      9  C   UNL     1       0.591   1.205   1.147  1.00  0.00     0.066 A 
ATOM     10  N   UNL     1       0.162   1.425   2.392  1.00  0.00    -0.195 NA
ATOM     11  S   UNL     1       0.251   3.014   2.714  1.00  0.00    -0.017 S 
ATOM     12  C   UNL     1       0.737   3.506   1.176  1.00  0.00     0.129 A 
BRANCH  12  13
ATOM     13  N   UNL     1       0.802   4.833   0.776  1.00  0.00    -0.310 N 
ATOM     14  C   UNL     1       0.208   6.008   1.151  1.00  0.00     0.286 C 
ATOM     15  H   UNL     1       1.436   4.962   0.035  1.00  0.00     0.171 HD
ATOM     16  O   UNL     1       0.585   7.010   0.525  1.00  0.00    -0.267 OA
BRANCH  14  17
ATOM     17  C   UNL     1      -0.848   6.168   2.295  1.00  0.00     0.174 C 
ATOM     18  C   UNL     1      -0.127   6.160   3.661  1.00  0.00     0.079 C 
ATOM     19  C   UNL     1      -1.677   7.472   2.133  1.00  0.00     0.079 C 
ATOM     20  C   UNL     1       0.617   7.462   3.959  1.00  0.00     0.007 C 
ATOM     21  C   UNL     1      -0.967   8.764   2.531  1.00  0.00     0.007 C 
ATOM     22  C   UNL     1      -0.320   8.655   3.902  1.00  0.00     0.001 C 
BRANCH  17  23
ATOM     23  N   UNL     1      -1.892   5.120   2.164  1.00  0.00    -0.345 N 
ATOM     24  H   UNL     1      -1.463   4.199   2.255  1.00  0.00     0.345 HD
ATOM     25  H   UNL     1      -2.340   5.198   1.251  1.00  0.00     0.345 HD
ATOM     26  H   UNL     1      -2.591   5.243   2.897  1.00  0.00     0.345 HD
ENDBRANCH  17  23
ENDBRANCH  14  17
ENDBRANCH  12  13
ENDBRANCH   4   7
ENDBRANCH   2   3
ENDBRANCH   1   2
BRANCH   1  27
ATOM     27  C   UNL     1       2.243  -1.041  -3.539  1.00  0.00     0.118 C 
BRANCH  27  28
ATOM     28  N   UNL     1       3.269  -2.067  -3.319  1.00  0.00    -0.352 N 
ATOM     29  C   UNL     1       4.163  -2.609  -4.230  1.00  0.00     0.251 C 
ATOM     30  H   UNL     1       3.331  -2.418  -2.401  1.00  0.00     0.163 HD
ATOM     31  O   UNL     1       4.724  -3.662  -4.008  1.00  0.00    -0.269 OA
BRANCH  29  32
ATOM     32  C   UNL     1       4.397  -1.849  -5.468  1.00  0.00     0.039 A 
ATOM     33  C   UNL     1       4.380  -2.456  -6.723  1.00  0.00     0.014 A 
ATOM     34  C   UNL     1       4.487  -0.469  -5.332  1.00  0.00     0.014 A 
ATOM     35  C   UNL     1       4.350  -1.631  -7.843  1.00  0.00     0.010 A 
ATOM     36  C   UNL     1       4.192   0.317  -6.408  1.00  0.00     0.010 A 
ATOM     37  C   UNL     1       4.212  -0.240  -7.674  1.00  0.00    -0.014 A 
BRANCH  37  38
ATOM     38  C   UNL     1       3.992   0.654  -8.802  1.00  0.00     0.031 A 
ATOM     39  C   UNL     1       2.942   0.190  -9.739  1.00  0.00     0.074 A 
ATOM     40  C   UNL     1       4.574   1.866  -8.933  1.00  0.00     0.049 A 
ATOM     41  N   UNL     1       3.131  -0.483 -10.822  1.00  0.00    -0.248 NA
ATOM     42  C   UNL     1       1.529   0.286  -9.341  1.00  0.00     0.031 C 
ATOM     43  C   UNL     1       5.399   2.622  -7.979  1.00  0.00     0.029 A 
ATOM     44  N   UNL     1       4.502   2.719  -9.989  1.00  0.00    -0.354 N 
ATOM     45  C   UNL     1       1.877  -0.651 -11.390  1.00  0.00     0.074 A 
ATOM     46  C   UNL     1       0.931  -0.370 -10.341  1.00  0.00     0.031 C 
ATOM     47  C   UNL     1       5.567   3.890  -8.416  1.00  0.00     0.029 A 
ATOM     48  C   UNL     1       5.039   3.982  -9.763  1.00  0.00     0.049 A 
ATOM     49  H   UNL     1       4.099   2.461 -10.849  1.00  0.00     0.167 HD
ATOM     50  C   UNL     1       1.742  -0.746 -12.743  1.00  0.00     0.037 A 
ATOM     51  C   UNL     1       5.090   5.015 -10.642  1.00  0.00     0.037 A 
ATOM     52  C   UNL     1       3.029  -0.945 -13.371  1.00  0.00     0.049 A 
ATOM     53  C   UNL     1       4.992   4.414 -11.998  1.00  0.00     0.074 A 
ATOM     54  C   UNL     1       4.016  -1.909 -13.287  1.00  0.00     0.029 A 
ATOM     55  N   UNL     1       3.637   0.165 -13.913  1.00  0.00    -0.354 N 
ATOM     56  N   UNL     1       5.906   3.633 -12.508  1.00  0.00    -0.248 NA
ATOM     57  C   UNL     1       3.664   4.278 -12.576  1.00  0.00     0.031 C 
ATOM     58  C   UNL     1       5.245  -1.184 -13.322  1.00  0.00     0.029 A 
ATOM     59  C   UNL     1       4.950   0.168 -13.515  1.00  0.00     0.049 A 
ATOM     60  H   UNL     1       3.205   0.838 -14.487  1.00  0.00     0.167 HD
ATOM     61  C   UNL     1       5.198   2.622 -13.143  1.00  0.00     0.074 A 
ATOM     62  C   UNL     1       3.823   3.115 -13.215  1.00  0.00     0.031 C 
ATOM     63  C   UNL     1       5.729   1.371 -13.297  1.00  0.00     0.037 A 
BRANCH  50  64
ATOM     64  C   UNL     1       0.544  -0.270 -13.527  1.00  0.00     0.058 A 
ATOM     65  C   UNL     1       0.469  -0.566 -14.904  1.00  0.00     0.135 A 
ATOM     66  C   UNL     1      -0.383   0.687 -13.059  1.00  0.00     0.135 A 
ATOM     67  F   UNL     1       1.305  -1.459 -15.458  1.00  0.00    -0.206 F 
ATOM     68  C   UNL     1      -0.408   0.094 -15.764  1.00  0.00     0.059 A 
ATOM     69  C   UNL     1      -1.301   1.319 -13.889  1.00  0.00     0.059 A 
ATOM     70  F   UNL     1      -0.383   1.129 -11.796  1.00  0.00    -0.206 F 
ATOM     71  C   UNL     1      -1.282   1.044 -15.246  1.00  0.00     0.060 A 
BRANCH  71  72
ATOM     72  S   UNL     1      -2.361   1.950 -16.366  1.00  0.00     0.124 S 
ATOM     73  O   UNL     1      -1.399   2.754 -17.110  1.00  0.00    -0.237 OA
ATOM     74  O   UNL     1      -2.999   0.867 -17.107  1.00  0.00    -0.237 OA
ATOM     75  O   UNL     1      -3.239   2.687 -15.463  1.00  0.00    -0.744 OA
ENDBRANCH  71  72
ENDBRANCH  50  64
BRANCH  51  76
ATOM     76  C   UNL     1       4.790   6.449 -10.375  1.00  0.00     0.058 A 
ATOM     77  C   UNL     1       5.041   7.436 -11.347  1.00  0.00     0.135 A 
ATOM     78  C   UNL     1       3.975   6.838  -9.293  1.00  0.00     0.135 A 
ATOM     79  F   UNL     1       5.794   7.148 -12.420  1.00  0.00    -0.206 F 
ATOM     80  C   UNL     1       4.467   8.712 -11.284  1.00  0.00     0.059 A 
ATOM     81  C   UNL     1       3.396   8.105  -9.207  1.00  0.00     0.059 A 
ATOM     82  F   UNL     1       3.641   5.963  -8.333  1.00  0.00    -0.206 F 
ATOM     83  C   UNL     1       3.624   9.030 -10.220  1.00  0.00     0.060 A 
BRANCH  83  84
ATOM     84  S   UNL     1       2.738  10.608 -10.228  1.00  0.00     0.124 S 
ATOM     85  O   UNL     1       3.818  11.562 -10.001  1.00  0.00    -0.237 OA
ATOM     86  O   UNL     1       2.145  10.623 -11.561  1.00  0.00    -0.237 OA
ATOM     87  O   UNL     1       1.786  10.468  -9.129  1.00  0.00    -0.744 OA
ENDBRANCH  83  84
ENDBRANCH  51  76
BRANCH  63  88
ATOM     88  C   UNL     1       7.208   1.185 -13.054  1.00  0.00     0.058 A 
ATOM     89  C   UNL     1       7.857   1.355 -11.817  1.00  0.00     0.135 A 
ATOM     90  C   UNL     1       7.977   0.663 -14.107  1.00  0.00     0.135 A 
ATOM     91  F   UNL     1       7.181   1.760 -10.733  1.00  0.00    -0.206 F 
ATOM     92  C   UNL     1       9.213   1.055 -11.647  1.00  0.00     0.059 A 
ATOM     93  C   UNL     1       9.319   0.328 -13.953  1.00  0.00     0.059 A 
ATOM     94  F   UNL     1       7.407   0.424 -15.299  1.00  0.00    -0.206 F 
ATOM     95  C   UNL     1       9.936   0.539 -12.723  1.00  0.00     0.060 A 
BRANCH  95  96
ATOM     96  S   UNL     1      11.671   0.091 -12.494  1.00  0.00     0.124 S 
ATOM     97  O   UNL     1      12.308   1.394 -12.336  1.00  0.00    -0.237 OA
ATOM     98  O   UNL     1      11.629  -0.743 -11.296  1.00  0.00    -0.237 OA
ATOM     99  O   UNL     1      12.007  -0.621 -13.725  1.00  0.00    -0.744 OA
ENDBRANCH  95  96
ENDBRANCH  63  88
ENDBRANCH  37  38
ENDBRANCH  29  32
ENDBRANCH  27  28
ENDBRANCH   1  27
TORSDOF 16
