REMARK SMILES Cc1c(-c2nn(-c3ccccc3)cc2/C=N/O)nnn1-c1ccc(C(=O)NCCCNC(=O)c2ccc(-c3c4nc(c(-c5c(F)cc(S(=O)(=O)[O-])cc5F)c5ccc([nH]5)c(-c5c(F)cc(S(=O)(=O)[O-])cc5F)c5nc(c(-c6c(F)cc(S(=O)(=O)[O-])cc6F)c6ccc3[nH]6)C=C5)C=C4)cc2)cc1
REMARK SMILES IDX 28 1 27 2 25 3 26 4 24 6 21 7 22 8 101 9 23 10 100 11 20 12
REMARK SMILES IDX 1 13 2 14 3 15 18 16 19 17 4 18 5 19 14 20 6 21 13 22 15 23
REMARK SMILES IDX 16 24 17 25 7 27 8 28 12 29 9 30 11 31 10 32 29 33 30 34
REMARK SMILES IDX 31 35 32 36 33 38 34 39 35 40 99 41 36 42 98 43 37 44 38 45
REMARK SMILES IDX 39 46 92 47 40 48 97 49 91 50 93 51 41 52 96 53 90 54 89 55
REMARK SMILES IDX 42 57 76 58 55 59 75 60 56 61 59 62 74 63 94 64 57 65 58 66
REMARK SMILES IDX 73 68 95 69 60 70 43 71 44 72 53 73 45 74 46 75 52 76 54 77
REMARK SMILES IDX 47 78 48 79 49 80 50 81 51 82 77 83 78 84 87 85 79 86 80 87
REMARK SMILES IDX 86 88 88 89 81 90 82 91 83 92 84 93 85 94 61 95 62 96 71 97
REMARK SMILES IDX 63 98 64 99 70 100 72 101 65 102 66 103 67 104 68 105 69 106
REMARK H PARENT 27 5 17 26 31 37 93 56 59 67
REMARK Flexibility Score: inf
ROOT
ATOM      1  C   UNL     1       3.795   1.640  -5.529  1.00  0.00     0.118 C 
ENDROOT
BRANCH   1   2
ATOM      2  N   UNL     1       4.788   2.515  -4.938  1.00  0.00    -0.352 N 
ATOM      3  C   UNL     1       4.825   3.203  -3.755  1.00  0.00     0.251 C 
ATOM      4  O   UNL     1       5.840   3.855  -3.511  1.00  0.00    -0.269 OA
ATOM      5  H   UNL     1       5.590   2.640  -5.495  1.00  0.00     0.163 HD
BRANCH   3   6
ATOM      6  C   UNL     1       3.736   3.123  -2.737  1.00  0.00     0.039 A 
ATOM      7  C   UNL     1       1.902   2.715  -0.661  1.00  0.00     0.067 A 
ATOM      8  C   UNL     1       3.098   3.390  -0.402  1.00  0.00     0.029 A 
ATOM      9  C   UNL     1       1.575   2.330  -1.956  1.00  0.00     0.029 A 
ATOM     10  C   UNL     1       4.032   3.548  -1.433  1.00  0.00     0.016 A 
ATOM     11  C   UNL     1       2.455   2.629  -2.991  1.00  0.00     0.016 A 
BRANCH   7  12
ATOM     12  N   UNL     1       0.966   2.488   0.365  1.00  0.00    -0.217 N 
ATOM     13  C   UNL     1       0.731  -0.019   0.174  1.00  0.00     0.069 C 
ATOM     14  C   UNL     1       0.323   1.308   0.700  1.00  0.00     0.071 A 
ATOM     15  C   UNL     1      -0.612   1.715   1.635  1.00  0.00     0.137 A 
ATOM     16  N   UNL     1      -0.504   3.063   1.843  1.00  0.00    -0.128 NA
ATOM     17  N   UNL     1       0.503   3.514   1.107  1.00  0.00    -0.061 NA
BRANCH  15  18
ATOM     18  C   UNL     1      -1.559   0.938   2.441  1.00  0.00     0.124 A 
ATOM     19  N   UNL     1      -1.150   0.062   3.372  1.00  0.00    -0.165 NA
ATOM     20  C   UNL     1      -2.973   1.065   2.412  1.00  0.00     0.044 A 
ATOM     21  N   UNL     1      -2.292  -0.447   3.884  1.00  0.00    -0.240 N 
ATOM     22  C   UNL     1      -3.411   0.119   3.322  1.00  0.00     0.125 A 
BRANCH  20  23
ATOM     23  C   UNL     1      -3.842   1.943   1.666  1.00  0.00     0.166 C 
ATOM     24  N   UNL     1      -3.352   2.716   0.756  1.00  0.00    -0.097 NA
BRANCH  24  25
ATOM     25  O   UNL     1      -4.371   3.501   0.205  1.00  0.00    -0.411 OA
ATOM     26  H   UNL     1      -4.174   4.117  -0.472  1.00  0.00     0.330 HD
ENDBRANCH  24  25
ENDBRANCH  20  23
BRANCH  21  27
ATOM     27  C   UNL     1      -2.258  -1.490   4.838  1.00  0.00     0.065 A 
ATOM     28  C   UNL     1      -1.402  -1.392   5.941  1.00  0.00     0.028 A 
ATOM     29  C   UNL     1      -3.034  -2.639   4.643  1.00  0.00     0.028 A 
ATOM     30  C   UNL     1      -1.319  -2.451   6.848  1.00  0.00     0.002 A 
ATOM     31  C   UNL     1      -2.902  -3.715   5.525  1.00  0.00     0.002 A 
ATOM     32  C   UNL     1      -2.049  -3.620   6.627  1.00  0.00     0.000 A 
ENDBRANCH  21  27
ENDBRANCH  15  18
ENDBRANCH   7  12
ENDBRANCH   3   6
ENDBRANCH   1   2
BRANCH   1  33
ATOM     33  C   UNL     1       2.932   2.416  -6.520  1.00  0.00     0.042 C 
BRANCH  33  34
ATOM     34  C   UNL     1       3.686   2.558  -7.819  1.00  0.00     0.118 C 
BRANCH  34  35
ATOM     35  N   UNL     1       3.877   1.264  -8.480  1.00  0.00    -0.352 N 
ATOM     36  C   UNL     1       3.870   0.986  -9.850  1.00  0.00     0.251 C 
ATOM     37  H   UNL     1       4.030   0.495  -7.885  1.00  0.00     0.163 HD
ATOM     38  O   UNL     1       3.703  -0.119 -10.256  1.00  0.00    -0.269 OA
BRANCH  36  39
ATOM     39  C   UNL     1       4.256   2.129 -10.726  1.00  0.00     0.039 A 
ATOM     40  C   UNL     1       3.981   2.309 -12.077  1.00  0.00     0.014 A 
ATOM     41  C   UNL     1       5.139   3.027 -10.164  1.00  0.00     0.014 A 
ATOM     42  C   UNL     1       4.754   3.329 -12.758  1.00  0.00     0.010 A 
ATOM     43  C   UNL     1       5.244   4.250 -10.728  1.00  0.00     0.010 A 
ATOM     44  C   UNL     1       5.672   4.178 -12.019  1.00  0.00    -0.014 A 
BRANCH  44  45
ATOM     45  C   UNL     1       6.373   5.526 -12.354  1.00  0.00     0.031 A 
ATOM     46  C   UNL     1       5.059   6.341 -12.860  1.00  0.00     0.074 A 
ATOM     47  C   UNL     1       7.749   5.970 -12.109  1.00  0.00     0.049 A 
ATOM     48  N   UNL     1       4.656   6.346 -14.101  1.00  0.00    -0.248 NA
ATOM     49  C   UNL     1       3.832   6.720 -12.028  1.00  0.00     0.031 C 
ATOM     50  C   UNL     1       9.050   5.340 -11.539  1.00  0.00     0.029 A 
ATOM     51  N   UNL     1       8.407   7.212 -12.442  1.00  0.00    -0.354 N 
ATOM     52  C   UNL     1       3.602   7.268 -14.163  1.00  0.00     0.074 A 
ATOM     53  C   UNL     1       2.942   7.188 -12.918  1.00  0.00     0.031 C 
ATOM     54  C   UNL     1      10.065   6.256 -11.287  1.00  0.00     0.029 A 
ATOM     55  C   UNL     1       9.693   7.580 -11.768  1.00  0.00     0.049 A 
ATOM     56  H   UNL     1       8.011   7.816 -13.111  1.00  0.00     0.167 HD
ATOM     57  C   UNL     1       3.713   8.320 -15.019  1.00  0.00     0.037 A 
ATOM     58  C   UNL     1      10.534   8.720 -11.953  1.00  0.00     0.037 A 
ATOM     59  C   UNL     1       4.774   8.002 -15.945  1.00  0.00     0.049 A 
ATOM     60  C   UNL     1       9.986   9.370 -13.170  1.00  0.00     0.074 A 
ATOM     61  C   UNL     1       4.960   6.997 -16.875  1.00  0.00     0.029 A 
ATOM     62  N   UNL     1       6.005   8.292 -15.421  1.00  0.00    -0.354 N 
ATOM     63  N   UNL     1      10.089   8.799 -14.339  1.00  0.00    -0.248 NA
ATOM     64  C   UNL     1       8.801  10.175 -12.908  1.00  0.00     0.031 C 
ATOM     65  C   UNL     1       6.322   6.589 -16.754  1.00  0.00     0.029 A 
ATOM     66  C   UNL     1       6.980   7.492 -15.931  1.00  0.00     0.049 A 
ATOM     67  H   UNL     1       6.165   8.998 -14.753  1.00  0.00     0.167 HD
ATOM     68  C   UNL     1       8.777   8.720 -14.767  1.00  0.00     0.074 A 
ATOM     69  C   UNL     1       8.022   9.612 -13.840  1.00  0.00     0.031 C 
ATOM     70  C   UNL     1       8.350   7.664 -15.538  1.00  0.00     0.037 A 
BRANCH  57  71
ATOM     71  C   UNL     1       3.331   9.758 -14.720  1.00  0.00     0.058 A 
ATOM     72  C   UNL     1       3.354  10.667 -15.793  1.00  0.00     0.135 A 
ATOM     73  C   UNL     1       3.183  10.341 -13.435  1.00  0.00     0.135 A 
ATOM     74  F   UNL     1       3.495  10.223 -17.051  1.00  0.00    -0.206 F 
ATOM     75  C   UNL     1       3.253  12.045 -15.616  1.00  0.00     0.059 A 
ATOM     76  C   UNL     1       3.028  11.718 -13.239  1.00  0.00     0.059 A 
ATOM     77  F   UNL     1       3.234   9.613 -12.312  1.00  0.00    -0.206 F 
ATOM     78  C   UNL     1       3.070  12.562 -14.338  1.00  0.00     0.060 A 
BRANCH  78  79
ATOM     79  S   UNL     1       2.823  14.340 -14.165  1.00  0.00     0.124 S 
ATOM     80  O   UNL     1       4.096  14.872 -14.636  1.00  0.00    -0.237 OA
ATOM     81  O   UNL     1       1.676  14.559 -15.041  1.00  0.00    -0.237 OA
ATOM     82  O   UNL     1       2.554  14.508 -12.740  1.00  0.00    -0.744 OA
ENDBRANCH  78  79
ENDBRANCH  57  71
BRANCH  58  83
ATOM     83  C   UNL     1      11.366   9.662 -10.987  1.00  0.00     0.058 A 
ATOM     84  C   UNL     1      12.310  10.724 -11.278  1.00  0.00     0.135 A 
ATOM     85  C   UNL     1      10.905   9.712  -9.669  1.00  0.00     0.135 A 
ATOM     86  F   UNL     1      12.835  10.867 -12.509  1.00  0.00    -0.206 F 
ATOM     87  C   UNL     1      12.728  11.719 -10.317  1.00  0.00     0.059 A 
ATOM     88  C   UNL     1      11.276  10.691  -8.725  1.00  0.00     0.059 A 
ATOM     89  F   UNL     1       9.972   8.836  -9.281  1.00  0.00    -0.206 F 
ATOM     90  C   UNL     1      12.174  11.704  -9.039  1.00  0.00     0.060 A 
BRANCH  90  91
ATOM     91  S   UNL     1      12.494  13.023  -7.803  1.00  0.00     0.124 S 
ATOM     92  O   UNL     1      13.913  12.855  -7.508  1.00  0.00    -0.237 OA
ATOM     93  O   UNL     1      12.138  14.240  -8.525  1.00  0.00    -0.237 OA
ATOM     94  O   UNL     1      11.595  12.676  -6.703  1.00  0.00    -0.744 OA
ENDBRANCH  90  91
ENDBRANCH  58  83
BRANCH  70  95
ATOM     95  C   UNL     1       9.349   6.667 -16.102  1.00  0.00     0.058 A 
ATOM     96  C   UNL     1       9.918   5.542 -15.462  1.00  0.00     0.135 A 
ATOM     97  C   UNL     1       9.590   6.772 -17.472  1.00  0.00     0.135 A 
ATOM     98  F   UNL     1       9.578   5.212 -14.212  1.00  0.00    -0.206 F 
ATOM     99  C   UNL     1      10.780   4.650 -16.122  1.00  0.00     0.059 A 
ATOM    100  C   UNL     1      10.391   5.870 -18.165  1.00  0.00     0.059 A 
ATOM    101  F   UNL     1       8.960   7.721 -18.181  1.00  0.00    -0.206 F 
ATOM    102  C   UNL     1      11.015   4.832 -17.481  1.00  0.00     0.060 A 
BRANCH 102 103
ATOM    103  S   UNL     1      12.061   3.662 -18.378  1.00  0.00     0.124 S 
ATOM    104  O   UNL     1      13.374   3.905 -17.790  1.00  0.00    -0.237 OA
ATOM    105  O   UNL     1      11.450   2.377 -18.049  1.00  0.00    -0.237 OA
ATOM    106  O   UNL     1      11.915   4.075 -19.771  1.00  0.00    -0.744 OA
ENDBRANCH 102 103
ENDBRANCH  70  95
ENDBRANCH  44  45
ENDBRANCH  36  39
ENDBRANCH  34  35
ENDBRANCH  33  34
ENDBRANCH   1  33
TORSDOF 18
