REMARK SMILES Cc1cc(C)c2c(C(=O)NCCCNC(=O)c3ccc(-c4c5nc(c(-c6c(F)cc(S(=O)(=O)[O-])cc6F)c6ccc([nH]6)c(-c6c(F)cc(S(=O)(=O)[O-])cc6F)c6nc(c(-c7c(F)cc(S(=O)(=O)[O-])cc7F)c7ccc4[nH]7)C=C6)C=C5)cc3)cc(-c3ccco3)nc2c1
REMARK SMILES IDX 13 1 12 2 11 3 10 4 8 5 9 6 7 8 1 9 2 10 3 11 92 12 4 13
REMARK SMILES IDX 91 14 5 15 6 16 90 17 84 18 83 19 85 20 86 21 89 22 87 23
REMARK SMILES IDX 88 24 14 25 15 26 16 28 17 29 18 30 82 31 19 32 81 33 20 34
REMARK SMILES IDX 21 35 22 36 75 37 23 38 80 39 74 40 76 41 24 42 79 43 73 44
REMARK SMILES IDX 72 45 25 47 59 48 38 49 58 50 39 51 42 52 57 53 77 54 40 55
REMARK SMILES IDX 41 56 56 58 78 59 43 60 26 61 27 62 36 63 28 64 29 65 35 66
REMARK SMILES IDX 37 67 30 68 31 69 32 70 33 71 34 72 60 73 61 74 70 75 62 76
REMARK SMILES IDX 63 77 69 78 71 79 64 80 65 81 66 82 67 83 68 84 44 85 45 86
REMARK SMILES IDX 54 87 46 88 47 89 53 90 55 91 48 92 49 93 50 94 51 95 52 96
REMARK H PARENT 10 7 14 27 76 46 42 57
REMARK Flexibility Score: inf
ROOT
ATOM      1  C   UNL     1       1.510   5.512  -4.773  1.00  0.00     0.118 C 
ENDROOT
BRANCH   1   2
ATOM      2  C   UNL     1       1.994   4.083  -4.548  1.00  0.00     0.042 C 
BRANCH   2   3
ATOM      3  C   UNL     1       0.878   3.060  -4.377  1.00  0.00     0.118 C 
BRANCH   3   4
ATOM      4  N   UNL     1      -0.092   3.040  -5.466  1.00  0.00    -0.352 N 
ATOM      5  C   UNL     1      -1.010   2.089  -5.842  1.00  0.00     0.252 C 
ATOM      6  O   UNL     1      -1.782   2.352  -6.764  1.00  0.00    -0.269 OA
ATOM      7  H   UNL     1      -0.089   3.848  -6.029  1.00  0.00     0.163 HD
BRANCH   5   8
ATOM      8  C   UNL     1      -1.026   0.726  -5.258  1.00  0.00     0.051 A 
ATOM      9  C   UNL     1       0.817  -0.566  -0.053  1.00  0.00     0.044 C 
ATOM     10  C   UNL     1       0.090  -0.261  -1.327  1.00  0.00    -0.049 A 
ATOM     11  C   UNL     1      -0.573   0.947  -1.509  1.00  0.00     0.007 A 
ATOM     12  C   UNL     1       0.071  -1.193  -2.370  1.00  0.00     0.032 A 
ATOM     13  C   UNL     1      -1.111   1.280  -2.760  1.00  0.00    -0.041 A 
ATOM     14  C   UNL     1      -0.449  -0.895  -3.621  1.00  0.00     0.072 A 
ATOM     15  C   UNL     1      -2.045   2.466  -2.809  1.00  0.00     0.045 C 
ATOM     16  C   UNL     1      -0.881   0.420  -3.881  1.00  0.00     0.016 A 
ATOM     17  N   UNL     1      -0.497  -1.881  -4.533  1.00  0.00    -0.244 NA
ATOM     18  C   UNL     1      -0.900  -1.585  -5.784  1.00  0.00     0.107 A 
ATOM     19  C   UNL     1      -1.086  -0.293  -6.212  1.00  0.00     0.046 A 
BRANCH  18  20
ATOM     20  C   UNL     1      -1.163  -2.710  -6.660  1.00  0.00     0.152 A 
ATOM     21  C   UNL     1      -0.651  -3.144  -7.867  1.00  0.00     0.052 A 
ATOM     22  O   UNL     1      -2.222  -3.497  -6.300  1.00  0.00    -0.463 OA
ATOM     23  C   UNL     1      -1.438  -4.257  -8.261  1.00  0.00     0.043 A 
ATOM     24  C   UNL     1      -2.382  -4.427  -7.276  1.00  0.00     0.196 A 
ENDBRANCH  18  20
ENDBRANCH   5   8
ENDBRANCH   3   4
ENDBRANCH   2   3
ENDBRANCH   1   2
BRANCH   1  25
ATOM     25  N   UNL     1       0.778   6.084  -3.649  1.00  0.00    -0.352 N 
ATOM     26  C   UNL     1       1.194   6.861  -2.590  1.00  0.00     0.251 C 
ATOM     27  H   UNL     1      -0.185   5.878  -3.646  1.00  0.00     0.163 HD
ATOM     28  O   UNL     1       0.407   7.132  -1.693  1.00  0.00    -0.269 OA
BRANCH  26  29
ATOM     29  C   UNL     1       2.598   7.323  -2.505  1.00  0.00     0.039 A 
ATOM     30  C   UNL     1       3.268   7.238  -1.280  1.00  0.00     0.014 A 
ATOM     31  C   UNL     1       3.258   7.836  -3.620  1.00  0.00     0.014 A 
ATOM     32  C   UNL     1       4.625   7.567  -1.205  1.00  0.00     0.010 A 
ATOM     33  C   UNL     1       4.629   8.055  -3.573  1.00  0.00     0.010 A 
ATOM     34  C   UNL     1       5.329   7.926  -2.365  1.00  0.00    -0.014 A 
BRANCH  34  35
ATOM     35  C   UNL     1       6.788   8.199  -2.349  1.00  0.00     0.031 A 
ATOM     36  C   UNL     1       7.297   9.554  -2.761  1.00  0.00     0.074 A 
ATOM     37  C   UNL     1       7.655   7.206  -2.068  1.00  0.00     0.049 A 
ATOM     38  N   UNL     1       8.527   9.952  -2.954  1.00  0.00    -0.248 NA
ATOM     39  C   UNL     1       6.283  10.586  -3.035  1.00  0.00     0.031 C 
ATOM     40  C   UNL     1       7.287   5.834  -1.712  1.00  0.00     0.029 A 
ATOM     41  N   UNL     1       9.027   7.193  -2.055  1.00  0.00    -0.354 N 
ATOM     42  C   UNL     1       8.432  11.265  -3.401  1.00  0.00     0.074 A 
ATOM     43  C   UNL     1       7.024  11.576  -3.507  1.00  0.00     0.031 C 
ATOM     44  C   UNL     1       8.403   5.120  -1.493  1.00  0.00     0.029 A 
ATOM     45  C   UNL     1       9.566   5.971  -1.729  1.00  0.00     0.049 A 
ATOM     46  H   UNL     1       9.575   7.985  -2.260  1.00  0.00     0.167 HD
ATOM     47  C   UNL     1       9.427  12.142  -3.670  1.00  0.00     0.037 A 
ATOM     48  C   UNL     1      10.852   5.579  -1.635  1.00  0.00     0.037 A 
ATOM     49  C   UNL     1      10.825  11.842  -3.511  1.00  0.00     0.049 A 
ATOM     50  C   UNL     1      11.943   6.576  -1.905  1.00  0.00     0.074 A 
ATOM     51  C   UNL     1      11.910  12.683  -3.676  1.00  0.00     0.029 A 
ATOM     52  N   UNL     1      11.328  10.604  -3.139  1.00  0.00    -0.354 N 
ATOM     53  N   UNL     1      11.836   7.832  -2.271  1.00  0.00    -0.248 NA
ATOM     54  C   UNL     1      13.327   6.110  -1.748  1.00  0.00     0.031 C 
ATOM     55  C   UNL     1      13.073  11.944  -3.435  1.00  0.00     0.029 A 
ATOM     56  C   UNL     1      12.710  10.653  -3.084  1.00  0.00     0.049 A 
ATOM     57  H   UNL     1      10.783   9.807  -2.944  1.00  0.00     0.167 HD
ATOM     58  C   UNL     1      13.137   8.311  -2.373  1.00  0.00     0.074 A 
ATOM     59  C   UNL     1      14.014   7.213  -2.018  1.00  0.00     0.031 C 
ATOM     60  C   UNL     1      13.566   9.547  -2.728  1.00  0.00     0.037 A 
BRANCH  47  61
ATOM     61  C   UNL     1       9.031  13.512  -4.147  1.00  0.00     0.058 A 
ATOM     62  C   UNL     1       8.407  14.435  -3.293  1.00  0.00     0.135 A 
ATOM     63  C   UNL     1       9.276  13.908  -5.472  1.00  0.00     0.135 A 
ATOM     64  F   UNL     1       8.133  14.102  -2.021  1.00  0.00    -0.206 F 
ATOM     65  C   UNL     1       8.001  15.686  -3.744  1.00  0.00     0.059 A 
ATOM     66  C   UNL     1       8.905  15.167  -5.938  1.00  0.00     0.059 A 
ATOM     67  F   UNL     1       9.870  13.065  -6.331  1.00  0.00    -0.206 F 
ATOM     68  C   UNL     1       8.250  16.041  -5.071  1.00  0.00     0.060 A 
BRANCH  68  69
ATOM     69  S   UNL     1       7.700  17.661  -5.645  1.00  0.00     0.124 S 
ATOM     70  O   UNL     1       6.257  17.462  -5.735  1.00  0.00    -0.237 OA
ATOM     71  O   UNL     1       8.152  18.543  -4.573  1.00  0.00    -0.237 OA
ATOM     72  O   UNL     1       8.392  17.823  -6.920  1.00  0.00    -0.744 OA
ENDBRANCH  68  69
ENDBRANCH  47  61
BRANCH  48  73
ATOM     73  C   UNL     1      11.164   4.185  -1.222  1.00  0.00     0.058 A 
ATOM     74  C   UNL     1      11.626   3.912   0.074  1.00  0.00     0.135 A 
ATOM     75  C   UNL     1      10.947   3.098  -2.082  1.00  0.00     0.135 A 
ATOM     76  F   UNL     1      11.855   4.920   0.930  1.00  0.00    -0.206 F 
ATOM     77  C   UNL     1      11.857   2.610   0.506  1.00  0.00     0.059 A 
ATOM     78  C   UNL     1      11.153   1.785  -1.667  1.00  0.00     0.059 A 
ATOM     79  F   UNL     1      10.490   3.307  -3.327  1.00  0.00    -0.206 F 
ATOM     80  C   UNL     1      11.607   1.552  -0.369  1.00  0.00     0.060 A 
BRANCH  80  81
ATOM     81  S   UNL     1      11.820  -0.136   0.237  1.00  0.00     0.124 S 
ATOM     82  O   UNL     1      13.272  -0.230   0.345  1.00  0.00    -0.237 OA
ATOM     83  O   UNL     1      11.087  -0.101   1.499  1.00  0.00    -0.237 OA
ATOM     84  O   UNL     1      11.210  -0.949  -0.811  1.00  0.00    -0.744 OA
ENDBRANCH  80  81
ENDBRANCH  48  73
BRANCH  60  85
ATOM     85  C   UNL     1      15.047   9.791  -2.744  1.00  0.00     0.058 A 
ATOM     86  C   UNL     1      15.856   9.303  -3.781  1.00  0.00     0.135 A 
ATOM     87  C   UNL     1      15.647  10.597  -1.763  1.00  0.00     0.135 A 
ATOM     88  F   UNL     1      15.330   8.522  -4.738  1.00  0.00    -0.206 F 
ATOM     89  C   UNL     1      17.213   9.601  -3.842  1.00  0.00     0.059 A 
ATOM     90  C   UNL     1      16.997  10.927  -1.817  1.00  0.00     0.059 A 
ATOM     91  F   UNL     1      14.912  11.097  -0.757  1.00  0.00    -0.206 F 
ATOM     92  C   UNL     1      17.773  10.419  -2.859  1.00  0.00     0.060 A 
BRANCH  92  93
ATOM     93  S   UNL     1      19.523  10.847  -2.986  1.00  0.00     0.124 S 
ATOM     94  O   UNL     1      20.161   9.590  -2.610  1.00  0.00    -0.237 OA
ATOM     95  O   UNL     1      19.649  11.228  -4.389  1.00  0.00    -0.237 OA
ATOM     96  O   UNL     1      19.676  11.940  -2.030  1.00  0.00    -0.744 OA
ENDBRANCH  92  93
ENDBRANCH  60  85
ENDBRANCH  34  35
ENDBRANCH  26  29
ENDBRANCH   1  25
TORSDOF 14
