REMARK SMILES CCC(CC)(NC(=O)c1ccc(C)s1)C(=O)NCCCNC(=O)c1ccc(-c2c3nc(c(-c4c(F)cc(S(=O)(=O)[O-])cc4F)c4ccc([nH]4)c(-c4c(F)cc(S(=O)(=O)[O-])cc4F)c4nc(c(-c5c(F)cc(S(=O)(=O)[O-])cc5F)c5ccc2[nH]5)C=C4)C=C3)cc1
REMARK SMILES IDX 19 1 18 2 17 3 15 4 16 5 3 7 2 8 1 9 4 10 5 11 6 12 7 13
REMARK SMILES IDX 8 15 9 16 10 17 14 18 11 19 12 20 13 21 20 22 21 23 22 24
REMARK SMILES IDX 23 26 24 27 25 28 89 29 26 30 88 31 27 32 28 33 29 34 82 35
REMARK SMILES IDX 30 36 87 37 81 38 83 39 31 40 86 41 80 42 79 43 32 45 66 46
REMARK SMILES IDX 45 47 65 48 46 49 49 50 64 51 84 52 47 53 48 54 63 56 85 57
REMARK SMILES IDX 50 58 33 59 34 60 43 61 35 62 36 63 42 64 44 65 37 66 38 67
REMARK SMILES IDX 39 68 40 69 41 70 67 71 68 72 77 73 69 74 70 75 76 76 78 77
REMARK SMILES IDX 71 78 72 79 73 80 74 81 75 82 51 83 52 84 61 85 53 86 54 87
REMARK SMILES IDX 60 88 62 89 55 90 56 91 57 92 58 93 59 94
REMARK H PARENT 17 6 6 14 21 25 83 44 49 55
REMARK Flexibility Score: inf
ROOT
ATOM      1  C   UNL     1       2.227   4.564  -4.570  1.00  0.00     0.042 C 
ENDROOT
BRANCH   1   2
ATOM      2  C   UNL     1       1.915   3.069  -4.640  1.00  0.00     0.117 C 
BRANCH   2   3
ATOM      3  N   UNL     1       2.649   2.142  -3.783  1.00  0.00    -0.354 N 
ATOM      4  C   UNL     1       2.301   1.479  -2.628  1.00  0.00     0.245 C 
ATOM      5  O   UNL     1       2.910   0.430  -2.392  1.00  0.00    -0.272 OA
ATOM      6  H   UNL     1       3.566   1.957  -4.089  1.00  0.00     0.163 HD
BRANCH   4   7
ATOM      7  C   UNL     1       1.118   1.938  -1.729  1.00  0.00     0.118 C 
BRANCH   7   8
ATOM      8  C   UNL     1       1.152   1.438  -0.250  1.00  0.00     0.035 C 
ATOM      9  C   UNL     1       1.140  -0.057   0.033  1.00  0.00     0.007 C 
ENDBRANCH   7   8
BRANCH   7  10
ATOM     10  C   UNL     1      -0.147   1.359  -2.455  1.00  0.00     0.035 C 
ATOM     11  C   UNL     1      -1.518   1.746  -1.921  1.00  0.00     0.007 C 
ENDBRANCH   7  10
BRANCH   7  12
ATOM     12  N   UNL     1       1.099   3.417  -1.642  1.00  0.00    -0.337 N 
ATOM     13  C   UNL     1       1.983   4.301  -1.033  1.00  0.00     0.262 C 
ATOM     14  H   UNL     1       0.333   3.844  -2.090  1.00  0.00     0.164 HD
ATOM     15  O   UNL     1       1.405   5.243  -0.478  1.00  0.00    -0.268 OA
BRANCH  13  16
ATOM     16  C   UNL     1       3.446   4.242  -1.158  1.00  0.00     0.092 A 
ATOM     17  C   UNL     1       4.386   3.244  -1.352  1.00  0.00     0.026 A 
ATOM     18  S   UNL     1       4.279   5.768  -1.050  1.00  0.00    -0.135 S 
ATOM     19  C   UNL     1       5.693   3.741  -1.667  1.00  0.00     0.016 A 
ATOM     20  C   UNL     1       5.772   5.108  -1.549  1.00  0.00     0.002 A 
ATOM     21  C   UNL     1       6.951   5.993  -1.785  1.00  0.00     0.056 C 
ENDBRANCH  13  16
ENDBRANCH   7  12
ENDBRANCH   4   7
ENDBRANCH   2   3
ENDBRANCH   1   2
BRANCH   1  22
ATOM     22  C   UNL     1       3.658   5.036  -4.797  1.00  0.00     0.118 C 
BRANCH  22  23
ATOM     23  N   UNL     1       4.294   4.531  -5.996  1.00  0.00    -0.352 N 
ATOM     24  C   UNL     1       5.218   5.156  -6.799  1.00  0.00     0.251 C 
ATOM     25  H   UNL     1       4.030   3.623  -6.272  1.00  0.00     0.163 HD
ATOM     26  O   UNL     1       5.696   4.554  -7.759  1.00  0.00    -0.269 OA
BRANCH  24  27
ATOM     27  C   UNL     1       5.622   6.557  -6.536  1.00  0.00     0.039 A 
ATOM     28  C   UNL     1       5.420   7.513  -7.532  1.00  0.00     0.014 A 
ATOM     29  C   UNL     1       6.234   6.926  -5.337  1.00  0.00     0.014 A 
ATOM     30  C   UNL     1       5.794   8.845  -7.309  1.00  0.00     0.010 A 
ATOM     31  C   UNL     1       6.561   8.269  -5.097  1.00  0.00     0.010 A 
ATOM     32  C   UNL     1       6.342   9.252  -6.077  1.00  0.00    -0.014 A 
BRANCH  32  33
ATOM     33  C   UNL     1       6.629  10.699  -5.809  1.00  0.00     0.031 A 
ATOM     34  C   UNL     1       8.020  11.190  -5.476  1.00  0.00     0.074 A 
ATOM     35  C   UNL     1       5.614  11.591  -5.826  1.00  0.00     0.049 A 
ATOM     36  N   UNL     1       8.427  12.410  -5.215  1.00  0.00    -0.248 NA
ATOM     37  C   UNL     1       9.086  10.181  -5.394  1.00  0.00     0.031 C 
ATOM     38  C   UNL     1       4.205  11.259  -6.051  1.00  0.00     0.029 A 
ATOM     39  N   UNL     1       5.604  12.956  -5.653  1.00  0.00    -0.354 N 
ATOM     40  C   UNL     1       9.784  12.313  -4.918  1.00  0.00     0.074 A 
ATOM     41  C   UNL     1      10.119  10.905  -4.984  1.00  0.00     0.031 C 
ATOM     42  C   UNL     1       3.478  12.387  -6.046  1.00  0.00     0.029 A 
ATOM     43  C   UNL     1       4.356  13.523  -5.779  1.00  0.00     0.049 A 
ATOM     44  H   UNL     1       6.415  13.479  -5.457  1.00  0.00     0.167 HD
ATOM     45  C   UNL     1      10.674  13.299  -4.640  1.00  0.00     0.037 A 
ATOM     46  C   UNL     1       3.952  14.806  -5.694  1.00  0.00     0.037 A 
ATOM     47  C   UNL     1      10.353  14.706  -4.616  1.00  0.00     0.049 A 
ATOM     48  C   UNL     1       4.964  15.889  -5.434  1.00  0.00     0.074 A 
ATOM     49  C   UNL     1      11.208  15.781  -4.428  1.00  0.00     0.029 A 
ATOM     50  N   UNL     1       9.083  15.238  -4.785  1.00  0.00    -0.354 N 
ATOM     51  N   UNL     1       6.256  15.779  -5.239  1.00  0.00    -0.248 NA
ATOM     52  C   UNL     1       4.466  17.272  -5.392  1.00  0.00     0.031 C 
ATOM     53  C   UNL     1      10.450  16.957  -4.444  1.00  0.00     0.029 A 
ATOM     54  C   UNL     1       9.130  16.621  -4.692  1.00  0.00     0.049 A 
ATOM     55  H   UNL     1       8.268  14.711  -4.949  1.00  0.00     0.167 HD
ATOM     56  C   UNL     1       6.728  17.077  -5.075  1.00  0.00     0.074 A 
ATOM     57  C   UNL     1       5.586  17.958  -5.209  1.00  0.00     0.031 C 
ATOM     58  C   UNL     1       7.994  17.498  -4.833  1.00  0.00     0.037 A 
BRANCH  45  59
ATOM     59  C   UNL     1      12.102  12.902  -4.354  1.00  0.00     0.058 A 
ATOM     60  C   UNL     1      12.940  12.387  -5.357  1.00  0.00     0.135 A 
ATOM     61  C   UNL     1      12.660  13.094  -3.078  1.00  0.00     0.135 A 
ATOM     62  F   UNL     1      12.463  12.182  -6.595  1.00  0.00    -0.206 F 
ATOM     63  C   UNL     1      14.262  12.039  -5.097  1.00  0.00     0.059 A 
ATOM     64  C   UNL     1      13.990  12.781  -2.803  1.00  0.00     0.059 A 
ATOM     65  F   UNL     1      11.914  13.596  -2.081  1.00  0.00    -0.206 F 
ATOM     66  C   UNL     1      14.778  12.237  -3.817  1.00  0.00     0.060 A 
BRANCH  66  67
ATOM     67  S   UNL     1      16.494  11.777  -3.493  1.00  0.00     0.124 S 
ATOM     68  O   UNL     1      16.405  10.316  -3.487  1.00  0.00    -0.237 OA
ATOM     69  O   UNL     1      17.194  12.357  -4.640  1.00  0.00    -0.237 OA
ATOM     70  O   UNL     1      16.781  12.393  -2.211  1.00  0.00    -0.744 OA
ENDBRANCH  66  67
ENDBRANCH  45  59
BRANCH  46  71
ATOM     71  C   UNL     1       2.516  15.145  -5.895  1.00  0.00     0.058 A 
ATOM     72  C   UNL     1       2.088  15.817  -7.051  1.00  0.00     0.135 A 
ATOM     73  C   UNL     1       1.541  14.787  -4.951  1.00  0.00     0.135 A 
ATOM     74  F   UNL     1       2.983  16.189  -7.979  1.00  0.00    -0.206 F 
ATOM     75  C   UNL     1       0.750  16.132  -7.259  1.00  0.00     0.059 A 
ATOM     76  C   UNL     1       0.193  15.067  -5.149  1.00  0.00     0.059 A 
ATOM     77  F   UNL     1       1.895  14.129  -3.836  1.00  0.00    -0.206 F 
ATOM     78  C   UNL     1      -0.193  15.748  -6.303  1.00  0.00     0.060 A 
BRANCH  78  79
ATOM     79  S   UNL     1      -1.935  16.105  -6.614  1.00  0.00     0.124 S 
ATOM     80  O   UNL     1      -1.985  17.545  -6.391  1.00  0.00    -0.237 OA
ATOM     81  O   UNL     1      -2.096  15.668  -7.997  1.00  0.00    -0.237 OA
ATOM     82  O   UNL     1      -2.628  15.287  -5.622  1.00  0.00    -0.744 OA
ENDBRANCH  78  79
ENDBRANCH  46  71
BRANCH  58  83
ATOM     83  C   UNL     1       8.228  18.981  -4.730  1.00  0.00     0.058 A 
ATOM     84  C   UNL     1       7.798  19.723  -3.618  1.00  0.00     0.135 A 
ATOM     85  C   UNL     1       8.933  19.662  -5.736  1.00  0.00     0.135 A 
ATOM     86  F   UNL     1       7.112  19.124  -2.631  1.00  0.00    -0.206 F 
ATOM     87  C   UNL     1       8.039  21.090  -3.517  1.00  0.00     0.059 A 
ATOM     88  C   UNL     1       9.209  21.023  -5.644  1.00  0.00     0.059 A 
ATOM     89  F   UNL     1       9.375  19.001  -6.817  1.00  0.00    -0.206 F 
ATOM     90  C   UNL     1       8.747  21.732  -4.535  1.00  0.00     0.060 A 
BRANCH  90  91
ATOM     91  S   UNL     1       9.083  23.499  -4.377  1.00  0.00     0.124 S 
ATOM     92  O   UNL     1       7.769  24.074  -4.647  1.00  0.00    -0.237 OA
ATOM     93  O   UNL     1       9.550  23.607  -2.998  1.00  0.00    -0.237 OA
ATOM     94  O   UNL     1      10.098  23.746  -5.397  1.00  0.00    -0.744 OA
ENDBRANCH  90  91
ENDBRANCH  58  83
ENDBRANCH  32  33
ENDBRANCH  24  27
ENDBRANCH  22  23
ENDBRANCH   1  22
TORSDOF 17
