REMARK SMILES COc1ccc(Br)c([C@H]2[NH2+][C@H](C(=O)NCCCNC(=O)c3ccc(-c4c5nc(c(-c6c(F)cc(S(=O)(=O)[O-])cc6F)c6ccc([nH]6)c(-c6c(F)cc(S(=O)(=O)[O-])cc6F)c6nc(c(-c7c(F)cc(S(=O)(=O)[O-])cc7F)c7ccc4[nH]7)C=C6)C=C5)cc3)CS2)c1O
REMARK SMILES IDX 16 1 15 2 14 3 12 4 13 5 11 7 9 8 10 9 88 10 87 13 8 14 3 15
REMARK SMILES IDX 4 16 89 17 5 18 6 19 7 20 2 21 1 22 90 23 17 25 18 26 19 27
REMARK SMILES IDX 20 29 21 30 22 31 86 32 23 33 85 34 24 35 25 36 26 37 79 38
REMARK SMILES IDX 27 39 84 40 78 41 80 42 28 43 83 44 77 45 76 46 29 48 63 49
REMARK SMILES IDX 42 50 62 51 43 52 46 53 61 54 81 55 44 56 45 57 60 59 82 60
REMARK SMILES IDX 47 61 30 62 31 63 40 64 32 65 33 66 39 67 41 68 34 69 35 70
REMARK SMILES IDX 36 71 37 72 38 73 64 74 65 75 74 76 66 77 67 78 73 79 75 80
REMARK SMILES IDX 68 81 69 82 70 83 71 84 72 85 48 86 49 87 58 88 50 89 51 90
REMARK SMILES IDX 57 91 59 92 52 93 53 94 54 95 55 96 56 97
REMARK H PARENT 14 6 10 11 10 12 90 24 18 28 80 47 46 58
REMARK Flexibility Score: inf
ROOT
ATOM      1  C   UNL     1       1.249  -2.287   1.448  1.00  0.00     0.042 C 
ENDROOT
BRANCH   1   2
ATOM      2  C   UNL     1       2.351  -1.620   0.634  1.00  0.00     0.118 C 
BRANCH   2   3
ATOM      3  N   UNL     1       3.230  -0.824   1.467  1.00  0.00    -0.351 N 
ATOM      4  C   UNL     1       4.459  -1.077   1.991  1.00  0.00     0.279 C 
ATOM      5  O   UNL     1       4.940  -0.189   2.706  1.00  0.00    -0.268 OA
ATOM      6  H   UNL     1       2.871   0.064   1.696  1.00  0.00     0.163 HD
BRANCH   4   7
ATOM      7  C   UNL     1       5.280  -2.346   1.696  1.00  0.00     0.283 C 
ATOM      8  C   UNL     1       4.181  -4.498   1.387  1.00  0.00     0.279 C 
ATOM      9  N   UNL     1       4.746  -3.559   2.365  1.00  0.00    -0.320 N 
ATOM     10  S   UNL     1       5.259  -4.293  -0.070  1.00  0.00    -0.087 SA
ATOM     11  H   UNL     1       5.503  -4.021   2.870  1.00  0.00     0.348 HD
ATOM     12  H   UNL     1       4.006  -3.276   3.006  1.00  0.00     0.348 HD
ATOM     13  C   UNL     1       5.589  -2.552   0.225  1.00  0.00     0.151 C 
BRANCH   8  14
ATOM     14  C   UNL     1       3.926  -5.913   1.933  1.00  0.00     0.080 A 
ATOM     15  C   UNL     1       3.778  -8.369   1.614  1.00  0.00     0.161 A 
ATOM     16  C   UNL     1       3.208  -8.544   2.861  1.00  0.00     0.051 A 
ATOM     17  C   UNL     1       4.074  -7.076   1.141  1.00  0.00     0.169 A 
ATOM     18  C   UNL     1       2.973  -7.426   3.650  1.00  0.00     0.020 A 
ATOM     19  C   UNL     1       3.319  -6.135   3.201  1.00  0.00     0.032 A 
ATOM     20  Br  UNL     1       2.773  -4.750   4.399  1.00  0.00    -0.050 Br
BRANCH  15  21
ATOM     21  O   UNL     1       3.908  -9.479   0.816  1.00  0.00    -0.493 OA
ATOM     22  C   UNL     1       5.272  -9.759   0.489  1.00  0.00     0.278 C 
ENDBRANCH  15  21
BRANCH  17  23
ATOM     23  O   UNL     1       4.402  -6.984  -0.187  1.00  0.00    -0.504 OA
ATOM     24  H   UNL     1       4.497  -7.761  -0.701  1.00  0.00     0.293 HD
ENDBRANCH  17  23
ENDBRANCH   8  14
ENDBRANCH   4   7
ENDBRANCH   2   3
ENDBRANCH   1   2
BRANCH   1  25
ATOM     25  C   UNL     1       0.108  -1.344   1.808  1.00  0.00     0.118 C 
BRANCH  25  26
ATOM     26  N   UNL     1      -0.656  -0.944   0.633  1.00  0.00    -0.352 N 
ATOM     27  C   UNL     1      -1.997  -1.051   0.379  1.00  0.00     0.251 C 
ATOM     28  H   UNL     1      -0.127  -0.534  -0.088  1.00  0.00     0.163 HD
ATOM     29  O   UNL     1      -2.406  -0.855  -0.770  1.00  0.00    -0.269 OA
BRANCH  27  30
ATOM     30  C   UNL     1      -2.951  -1.403   1.451  1.00  0.00     0.039 A 
ATOM     31  C   UNL     1      -4.033  -2.234   1.147  1.00  0.00     0.014 A 
ATOM     32  C   UNL     1      -2.813  -0.883   2.742  1.00  0.00     0.014 A 
ATOM     33  C   UNL     1      -4.949  -2.576   2.144  1.00  0.00     0.010 A 
ATOM     34  C   UNL     1      -3.679  -1.290   3.753  1.00  0.00     0.010 A 
ATOM     35  C   UNL     1      -4.765  -2.128   3.461  1.00  0.00    -0.014 A 
BRANCH  35  36
ATOM     36  C   UNL     1      -5.711  -2.506   4.542  1.00  0.00     0.031 A 
ATOM     37  C   UNL     1      -6.524  -1.447   5.238  1.00  0.00     0.074 A 
ATOM     38  C   UNL     1      -5.794  -3.793   4.932  1.00  0.00     0.049 A 
ATOM     39  N   UNL     1      -7.354  -1.569   6.241  1.00  0.00    -0.248 NA
ATOM     40  C   UNL     1      -6.361  -0.063   4.762  1.00  0.00     0.031 C 
ATOM     41  C   UNL     1      -5.017  -4.900   4.367  1.00  0.00     0.029 A 
ATOM     42  N   UNL     1      -6.561  -4.388   5.901  1.00  0.00    -0.354 N 
ATOM     43  C   UNL     1      -7.797  -0.283   6.526  1.00  0.00     0.074 A 
ATOM     44  C   UNL     1      -7.104   0.612   5.626  1.00  0.00     0.031 C 
ATOM     45  C   UNL     1      -5.364  -6.041   4.983  1.00  0.00     0.029 A 
ATOM     46  C   UNL     1      -6.358  -5.744   6.010  1.00  0.00     0.049 A 
ATOM     47  H   UNL     1      -7.197  -3.892   6.465  1.00  0.00     0.167 HD
ATOM     48  C   UNL     1      -8.716   0.114   7.439  1.00  0.00     0.037 A 
ATOM     49  C   UNL     1      -6.908  -6.645   6.847  1.00  0.00     0.037 A 
ATOM     50  C   UNL     1      -9.422  -0.789   8.310  1.00  0.00     0.049 A 
ATOM     51  C   UNL     1      -7.937  -6.183   7.843  1.00  0.00     0.074 A 
ATOM     52  C   UNL     1     -10.416  -0.498   9.229  1.00  0.00     0.029 A 
ATOM     53  N   UNL     1      -9.212  -2.159   8.371  1.00  0.00    -0.354 N 
ATOM     54  N   UNL     1      -8.390  -4.970   8.056  1.00  0.00    -0.248 NA
ATOM     55  C   UNL     1      -8.537  -7.211   8.704  1.00  0.00     0.031 C 
ATOM     56  C   UNL     1     -10.776  -1.686   9.874  1.00  0.00     0.029 A 
ATOM     57  C   UNL     1     -10.044  -2.725   9.322  1.00  0.00     0.049 A 
ATOM     58  H   UNL     1      -8.566  -2.656   7.818  1.00  0.00     0.167 HD
ATOM     59  C   UNL     1      -9.348  -5.093   9.057  1.00  0.00     0.074 A 
ATOM     60  C   UNL     1      -9.417  -6.500   9.396  1.00  0.00     0.031 C 
ATOM     61  C   UNL     1     -10.103  -4.130   9.641  1.00  0.00     0.037 A 
BRANCH  48  62
ATOM     62  C   UNL     1      -9.014   1.586   7.537  1.00  0.00     0.058 A 
ATOM     63  C   UNL     1      -9.697   2.270   6.519  1.00  0.00     0.135 A 
ATOM     64  C   UNL     1      -8.642   2.316   8.678  1.00  0.00     0.135 A 
ATOM     65  F   UNL     1     -10.063   1.626   5.399  1.00  0.00    -0.206 F 
ATOM     66  C   UNL     1      -9.974   3.630   6.613  1.00  0.00     0.059 A 
ATOM     67  C   UNL     1      -8.934   3.672   8.806  1.00  0.00     0.059 A 
ATOM     68  F   UNL     1      -7.986   1.714   9.682  1.00  0.00    -0.206 F 
ATOM     69  C   UNL     1      -9.588   4.323   7.761  1.00  0.00     0.060 A 
BRANCH  69  70
ATOM     70  S   UNL     1      -9.962   6.086   7.870  1.00  0.00     0.124 S 
ATOM     71  O   UNL     1      -8.995   6.646   6.931  1.00  0.00    -0.237 OA
ATOM     72  O   UNL     1     -11.358   6.136   7.447  1.00  0.00    -0.237 OA
ATOM     73  O   UNL     1      -9.724   6.398   9.276  1.00  0.00    -0.744 OA
ENDBRANCH  69  70
ENDBRANCH  48  62
BRANCH  49  74
ATOM     74  C   UNL     1      -6.514  -8.077   6.759  1.00  0.00     0.058 A 
ATOM     75  C   UNL     1      -7.405  -9.041   6.264  1.00  0.00     0.135 A 
ATOM     76  C   UNL     1      -5.236  -8.507   7.148  1.00  0.00     0.135 A 
ATOM     77  F   UNL     1      -8.640  -8.680   5.884  1.00  0.00    -0.206 F 
ATOM     78  C   UNL     1      -7.051 -10.383   6.174  1.00  0.00     0.059 A 
ATOM     79  C   UNL     1      -4.849  -9.839   7.042  1.00  0.00     0.059 A 
ATOM     80  F   UNL     1      -4.340  -7.621   7.610  1.00  0.00    -0.206 F 
ATOM     81  C   UNL     1      -5.768 -10.772   6.563  1.00  0.00     0.060 A 
BRANCH  81  82
ATOM     82  S   UNL     1      -5.300 -12.508   6.395  1.00  0.00     0.124 S 
ATOM     83  O   UNL     1      -6.045 -13.120   7.489  1.00  0.00    -0.237 OA
ATOM     84  O   UNL     1      -5.769 -12.823   5.049  1.00  0.00    -0.237 OA
ATOM     85  O   UNL     1      -3.849 -12.482   6.554  1.00  0.00    -0.744 OA
ENDBRANCH  81  82
ENDBRANCH  49  74
BRANCH  61  86
ATOM     86  C   UNL     1     -11.097  -4.568  10.681  1.00  0.00     0.058 A 
ATOM     87  C   UNL     1     -10.694  -4.990  11.957  1.00  0.00     0.135 A 
ATOM     88  C   UNL     1     -12.474  -4.521  10.409  1.00  0.00     0.135 A 
ATOM     89  F   UNL     1      -9.389  -5.059  12.266  1.00  0.00    -0.206 F 
ATOM     90  C   UNL     1     -11.620  -5.375  12.920  1.00  0.00     0.059 A 
ATOM     91  C   UNL     1     -13.419  -4.874  11.367  1.00  0.00     0.059 A 
ATOM     92  F   UNL     1     -12.913  -4.114   9.208  1.00  0.00    -0.206 F 
ATOM     93  C   UNL     1     -12.982  -5.313  12.616  1.00  0.00     0.060 A 
BRANCH  93  94
ATOM     94  S   UNL     1     -14.175  -5.790  13.883  1.00  0.00     0.124 S 
ATOM     95  O   UNL     1     -14.043  -7.243  13.879  1.00  0.00    -0.237 OA
ATOM     96  O   UNL     1     -13.663  -5.110  15.068  1.00  0.00    -0.237 OA
ATOM     97  O   UNL     1     -15.441  -5.273  13.369  1.00  0.00    -0.744 OA
ENDBRANCH  93  94
ENDBRANCH  61  86
ENDBRANCH  35  36
ENDBRANCH  27  30
ENDBRANCH  25  26
ENDBRANCH   1  25
TORSDOF 16
