REMARK SMILES O=C1CC[C@H](CNC(=O)N[C@@H]2C=C[C@@H](C(=O)NCCCNC(=O)c3ccc(-c4c5nc(c(-c6c(F)cc(S(=O)(=O)[O-])cc6F)c6ccc([nH]6)c(-c6c(F)cc(S(=O)(=O)[O-])cc6F)c6nc(c(-c7c(F)cc(S(=O)(=O)[O-])cc7F)c7ccc4[nH]7)C=C6)C=C5)cc3)C2)N1
REMARK SMILES IDX 19 1 18 2 17 3 15 4 16 5 14 7 11 8 12 9 90 10 13 11 10 12
REMARK SMILES IDX 7 13 8 14 9 16 6 18 5 19 1 20 2 21 3 22 91 23 4 24 20 26
REMARK SMILES IDX 21 27 22 28 23 30 24 31 25 32 89 33 26 34 88 35 27 36 28 37
REMARK SMILES IDX 29 38 82 39 30 40 87 41 81 42 83 43 31 44 86 45 80 46 79 47
REMARK SMILES IDX 32 49 66 50 45 51 65 52 46 53 49 54 64 55 84 56 47 57 48 58
REMARK SMILES IDX 63 60 85 61 50 62 33 63 34 64 43 65 35 66 36 67 42 68 44 69
REMARK SMILES IDX 37 70 38 71 39 72 40 73 41 74 67 75 68 76 77 77 69 78 70 79
REMARK SMILES IDX 76 80 78 81 71 82 72 83 73 84 74 85 75 86 51 87 52 88 61 89
REMARK SMILES IDX 53 90 54 91 60 92 62 93 55 94 56 95 57 96 58 97 59 98
REMARK H PARENT 17 6 7 15 10 17 91 25 21 29 83 48 49 59
REMARK Flexibility Score: inf
ROOT
ATOM      1  C   UNL     1      -4.831  -4.683   5.203  1.00  0.00     0.042 C 
ENDROOT
BRANCH   1   2
ATOM      2  C   UNL     1      -3.582  -3.907   5.617  1.00  0.00     0.117 C 
BRANCH   2   3
ATOM      3  N   UNL     1      -2.448  -4.754   5.934  1.00  0.00    -0.356 N 
ATOM      4  C   UNL     1      -1.222  -4.877   5.358  1.00  0.00     0.227 C 
ATOM      5  O   UNL     1      -0.383  -5.551   5.967  1.00  0.00    -0.274 OA
ATOM      6  H   UNL     1      -2.591  -5.347   6.707  1.00  0.00     0.163 HD
BRANCH   4   7
ATOM      7  C   UNL     1      -0.869  -4.295   3.982  1.00  0.00     0.103 C 
ATOM      8  C   UNL     1      -2.405  -3.701   2.142  1.00  0.00     0.107 C 
ATOM      9  C   UNL     1      -1.753  -2.500   2.754  1.00  0.00    -0.006 C 
ATOM     10  C   UNL     1      -1.736  -4.876   2.867  1.00  0.00     0.047 C 
ATOM     11  C   UNL     1      -0.966  -2.817   3.790  1.00  0.00    -0.016 C 
BRANCH   8  12
ATOM     12  N   UNL     1      -2.184  -3.715   0.714  1.00  0.00    -0.332 N 
ATOM     13  N   UNL     1      -3.514  -5.501  -0.102  1.00  0.00    -0.336 N 
ATOM     14  C   UNL     1      -2.661  -4.477  -0.285  1.00  0.00     0.315 C 
ATOM     15  H   UNL     1      -3.822  -5.928  -0.934  1.00  0.00     0.165 HD
ATOM     16  O   UNL     1      -2.286  -4.230  -1.433  1.00  0.00    -0.249 OA
ATOM     17  H   UNL     1      -1.552  -3.023   0.410  1.00  0.00     0.165 HD
BRANCH  13  18
ATOM     18  C   UNL     1      -4.057  -6.083   1.103  1.00  0.00     0.142 C 
BRANCH  18  19
ATOM     19  C   UNL     1      -5.274  -7.010   0.935  1.00  0.00     0.101 C 
ATOM     20  O   UNL     1      -5.767  -8.332   4.144  1.00  0.00    -0.275 OA
ATOM     21  C   UNL     1      -5.529  -8.175   2.958  1.00  0.00     0.220 C 
ATOM     22  C   UNL     1      -4.633  -9.026   2.092  1.00  0.00     0.102 C 
ATOM     23  N   UNL     1      -5.964  -7.109   2.201  1.00  0.00    -0.352 N 
ATOM     24  C   UNL     1      -4.882  -8.464   0.688  1.00  0.00     0.036 C 
ATOM     25  H   UNL     1      -6.668  -6.484   2.491  1.00  0.00     0.163 HD
ENDBRANCH  18  19
ENDBRANCH  13  18
ENDBRANCH   8  12
ENDBRANCH   4   7
ENDBRANCH   2   3
ENDBRANCH   1   2
BRANCH   1  26
ATOM     26  C   UNL     1      -5.446  -5.562   6.292  1.00  0.00     0.118 C 
BRANCH  26  27
ATOM     27  N   UNL     1      -5.861  -4.801   7.463  1.00  0.00    -0.352 N 
ATOM     28  C   UNL     1      -7.090  -4.651   8.055  1.00  0.00     0.251 C 
ATOM     29  H   UNL     1      -5.133  -4.309   7.907  1.00  0.00     0.163 HD
ATOM     30  O   UNL     1      -7.215  -3.807   8.941  1.00  0.00    -0.269 OA
BRANCH  28  31
ATOM     31  C   UNL     1      -8.263  -5.461   7.646  1.00  0.00     0.039 A 
ATOM     32  C   UNL     1      -9.525  -4.853   7.642  1.00  0.00     0.014 A 
ATOM     33  C   UNL     1      -8.155  -6.819   7.337  1.00  0.00     0.014 A 
ATOM     34  C   UNL     1     -10.660  -5.585   7.278  1.00  0.00     0.010 A 
ATOM     35  C   UNL     1      -9.277  -7.532   6.911  1.00  0.00     0.010 A 
ATOM     36  C   UNL     1     -10.542  -6.926   6.882  1.00  0.00    -0.014 A 
BRANCH  36  37
ATOM     37  C   UNL     1     -11.726  -7.709   6.439  1.00  0.00     0.031 A 
ATOM     38  C   UNL     1     -12.198  -8.893   7.240  1.00  0.00     0.074 A 
ATOM     39  C   UNL     1     -12.338  -7.395   5.280  1.00  0.00     0.049 A 
ATOM     40  N   UNL     1     -13.160  -9.740   6.974  1.00  0.00    -0.248 NA
ATOM     41  C   UNL     1     -11.482  -9.172   8.494  1.00  0.00     0.031 C 
ATOM     42  C   UNL     1     -11.960  -6.290   4.397  1.00  0.00     0.029 A 
ATOM     43  N   UNL     1     -13.399  -7.984   4.638  1.00  0.00    -0.354 N 
ATOM     44  C   UNL     1     -13.148 -10.667   8.011  1.00  0.00     0.074 A 
ATOM     45  C   UNL     1     -12.061 -10.296   8.892  1.00  0.00     0.031 C 
ATOM     46  C   UNL     1     -12.789  -6.268   3.341  1.00  0.00     0.029 A 
ATOM     47  C   UNL     1     -13.731  -7.378   3.450  1.00  0.00     0.049 A 
ATOM     48  H   UNL     1     -13.879  -8.766   4.997  1.00  0.00     0.167 HD
ATOM     49  C   UNL     1     -13.974 -11.721   8.216  1.00  0.00     0.037 A 
ATOM     50  C   UNL     1     -14.680  -7.686   2.544  1.00  0.00     0.037 A 
ATOM     51  C   UNL     1     -15.073 -12.069   7.352  1.00  0.00     0.049 A 
ATOM     52  C   UNL     1     -15.582  -8.864   2.791  1.00  0.00     0.074 A 
ATOM     53  C   UNL     1     -16.010 -13.075   7.514  1.00  0.00     0.029 A 
ATOM     54  N   UNL     1     -15.380 -11.426   6.162  1.00  0.00    -0.354 N 
ATOM     55  N   UNL     1     -15.594  -9.694   3.806  1.00  0.00    -0.248 NA
ATOM     56  C   UNL     1     -16.601  -9.147   1.769  1.00  0.00     0.031 C 
ATOM     57  C   UNL     1     -16.857 -13.068   6.401  1.00  0.00     0.029 A 
ATOM     58  C   UNL     1     -16.477 -12.028   5.567  1.00  0.00     0.049 A 
ATOM     59  H   UNL     1     -14.890 -10.656   5.794  1.00  0.00     0.167 HD
ATOM     60  C   UNL     1     -16.640 -10.577   3.562  1.00  0.00     0.074 A 
ATOM     61  C   UNL     1     -17.238 -10.180   2.304  1.00  0.00     0.031 C 
ATOM     62  C   UNL     1     -17.069 -11.619   4.317  1.00  0.00     0.037 A 
BRANCH  49  63
ATOM     63  C   UNL     1     -13.712 -12.585   9.420  1.00  0.00     0.058 A 
ATOM     64  C   UNL     1     -13.962 -12.132  10.725  1.00  0.00     0.135 A 
ATOM     65  C   UNL     1     -13.221 -13.892   9.265  1.00  0.00     0.135 A 
ATOM     66  F   UNL     1     -14.421 -10.887  10.932  1.00  0.00    -0.206 F 
ATOM     67  C   UNL     1     -13.699 -12.928  11.835  1.00  0.00     0.059 A 
ATOM     68  C   UNL     1     -12.976 -14.716  10.360  1.00  0.00     0.059 A 
ATOM     69  F   UNL     1     -12.969 -14.379   8.040  1.00  0.00    -0.206 F 
ATOM     70  C   UNL     1     -13.199 -14.217  11.642  1.00  0.00     0.060 A 
BRANCH  70  71
ATOM     71  S   UNL     1     -12.846 -15.234  13.092  1.00  0.00     0.124 S 
ATOM     72  O   UNL     1     -11.609 -14.629  13.575  1.00  0.00    -0.237 OA
ATOM     73  O   UNL     1     -14.025 -15.016  13.924  1.00  0.00    -0.237 OA
ATOM     74  O   UNL     1     -12.713 -16.579  12.539  1.00  0.00    -0.744 OA
ENDBRANCH  70  71
ENDBRANCH  49  63
BRANCH  50  75
ATOM     75  C   UNL     1     -14.846  -6.840   1.334  1.00  0.00     0.058 A 
ATOM     76  C   UNL     1     -15.947  -5.979   1.208  1.00  0.00     0.135 A 
ATOM     77  C   UNL     1     -13.900  -6.848   0.298  1.00  0.00     0.135 A 
ATOM     78  F   UNL     1     -16.881  -5.943   2.170  1.00  0.00    -0.206 F 
ATOM     79  C   UNL     1     -16.108  -5.160   0.097  1.00  0.00     0.059 A 
ATOM     80  C   UNL     1     -14.028  -6.022  -0.815  1.00  0.00     0.059 A 
ATOM     81  F   UNL     1     -12.821  -7.643   0.378  1.00  0.00    -0.206 F 
ATOM     82  C   UNL     1     -15.139  -5.184  -0.908  1.00  0.00     0.060 A 
BRANCH  82  83
ATOM     83  S   UNL     1     -15.321  -4.066  -2.314  1.00  0.00     0.124 S 
ATOM     84  O   UNL     1     -16.396  -4.706  -3.062  1.00  0.00    -0.237 OA
ATOM     85  O   UNL     1     -15.659  -2.805  -1.661  1.00  0.00    -0.237 OA
ATOM     86  O   UNL     1     -14.003  -4.102  -2.942  1.00  0.00    -0.744 OA
ENDBRANCH  82  83
ENDBRANCH  50  75
BRANCH  62  87
ATOM     87  C   UNL     1     -18.266 -12.384   3.827  1.00  0.00     0.058 A 
ATOM     88  C   UNL     1     -18.181 -13.278   2.749  1.00  0.00     0.135 A 
ATOM     89  C   UNL     1     -19.502 -12.263   4.484  1.00  0.00     0.135 A 
ATOM     90  F   UNL     1     -17.026 -13.424   2.082  1.00  0.00    -0.206 F 
ATOM     91  C   UNL     1     -19.284 -14.014   2.328  1.00  0.00     0.059 A 
ATOM     92  C   UNL     1     -20.611 -13.008   4.096  1.00  0.00     0.059 A 
ATOM     93  F   UNL     1     -19.634 -11.428   5.527  1.00  0.00    -0.206 F 
ATOM     94  C   UNL     1     -20.495 -13.874   3.010  1.00  0.00     0.060 A 
BRANCH  94  95
ATOM     95  S   UNL     1     -21.908 -14.866   2.482  1.00  0.00     0.124 S 
ATOM     96  O   UNL     1     -22.318 -14.171   1.266  1.00  0.00    -0.237 OA
ATOM     97  O   UNL     1     -21.312 -16.184   2.288  1.00  0.00    -0.237 OA
ATOM     98  O   UNL     1     -22.834 -14.764   3.606  1.00  0.00    -0.744 OA
ENDBRANCH  94  95
ENDBRANCH  62  87
ENDBRANCH  36  37
ENDBRANCH  28  31
ENDBRANCH  26  27
ENDBRANCH   1  26
TORSDOF 16
