REMARK SMILES CC[C@@](O)(C(=O)NCCCNC(=O)c1ccc(-c2c3nc(c(-c4c(F)cc(S(=O)(=O)[O-])cc4F)c4ccc([nH]4)c(-c4c(F)cc(S(=O)(=O)[O-])cc4F)c4nc(c(-c5c(F)cc(S(=O)(=O)[O-])cc5F)c5ccc2[nH]5)C=C4)C=C3)cc1)[C@@H]1CCOc2ccccc21
REMARK SMILES IDX 10 1 9 2 8 3 7 4 5 5 6 6 3 8 2 9 1 10 4 11 80 13 81 14 89 15
REMARK SMILES IDX 82 16 84 17 88 18 83 19 85 20 87 21 86 22 11 23 12 24 13 26
REMARK SMILES IDX 14 27 15 28 79 29 16 30 78 31 17 32 18 33 19 34 72 35 20 36
REMARK SMILES IDX 77 37 71 38 73 39 21 40 76 41 70 42 69 43 22 45 56 46 35 47
REMARK SMILES IDX 55 48 36 49 39 50 54 51 74 52 37 53 38 54 53 56 75 57 40 58
REMARK SMILES IDX 23 59 24 60 33 61 25 62 26 63 32 64 34 65 27 66 28 67 29 68
REMARK SMILES IDX 30 69 31 70 57 71 58 72 67 73 59 74 60 75 66 76 68 77 61 78
REMARK SMILES IDX 62 79 63 80 64 81 65 82 41 83 42 84 51 85 43 86 44 87 50 88
REMARK SMILES IDX 52 89 45 90 46 91 47 92 48 93 49 94
REMARK H PARENT 7 7 4 12 11 25 73 44 39 55
REMARK Flexibility Score: inf
ROOT
ATOM      1  C   UNL     1       1.894   6.380   5.919  1.00  0.00     0.118 C 
ENDROOT
BRANCH   1   2
ATOM      2  C   UNL     1       3.084   5.738   5.215  1.00  0.00     0.042 C 
BRANCH   2   3
ATOM      3  C   UNL     1       3.291   4.264   5.561  1.00  0.00     0.117 C 
BRANCH   3   4
ATOM      4  N   UNL     1       2.189   3.451   5.080  1.00  0.00    -0.354 N 
ATOM      5  C   UNL     1       2.081   2.598   4.022  1.00  0.00     0.252 C 
ATOM      6  O   UNL     1       0.953   2.118   3.861  1.00  0.00    -0.272 OA
ATOM      7  H   UNL     1       1.368   3.531   5.617  1.00  0.00     0.163 HD
BRANCH   5   8
ATOM      8  C   UNL     1       3.291   2.252   3.075  1.00  0.00     0.149 C 
BRANCH   8   9
ATOM      9  C   UNL     1       3.765   3.530   2.340  1.00  0.00     0.043 C 
ATOM     10  C   UNL     1       5.104   3.430   1.611  1.00  0.00     0.007 C 
ENDBRANCH   8   9
BRANCH   8  11
ATOM     11  O   UNL     1       4.371   1.857   3.950  1.00  0.00    -0.379 OA
ATOM     12  H   UNL     1       4.638   2.612   4.497  1.00  0.00     0.212 HD
ENDBRANCH   8  11
BRANCH   8  13
ATOM     13  C   UNL     1       2.837   1.008   2.160  1.00  0.00     0.068 C 
ATOM     14  C   UNL     1       3.366  -0.317   2.762  1.00  0.00     0.053 C 
ATOM     15  C   UNL     1       3.075   1.024   0.653  1.00  0.00     0.001 A 
ATOM     16  C   UNL     1       3.142  -1.458   1.794  1.00  0.00     0.230 C 
ATOM     17  C   UNL     1       3.666  -0.069   0.004  1.00  0.00     0.122 A 
ATOM     18  C   UNL     1       2.607   2.074  -0.154  1.00  0.00     0.008 A 
ATOM     19  O   UNL     1       3.951  -1.254   0.632  1.00  0.00    -0.493 OA
ATOM     20  C   UNL     1       3.971  -0.020  -1.358  1.00  0.00     0.047 A 
ATOM     21  C   UNL     1       2.905   2.128  -1.518  1.00  0.00     0.001 A 
ATOM     22  C   UNL     1       3.615   1.093  -2.115  1.00  0.00     0.004 A 
ENDBRANCH   8  13
ENDBRANCH   5   8
ENDBRANCH   3   4
ENDBRANCH   2   3
ENDBRANCH   1   2
BRANCH   1  23
ATOM     23  N   UNL     1       2.102   6.498   7.353  1.00  0.00    -0.352 N 
ATOM     24  C   UNL     1       2.183   7.620   8.140  1.00  0.00     0.251 C 
ATOM     25  H   UNL     1       2.200   5.644   7.832  1.00  0.00     0.163 HD
ATOM     26  O   UNL     1       2.593   7.518   9.293  1.00  0.00    -0.269 OA
BRANCH  24  27
ATOM     27  C   UNL     1       1.792   8.945   7.607  1.00  0.00     0.039 A 
ATOM     28  C   UNL     1       2.570  10.059   7.937  1.00  0.00     0.014 A 
ATOM     29  C   UNL     1       0.642   9.104   6.828  1.00  0.00     0.014 A 
ATOM     30  C   UNL     1       2.224  11.320   7.444  1.00  0.00     0.010 A 
ATOM     31  C   UNL     1       0.339  10.348   6.279  1.00  0.00     0.010 A 
ATOM     32  C   UNL     1       1.121  11.471   6.590  1.00  0.00    -0.014 A 
BRANCH  32  33
ATOM     33  C   UNL     1       0.761  12.796   6.022  1.00  0.00     0.031 A 
ATOM     34  C   UNL     1      -0.545  13.447   6.391  1.00  0.00     0.074 A 
ATOM     35  C   UNL     1       1.582  13.384   5.130  1.00  0.00     0.049 A 
ATOM     36  N   UNL     1      -1.069  14.559   5.944  1.00  0.00    -0.248 NA
ATOM     37  C   UNL     1      -1.386  12.739   7.370  1.00  0.00     0.031 C 
ATOM     38  C   UNL     1       2.854  12.832   4.659  1.00  0.00     0.029 A 
ATOM     39  N   UNL     1       1.464  14.570   4.450  1.00  0.00    -0.354 N 
ATOM     40  C   UNL     1      -2.304  14.677   6.572  1.00  0.00     0.074 A 
ATOM     41  C   UNL     1      -2.472  13.499   7.395  1.00  0.00     0.031 C 
ATOM     42  C   UNL     1       3.406  13.685   3.781  1.00  0.00     0.029 A 
ATOM     43  C   UNL     1       2.514  14.826   3.600  1.00  0.00     0.049 A 
ATOM     44  H   UNL     1       0.699  15.181   4.561  1.00  0.00     0.167 HD
ATOM     45  C   UNL     1      -3.205  15.684   6.488  1.00  0.00     0.037 A 
ATOM     46  C   UNL     1       2.730  15.859   2.763  1.00  0.00     0.037 A 
ATOM     47  C   UNL     1      -3.018  16.869   5.691  1.00  0.00     0.049 A 
ATOM     48  C   UNL     1       1.720  16.971   2.694  1.00  0.00     0.074 A 
ATOM     49  C   UNL     1      -3.844  17.975   5.585  1.00  0.00     0.029 A 
ATOM     50  N   UNL     1      -1.929  17.103   4.864  1.00  0.00    -0.354 N 
ATOM     51  N   UNL     1       0.584  17.093   3.338  1.00  0.00    -0.248 NA
ATOM     52  C   UNL     1       2.022  18.089   1.790  1.00  0.00     0.031 C 
ATOM     53  C   UNL     1      -3.272  18.861   4.666  1.00  0.00     0.029 A 
ATOM     54  C   UNL     1      -2.069  18.328   4.232  1.00  0.00     0.049 A 
ATOM     55  H   UNL     1      -1.169  16.490   4.745  1.00  0.00     0.167 HD
ATOM     56  C   UNL     1       0.047  18.311   2.936  1.00  0.00     0.074 A 
ATOM     57  C   UNL     1       0.989  18.893   2.001  1.00  0.00     0.031 C 
ATOM     58  C   UNL     1      -1.119  18.894   3.307  1.00  0.00     0.037 A 
BRANCH  45  59
ATOM     59  C   UNL     1      -4.475  15.550   7.283  1.00  0.00     0.058 A 
ATOM     60  C   UNL     1      -4.482  15.654   8.683  1.00  0.00     0.135 A 
ATOM     61  C   UNL     1      -5.705  15.343   6.637  1.00  0.00     0.135 A 
ATOM     62  F   UNL     1      -3.333  15.838   9.352  1.00  0.00    -0.206 F 
ATOM     63  C   UNL     1      -5.656  15.524   9.418  1.00  0.00     0.059 A 
ATOM     64  C   UNL     1      -6.896  15.236   7.350  1.00  0.00     0.059 A 
ATOM     65  F   UNL     1      -5.758  15.236   5.300  1.00  0.00    -0.206 F 
ATOM     66  C   UNL     1      -6.859  15.312   8.742  1.00  0.00     0.060 A 
BRANCH  66  67
ATOM     67  S   UNL     1      -8.374  15.143   9.709  1.00  0.00     0.124 S 
ATOM     68  O   UNL     1      -8.219  13.799  10.257  1.00  0.00    -0.237 OA
ATOM     69  O   UNL     1      -8.257  16.236  10.669  1.00  0.00    -0.237 OA
ATOM     70  O   UNL     1      -9.431  15.297   8.714  1.00  0.00    -0.744 OA
ENDBRANCH  66  67
ENDBRANCH  45  59
BRANCH  46  71
ATOM     71  C   UNL     1       3.967  15.898   1.940  1.00  0.00     0.058 A 
ATOM     72  C   UNL     1       4.998  16.803   2.233  1.00  0.00     0.135 A 
ATOM     73  C   UNL     1       4.155  15.019   0.863  1.00  0.00     0.135 A 
ATOM     74  F   UNL     1       4.862  17.668   3.250  1.00  0.00    -0.206 F 
ATOM     75  C   UNL     1       6.167  16.845   1.480  1.00  0.00     0.059 A 
ATOM     76  C   UNL     1       5.325  15.025   0.110  1.00  0.00     0.059 A 
ATOM     77  F   UNL     1       3.206  14.122   0.553  1.00  0.00    -0.206 F 
ATOM     78  C   UNL     1       6.322  15.949   0.421  1.00  0.00     0.060 A 
BRANCH  78  79
ATOM     79  S   UNL     1       7.867  15.971  -0.514  1.00  0.00     0.124 S 
ATOM     80  O   UNL     1       7.705  17.175  -1.320  1.00  0.00    -0.237 OA
ATOM     81  O   UNL     1       8.868  16.041   0.546  1.00  0.00    -0.237 OA
ATOM     82  O   UNL     1       7.832  14.709  -1.247  1.00  0.00    -0.744 OA
ENDBRANCH  78  79
ENDBRANCH  46  71
BRANCH  58  83
ATOM     83  C   UNL     1      -1.432  20.244   2.723  1.00  0.00     0.058 A 
ATOM     84  C   UNL     1      -1.840  20.392   1.389  1.00  0.00     0.135 A 
ATOM     85  C   UNL     1      -1.371  21.395   3.524  1.00  0.00     0.135 A 
ATOM     86  F   UNL     1      -1.907  19.322   0.580  1.00  0.00    -0.206 F 
ATOM     87  C   UNL     1      -2.157  21.639   0.862  1.00  0.00     0.059 A 
ATOM     88  C   UNL     1      -1.707  22.649   3.025  1.00  0.00     0.059 A 
ATOM     89  F   UNL     1      -0.996  21.306   4.810  1.00  0.00    -0.206 F 
ATOM     90  C   UNL     1      -2.088  22.763   1.688  1.00  0.00     0.060 A 
BRANCH  90  91
ATOM     91  S   UNL     1      -2.535  24.372   1.002  1.00  0.00     0.124 S 
ATOM     92  O   UNL     1      -1.359  24.684   0.197  1.00  0.00    -0.237 OA
ATOM     93  O   UNL     1      -3.752  24.068   0.256  1.00  0.00    -0.237 OA
ATOM     94  O   UNL     1      -2.725  25.204   2.187  1.00  0.00    -0.744 OA
ENDBRANCH  90  91
ENDBRANCH  58  83
ENDBRANCH  32  33
ENDBRANCH  24  27
ENDBRANCH   1  23
TORSDOF 16
