REMARK SMILES O=C(NCCCNC(=O)c1ccc2c(c1)NC1=[NH+]S(=O)(=O)[NH+]=C1N2)c1ccc(-c2c3nc(c(-c4c(F)cc(S(=O)(=O)[O-])cc4F)c4ccc([nH]4)c(-c4c(F)cc(S(=O)(=O)[O-])cc4F)c4nc(c(-c5c(F)cc(S(=O)(=O)[O-])cc5F)c5ccc2[nH]5)C=C4)C=C3)cc1
REMARK SMILES IDX 1 1 2 2 3 3 25 5 26 6 90 7 27 8 89 9 28 10 29 11 30 12 83 13
REMARK SMILES IDX 31 14 88 15 82 16 84 17 32 18 87 19 81 20 80 21 33 23 67 24
REMARK SMILES IDX 46 25 66 26 47 27 50 28 65 29 85 30 48 31 49 32 64 34 86 35
REMARK SMILES IDX 51 36 34 37 35 38 44 39 36 40 37 41 43 42 45 43 38 44 39 45
REMARK SMILES IDX 40 46 41 47 42 48 68 49 69 50 78 51 70 52 71 53 77 54 79 55
REMARK SMILES IDX 72 56 73 57 74 58 75 59 76 60 52 61 53 62 62 63 54 64 55 65
REMARK SMILES IDX 61 66 63 67 56 68 57 69 58 70 59 71 60 72 4 73 5 74 6 75
REMARK SMILES IDX 7 76 8 77 9 79 10 80 11 81 15 82 12 83 14 84 13 85 16 86
REMARK SMILES IDX 24 87 17 88 23 90 18 92 22 93 19 94 20 97 21 98
REMARK H PARENT 3 4 84 22 50 33 7 78 16 89 24 91 18 95 22 96
REMARK Flexibility Score: inf
ROOT
ATOM      1  O   UNL     1       1.133  -0.641  -0.036  1.00  0.00    -0.269 OA
ATOM      2  C   UNL     1       2.222  -0.092  -0.128  1.00  0.00     0.251 C 
ATOM      3  N   UNL     1       2.908  -0.021  -1.341  1.00  0.00    -0.352 N 
ATOM      4  H   UNL     1       2.378  -0.188  -2.154  1.00  0.00     0.163 HD
ENDROOT
BRANCH   2   5
ATOM      5  C   UNL     1       2.855   0.557   1.033  1.00  0.00     0.039 A 
ATOM      6  C   UNL     1       3.026  -0.040   2.283  1.00  0.00     0.014 A 
ATOM      7  C   UNL     1       3.469   1.757   0.730  1.00  0.00     0.014 A 
ATOM      8  C   UNL     1       3.925   0.557   3.171  1.00  0.00     0.010 A 
ATOM      9  C   UNL     1       4.600   2.062   1.414  1.00  0.00     0.010 A 
ATOM     10  C   UNL     1       4.743   1.601   2.705  1.00  0.00    -0.014 A 
BRANCH  10  11
ATOM     11  C   UNL     1       5.821   2.211   3.473  1.00  0.00     0.031 A 
ATOM     12  C   UNL     1       6.680   1.234   4.180  1.00  0.00     0.074 A 
ATOM     13  C   UNL     1       6.123   3.532   3.393  1.00  0.00     0.049 A 
ATOM     14  N   UNL     1       6.638   0.946   5.436  1.00  0.00    -0.248 NA
ATOM     15  C   UNL     1       7.526   0.322   3.392  1.00  0.00     0.031 C 
ATOM     16  C   UNL     1       5.535   4.577   2.536  1.00  0.00     0.029 A 
ATOM     17  N   UNL     1       7.107   4.222   4.028  1.00  0.00    -0.354 N 
ATOM     18  C   UNL     1       7.655   0.026   5.645  1.00  0.00     0.074 A 
ATOM     19  C   UNL     1       7.993  -0.491   4.344  1.00  0.00     0.031 C 
ATOM     20  C   UNL     1       6.323   5.673   2.523  1.00  0.00     0.029 A 
ATOM     21  C   UNL     1       7.352   5.501   3.524  1.00  0.00     0.049 A 
ATOM     22  H   UNL     1       7.611   3.847   4.787  1.00  0.00     0.167 HD
ATOM     23  C   UNL     1       8.314  -0.014   6.836  1.00  0.00     0.037 A 
ATOM     24  C   UNL     1       8.315   6.370   3.928  1.00  0.00     0.037 A 
ATOM     25  C   UNL     1       7.608   0.754   7.837  1.00  0.00     0.049 A 
ATOM     26  C   UNL     1       8.692   5.951   5.305  1.00  0.00     0.074 A 
ATOM     27  C   UNL     1       6.337   0.698   8.376  1.00  0.00     0.029 A 
ATOM     28  N   UNL     1       8.076   2.020   8.107  1.00  0.00    -0.354 N 
ATOM     29  N   UNL     1       7.874   6.021   6.323  1.00  0.00    -0.248 NA
ATOM     30  C   UNL     1       9.771   4.984   5.437  1.00  0.00     0.031 C 
ATOM     31  C   UNL     1       5.929   2.058   8.499  1.00  0.00     0.029 A 
ATOM     32  C   UNL     1       7.000   2.872   8.127  1.00  0.00     0.049 A 
ATOM     33  H   UNL     1       9.016   2.271   8.259  1.00  0.00     0.167 HD
ATOM     34  C   UNL     1       8.066   4.833   7.016  1.00  0.00     0.074 A 
ATOM     35  C   UNL     1       9.297   4.267   6.461  1.00  0.00     0.031 C 
ATOM     36  C   UNL     1       7.062   4.271   7.753  1.00  0.00     0.037 A 
BRANCH  23  37
ATOM     37  C   UNL     1       9.763  -0.395   7.003  1.00  0.00     0.058 A 
ATOM     38  C   UNL     1      10.277  -0.567   8.305  1.00  0.00     0.135 A 
ATOM     39  C   UNL     1      10.725  -0.326   5.971  1.00  0.00     0.135 A 
ATOM     40  F   UNL     1       9.451  -0.641   9.362  1.00  0.00    -0.206 F 
ATOM     41  C   UNL     1      11.645  -0.589   8.569  1.00  0.00     0.059 A 
ATOM     42  C   UNL     1      12.092  -0.400   6.207  1.00  0.00     0.059 A 
ATOM     43  F   UNL     1      10.396  -0.083   4.698  1.00  0.00    -0.206 F 
ATOM     44  C   UNL     1      12.545  -0.491   7.512  1.00  0.00     0.060 A 
BRANCH  44  45
ATOM     45  S   UNL     1      14.309  -0.422   7.861  1.00  0.00     0.124 S 
ATOM     46  O   UNL     1      14.418   0.854   8.556  1.00  0.00    -0.237 OA
ATOM     47  O   UNL     1      14.498  -1.617   8.677  1.00  0.00    -0.237 OA
ATOM     48  O   UNL     1      14.915  -0.473   6.534  1.00  0.00    -0.744 OA
ENDBRANCH  44  45
ENDBRANCH  23  37
BRANCH  24  49
ATOM     49  C   UNL     1       9.153   7.281   3.097  1.00  0.00     0.058 A 
ATOM     50  C   UNL     1      10.016   8.221   3.691  1.00  0.00     0.135 A 
ATOM     51  C   UNL     1       9.351   7.050   1.720  1.00  0.00     0.135 A 
ATOM     52  F   UNL     1       9.908   8.503   4.999  1.00  0.00    -0.206 F 
ATOM     53  C   UNL     1      11.057   8.838   2.984  1.00  0.00     0.059 A 
ATOM     54  C   UNL     1      10.377   7.658   0.993  1.00  0.00     0.059 A 
ATOM     55  F   UNL     1       8.610   6.150   1.057  1.00  0.00    -0.206 F 
ATOM     56  C   UNL     1      11.248   8.526   1.639  1.00  0.00     0.060 A 
BRANCH  56  57
ATOM     57  S   UNL     1      12.709   9.160   0.775  1.00  0.00     0.124 S 
ATOM     58  O   UNL     1      12.433  10.592   0.721  1.00  0.00    -0.237 OA
ATOM     59  O   UNL     1      13.792   8.753   1.663  1.00  0.00    -0.237 OA
ATOM     60  O   UNL     1      12.669   8.469  -0.511  1.00  0.00    -0.744 OA
ENDBRANCH  56  57
ENDBRANCH  24  49
BRANCH  36  61
ATOM     61  C   UNL     1       5.826   5.091   8.038  1.00  0.00     0.058 A 
ATOM     62  C   UNL     1       4.895   5.508   7.068  1.00  0.00     0.135 A 
ATOM     63  C   UNL     1       5.478   5.297   9.382  1.00  0.00     0.135 A 
ATOM     64  F   UNL     1       5.103   5.269   5.766  1.00  0.00    -0.206 F 
ATOM     65  C   UNL     1       3.687   6.118   7.418  1.00  0.00     0.059 A 
ATOM     66  C   UNL     1       4.268   5.876   9.755  1.00  0.00     0.059 A 
ATOM     67  F   UNL     1       6.295   4.871  10.358  1.00  0.00    -0.206 F 
ATOM     68  C   UNL     1       3.379   6.292   8.767  1.00  0.00     0.060 A 
BRANCH  68  69
ATOM     69  S   UNL     1       1.783   7.004   9.226  1.00  0.00     0.124 S 
ATOM     70  O   UNL     1       1.921   8.385   8.776  1.00  0.00    -0.237 OA
ATOM     71  O   UNL     1       0.841   6.183   8.470  1.00  0.00    -0.237 OA
ATOM     72  O   UNL     1       1.731   6.823  10.675  1.00  0.00    -0.744 OA
ENDBRANCH  68  69
ENDBRANCH  36  61
ENDBRANCH  10  11
ENDBRANCH   2   5
BRANCH   3  73
ATOM     73  C   UNL     1       4.340   0.277  -1.543  1.00  0.00     0.118 C 
BRANCH  73  74
ATOM     74  C   UNL     1       4.794   0.232  -2.987  1.00  0.00     0.042 C 
BRANCH  74  75
ATOM     75  C   UNL     1       4.205   1.373  -3.816  1.00  0.00     0.118 C 
BRANCH  75  76
ATOM     76  N   UNL     1       4.788   2.687  -3.542  1.00  0.00    -0.352 N 
ATOM     77  C   UNL     1       5.665   3.445  -4.284  1.00  0.00     0.251 C 
ATOM     78  H   UNL     1       4.508   3.094  -2.691  1.00  0.00     0.163 HD
ATOM     79  O   UNL     1       6.094   4.513  -3.864  1.00  0.00    -0.269 OA
BRANCH  77  80
ATOM     80  C   UNL     1       6.131   2.941  -5.588  1.00  0.00     0.044 A 
ATOM     81  C   UNL     1       5.209   2.558  -6.565  1.00  0.00     0.018 A 
ATOM     82  C   UNL     1       7.505   2.787  -5.795  1.00  0.00     0.070 A 
ATOM     83  C   UNL     1       5.639   1.842  -7.677  1.00  0.00     0.057 A 
ATOM     84  C   UNL     1       7.952   2.104  -6.926  1.00  0.00     0.173 A 
ATOM     85  C   UNL     1       7.000   1.568  -7.841  1.00  0.00     0.172 A 
ATOM     86  N   UNL     1       9.325   1.849  -7.111  1.00  0.00    -0.229 N 
ATOM     87  N   UNL     1       7.423   0.740  -8.895  1.00  0.00    -0.229 N 
ATOM     88  C   UNL     1       9.762   1.008  -8.096  1.00  0.00     0.383 C 
ATOM     89  H   UNL     1       9.982   2.285  -6.520  1.00  0.00     0.313 HD
ATOM     90  C   UNL     1       8.737   0.398  -9.037  1.00  0.00     0.383 C 
ATOM     91  H   UNL     1       6.762   0.402  -9.541  1.00  0.00     0.313 HD
ATOM     92  N   UNL     1      10.959   0.623  -8.361  1.00  0.00    -0.122 N 
ATOM     93  N   UNL     1       9.259  -0.405  -9.895  1.00  0.00    -0.122 N 
ATOM     94  S   UNL     1      10.869  -0.432  -9.607  1.00  0.00     0.469 S 
ATOM     95  H   UNL     1      11.779   0.911  -7.898  1.00  0.00     0.331 HD
ATOM     96  H   UNL     1       8.780  -0.907 -10.593  1.00  0.00     0.331 HD
ATOM     97  O   UNL     1      11.543   0.126 -10.749  1.00  0.00    -0.143 OA
ATOM     98  O   UNL     1      11.209  -1.756  -9.110  1.00  0.00    -0.143 OA
ENDBRANCH  77  80
ENDBRANCH  75  76
ENDBRANCH  74  75
ENDBRANCH  73  74
ENDBRANCH   3  73
TORSDOF 13
