REMARK SMILES CCN(CC)C(=O)C[N@@H+](C)[C@@H](C)c1ccc(C(=O)NCCCNC(=O)c2ccc(-c3c4nc(c(-c5c(F)cc(S(=O)(=O)[O-])cc5F)c5ccc([nH]5)c(-c5c(F)cc(S(=O)(=O)[O-])cc5F)c5nc(c(-c6c(F)cc(S(=O)(=O)[O-])cc6F)c6ccc3[nH]6)C=C5)C=C4)cc2)o1
REMARK SMILES IDX 20 1 19 2 17 3 18 4 16 6 13 7 14 8 92 9 15 10 11 11 12 12
REMARK SMILES IDX 9 13 10 14 8 16 6 17 3 18 7 19 2 20 1 21 4 22 5 23 21 24
REMARK SMILES IDX 22 25 23 26 24 27 25 29 26 30 27 31 91 32 28 33 90 34 29 35
REMARK SMILES IDX 30 36 31 37 84 38 32 39 89 40 83 41 85 42 33 43 88 44 82 45
REMARK SMILES IDX 81 46 34 48 68 49 47 50 67 51 48 52 51 53 66 54 86 55 49 56
REMARK SMILES IDX 50 57 65 59 87 60 52 61 35 62 36 63 45 64 37 65 38 66 44 67
REMARK SMILES IDX 46 68 39 69 40 70 41 71 42 72 43 73 69 74 70 75 79 76 71 77
REMARK SMILES IDX 72 78 78 79 80 80 73 81 74 82 75 83 76 84 77 85 53 86 54 87
REMARK SMILES IDX 63 88 55 89 56 90 62 91 64 92 57 93 58 94 59 95 60 96 61 97
REMARK H PARENT 19 5 9 15 23 28 85 47 51 58
REMARK Flexibility Score: inf
ROOT
ATOM      1  C   UNL     1       1.688  -1.975  -1.930  1.00  0.00     0.118 C 
ENDROOT
BRANCH   1   2
ATOM      2  N   UNL     1       0.930  -0.933  -2.604  1.00  0.00    -0.349 N 
ATOM      3  C   UNL     1       1.063   0.444  -2.559  1.00  0.00     0.287 C 
ATOM      4  O   UNL     1       0.213   1.096  -3.161  1.00  0.00    -0.266 OA
ATOM      5  H   UNL     1       0.205  -1.259  -3.186  1.00  0.00     0.163 HD
BRANCH   3   6
ATOM      6  C   UNL     1       2.161   1.043  -1.822  1.00  0.00     0.191 A 
ATOM      7  C   UNL     1       3.094   2.610  -0.563  1.00  0.00     0.161 A 
ATOM      8  C   UNL     1       4.021   1.596  -0.688  1.00  0.00     0.053 A 
ATOM      9  O   UNL     1       1.963   2.285  -1.261  1.00  0.00    -0.450 OA
ATOM     10  C   UNL     1       3.453   0.636  -1.548  1.00  0.00     0.057 A 
BRANCH   7  11
ATOM     11  C   UNL     1       3.150   3.967   0.083  1.00  0.00     0.248 C 
ATOM     12  C   UNL     1       4.594   4.502   0.023  1.00  0.00     0.084 C 
BRANCH  11  13
ATOM     13  N   UNL     1       2.509   4.064   1.416  1.00  0.00    -0.321 N 
ATOM     14  C   UNL     1       2.615   5.411   1.981  1.00  0.00     0.333 C 
ATOM     15  H   UNL     1       1.536   3.843   1.204  1.00  0.00     0.348 HD
BRANCH  13  16
ATOM     16  C   UNL     1       2.917   3.067   2.425  1.00  0.00     0.364 C 
BRANCH  16  17
ATOM     17  C   UNL     1       2.193   1.718   2.293  1.00  0.00     0.277 C 
ATOM     18  N   UNL     1       0.806   1.663   2.415  1.00  0.00    -0.338 N 
ATOM     19  O   UNL     1       2.872   0.690   2.170  1.00  0.00    -0.268 OA
BRANCH  18  20
ATOM     20  C   UNL     1       0.157   0.362   2.284  1.00  0.00     0.116 C 
ATOM     21  C   UNL     1      -0.052   0.016   0.823  1.00  0.00     0.027 C 
ENDBRANCH  18  20
BRANCH  18  22
ATOM     22  C   UNL     1      -0.093   2.808   2.572  1.00  0.00     0.116 C 
ATOM     23  C   UNL     1      -0.283   3.185   4.031  1.00  0.00     0.027 C 
ENDBRANCH  18  22
ENDBRANCH  16  17
ENDBRANCH  13  16
ENDBRANCH  11  13
ENDBRANCH   7  11
ENDBRANCH   3   6
ENDBRANCH   1   2
BRANCH   1  24
ATOM     24  C   UNL     1       0.821  -2.968  -1.169  1.00  0.00     0.042 C 
BRANCH  24  25
ATOM     25  C   UNL     1      -0.059  -3.847  -2.039  1.00  0.00     0.118 C 
BRANCH  25  26
ATOM     26  N   UNL     1       0.711  -4.816  -2.801  1.00  0.00    -0.352 N 
ATOM     27  C   UNL     1       0.800  -6.181  -2.673  1.00  0.00     0.251 C 
ATOM     28  H   UNL     1       1.256  -4.433  -3.526  1.00  0.00     0.163 HD
ATOM     29  O   UNL     1       1.690  -6.775  -3.278  1.00  0.00    -0.269 OA
BRANCH  27  30
ATOM     30  C   UNL     1      -0.144  -6.940  -1.817  1.00  0.00     0.039 A 
ATOM     31  C   UNL     1       0.325  -8.063  -1.127  1.00  0.00     0.014 A 
ATOM     32  C   UNL     1      -1.496  -6.599  -1.732  1.00  0.00     0.014 A 
ATOM     33  C   UNL     1      -0.548  -8.811  -0.330  1.00  0.00     0.010 A 
ATOM     34  C   UNL     1      -2.339  -7.279  -0.857  1.00  0.00     0.010 A 
ATOM     35  C   UNL     1      -1.885  -8.412  -0.168  1.00  0.00    -0.014 A 
BRANCH  35  36
ATOM     36  C   UNL     1      -2.836  -9.196   0.665  1.00  0.00     0.031 A 
ATOM     37  C   UNL     1      -4.057  -9.816   0.031  1.00  0.00     0.074 A 
ATOM     38  C   UNL     1      -2.635  -9.311   1.993  1.00  0.00     0.049 A 
ATOM     39  N   UNL     1      -5.039 -10.473   0.593  1.00  0.00    -0.248 NA
ATOM     40  C   UNL     1      -4.210  -9.647  -1.424  1.00  0.00     0.031 C 
ATOM     41  C   UNL     1      -1.521  -8.718   2.737  1.00  0.00     0.029 A 
ATOM     42  N   UNL     1      -3.366  -9.960   2.957  1.00  0.00    -0.354 N 
ATOM     43  C   UNL     1      -5.931 -10.773  -0.431  1.00  0.00     0.074 A 
ATOM     44  C   UNL     1      -5.405 -10.176  -1.638  1.00  0.00     0.031 C 
ATOM     45  C   UNL     1      -1.629  -9.052   4.033  1.00  0.00     0.029 A 
ATOM     46  C   UNL     1      -2.836  -9.850   4.222  1.00  0.00     0.049 A 
ATOM     47  H   UNL     1      -4.193 -10.458   2.762  1.00  0.00     0.167 HD
ATOM     48  C   UNL     1      -7.071 -11.504  -0.379  1.00  0.00     0.037 A 
ATOM     49  C   UNL     1      -3.276 -10.334   5.401  1.00  0.00     0.037 A 
ATOM     50  C   UNL     1      -7.569 -12.132   0.817  1.00  0.00     0.049 A 
ATOM     51  C   UNL     1      -4.532 -11.163   5.430  1.00  0.00     0.074 A 
ATOM     52  C   UNL     1      -8.683 -12.940   0.965  1.00  0.00     0.029 A 
ATOM     53  N   UNL     1      -6.981 -12.029   2.069  1.00  0.00    -0.354 N 
ATOM     54  N   UNL     1      -5.334 -11.481   4.441  1.00  0.00    -0.248 NA
ATOM     55  C   UNL     1      -4.937 -11.710   6.732  1.00  0.00     0.031 C 
ATOM     56  C   UNL     1      -8.790 -13.293   2.314  1.00  0.00     0.029 A 
ATOM     57  C   UNL     1      -7.714 -12.750   2.997  1.00  0.00     0.049 A 
ATOM     58  H   UNL     1      -6.162 -11.519   2.269  1.00  0.00     0.167 HD
ATOM     59  C   UNL     1      -6.316 -12.296   4.995  1.00  0.00     0.074 A 
ATOM     60  C   UNL     1      -6.003 -12.427   6.403  1.00  0.00     0.031 C 
ATOM     61  C   UNL     1      -7.378 -12.886   4.392  1.00  0.00     0.037 A 
BRANCH  48  62
ATOM     62  C   UNL     1      -7.852 -11.676  -1.654  1.00  0.00     0.058 A 
ATOM     63  C   UNL     1      -7.369 -12.457  -2.717  1.00  0.00     0.135 A 
ATOM     64  C   UNL     1      -9.117 -11.083  -1.803  1.00  0.00     0.135 A 
ATOM     65  F   UNL     1      -6.159 -13.034  -2.637  1.00  0.00    -0.206 F 
ATOM     66  C   UNL     1      -8.097 -12.619  -3.892  1.00  0.00     0.059 A 
ATOM     67  C   UNL     1      -9.876 -11.257  -2.957  1.00  0.00     0.059 A 
ATOM     68  F   UNL     1      -9.628 -10.325  -0.820  1.00  0.00    -0.206 F 
ATOM     69  C   UNL     1      -9.350 -12.016  -4.002  1.00  0.00     0.060 A 
BRANCH  69  70
ATOM     70  S   UNL     1     -10.286 -12.247  -5.528  1.00  0.00     0.124 S 
ATOM     71  O   UNL     1      -9.540 -11.403  -6.457  1.00  0.00    -0.237 OA
ATOM     72  O   UNL     1     -10.173 -13.685  -5.749  1.00  0.00    -0.237 OA
ATOM     73  O   UNL     1     -11.622 -11.772  -5.183  1.00  0.00    -0.744 OA
ENDBRANCH  69  70
ENDBRANCH  48  62
BRANCH  49  74
ATOM     74  C   UNL     1      -2.505 -10.075   6.647  1.00  0.00     0.058 A 
ATOM     75  C   UNL     1      -1.813 -11.108   7.297  1.00  0.00     0.135 A 
ATOM     76  C   UNL     1      -2.440  -8.791   7.211  1.00  0.00     0.135 A 
ATOM     77  F   UNL     1      -1.848 -12.354   6.799  1.00  0.00    -0.206 F 
ATOM     78  C   UNL     1      -1.106 -10.887   8.474  1.00  0.00     0.059 A 
ATOM     79  C   UNL     1      -1.716  -8.539   8.373  1.00  0.00     0.059 A 
ATOM     80  F   UNL     1      -3.068  -7.764   6.619  1.00  0.00    -0.206 F 
ATOM     81  C   UNL     1      -1.063  -9.596   9.004  1.00  0.00     0.060 A 
BRANCH  81  82
ATOM     82  S   UNL     1      -0.112  -9.311  10.513  1.00  0.00     0.124 S 
ATOM     83  O   UNL     1      -0.966  -9.930  11.520  1.00  0.00    -0.237 OA
ATOM     84  O   UNL     1       1.139 -10.005  10.223  1.00  0.00    -0.237 OA
ATOM     85  O   UNL     1      -0.013  -7.856  10.577  1.00  0.00    -0.744 OA
ENDBRANCH  81  82
ENDBRANCH  49  74
BRANCH  61  86
ATOM     86  C   UNL     1      -8.249 -13.775   5.236  1.00  0.00     0.058 A 
ATOM     87  C   UNL     1      -9.118 -13.258   6.209  1.00  0.00     0.135 A 
ATOM     88  C   UNL     1      -8.243 -15.165   5.034  1.00  0.00     0.135 A 
ATOM     89  F   UNL     1      -9.161 -11.937   6.444  1.00  0.00    -0.206 F 
ATOM     90  C   UNL     1      -9.928 -14.091   6.974  1.00  0.00     0.059 A 
ATOM     91  C   UNL     1      -9.066 -16.014   5.766  1.00  0.00     0.059 A 
ATOM     92  F   UNL     1      -7.440 -15.711   4.106  1.00  0.00    -0.206 F 
ATOM     93  C   UNL     1      -9.895 -15.468   6.745  1.00  0.00     0.060 A 
BRANCH  93  94
ATOM     94  S   UNL     1     -10.966 -16.537   7.730  1.00  0.00     0.124 S 
ATOM     95  O   UNL     1     -10.277 -16.538   9.016  1.00  0.00    -0.237 OA
ATOM     96  O   UNL     1     -12.239 -15.824   7.693  1.00  0.00    -0.237 OA
ATOM     97  O   UNL     1     -10.942 -17.803   7.004  1.00  0.00    -0.744 OA
ENDBRANCH  93  94
ENDBRANCH  61  86
ENDBRANCH  35  36
ENDBRANCH  27  30
ENDBRANCH  25  26
ENDBRANCH  24  25
ENDBRANCH   1  24
TORSDOF 19
