REMARK SMILES O=C(NCCCNC(=O)[C@H]1CCCC[C@H]1C(=O)N1CCN(S(=O)(=O)c2ccc(F)cc2)CC1)c1ccc(-c2c3nc(c(-c4c(F)cc(S(=O)(=O)[O-])cc4F)c4ccc([nH]4)c(-c4c(F)cc(S(=O)(=O)[O-])cc4F)c4nc(c(-c5c(F)cc(S(=O)(=O)[O-])cc5F)c5ccc2[nH]5)C=C4)C=C3)cc1
REMARK SMILES IDX 5 1 4 2 3 3 1 4 2 5 34 7 35 8 99 9 36 10 98 11 37 12 38 13
REMARK SMILES IDX 39 14 92 15 40 16 97 17 91 18 93 19 41 20 96 21 90 22 89 23
REMARK SMILES IDX 42 25 76 26 55 27 75 28 56 29 59 30 74 31 94 32 57 33 58 34
REMARK SMILES IDX 73 36 95 37 60 38 43 39 44 40 53 41 45 42 46 43 52 44 54 45
REMARK SMILES IDX 47 46 48 47 49 48 50 49 51 50 77 51 78 52 87 53 79 54 80 55
REMARK SMILES IDX 86 56 88 57 81 58 82 59 83 60 84 61 85 62 61 63 62 64 71 65
REMARK SMILES IDX 63 66 64 67 70 68 72 69 65 70 66 71 67 72 68 73 69 74 6 75
REMARK SMILES IDX 7 76 8 77 9 79 10 80 11 81 15 82 12 83 14 84 13 85 16 86
REMARK SMILES IDX 17 87 18 88 19 89 33 90 20 91 32 92 21 93 22 94 23 95 24 96
REMARK SMILES IDX 25 97 26 98 31 99 27 100 30 101 28 102 29 103
REMARK H PARENT 3 6 93 24 59 35 7 78
REMARK Flexibility Score: inf
ROOT
ATOM      1  C   UNL     1       3.687   1.197  -7.001  1.00  0.00     0.042 C 
ENDROOT
BRANCH   1   2
ATOM      2  C   UNL     1       2.823   1.934  -8.019  1.00  0.00     0.118 C 
BRANCH   2   3
ATOM      3  N   UNL     1       3.117   1.554  -9.392  1.00  0.00    -0.352 N 
ATOM      4  O   UNL     1       3.257   0.264 -11.223  1.00  0.00    -0.269 OA
ATOM      5  C   UNL     1       2.728   0.459 -10.131  1.00  0.00     0.251 C 
ATOM      6  H   UNL     1       3.693   2.189  -9.876  1.00  0.00     0.163 HD
BRANCH   5   7
ATOM      7  C   UNL     1       1.721  -0.501  -9.616  1.00  0.00     0.039 A 
ATOM      8  C   UNL     1       0.612  -0.066  -8.900  1.00  0.00     0.014 A 
ATOM      9  C   UNL     1       1.856  -1.867  -9.897  1.00  0.00     0.014 A 
ATOM     10  C   UNL     1      -0.239  -0.985  -8.303  1.00  0.00     0.010 A 
ATOM     11  C   UNL     1       0.910  -2.787  -9.417  1.00  0.00     0.010 A 
ATOM     12  C   UNL     1      -0.135  -2.356  -8.588  1.00  0.00    -0.014 A 
BRANCH  12  13
ATOM     13  C   UNL     1      -1.202  -3.261  -8.072  1.00  0.00     0.031 A 
ATOM     14  C   UNL     1      -0.895  -4.394  -7.131  1.00  0.00     0.074 A 
ATOM     15  C   UNL     1      -2.484  -2.970  -8.385  1.00  0.00     0.049 A 
ATOM     16  N   UNL     1      -1.730  -5.202  -6.527  1.00  0.00    -0.248 NA
ATOM     17  C   UNL     1       0.519  -4.669  -6.831  1.00  0.00     0.031 C 
ATOM     18  C   UNL     1      -2.901  -1.907  -9.308  1.00  0.00     0.029 A 
ATOM     19  N   UNL     1      -3.670  -3.479  -7.922  1.00  0.00    -0.354 N 
ATOM     20  C   UNL     1      -0.948  -6.093  -5.801  1.00  0.00     0.074 A 
ATOM     21  C   UNL     1       0.432  -5.737  -6.047  1.00  0.00     0.031 C 
ATOM     22  C   UNL     1      -4.230  -1.760  -9.244  1.00  0.00     0.029 A 
ATOM     23  C   UNL     1      -4.774  -2.779  -8.357  1.00  0.00     0.049 A 
ATOM     24  H   UNL     1      -3.727  -4.268  -7.335  1.00  0.00     0.167 HD
ATOM     25  C   UNL     1      -1.351  -7.110  -5.002  1.00  0.00     0.037 A 
ATOM     26  C   UNL     1      -6.082  -2.939  -8.082  1.00  0.00     0.037 A 
ATOM     27  C   UNL     1      -2.731  -7.434  -4.737  1.00  0.00     0.049 A 
ATOM     28  C   UNL     1      -6.495  -4.065  -7.183  1.00  0.00     0.074 A 
ATOM     29  C   UNL     1      -3.239  -8.443  -3.935  1.00  0.00     0.029 A 
ATOM     30  N   UNL     1      -3.822  -6.748  -5.251  1.00  0.00    -0.354 N 
ATOM     31  N   UNL     1      -5.736  -4.913  -6.531  1.00  0.00    -0.248 NA
ATOM     32  C   UNL     1      -7.936  -4.279  -7.006  1.00  0.00     0.031 C 
ATOM     33  C   UNL     1      -4.636  -8.387  -3.990  1.00  0.00     0.029 A 
ATOM     34  C   UNL     1      -4.999  -7.320  -4.795  1.00  0.00     0.049 A 
ATOM     35  H   UNL     1      -3.768  -5.971  -5.852  1.00  0.00     0.167 HD
ATOM     36  C   UNL     1      -6.608  -5.775  -5.881  1.00  0.00     0.074 A 
ATOM     37  C   UNL     1      -7.950  -5.318  -6.182  1.00  0.00     0.031 C 
ATOM     38  C   UNL     1      -6.324  -6.860  -5.121  1.00  0.00     0.037 A 
BRANCH  25  39
ATOM     39  C   UNL     1      -0.301  -7.963  -4.346  1.00  0.00     0.058 A 
ATOM     40  C   UNL     1      -0.091  -9.285  -4.773  1.00  0.00     0.135 A 
ATOM     41  C   UNL     1       0.417  -7.515  -3.227  1.00  0.00     0.135 A 
ATOM     42  F   UNL     1      -0.746  -9.762  -5.843  1.00  0.00    -0.206 F 
ATOM     43  C   UNL     1       0.771 -10.142  -4.095  1.00  0.00     0.059 A 
ATOM     44  C   UNL     1       1.300  -8.349  -2.544  1.00  0.00     0.059 A 
ATOM     45  F   UNL     1       0.271  -6.253  -2.792  1.00  0.00    -0.206 F 
ATOM     46  C   UNL     1       1.454  -9.668  -2.974  1.00  0.00     0.060 A 
BRANCH  46  47
ATOM     47  S   UNL     1       2.561 -10.795  -2.099  1.00  0.00     0.124 S 
ATOM     48  O   UNL     1       1.619 -11.724  -1.484  1.00  0.00    -0.237 OA
ATOM     49  O   UNL     1       3.371 -11.335  -3.187  1.00  0.00    -0.237 OA
ATOM     50  O   UNL     1       3.274  -9.918  -1.175  1.00  0.00    -0.744 OA
ENDBRANCH  46  47
ENDBRANCH  25  39
BRANCH  26  51
ATOM     51  C   UNL     1      -7.088  -2.026  -8.688  1.00  0.00     0.058 A 
ATOM     52  C   UNL     1      -7.322  -2.021 -10.072  1.00  0.00     0.135 A 
ATOM     53  C   UNL     1      -7.813  -1.119  -7.900  1.00  0.00     0.135 A 
ATOM     54  F   UNL     1      -6.650  -2.863 -10.871  1.00  0.00    -0.206 F 
ATOM     55  C   UNL     1      -8.213  -1.130 -10.658  1.00  0.00     0.059 A 
ATOM     56  C   UNL     1      -8.734  -0.238  -8.460  1.00  0.00     0.059 A 
ATOM     57  F   UNL     1      -7.634  -1.095  -6.570  1.00  0.00    -0.206 F 
ATOM     58  C   UNL     1      -8.912  -0.239  -9.844  1.00  0.00     0.060 A 
BRANCH  58  59
ATOM     59  S   UNL     1     -10.072   0.904 -10.622  1.00  0.00     0.124 S 
ATOM     60  O   UNL     1      -9.164   1.892 -11.195  1.00  0.00    -0.237 OA
ATOM     61  O   UNL     1     -10.761   0.044 -11.578  1.00  0.00    -0.237 OA
ATOM     62  O   UNL     1     -10.885   1.369  -9.502  1.00  0.00    -0.744 OA
ENDBRANCH  58  59
ENDBRANCH  26  51
BRANCH  38  63
ATOM     63  C   UNL     1      -7.491  -7.631  -4.580  1.00  0.00     0.058 A 
ATOM     64  C   UNL     1      -7.834  -7.555  -3.223  1.00  0.00     0.135 A 
ATOM     65  C   UNL     1      -8.254  -8.468  -5.410  1.00  0.00     0.135 A 
ATOM     66  F   UNL     1      -7.132  -6.771  -2.390  1.00  0.00    -0.206 F 
ATOM     67  C   UNL     1      -8.896  -8.286  -2.703  1.00  0.00     0.059 A 
ATOM     68  C   UNL     1      -9.335  -9.191  -4.915  1.00  0.00     0.059 A 
ATOM     69  F   UNL     1      -7.972  -8.561  -6.719  1.00  0.00    -0.206 F 
ATOM     70  C   UNL     1      -9.640  -9.101  -3.557  1.00  0.00     0.060 A 
BRANCH  70  71
ATOM     71  S   UNL     1     -11.047 -10.007  -2.879  1.00  0.00     0.124 S 
ATOM     72  O   UNL     1     -10.385 -11.084  -2.152  1.00  0.00    -0.237 OA
ATOM     73  O   UNL     1     -11.702  -8.994  -2.057  1.00  0.00    -0.237 OA
ATOM     74  O   UNL     1     -11.791 -10.413  -4.068  1.00  0.00    -0.744 OA
ENDBRANCH  70  71
ENDBRANCH  38  63
ENDBRANCH  12  13
ENDBRANCH   5   7
ENDBRANCH   2   3
ENDBRANCH   1   2
BRANCH   1  75
ATOM     75  C   UNL     1       4.994   1.927  -6.692  1.00  0.00     0.117 C 
BRANCH  75  76
ATOM     76  N   UNL     1       4.738   3.166  -5.973  1.00  0.00    -0.356 N 
ATOM     77  C   UNL     1       5.250   3.587  -4.792  1.00  0.00     0.223 C 
ATOM     78  H   UNL     1       4.105   3.783  -6.405  1.00  0.00     0.163 HD
ATOM     79  O   UNL     1       4.420   4.062  -4.006  1.00  0.00    -0.275 OA
BRANCH  77  80
ATOM     80  C   UNL     1       6.732   3.611  -4.432  1.00  0.00     0.091 C 
ATOM     81  C   UNL     1       7.373   2.209  -4.352  1.00  0.00     0.014 C 
ATOM     82  C   UNL     1       7.675   4.621  -5.118  1.00  0.00     0.091 C 
ATOM     83  C   UNL     1       8.177   1.746  -5.575  1.00  0.00     0.001 C 
ATOM     84  C   UNL     1       8.204   4.106  -6.458  1.00  0.00     0.014 C 
ATOM     85  C   UNL     1       9.014   2.835  -6.228  1.00  0.00     0.001 C 
BRANCH  82  86
ATOM     86  C   UNL     1       7.441   6.149  -5.186  1.00  0.00     0.226 C 
ATOM     87  O   UNL     1       8.224   6.910  -4.610  1.00  0.00    -0.275 OA
ATOM     88  N   UNL     1       6.557   6.636  -6.124  1.00  0.00    -0.340 N 
ATOM     89  C   UNL     1       6.940   7.758  -6.988  1.00  0.00     0.136 C 
ATOM     90  C   UNL     1       5.129   6.597  -5.893  1.00  0.00     0.136 C 
ATOM     91  C   UNL     1       6.180   7.704  -8.335  1.00  0.00     0.124 C 
ATOM     92  C   UNL     1       4.423   6.372  -7.224  1.00  0.00     0.124 C 
ATOM     93  N   UNL     1       4.684   7.505  -8.170  1.00  0.00    -0.194 NA
BRANCH  93  94
ATOM     94  S   UNL     1       3.817   8.962  -7.939  1.00  0.00     0.243 S 
ATOM     95  O   UNL     1       4.112   9.466  -6.612  1.00  0.00    -0.207 OA
ATOM     96  O   UNL     1       4.058   9.787  -9.101  1.00  0.00    -0.207 OA
BRANCH  94  97
ATOM     97  C   UNL     1       2.101   8.479  -7.952  1.00  0.00     0.082 A 
ATOM     98  C   UNL     1       1.525   7.933  -6.795  1.00  0.00     0.025 A 
ATOM     99  C   UNL     1       1.314   8.727  -9.082  1.00  0.00     0.025 A 
ATOM    100  C   UNL     1       0.182   7.555  -6.799  1.00  0.00     0.040 A 
ATOM    101  C   UNL     1      -0.040   8.382  -9.065  1.00  0.00     0.040 A 
ATOM    102  C   UNL     1      -0.589   7.787  -7.932  1.00  0.00     0.123 A 
ATOM    103  F   UNL     1      -1.883   7.445  -7.928  1.00  0.00    -0.207 F 
ENDBRANCH  94  97
ENDBRANCH  93  94
ENDBRANCH  82  86
ENDBRANCH  77  80
ENDBRANCH  75  76
ENDBRANCH   1  75
TORSDOF 16
