REMARK SMILES C[NH+]1CCC([N@@H+](CC(=O)NCCCNC(=O)c2ccc(-c3c4nc(c(-c5c(F)cc(S(=O)(=O)[O-])cc5F)c5ccc([nH]5)c(-c5c(F)cc(S(=O)(=O)[O-])cc5F)c5nc(c(-c6c(F)cc(S(=O)(=O)[O-])cc6F)c6ccc3[nH]6)C=C5)C=C4)cc2)C(C)(C)C)CC1
REMARK SMILES IDX 12 1 11 2 10 3 8 4 9 5 7 7 6 8 5 10 1 11 2 12 3 13 88 14
REMARK SMILES IDX 4 16 87 17 83 18 84 19 85 20 86 21 13 22 14 23 15 24 16 26
REMARK SMILES IDX 17 27 18 28 82 29 19 30 81 31 20 32 21 33 22 34 75 35 23 36
REMARK SMILES IDX 80 37 74 38 76 39 24 40 79 41 73 42 72 43 25 45 59 46 38 47
REMARK SMILES IDX 58 48 39 49 42 50 57 51 77 52 40 53 41 54 56 56 78 57 43 58
REMARK SMILES IDX 26 59 27 60 36 61 28 62 29 63 35 64 37 65 30 66 31 67 32 68
REMARK SMILES IDX 33 69 34 70 60 71 61 72 70 73 62 74 63 75 69 76 71 77 64 78
REMARK SMILES IDX 65 79 66 80 67 81 68 82 44 83 45 84 54 85 46 86 47 87 53 88
REMARK SMILES IDX 55 89 48 90 49 91 50 92 51 93 52 94
REMARK H PARENT 10 6 6 9 2 15 14 25 76 44 42 55
REMARK Flexibility Score: inf
ROOT
ATOM      1  C   UNL     1      -0.044   2.453  -1.867  1.00  0.00     0.042 C 
ENDROOT
BRANCH   1   2
ATOM      2  C   UNL     1       1.468   2.682  -1.960  1.00  0.00     0.118 C 
BRANCH   2   3
ATOM      3  N   UNL     1       2.136   3.028  -0.721  1.00  0.00    -0.351 N 
ATOM      4  C   UNL     1       3.174   2.414  -0.078  1.00  0.00     0.275 C 
ATOM      5  O   UNL     1       3.868   3.125   0.655  1.00  0.00    -0.269 OA
ATOM      6  H   UNL     1       1.788   3.832  -0.272  1.00  0.00     0.163 HD
BRANCH   4   7
ATOM      7  C   UNL     1       3.471   0.923  -0.265  1.00  0.00     0.364 C 
BRANCH   7   8
ATOM      8  N   UNL     1       2.851   0.046   0.760  1.00  0.00    -0.320 N 
ATOM      9  H   UNL     1       3.213  -0.898   0.627  1.00  0.00     0.349 HD
BRANCH   8  10
ATOM     10  C   UNL     1       1.415  -0.189   0.513  1.00  0.00     0.196 C 
ATOM     11  C   UNL     1      -2.687  -1.358   0.281  1.00  0.00     0.332 C 
ATOM     12  N   UNL     1      -1.315  -1.221   0.776  1.00  0.00    -0.337 N 
ATOM     13  C   UNL     1      -1.031   0.189   1.042  1.00  0.00     0.268 C 
ATOM     14  C   UNL     1      -0.370  -1.821  -0.172  1.00  0.00     0.268 C 
ATOM     15  H   UNL     1      -1.207  -1.727   1.655  1.00  0.00     0.347 HD
ATOM     16  C   UNL     1       0.412   0.441   1.483  1.00  0.00     0.126 C 
ATOM     17  C   UNL     1       1.078  -1.674   0.304  1.00  0.00     0.126 C 
ENDBRANCH   8  10
BRANCH   8  18
ATOM     18  C   UNL     1       3.459  -0.026   2.115  1.00  0.00     0.090 C 
ATOM     19  C   UNL     1       3.078   1.126   3.073  1.00  0.00     0.078 C 
ATOM     20  C   UNL     1       3.090  -1.350   2.826  1.00  0.00     0.078 C 
ATOM     21  C   UNL     1       5.009  -0.046   2.022  1.00  0.00     0.078 C 
ENDBRANCH   8  18
ENDBRANCH   7   8
ENDBRANCH   4   7
ENDBRANCH   2   3
ENDBRANCH   1   2
BRANCH   1  22
ATOM     22  C   UNL     1      -0.819   3.427  -0.969  1.00  0.00     0.118 C 
BRANCH  22  23
ATOM     23  N   UNL     1      -2.005   3.916  -1.650  1.00  0.00    -0.352 N 
ATOM     24  C   UNL     1      -3.334   3.592  -1.635  1.00  0.00     0.251 C 
ATOM     25  H   UNL     1      -1.806   4.655  -2.269  1.00  0.00     0.163 HD
ATOM     26  O   UNL     1      -4.000   4.020  -2.582  1.00  0.00    -0.269 OA
BRANCH  24  27
ATOM     27  C   UNL     1      -4.035   2.805  -0.580  1.00  0.00     0.039 A 
ATOM     28  C   UNL     1      -5.221   2.160  -0.969  1.00  0.00     0.014 A 
ATOM     29  C   UNL     1      -3.715   2.829   0.780  1.00  0.00     0.014 A 
ATOM     30  C   UNL     1      -6.087   1.591  -0.026  1.00  0.00     0.010 A 
ATOM     31  C   UNL     1      -4.566   2.210   1.726  1.00  0.00     0.010 A 
ATOM     32  C   UNL     1      -5.781   1.614   1.341  1.00  0.00    -0.014 A 
BRANCH  32  33
ATOM     33  C   UNL     1      -6.764   1.065   2.332  1.00  0.00     0.031 A 
ATOM     34  C   UNL     1      -7.493   1.974   3.297  1.00  0.00     0.074 A 
ATOM     35  C   UNL     1      -7.064  -0.251   2.344  1.00  0.00     0.049 A 
ATOM     36  N   UNL     1      -8.426   1.678   4.171  1.00  0.00    -0.248 NA
ATOM     37  C   UNL     1      -7.128   3.397   3.277  1.00  0.00     0.031 C 
ATOM     38  C   UNL     1      -6.470  -1.258   1.467  1.00  0.00     0.029 A 
ATOM     39  N   UNL     1      -7.954  -0.967   3.112  1.00  0.00    -0.354 N 
ATOM     40  C   UNL     1      -8.754   2.870   4.809  1.00  0.00     0.074 A 
ATOM     41  C   UNL     1      -7.890   3.888   4.246  1.00  0.00     0.031 C 
ATOM     42  C   UNL     1      -7.018  -2.455   1.732  1.00  0.00     0.029 A 
ATOM     43  C   UNL     1      -7.992  -2.310   2.811  1.00  0.00     0.049 A 
ATOM     44  H   UNL     1      -8.511  -0.557   3.812  1.00  0.00     0.167 HD
ATOM     45  C   UNL     1      -9.694   3.108   5.760  1.00  0.00     0.037 A 
ATOM     46  C   UNL     1      -8.724  -3.316   3.332  1.00  0.00     0.037 A 
ATOM     47  C   UNL     1     -10.576   2.112   6.317  1.00  0.00     0.049 A 
ATOM     48  C   UNL     1      -9.727  -3.037   4.419  1.00  0.00     0.074 A 
ATOM     49  C   UNL     1     -11.591   2.286   7.245  1.00  0.00     0.029 A 
ATOM     50  N   UNL     1     -10.546   0.760   6.015  1.00  0.00    -0.354 N 
ATOM     51  N   UNL     1     -10.057  -1.892   4.965  1.00  0.00    -0.248 NA
ATOM     52  C   UNL     1     -10.466  -4.192   4.954  1.00  0.00     0.031 C 
ATOM     53  C   UNL     1     -12.142   1.033   7.539  1.00  0.00     0.029 A 
ATOM     54  C   UNL     1     -11.504   0.084   6.758  1.00  0.00     0.049 A 
ATOM     55  H   UNL     1      -9.936   0.340   5.367  1.00  0.00     0.167 HD
ATOM     56  C   UNL     1     -11.065  -2.184   5.880  1.00  0.00     0.074 A 
ATOM     57  C   UNL     1     -11.293  -3.611   5.813  1.00  0.00     0.031 C 
ATOM     58  C   UNL     1     -11.742  -1.337   6.694  1.00  0.00     0.037 A 
BRANCH  45  59
ATOM     59  C   UNL     1      -9.812   4.517   6.280  1.00  0.00     0.058 A 
ATOM     60  C   UNL     1     -10.351   5.553   5.500  1.00  0.00     0.135 A 
ATOM     61  C   UNL     1      -9.407   4.829   7.589  1.00  0.00     0.135 A 
ATOM     62  F   UNL     1     -10.750   5.313   4.241  1.00  0.00    -0.206 F 
ATOM     63  C   UNL     1     -10.443   6.855   5.982  1.00  0.00     0.059 A 
ATOM     64  C   UNL     1      -9.516   6.118   8.102  1.00  0.00     0.059 A 
ATOM     65  F   UNL     1      -8.897   3.875   8.384  1.00  0.00    -0.206 F 
ATOM     66  C   UNL     1     -10.014   7.130   7.282  1.00  0.00     0.060 A 
BRANCH  66  67
ATOM     67  S   UNL     1     -10.108   8.830   7.884  1.00  0.00     0.124 S 
ATOM     68  O   UNL     1      -8.990   9.448   7.177  1.00  0.00    -0.237 OA
ATOM     69  O   UNL     1     -11.438   9.245   7.451  1.00  0.00    -0.237 OA
ATOM     70  O   UNL     1      -9.937   8.690   9.326  1.00  0.00    -0.744 OA
ENDBRANCH  66  67
ENDBRANCH  45  59
BRANCH  46  71
ATOM     71  C   UNL     1      -8.560  -4.697   2.805  1.00  0.00     0.058 A 
ATOM     72  C   UNL     1      -9.565  -5.297   2.031  1.00  0.00     0.135 A 
ATOM     73  C   UNL     1      -7.399  -5.442   3.062  1.00  0.00     0.135 A 
ATOM     74  F   UNL     1     -10.698  -4.628   1.770  1.00  0.00    -0.206 F 
ATOM     75  C   UNL     1      -9.429  -6.589   1.536  1.00  0.00     0.059 A 
ATOM     76  C   UNL     1      -7.230  -6.728   2.558  1.00  0.00     0.059 A 
ATOM     77  F   UNL     1      -6.406  -4.910   3.791  1.00  0.00    -0.206 F 
ATOM     78  C   UNL     1      -8.255  -7.296   1.802  1.00  0.00     0.060 A 
BRANCH  78  79
ATOM     79  S   UNL     1      -8.064  -8.951   1.105  1.00  0.00     0.124 S 
ATOM     80  O   UNL     1      -8.963  -9.730   1.948  1.00  0.00    -0.237 OA
ATOM     81  O   UNL     1      -8.493  -8.754  -0.276  1.00  0.00    -0.237 OA
ATOM     82  O   UNL     1      -6.640  -9.225   1.276  1.00  0.00    -0.744 OA
ENDBRANCH  78  79
ENDBRANCH  46  71
BRANCH  58  83
ATOM     83  C   UNL     1     -12.831  -1.919   7.558  1.00  0.00     0.058 A 
ATOM     84  C   UNL     1     -12.545  -2.723   8.673  1.00  0.00     0.135 A 
ATOM     85  C   UNL     1     -14.181  -1.640   7.285  1.00  0.00     0.135 A 
ATOM     86  F   UNL     1     -11.274  -3.027   8.977  1.00  0.00    -0.206 F 
ATOM     87  C   UNL     1     -13.557  -3.251   9.471  1.00  0.00     0.059 A 
ATOM     88  C   UNL     1     -15.208  -2.137   8.084  1.00  0.00     0.059 A 
ATOM     89  F   UNL     1     -14.514  -0.870   6.237  1.00  0.00    -0.206 F 
ATOM     90  C   UNL     1     -14.887  -2.953   9.167  1.00  0.00     0.060 A 
BRANCH  90  91
ATOM     91  S   UNL     1     -16.192  -3.624  10.222  1.00  0.00     0.124 S 
ATOM     92  O   UNL     1     -16.226  -5.019   9.797  1.00  0.00    -0.237 OA
ATOM     93  O   UNL     1     -15.667  -3.382  11.563  1.00  0.00    -0.237 OA
ATOM     94  O   UNL     1     -17.362  -2.828   9.862  1.00  0.00    -0.744 OA
ENDBRANCH  90  91
ENDBRANCH  58  83
ENDBRANCH  32  33
ENDBRANCH  24  27
ENDBRANCH  22  23
ENDBRANCH   1  22
TORSDOF 16
