REMARK SMILES CC[C@H](C)N1C(=O)c2ccccc2[C@@H](C(=O)NCCCNC(=O)c2ccc(-c3c4nc(c(-c5c(F)cc(S(=O)(=O)[O-])cc5F)c5ccc([nH]5)c(-c5c(F)cc(S(=O)(=O)[O-])cc5F)c5nc(c(-c6c(F)cc(S(=O)(=O)[O-])cc6F)c6ccc3[nH]6)C=C5)C=C4)cc2)C12CCCCC2
REMARK SMILES IDX 19 1 18 2 17 3 15 4 16 5 14 7 5 8 6 9 90 10 7 11 8 12 91 13
REMARK SMILES IDX 95 14 9 15 13 16 92 17 94 18 10 19 12 20 93 21 11 22 3 23
REMARK SMILES IDX 4 24 2 25 1 26 20 27 21 28 22 29 23 31 24 32 25 33 89 34
REMARK SMILES IDX 26 35 88 36 27 37 28 38 29 39 82 40 30 41 87 42 81 43 83 44
REMARK SMILES IDX 31 45 86 46 80 47 79 48 32 50 66 51 45 52 65 53 46 54 49 55
REMARK SMILES IDX 64 56 84 57 47 58 48 59 63 61 85 62 50 63 33 64 34 65 43 66
REMARK SMILES IDX 35 67 36 68 42 69 44 70 37 71 38 72 39 73 40 74 41 75 67 76
REMARK SMILES IDX 68 77 77 78 69 79 70 80 76 81 78 82 71 83 72 84 73 85 74 86
REMARK SMILES IDX 75 87 51 88 52 89 61 90 53 91 54 92 60 93 62 94 55 95 56 96
REMARK SMILES IDX 57 97 58 98 59 99
REMARK H PARENT 17 6 21 30 83 49 49 60
REMARK Flexibility Score: inf
ROOT
ATOM      1  C   UNL     1      -2.610   1.826   7.087  1.00  0.00     0.042 C 
ENDROOT
BRANCH   1   2
ATOM      2  C   UNL     1      -1.388   2.744   7.202  1.00  0.00     0.117 C 
BRANCH   2   3
ATOM      3  N   UNL     1      -0.131   2.075   7.542  1.00  0.00    -0.355 N 
ATOM      4  C   UNL     1       1.065   1.898   6.907  1.00  0.00     0.229 C 
ATOM      5  O   UNL     1       1.954   1.361   7.582  1.00  0.00    -0.274 OA
ATOM      6  H   UNL     1      -0.153   1.657   8.433  1.00  0.00     0.163 HD
BRANCH   4   7
ATOM      7  C   UNL     1       1.372   2.363   5.462  1.00  0.00     0.135 C 
ATOM      8  N   UNL     1       0.545   2.252   3.032  1.00  0.00    -0.329 N 
ATOM      9  C   UNL     1      -0.217   3.414   3.212  1.00  0.00     0.254 C 
ATOM     10  C   UNL     1       0.887   1.411   4.276  1.00  0.00     0.059 C 
ATOM     11  O   UNL     1      -1.077   3.820   2.435  1.00  0.00    -0.269 OA
ATOM     12  C   UNL     1       0.151   4.282   4.359  1.00  0.00     0.044 A 
ATOM     13  C   UNL     1      -0.393   0.615   4.640  1.00  0.00     0.030 C 
ATOM     14  C   UNL     1       2.010   0.369   3.964  1.00  0.00     0.030 C 
ATOM     15  C   UNL     1      -0.346   5.594   4.426  1.00  0.00     0.014 A 
ATOM     16  C   UNL     1       1.015   3.830   5.350  1.00  0.00    -0.020 A 
ATOM     17  C   UNL     1      -0.257  -0.557   5.615  1.00  0.00     0.002 C 
ATOM     18  C   UNL     1       2.201  -0.713   5.026  1.00  0.00     0.002 C 
ATOM     19  C   UNL     1       0.041   6.455   5.458  1.00  0.00     0.001 A 
ATOM     20  C   UNL     1       1.463   4.732   6.342  1.00  0.00     0.005 A 
ATOM     21  C   UNL     1       0.909  -1.476   5.288  1.00  0.00     0.000 C 
ATOM     22  C   UNL     1       0.965   6.030   6.405  1.00  0.00     0.000 A 
BRANCH   8  23
ATOM     23  C   UNL     1       0.807   1.757   1.630  1.00  0.00     0.082 C 
ATOM     24  C   UNL     1       0.018   0.513   1.192  1.00  0.00     0.031 C 
BRANCH  23  25
ATOM     25  C   UNL     1       0.680   2.842   0.521  1.00  0.00     0.021 C 
ATOM     26  C   UNL     1       1.213   2.404  -0.839  1.00  0.00     0.006 C 
ENDBRANCH  23  25
ENDBRANCH   8  23
ENDBRANCH   4   7
ENDBRANCH   2   3
ENDBRANCH   1   2
BRANCH   1  27
ATOM     27  C   UNL     1      -2.727   0.757   8.159  1.00  0.00     0.118 C 
BRANCH  27  28
ATOM     28  N   UNL     1      -3.531   1.214   9.274  1.00  0.00    -0.352 N 
ATOM     29  C   UNL     1      -4.811   0.837   9.609  1.00  0.00     0.251 C 
ATOM     30  H   UNL     1      -3.109   1.877   9.867  1.00  0.00     0.163 HD
ATOM     31  O   UNL     1      -5.459   1.518  10.398  1.00  0.00    -0.269 OA
BRANCH  29  32
ATOM     32  C   UNL     1      -5.409  -0.373   8.996  1.00  0.00     0.039 A 
ATOM     33  C   UNL     1      -4.677  -1.559   8.882  1.00  0.00     0.014 A 
ATOM     34  C   UNL     1      -6.724  -0.319   8.528  1.00  0.00     0.014 A 
ATOM     35  C   UNL     1      -5.204  -2.639   8.175  1.00  0.00     0.010 A 
ATOM     36  C   UNL     1      -7.281  -1.433   7.894  1.00  0.00     0.010 A 
ATOM     37  C   UNL     1      -6.514  -2.590   7.676  1.00  0.00    -0.014 A 
BRANCH  37  38
ATOM     38  C   UNL     1      -7.079  -3.742   6.921  1.00  0.00     0.031 A 
ATOM     39  C   UNL     1      -7.489  -3.581   5.481  1.00  0.00     0.074 A 
ATOM     40  C   UNL     1      -7.224  -4.936   7.528  1.00  0.00     0.049 A 
ATOM     41  N   UNL     1      -8.095  -4.432   4.692  1.00  0.00    -0.248 NA
ATOM     42  C   UNL     1      -7.183  -2.289   4.846  1.00  0.00     0.031 C 
ATOM     43  C   UNL     1      -6.837  -5.236   8.908  1.00  0.00     0.029 A 
ATOM     44  N   UNL     1      -7.734  -6.122   7.062  1.00  0.00    -0.354 N 
ATOM     45  C   UNL     1      -8.264  -3.774   3.478  1.00  0.00     0.074 A 
ATOM     46  C   UNL     1      -7.725  -2.441   3.646  1.00  0.00     0.031 C 
ATOM     47  C   UNL     1      -7.098  -6.525   9.167  1.00  0.00     0.029 A 
ATOM     48  C   UNL     1      -7.735  -7.126   8.000  1.00  0.00     0.049 A 
ATOM     49  H   UNL     1      -8.068  -6.242   6.143  1.00  0.00     0.167 HD
ATOM     50  C   UNL     1      -8.809  -4.241   2.328  1.00  0.00     0.037 A 
ATOM     51  C   UNL     1      -8.222  -8.381   7.943  1.00  0.00     0.037 A 
ATOM     52  C   UNL     1      -9.334  -5.574   2.164  1.00  0.00     0.049 A 
ATOM     53  C   UNL     1      -8.886  -8.854   6.681  1.00  0.00     0.074 A 
ATOM     54  C   UNL     1      -9.893  -6.147   1.034  1.00  0.00     0.029 A 
ATOM     55  N   UNL     1      -9.367  -6.543   3.157  1.00  0.00    -0.354 N 
ATOM     56  N   UNL     1      -9.053  -8.216   5.548  1.00  0.00    -0.248 NA
ATOM     57  C   UNL     1      -9.439 -10.215   6.696  1.00  0.00     0.031 C 
ATOM     58  C   UNL     1     -10.309  -7.443   1.359  1.00  0.00     0.029 A 
ATOM     59  C   UNL     1      -9.962  -7.699   2.675  1.00  0.00     0.049 A 
ATOM     60  H   UNL     1      -9.018  -6.427   4.071  1.00  0.00     0.167 HD
ATOM     61  C   UNL     1      -9.726  -9.099   4.710  1.00  0.00     0.074 A 
ATOM     62  C   UNL     1      -9.907 -10.326   5.460  1.00  0.00     0.031 C 
ATOM     63  C   UNL     1     -10.160  -8.908   3.439  1.00  0.00     0.037 A 
BRANCH  50  64
ATOM     64  C   UNL     1      -8.888  -3.293   1.160  1.00  0.00     0.058 A 
ATOM     65  C   UNL     1      -7.741  -2.875   0.465  1.00  0.00     0.135 A 
ATOM     66  C   UNL     1     -10.131  -2.813   0.713  1.00  0.00     0.135 A 
ATOM     67  F   UNL     1      -6.525  -3.289   0.856  1.00  0.00    -0.206 F 
ATOM     68  C   UNL     1      -7.820  -1.991  -0.607  1.00  0.00     0.059 A 
ATOM     69  C   UNL     1     -10.236  -1.952  -0.376  1.00  0.00     0.059 A 
ATOM     70  F   UNL     1     -11.261  -3.179   1.338  1.00  0.00    -0.206 F 
ATOM     71  C   UNL     1      -9.072  -1.534  -1.020  1.00  0.00     0.060 A 
BRANCH  71  72
ATOM     72  S   UNL     1      -9.154  -0.381  -2.406  1.00  0.00     0.124 S 
ATOM     73  O   UNL     1      -8.574   0.823  -1.818  1.00  0.00    -0.237 OA
ATOM     74  O   UNL     1      -8.337  -1.050  -3.414  1.00  0.00    -0.237 OA
ATOM     75  O   UNL     1     -10.580  -0.306  -2.706  1.00  0.00    -0.744 OA
ENDBRANCH  71  72
ENDBRANCH  50  64
BRANCH  51  76
ATOM     76  C   UNL     1      -8.097  -9.269   9.129  1.00  0.00     0.058 A 
ATOM     77  C   UNL     1      -7.217 -10.361   9.118  1.00  0.00     0.135 A 
ATOM     78  C   UNL     1      -8.808  -9.014  10.312  1.00  0.00     0.135 A 
ATOM     79  F   UNL     1      -6.526 -10.654   8.006  1.00  0.00    -0.206 F 
ATOM     80  C   UNL     1      -7.038 -11.162  10.240  1.00  0.00     0.059 A 
ATOM     81  C   UNL     1      -8.626  -9.784  11.456  1.00  0.00     0.059 A 
ATOM     82  F   UNL     1      -9.657  -7.976  10.377  1.00  0.00    -0.206 F 
ATOM     83  C   UNL     1      -7.736 -10.856  11.410  1.00  0.00     0.060 A 
BRANCH  83  84
ATOM     84  S   UNL     1      -7.419 -11.847  12.886  1.00  0.00     0.124 S 
ATOM     85  O   UNL     1      -8.001 -13.131  12.511  1.00  0.00    -0.237 OA
ATOM     86  O   UNL     1      -5.962 -11.806  12.969  1.00  0.00    -0.237 OA
ATOM     87  O   UNL     1      -8.121 -11.119  13.938  1.00  0.00    -0.744 OA
ENDBRANCH  83  84
ENDBRANCH  51  76
BRANCH  63  88
ATOM     88  C   UNL     1     -10.880 -10.055   2.780  1.00  0.00     0.058 A 
ATOM     89  C   UNL     1     -12.169 -10.441   3.185  1.00  0.00     0.135 A 
ATOM     90  C   UNL     1     -10.288 -10.763   1.722  1.00  0.00     0.135 A 
ATOM     91  F   UNL     1     -12.779  -9.802   4.195  1.00  0.00    -0.206 F 
ATOM     92  C   UNL     1     -12.828 -11.511   2.590  1.00  0.00     0.059 A 
ATOM     93  C   UNL     1     -10.943 -11.817   1.090  1.00  0.00     0.059 A 
ATOM     94  F   UNL     1      -9.063 -10.429   1.285  1.00  0.00    -0.206 F 
ATOM     95  C   UNL     1     -12.206 -12.195   1.544  1.00  0.00     0.060 A 
BRANCH  95  96
ATOM     96  S   UNL     1     -13.074 -13.583   0.783  1.00  0.00     0.124 S 
ATOM     97  O   UNL     1     -13.006 -14.587   1.840  1.00  0.00    -0.237 OA
ATOM     98  O   UNL     1     -14.396 -13.020   0.528  1.00  0.00    -0.237 OA
ATOM     99  O   UNL     1     -12.280 -13.871  -0.407  1.00  0.00    -0.744 OA
ENDBRANCH  95  96
ENDBRANCH  63  88
ENDBRANCH  37  38
ENDBRANCH  29  32
ENDBRANCH  27  28
ENDBRANCH   1  27
TORSDOF 15
