REMARK SMILES Cc1ccc(S(=O)(=O)n2cc(C(=O)C(=O)NCC(=O)N[C@H](Cc3c[nH]c4ccccc34)C(=O)NCCCNC(=O)c3ccc(-c4c5nc(c(-c6c(F)cc(S(=O)(=O)[O-])cc6F)c6ccc([nH]6)c(-c6c(F)cc(S(=O)(=O)[O-])cc6F)c6nc(c(-c7c(F)cc(S(=O)(=O)[O-])cc7F)c7ccc4[nH]7)C=C6)C=C5)cc3)c3ccccc32)cc1
REMARK SMILES IDX 32 1 33 2 34 3 21 5 20 6 18 7 19 8 17 10 16 11 14 12 15 13
REMARK SMILES IDX 12 15 13 16 11 17 9 18 10 19 112 20 107 21 111 22 108 23
REMARK SMILES IDX 110 24 109 25 6 26 7 27 8 28 5 29 1 30 2 31 3 32 114 33 4 34
REMARK SMILES IDX 113 35 22 36 23 37 24 38 31 39 25 40 26 41 30 42 27 44 29 45
REMARK SMILES IDX 28 46 35 47 36 48 37 49 38 50 39 51 40 53 41 54 42 55 106 56
REMARK SMILES IDX 43 57 105 58 44 59 45 60 46 61 99 62 47 63 104 64 98 65
REMARK SMILES IDX 100 66 48 67 103 68 97 69 96 70 49 72 83 73 62 74 82 75
REMARK SMILES IDX 63 76 66 77 81 78 101 79 64 80 65 81 80 83 102 84 67 85
REMARK SMILES IDX 50 86 51 87 60 88 52 89 53 90 59 91 61 92 54 93 55 94 56 95
REMARK SMILES IDX 57 96 58 97 84 98 85 99 94 100 86 101 87 102 93 103 95 104
REMARK SMILES IDX 88 105 89 106 90 107 91 108 92 109 68 110 69 111 78 112
REMARK SMILES IDX 70 113 71 114 77 115 79 116 72 117 73 118 74 119 75 120
REMARK SMILES IDX 76 121
REMARK H PARENT 34 4 20 9 16 14 25 43 38 52 100 71 66 82
REMARK Flexibility Score: inf
ROOT
ATOM      1  C   UNL     1      -9.312   0.448   3.842  1.00  0.00     0.242 C 
ATOM      2  O   UNL     1      -8.842  -0.655   3.532  1.00  0.00    -0.273 OA
ATOM      3  N   UNL     1      -9.366   0.721   5.172  1.00  0.00    -0.354 N 
ATOM      4  H   UNL     1      -9.006  -0.008   5.727  1.00  0.00     0.163 HD
ENDROOT
BRANCH   1   5
ATOM      5  C   UNL     1      -9.855   1.360   2.729  1.00  0.00     0.175 C 
BRANCH   5   6
ATOM      6  N   UNL     1      -9.402   2.730   2.987  1.00  0.00    -0.342 N 
ATOM      7  C   UNL     1      -8.139   3.239   2.865  1.00  0.00     0.240 C 
ATOM      8  O   UNL     1      -7.970   4.409   3.224  1.00  0.00    -0.273 OA
ATOM      9  H   UNL     1     -10.094   3.363   3.287  1.00  0.00     0.164 HD
BRANCH   7  10
ATOM     10  C   UNL     1      -7.018   2.476   2.116  1.00  0.00     0.216 C 
BRANCH  10  11
ATOM     11  N   UNL     1      -6.776   1.070   2.441  1.00  0.00    -0.340 N 
ATOM     12  C   UNL     1      -6.471   0.013   1.593  1.00  0.00     0.292 C 
ATOM     13  O   UNL     1      -6.170  -1.097   2.014  1.00  0.00    -0.265 OA
ATOM     14  H   UNL     1      -6.839   0.841   3.397  1.00  0.00     0.164 HD
BRANCH  12  15
ATOM     15  C   UNL     1      -6.450   0.248   0.086  1.00  0.00     0.252 C 
ATOM     16  O   UNL     1      -5.684   1.133  -0.302  1.00  0.00    -0.283 OA
BRANCH  15  17
ATOM     17  C   UNL     1      -7.399  -0.407  -0.833  1.00  0.00     0.054 A 
ATOM     18  N   UNL     1      -8.770  -1.809  -1.982  1.00  0.00    -0.240 N 
ATOM     19  C   UNL     1      -7.814  -1.742  -0.961  1.00  0.00     0.117 A 
ATOM     20  C   UNL     1      -9.111  -0.478  -2.305  1.00  0.00     0.065 A 
ATOM     21  C   UNL     1      -8.023   0.292  -1.909  1.00  0.00     0.012 A 
ATOM     22  C   UNL     1     -10.086   0.030  -3.187  1.00  0.00     0.028 A 
ATOM     23  C   UNL     1      -7.791   1.521  -2.561  1.00  0.00     0.011 A 
ATOM     24  C   UNL     1      -9.779   1.194  -3.892  1.00  0.00     0.002 A 
ATOM     25  C   UNL     1      -8.625   1.911  -3.612  1.00  0.00     0.001 A 
BRANCH  18  26
ATOM     26  S   UNL     1      -8.672  -2.770  -3.449  1.00  0.00     0.268 S 
ATOM     27  O   UNL     1      -7.499  -2.223  -4.114  1.00  0.00    -0.201 OA
ATOM     28  O   UNL     1     -10.003  -2.573  -4.015  1.00  0.00    -0.201 OA
BRANCH  26  29
ATOM     29  C   UNL     1      -8.518  -4.508  -3.642  1.00  0.00     0.088 A 
ATOM     30  C   UNL     1      -8.763  -8.575  -5.101  1.00  0.00     0.044 C 
ATOM     31  C   UNL     1      -8.612  -7.178  -4.568  1.00  0.00    -0.051 A 
ATOM     32  C   UNL     1      -8.756  -6.139  -5.474  1.00  0.00     0.005 A 
ATOM     33  C   UNL     1      -8.395  -6.869  -3.205  1.00  0.00     0.005 A 
ATOM     34  C   UNL     1      -8.693  -4.838  -5.014  1.00  0.00     0.022 A 
ATOM     35  C   UNL     1      -8.351  -5.529  -2.726  1.00  0.00     0.022 A 
ENDBRANCH  26  29
ENDBRANCH  18  26
ENDBRANCH  15  17
ENDBRANCH  12  15
ENDBRANCH  10  11
ENDBRANCH   7  10
ENDBRANCH   5   6
BRANCH   5  36
ATOM     36  C   UNL     1     -11.367   1.271   2.380  1.00  0.00     0.072 C 
BRANCH  36  37
ATOM     37  C   UNL     1     -12.245   0.169   2.932  1.00  0.00    -0.020 A 
ATOM     38  C   UNL     1     -11.927  -0.843   3.815  1.00  0.00     0.087 A 
ATOM     39  C   UNL     1     -13.652  -0.029   2.635  1.00  0.00     0.003 A 
ATOM     40  N   UNL     1     -13.064  -1.488   4.196  1.00  0.00    -0.361 N 
ATOM     41  C   UNL     1     -14.138  -0.994   3.519  1.00  0.00     0.046 A 
ATOM     42  C   UNL     1     -14.572   0.528   1.721  1.00  0.00     0.010 A 
ATOM     43  H   UNL     1     -13.104  -2.209   4.865  1.00  0.00     0.166 HD
ATOM     44  C   UNL     1     -15.482  -1.359   3.620  1.00  0.00     0.026 A 
ATOM     45  C   UNL     1     -15.915   0.114   1.751  1.00  0.00     0.001 A 
ATOM     46  C   UNL     1     -16.367  -0.793   2.708  1.00  0.00     0.002 A 
ENDBRANCH  36  37
ENDBRANCH   5  36
ENDBRANCH   1   5
BRANCH   3  47
ATOM     47  C   UNL     1      -9.837   1.852   5.961  1.00  0.00     0.117 C 
BRANCH  47  48
ATOM     48  C   UNL     1     -11.335   1.850   6.244  1.00  0.00     0.042 C 
BRANCH  48  49
ATOM     49  C   UNL     1     -11.805   0.670   7.097  1.00  0.00     0.118 C 
BRANCH  49  50
ATOM     50  N   UNL     1     -12.514   1.118   8.291  1.00  0.00    -0.352 N 
ATOM     51  C   UNL     1     -13.491   0.459   9.016  1.00  0.00     0.251 C 
ATOM     52  H   UNL     1     -12.262   2.009   8.627  1.00  0.00     0.163 HD
ATOM     53  O   UNL     1     -14.278   1.015   9.755  1.00  0.00    -0.269 OA
BRANCH  51  54
ATOM     54  C   UNL     1     -13.437  -1.012   8.965  1.00  0.00     0.039 A 
ATOM     55  C   UNL     1     -12.836  -1.661  10.051  1.00  0.00     0.014 A 
ATOM     56  C   UNL     1     -13.693  -1.668   7.767  1.00  0.00     0.014 A 
ATOM     57  C   UNL     1     -12.302  -2.929   9.870  1.00  0.00     0.010 A 
ATOM     58  C   UNL     1     -13.105  -2.898   7.570  1.00  0.00     0.010 A 
ATOM     59  C   UNL     1     -12.359  -3.489   8.598  1.00  0.00    -0.014 A 
BRANCH  59  60
ATOM     60  C   UNL     1     -11.621  -4.680   8.216  1.00  0.00     0.031 A 
ATOM     61  C   UNL     1     -12.328  -5.972   8.180  1.00  0.00     0.074 A 
ATOM     62  C   UNL     1     -10.342  -4.550   7.803  1.00  0.00     0.049 A 
ATOM     63  N   UNL     1     -11.749  -7.117   8.259  1.00  0.00    -0.248 NA
ATOM     64  C   UNL     1     -13.781  -6.066   8.084  1.00  0.00     0.031 C 
ATOM     65  C   UNL     1      -9.514  -5.548   7.134  1.00  0.00     0.029 A 
ATOM     66  N   UNL     1      -9.458  -3.502   8.096  1.00  0.00    -0.354 N 
ATOM     67  C   UNL     1     -12.687  -8.082   7.965  1.00  0.00     0.074 A 
ATOM     68  C   UNL     1     -13.949  -7.382   7.923  1.00  0.00     0.031 C 
ATOM     69  C   UNL     1      -8.222  -5.222   7.308  1.00  0.00     0.029 A 
ATOM     70  C   UNL     1      -8.183  -4.090   8.220  1.00  0.00     0.049 A 
ATOM     71  H   UNL     1      -9.682  -2.549   8.195  1.00  0.00     0.167 HD
ATOM     72  C   UNL     1     -12.263  -9.339   7.652  1.00  0.00     0.037 A 
ATOM     73  C   UNL     1      -7.532  -4.090   9.420  1.00  0.00     0.037 A 
ATOM     74  C   UNL     1     -10.811  -9.431   7.785  1.00  0.00     0.049 A 
ATOM     75  C   UNL     1      -7.292  -5.480   9.965  1.00  0.00     0.074 A 
ATOM     76  C   UNL     1      -9.787  -9.275   6.864  1.00  0.00     0.029 A 
ATOM     77  N   UNL     1     -10.229  -9.332   9.044  1.00  0.00    -0.354 N 
ATOM     78  N   UNL     1      -7.996  -6.530   9.635  1.00  0.00    -0.248 NA
ATOM     79  C   UNL     1      -6.215  -5.801  10.894  1.00  0.00     0.031 C 
ATOM     80  C   UNL     1      -8.593  -9.008   7.578  1.00  0.00     0.029 A 
ATOM     81  C   UNL     1      -8.884  -9.030   8.931  1.00  0.00     0.049 A 
ATOM     82  H   UNL     1     -10.706  -9.459   9.895  1.00  0.00     0.167 HD
ATOM     83  C   UNL     1      -7.497  -7.639  10.274  1.00  0.00     0.074 A 
ATOM     84  C   UNL     1      -6.372  -7.128  11.037  1.00  0.00     0.031 C 
ATOM     85  C   UNL     1      -8.041  -8.885  10.111  1.00  0.00     0.037 A 
BRANCH  72  86
ATOM     86  C   UNL     1     -13.120 -10.356   6.930  1.00  0.00     0.058 A 
ATOM     87  C   UNL     1     -12.546 -11.238   5.988  1.00  0.00     0.135 A 
ATOM     88  C   UNL     1     -14.517 -10.478   7.076  1.00  0.00     0.135 A 
ATOM     89  F   UNL     1     -11.222 -11.292   5.792  1.00  0.00    -0.206 F 
ATOM     90  C   UNL     1     -13.302 -12.095   5.187  1.00  0.00     0.059 A 
ATOM     91  C   UNL     1     -15.302 -11.292   6.250  1.00  0.00     0.059 A 
ATOM     92  F   UNL     1     -15.170  -9.838   8.056  1.00  0.00    -0.206 F 
ATOM     93  C   UNL     1     -14.684 -12.095   5.301  1.00  0.00     0.060 A 
BRANCH  93  94
ATOM     94  S   UNL     1     -15.640 -13.161   4.205  1.00  0.00     0.124 S 
ATOM     95  O   UNL     1     -15.161 -12.756   2.886  1.00  0.00    -0.237 OA
ATOM     96  O   UNL     1     -15.234 -14.490   4.647  1.00  0.00    -0.237 OA
ATOM     97  O   UNL     1     -17.023 -12.797   4.498  1.00  0.00    -0.744 OA
ENDBRANCH  93  94
ENDBRANCH  72  86
BRANCH  73  98
ATOM     98  C   UNL     1      -7.776  -2.859  10.225  1.00  0.00     0.058 A 
ATOM     99  C   UNL     1      -7.248  -1.642   9.747  1.00  0.00     0.135 A 
ATOM    100  C   UNL     1      -8.812  -2.781  11.166  1.00  0.00     0.135 A 
ATOM    101  F   UNL     1      -6.249  -1.653   8.848  1.00  0.00    -0.206 F 
ATOM    102  C   UNL     1      -7.808  -0.411  10.078  1.00  0.00     0.059 A 
ATOM    103  C   UNL     1      -9.388  -1.554  11.515  1.00  0.00     0.059 A 
ATOM    104  F   UNL     1      -9.363  -3.900  11.657  1.00  0.00    -0.206 F 
ATOM    105  C   UNL     1      -8.915  -0.382  10.922  1.00  0.00     0.060 A 
BRANCH 105 106
ATOM    106  S   UNL     1      -9.818   1.178  11.091  1.00  0.00     0.124 S 
ATOM    107  O   UNL     1      -8.893   1.977  11.885  1.00  0.00    -0.237 OA
ATOM    108  O   UNL     1      -9.980   1.600   9.698  1.00  0.00    -0.237 OA
ATOM    109  O   UNL     1     -11.051   0.781  11.756  1.00  0.00    -0.744 OA
ENDBRANCH 105 106
ENDBRANCH  73  98
BRANCH  85 110
ATOM    110  C   UNL     1      -7.755 -10.120  10.948  1.00  0.00     0.058 A 
ATOM    111  C   UNL     1      -7.234 -10.095  12.252  1.00  0.00     0.135 A 
ATOM    112  C   UNL     1      -8.143 -11.407  10.486  1.00  0.00     0.135 A 
ATOM    113  F   UNL     1      -6.943  -8.944  12.872  1.00  0.00    -0.206 F 
ATOM    114  C   UNL     1      -7.035 -11.254  13.007  1.00  0.00     0.059 A 
ATOM    115  C   UNL     1      -8.020 -12.566  11.248  1.00  0.00     0.059 A 
ATOM    116  F   UNL     1      -8.682 -11.591   9.272  1.00  0.00    -0.206 F 
ATOM    117  C   UNL     1      -7.432 -12.486  12.498  1.00  0.00     0.060 A 
BRANCH 117 118
ATOM    118  S   UNL     1      -7.232 -13.970  13.497  1.00  0.00     0.124 S 
ATOM    119  O   UNL     1      -5.851 -14.335  13.200  1.00  0.00    -0.237 OA
ATOM    120  O   UNL     1      -7.479 -13.480  14.850  1.00  0.00    -0.237 OA
ATOM    121  O   UNL     1      -8.252 -14.871  12.970  1.00  0.00    -0.744 OA
ENDBRANCH 117 118
ENDBRANCH  85 110
ENDBRANCH  59  60
ENDBRANCH  51  54
ENDBRANCH  49  50
ENDBRANCH  48  49
ENDBRANCH  47  48
ENDBRANCH   3  47
TORSDOF 22
