REMARK SMILES Cn1c(=O)c2c(nc(Nc3cccc(Cl)c3Cl)n2CC(=O)NCCCNC(=O)c2ccc(-c3c4nc(c(-c5c(F)cc(S(=O)(=O)[O-])cc5F)c5ccc([nH]5)c(-c5c(F)cc(S(=O)(=O)[O-])cc5F)c5nc(c(-c6c(F)cc(S(=O)(=O)[O-])cc6F)c6ccc3[nH]6)C=C5)C=C4)cc2)n(C)c1=O
REMARK SMILES IDX 24 1 23 2 22 3 20 4 21 5 19 7 18 8 1 9 2 10 3 11 97 12 4 13
REMARK SMILES IDX 5 14 95 15 98 16 6 17 96 18 7 19 8 20 9 21 10 23 11 24 16 25
REMARK SMILES IDX 12 26 14 27 17 28 13 29 15 30 25 31 26 32 27 33 28 35 29 36
REMARK SMILES IDX 30 37 94 38 31 39 93 40 32 41 33 42 34 43 87 44 35 45 92 46
REMARK SMILES IDX 86 47 88 48 36 49 91 50 85 51 84 52 37 54 71 55 50 56 70 57
REMARK SMILES IDX 51 58 54 59 69 60 89 61 52 62 53 63 68 65 90 66 55 67 38 68
REMARK SMILES IDX 39 69 48 70 40 71 41 72 47 73 49 74 42 75 43 76 44 77 45 78
REMARK SMILES IDX 46 79 72 80 73 81 82 82 74 83 75 84 81 85 83 86 76 87 77 88
REMARK SMILES IDX 78 89 79 90 80 91 56 92 57 93 66 94 58 95 59 96 65 97 67 98
REMARK SMILES IDX 60 99 61 100 62 101 63 102 64 103
REMARK H PARENT 22 6 9 22 26 34 88 53 54 64
REMARK Flexibility Score: inf
ROOT
ATOM      1  C   UNL     1       1.971   1.711   6.680  1.00  0.00     0.042 C 
ENDROOT
BRANCH   1   2
ATOM      2  C   UNL     1       1.383   3.116   6.590  1.00  0.00     0.117 C 
BRANCH   2   3
ATOM      3  N   UNL     1       1.469   3.709   5.275  1.00  0.00    -0.354 N 
ATOM      4  C   UNL     1       0.484   3.837   4.336  1.00  0.00     0.240 C 
ATOM      5  O   UNL     1       0.684   4.639   3.423  1.00  0.00    -0.273 OA
ATOM      6  H   UNL     1       2.351   4.067   5.022  1.00  0.00     0.163 HD
BRANCH   4   7
ATOM      7  C   UNL     1      -0.856   3.141   4.501  1.00  0.00     0.226 C 
BRANCH   7   8
ATOM      8  N   UNL     1      -0.819   1.689   4.585  1.00  0.00    -0.295 N 
ATOM      9  C   UNL     1       0.940   0.229   0.158  1.00  0.00     0.159 C 
ATOM     10  N   UNL     1       0.432   0.033   1.505  1.00  0.00    -0.261 N 
ATOM     11  C   UNL     1       0.007   1.168   2.208  1.00  0.00     0.282 A 
ATOM     12  C   UNL     1       0.408  -1.287   1.988  1.00  0.00     0.332 A 
ATOM     13  O   UNL     1      -0.034   2.289   1.738  1.00  0.00    -0.267 OA
ATOM     14  C   UNL     1      -0.409   0.875   3.544  1.00  0.00     0.154 A 
ATOM     15  N   UNL     1      -0.061  -1.478   3.289  1.00  0.00    -0.279 N 
ATOM     16  O   UNL     1       0.779  -2.236   1.291  1.00  0.00    -0.247 OA
ATOM     17  C   UNL     1      -0.451  -0.389   4.032  1.00  0.00     0.170 A 
ATOM     18  C   UNL     1      -0.124  -2.812   3.855  1.00  0.00     0.157 C 
ATOM     19  N   UNL     1      -0.912  -0.419   5.305  1.00  0.00    -0.194 NA
ATOM     20  C   UNL     1      -1.185   0.834   5.626  1.00  0.00     0.210 A 
BRANCH  20  21
ATOM     21  N   UNL     1      -1.635   1.129   6.870  1.00  0.00    -0.324 N 
ATOM     22  H   UNL     1      -1.655   0.348   7.470  1.00  0.00     0.170 HD
BRANCH  21  23
ATOM     23  C   UNL     1      -2.082   2.311   7.489  1.00  0.00     0.061 A 
ATOM     24  C   UNL     1      -1.389   2.716   8.649  1.00  0.00     0.028 A 
ATOM     25  C   UNL     1      -3.125   3.128   7.012  1.00  0.00     0.083 A 
ATOM     26  C   UNL     1      -1.609   3.965   9.226  1.00  0.00     0.004 A 
ATOM     27  C   UNL     1      -3.348   4.385   7.599  1.00  0.00     0.061 A 
ATOM     28  Cl  UNL     1      -4.132   2.567   5.712  1.00  0.00    -0.080 Cl
ATOM     29  C   UNL     1      -2.571   4.809   8.683  1.00  0.00     0.022 A 
ATOM     30  Cl  UNL     1      -4.545   5.485   7.011  1.00  0.00    -0.083 Cl
ENDBRANCH  21  23
ENDBRANCH  20  21
ENDBRANCH   7   8
ENDBRANCH   4   7
ENDBRANCH   2   3
ENDBRANCH   1   2
BRANCH   1  31
ATOM     31  C   UNL     1       3.482   1.741   6.784  1.00  0.00     0.118 C 
BRANCH  31  32
ATOM     32  N   UNL     1       3.945   2.281   8.067  1.00  0.00    -0.352 N 
ATOM     33  C   UNL     1       5.248   2.522   8.462  1.00  0.00     0.251 C 
ATOM     34  H   UNL     1       3.245   2.498   8.724  1.00  0.00     0.163 HD
ATOM     35  O   UNL     1       5.531   2.642   9.647  1.00  0.00    -0.269 OA
BRANCH  33  36
ATOM     36  C   UNL     1       6.278   2.622   7.416  1.00  0.00     0.039 A 
ATOM     37  C   UNL     1       7.514   1.983   7.533  1.00  0.00     0.014 A 
ATOM     38  C   UNL     1       5.930   3.304   6.255  1.00  0.00     0.014 A 
ATOM     39  C   UNL     1       8.359   1.965   6.426  1.00  0.00     0.010 A 
ATOM     40  C   UNL     1       6.664   3.107   5.119  1.00  0.00     0.010 A 
ATOM     41  C   UNL     1       7.914   2.509   5.211  1.00  0.00    -0.014 A 
BRANCH  41  42
ATOM     42  C   UNL     1       8.710   2.407   3.995  1.00  0.00     0.031 A 
ATOM     43  C   UNL     1       9.149   1.032   3.636  1.00  0.00     0.074 A 
ATOM     44  C   UNL     1       8.860   3.443   3.141  1.00  0.00     0.049 A 
ATOM     45  N   UNL     1      10.347   0.550   3.679  1.00  0.00    -0.248 NA
ATOM     46  C   UNL     1       8.118   0.027   3.332  1.00  0.00     0.031 C 
ATOM     47  C   UNL     1       8.241   4.776   3.184  1.00  0.00     0.029 A 
ATOM     48  N   UNL     1       9.545   3.478   1.970  1.00  0.00    -0.354 N 
ATOM     49  C   UNL     1      10.260  -0.749   3.183  1.00  0.00     0.074 A 
ATOM     50  C   UNL     1       8.857  -1.075   3.181  1.00  0.00     0.031 C 
ATOM     51  C   UNL     1       8.388   5.385   1.988  1.00  0.00     0.029 A 
ATOM     52  C   UNL     1       9.265   4.576   1.167  1.00  0.00     0.049 A 
ATOM     53  H   UNL     1      10.190   2.781   1.711  1.00  0.00     0.167 HD
ATOM     54  C   UNL     1      11.332  -1.355   2.597  1.00  0.00     0.037 A 
ATOM     55  C   UNL     1       9.719   4.794  -0.092  1.00  0.00     0.037 A 
ATOM     56  C   UNL     1      12.552  -0.642   2.901  1.00  0.00     0.049 A 
ATOM     57  C   UNL     1      10.948   3.968  -0.241  1.00  0.00     0.074 A 
ATOM     58  C   UNL     1      13.213  -0.305   4.067  1.00  0.00     0.029 A 
ATOM     59  N   UNL     1      13.072   0.184   1.931  1.00  0.00    -0.354 N 
ATOM     60  N   UNL     1      12.042   4.170   0.446  1.00  0.00    -0.248 NA
ATOM     61  C   UNL     1      10.799   2.631  -0.794  1.00  0.00     0.031 C 
ATOM     62  C   UNL     1      13.700   1.017   3.843  1.00  0.00     0.029 A 
ATOM     63  C   UNL     1      13.375   1.379   2.534  1.00  0.00     0.049 A 
ATOM     64  H   UNL     1      13.203  -0.041   0.982  1.00  0.00     0.167 HD
ATOM     65  C   UNL     1      12.505   2.900   0.766  1.00  0.00     0.074 A 
ATOM     66  C   UNL     1      11.744   1.995  -0.095  1.00  0.00     0.031 C 
ATOM     67  C   UNL     1      13.250   2.671   1.889  1.00  0.00     0.037 A 
BRANCH  54  68
ATOM     68  C   UNL     1      11.256  -2.360   1.466  1.00  0.00     0.058 A 
ATOM     69  C   UNL     1      12.447  -2.967   1.008  1.00  0.00     0.135 A 
ATOM     70  C   UNL     1      10.131  -2.539   0.630  1.00  0.00     0.135 A 
ATOM     71  F   UNL     1      13.579  -2.883   1.724  1.00  0.00    -0.206 F 
ATOM     72  C   UNL     1      12.537  -3.603  -0.231  1.00  0.00     0.059 A 
ATOM     73  C   UNL     1      10.187  -3.217  -0.584  1.00  0.00     0.059 A 
ATOM     74  F   UNL     1       8.942  -1.987   0.894  1.00  0.00    -0.206 F 
ATOM     75  C   UNL     1      11.404  -3.700  -1.030  1.00  0.00     0.060 A 
BRANCH  75  76
ATOM     76  S   UNL     1      11.548  -4.390  -2.687  1.00  0.00     0.124 S 
ATOM     77  O   UNL     1      12.366  -3.381  -3.350  1.00  0.00    -0.237 OA
ATOM     78  O   UNL     1      12.198  -5.670  -2.425  1.00  0.00    -0.237 OA
ATOM     79  O   UNL     1      10.162  -4.477  -3.136  1.00  0.00    -0.744 OA
ENDBRANCH  75  76
ENDBRANCH  54  68
BRANCH  55  80
ATOM     80  C   UNL     1       8.960   5.360  -1.241  1.00  0.00     0.058 A 
ATOM     81  C   UNL     1       9.604   5.669  -2.452  1.00  0.00     0.135 A 
ATOM     82  C   UNL     1       7.549   5.348  -1.277  1.00  0.00     0.135 A 
ATOM     83  F   UNL     1      10.944   5.692  -2.516  1.00  0.00    -0.206 F 
ATOM     84  C   UNL     1       8.897   5.891  -3.640  1.00  0.00     0.059 A 
ATOM     85  C   UNL     1       6.823   5.577  -2.446  1.00  0.00     0.059 A 
ATOM     86  F   UNL     1       6.829   5.022  -0.194  1.00  0.00    -0.206 F 
ATOM     87  C   UNL     1       7.504   5.817  -3.632  1.00  0.00     0.060 A 
BRANCH  87  88
ATOM     88  S   UNL     1       6.598   5.917  -5.194  1.00  0.00     0.124 S 
ATOM     89  O   UNL     1       6.831   7.301  -5.592  1.00  0.00    -0.237 OA
ATOM     90  O   UNL     1       7.267   4.901  -6.001  1.00  0.00    -0.237 OA
ATOM     91  O   UNL     1       5.225   5.599  -4.812  1.00  0.00    -0.744 OA
ENDBRANCH  87  88
ENDBRANCH  55  80
BRANCH  67  92
ATOM     92  C   UNL     1      13.785   3.855   2.662  1.00  0.00     0.058 A 
ATOM     93  C   UNL     1      12.979   4.784   3.345  1.00  0.00     0.135 A 
ATOM     94  C   UNL     1      15.168   3.933   2.886  1.00  0.00     0.135 A 
ATOM     95  F   UNL     1      11.644   4.725   3.269  1.00  0.00    -0.206 F 
ATOM     96  C   UNL     1      13.520   5.754   4.193  1.00  0.00     0.059 A 
ATOM     97  C   UNL     1      15.728   4.873   3.749  1.00  0.00     0.059 A 
ATOM     98  F   UNL     1      15.992   3.040   2.313  1.00  0.00    -0.206 F 
ATOM     99  C   UNL     1      14.898   5.785   4.397  1.00  0.00     0.060 A 
BRANCH  99 100
ATOM    100  S   UNL     1      15.583   6.970   5.576  1.00  0.00     0.124 S 
ATOM    101  O   UNL     1      15.365   8.242   4.896  1.00  0.00    -0.237 OA
ATOM    102  O   UNL     1      14.768   6.740   6.766  1.00  0.00    -0.237 OA
ATOM    103  O   UNL     1      16.980   6.561   5.700  1.00  0.00    -0.744 OA
ENDBRANCH  99 100
ENDBRANCH  67  92
ENDBRANCH  41  42
ENDBRANCH  33  36
ENDBRANCH  31  32
ENDBRANCH   1  31
TORSDOF 16
