REMARK SMILES C[C@@H](Oc1ccc(/C=C2\C(=O)[NH+]=C(NCCCNC(=O)c3ccc(-c4c5nc(c(-c6c(F)cc(S(=O)(=O)[O-])cc6F)c6ccc([nH]6)c(-c6c(F)cc(S(=O)(=O)[O-])cc6F)c6nc(c(-c7c(F)cc(S(=O)(=O)[O-])cc7F)c7ccc4[nH]7)C=C6)C=C5)cc3)N(c3ccc4c(c3)OCO4)C2=O)cc1)C(=O)[O-]
REMARK SMILES IDX 16 1 15 2 14 3 8 4 9 5 10 6 97 7 11 8 12 9 87 10 98 11 13 12
REMARK SMILES IDX 7 15 4 16 5 17 100 18 6 19 99 20 3 21 2 22 1 23 101 24
REMARK SMILES IDX 102 25 103 26 88 27 89 28 93 29 90 30 92 31 91 32 94 33
REMARK SMILES IDX 96 34 95 35 17 36 18 37 19 38 20 40 21 41 22 42 86 43 23 44
REMARK SMILES IDX 85 45 24 46 25 47 26 48 79 49 27 50 84 51 78 52 80 53 28 54
REMARK SMILES IDX 83 55 77 56 76 57 29 59 63 60 42 61 62 62 43 63 46 64 61 65
REMARK SMILES IDX 81 66 44 67 45 68 60 70 82 71 47 72 30 73 31 74 40 75 32 76
REMARK SMILES IDX 33 77 39 78 41 79 34 80 35 81 36 82 37 83 38 84 64 85 65 86
REMARK SMILES IDX 74 87 66 88 67 89 73 90 75 91 68 92 69 93 70 94 71 95 72 96
REMARK SMILES IDX 48 97 49 98 58 99 50 100 51 101 57 102 59 103 52 104 53 105
REMARK SMILES IDX 54 106 55 107 56 108
REMARK H PARENT 12 13 14 14 18 39 80 58 46 69
REMARK Flexibility Score: inf
ROOT
ATOM      1  C   UNL     1       7.653  -9.966   2.933  1.00  0.00     0.059 C 
ENDROOT
BRANCH   1   2
ATOM      2  C   UNL     1       7.352  -8.827   3.896  1.00  0.00     0.199 C 
BRANCH   2   3
ATOM      3  N   UNL     1       8.219  -7.692   3.641  1.00  0.00    -0.277 N 
ATOM      4  C   UNL     1       6.277  -3.059   2.005  1.00  0.00     0.031 C 
ATOM      5  C   UNL     1       6.913  -4.243   1.944  1.00  0.00     0.138 C 
ATOM      6  C   UNL     1       6.336  -5.528   1.517  1.00  0.00     0.321 C 
ATOM      7  C   UNL     1       8.325  -4.274   2.369  1.00  0.00     0.328 C 
ATOM      8  O   UNL     1       5.557  -5.614   0.582  1.00  0.00    -0.250 OA
ATOM      9  N   UNL     1       6.724  -6.594   2.277  1.00  0.00    -0.210 N 
ATOM     10  N   UNL     1       8.747  -5.524   2.810  1.00  0.00    -0.162 N 
ATOM     11  O   UNL     1       9.015  -3.254   2.357  1.00  0.00    -0.249 OA
ATOM     12  C   UNL     1       7.873  -6.606   2.876  1.00  0.00     0.366 C 
ATOM     13  H   UNL     1       6.121  -7.366   2.372  1.00  0.00     0.270 HD
ATOM     14  H   UNL     1       9.117  -7.701   4.045  1.00  0.00     0.260 HD
BRANCH   4  15
ATOM     15  C   UNL     1       4.867  -2.737   1.740  1.00  0.00    -0.024 A 
ATOM     16  C   UNL     1       2.204  -1.943   1.306  1.00  0.00     0.120 A 
ATOM     17  C   UNL     1       2.482  -3.218   1.787  1.00  0.00     0.047 A 
ATOM     18  C   UNL     1       3.244  -1.044   1.093  1.00  0.00     0.047 A 
ATOM     19  C   UNL     1       3.806  -3.607   2.018  1.00  0.00     0.012 A 
ATOM     20  C   UNL     1       4.567  -1.443   1.295  1.00  0.00     0.012 A 
BRANCH  16  21
ATOM     21  O   UNL     1       0.894  -1.571   1.205  1.00  0.00    -0.485 OA
BRANCH  21  22
ATOM     22  C   UNL     1       0.467  -1.248  -0.126  1.00  0.00     0.216 C 
ATOM     23  C   UNL     1       0.683   0.228  -0.449  1.00  0.00     0.059 C 
BRANCH  22  24
ATOM     24  C   UNL     1      -1.030  -1.518  -0.226  1.00  0.00     0.082 C 
ATOM     25  O   UNL     1      -1.614  -1.964  -1.203  1.00  0.00    -0.546 OA
ATOM     26  O   UNL     1      -1.738  -1.123   0.854  1.00  0.00    -0.546 OA
ENDBRANCH  22  24
ENDBRANCH  21  22
ENDBRANCH  16  21
ENDBRANCH   4  15
BRANCH  10  27
ATOM     27  C   UNL     1      10.064  -5.601   3.331  1.00  0.00     0.115 A 
ATOM     28  C   UNL     1      11.069  -6.284   2.613  1.00  0.00     0.048 A 
ATOM     29  C   UNL     1      10.370  -4.894   4.500  1.00  0.00     0.094 A 
ATOM     30  C   UNL     1      12.403  -6.211   3.032  1.00  0.00     0.054 A 
ATOM     31  C   UNL     1      11.690  -4.834   4.876  1.00  0.00     0.169 A 
ATOM     32  C   UNL     1      12.681  -5.458   4.154  1.00  0.00     0.166 A 
ATOM     33  O   UNL     1      12.178  -4.128   5.930  1.00  0.00    -0.453 OA
ATOM     34  O   UNL     1      13.917  -5.196   4.659  1.00  0.00    -0.454 OA
ATOM     35  C   UNL     1      13.589  -4.193   5.644  1.00  0.00     0.468 C 
ENDBRANCH  10  27
ENDBRANCH   2   3
ENDBRANCH   1   2
BRANCH   1  36
ATOM     36  C   UNL     1       9.074 -10.508   3.048  1.00  0.00     0.119 C 
BRANCH  36  37
ATOM     37  N   UNL     1       9.365 -11.077   4.359  1.00  0.00    -0.352 N 
ATOM     38  C   UNL     1       9.691 -12.364   4.715  1.00  0.00     0.251 C 
ATOM     39  H   UNL     1       9.320 -10.439   5.108  1.00  0.00     0.163 HD
ATOM     40  O   UNL     1       9.726 -12.671   5.904  1.00  0.00    -0.269 OA
BRANCH  38  41
ATOM     41  C   UNL     1       9.970 -13.378   3.677  1.00  0.00     0.039 A 
ATOM     42  C   UNL     1       9.401 -14.648   3.804  1.00  0.00     0.014 A 
ATOM     43  C   UNL     1      10.788 -13.083   2.583  1.00  0.00     0.014 A 
ATOM     44  C   UNL     1       9.577 -15.590   2.788  1.00  0.00     0.010 A 
ATOM     45  C   UNL     1      10.899 -13.995   1.537  1.00  0.00     0.010 A 
ATOM     46  C   UNL     1      10.284 -15.254   1.622  1.00  0.00    -0.014 A 
BRANCH  46  47
ATOM     47  C   UNL     1      10.355 -16.185   0.465  1.00  0.00     0.031 A 
ATOM     48  C   UNL     1      11.679 -16.724  -0.001  1.00  0.00     0.074 A 
ATOM     49  C   UNL     1       9.228 -16.481  -0.214  1.00  0.00     0.049 A 
ATOM     50  N   UNL     1      11.945 -17.471  -1.042  1.00  0.00    -0.248 NA
ATOM     51  C   UNL     1      12.862 -16.357   0.793  1.00  0.00     0.031 C 
ATOM     52  C   UNL     1       7.888 -15.988   0.115  1.00  0.00     0.029 A 
ATOM     53  N   UNL     1       9.028 -17.254  -1.331  1.00  0.00    -0.354 N 
ATOM     54  C   UNL     1      13.322 -17.656  -1.035  1.00  0.00     0.074 A 
ATOM     55  C   UNL     1      13.842 -16.902   0.086  1.00  0.00     0.031 C 
ATOM     56  C   UNL     1       7.006 -16.483  -0.767  1.00  0.00     0.029 A 
ATOM     57  C   UNL     1       7.719 -17.287  -1.754  1.00  0.00     0.049 A 
ATOM     58  H   UNL     1       9.754 -17.739  -1.786  1.00  0.00     0.167 HD
ATOM     59  C   UNL     1      14.080 -18.403  -1.874  1.00  0.00     0.037 A 
ATOM     60  C   UNL     1       7.157 -17.878  -2.826  1.00  0.00     0.037 A 
ATOM     61  C   UNL     1      13.552 -19.159  -2.981  1.00  0.00     0.049 A 
ATOM     62  C   UNL     1       8.027 -18.672  -3.765  1.00  0.00     0.074 A 
ATOM     63  C   UNL     1      14.231 -19.991  -3.854  1.00  0.00     0.029 A 
ATOM     64  N   UNL     1      12.222 -19.168  -3.376  1.00  0.00    -0.354 N 
ATOM     65  N   UNL     1       9.318 -18.895  -3.701  1.00  0.00    -0.248 NA
ATOM     66  C   UNL     1       7.365 -19.294  -4.920  1.00  0.00     0.031 C 
ATOM     67  C   UNL     1      13.324 -20.454  -4.813  1.00  0.00     0.029 A 
ATOM     68  C   UNL     1      12.067 -19.962  -4.502  1.00  0.00     0.049 A 
ATOM     69  H   UNL     1      11.495 -18.682  -2.924  1.00  0.00     0.167 HD
ATOM     70  C   UNL     1       9.618 -19.701  -4.795  1.00  0.00     0.074 A 
ATOM     71  C   UNL     1       8.371 -19.941  -5.490  1.00  0.00     0.031 C 
ATOM     72  C   UNL     1      10.819 -20.195  -5.187  1.00  0.00     0.037 A 
BRANCH  59  73
ATOM     73  C   UNL     1      15.566 -18.437  -1.633  1.00  0.00     0.058 A 
ATOM     74  C   UNL     1      16.120 -19.081  -0.514  1.00  0.00     0.135 A 
ATOM     75  C   UNL     1      16.453 -17.859  -2.557  1.00  0.00     0.135 A 
ATOM     76  F   UNL     1      15.321 -19.640   0.409  1.00  0.00    -0.206 F 
ATOM     77  C   UNL     1      17.494 -19.125  -0.305  1.00  0.00     0.059 A 
ATOM     78  C   UNL     1      17.833 -17.918  -2.384  1.00  0.00     0.059 A 
ATOM     79  F   UNL     1      15.980 -17.231  -3.645  1.00  0.00    -0.206 F 
ATOM     80  C   UNL     1      18.343 -18.541  -1.247  1.00  0.00     0.060 A 
BRANCH  80  81
ATOM     81  S   UNL     1      20.124 -18.613  -0.960  1.00  0.00     0.124 S 
ATOM     82  O   UNL     1      20.276 -17.691   0.161  1.00  0.00    -0.237 OA
ATOM     83  O   UNL     1      20.332 -20.024  -0.652  1.00  0.00    -0.237 OA
ATOM     84  O   UNL     1      20.692 -18.160  -2.226  1.00  0.00    -0.744 OA
ENDBRANCH  80  81
ENDBRANCH  59  73
BRANCH  60  85
ATOM     85  C   UNL     1       5.695 -17.744  -3.070  1.00  0.00     0.058 A 
ATOM     86  C   UNL     1       4.838 -18.848  -2.949  1.00  0.00     0.135 A 
ATOM     87  C   UNL     1       5.124 -16.510  -3.421  1.00  0.00     0.135 A 
ATOM     88  F   UNL     1       5.336 -20.051  -2.625  1.00  0.00    -0.206 F 
ATOM     89  C   UNL     1       3.471 -18.739  -3.183  1.00  0.00     0.059 A 
ATOM     90  C   UNL     1       3.756 -16.369  -3.630  1.00  0.00     0.059 A 
ATOM     91  F   UNL     1       5.897 -15.419  -3.536  1.00  0.00    -0.206 F 
ATOM     92  C   UNL     1       2.938 -17.494  -3.519  1.00  0.00     0.060 A 
BRANCH  92  93
ATOM     93  S   UNL     1       1.156 -17.357  -3.774  1.00  0.00     0.124 S 
ATOM     94  O   UNL     1       0.985 -18.064  -5.038  1.00  0.00    -0.237 OA
ATOM     95  O   UNL     1       0.627 -18.027  -2.591  1.00  0.00    -0.237 OA
ATOM     96  O   UNL     1       0.933 -15.915  -3.822  1.00  0.00    -0.744 OA
ENDBRANCH  92  93
ENDBRANCH  60  85
BRANCH  72  97
ATOM     97  C   UNL     1      10.845 -21.066  -6.415  1.00  0.00     0.058 A 
ATOM     98  C   UNL     1      10.652 -20.535  -7.700  1.00  0.00     0.135 A 
ATOM     99  C   UNL     1      11.129 -22.438  -6.309  1.00  0.00     0.135 A 
ATOM    100  F   UNL     1      10.369 -19.233  -7.858  1.00  0.00    -0.206 F 
ATOM    101  C   UNL     1      10.720 -21.337  -8.835  1.00  0.00     0.059 A 
ATOM    102  C   UNL     1      11.233 -23.252  -7.433  1.00  0.00     0.059 A 
ATOM    103  F   UNL     1      11.331 -22.996  -5.105  1.00  0.00    -0.206 F 
ATOM    104  C   UNL     1      11.017 -22.694  -8.691  1.00  0.00     0.060 A 
BRANCH 104 105
ATOM    105  S   UNL     1      11.149 -23.710 -10.177  1.00  0.00     0.124 S 
ATOM    106  O   UNL     1       9.755 -23.797 -10.601  1.00  0.00    -0.237 OA
ATOM    107  O   UNL     1      12.021 -22.906 -11.028  1.00  0.00    -0.237 OA
ATOM    108  O   UNL     1      11.734 -24.955  -9.688  1.00  0.00    -0.744 OA
ENDBRANCH 104 105
ENDBRANCH  72  97
ENDBRANCH  46  47
ENDBRANCH  38  41
ENDBRANCH  36  37
ENDBRANCH   1  36
TORSDOF 17
