REMARK SMILES CC(C)Cc1ccc([C@@H]2CC[NH2+][C@H]2C(=O)NCCCNC(=O)c2ccc(-c3c4nc(c(-c5c(F)cc(S(=O)(=O)[O-])cc5F)c5ccc([nH]5)c(-c5c(F)cc(S(=O)(=O)[O-])cc5F)c5nc(c(-c6c(F)cc(S(=O)(=O)[O-])cc6F)c6ccc3[nH]6)C=C5)C=C4)cc2)cc1
REMARK SMILES IDX 18 1 17 2 16 3 14 4 15 5 13 7 9 8 10 9 11 10 12 11 8 14 5 15
REMARK SMILES IDX 6 16 90 17 7 18 89 19 4 20 2 21 1 22 3 23 19 24 20 25 21 26
REMARK SMILES IDX 22 28 23 29 24 30 88 31 25 32 87 33 26 34 27 35 28 36 81 37
REMARK SMILES IDX 29 38 86 39 80 40 82 41 30 42 85 43 79 44 78 45 31 47 65 48
REMARK SMILES IDX 44 49 64 50 45 51 48 52 63 53 83 54 46 55 47 56 62 58 84 59
REMARK SMILES IDX 49 60 32 61 33 62 42 63 34 64 35 65 41 66 43 67 36 68 37 69
REMARK SMILES IDX 38 70 39 71 40 72 66 73 67 74 76 75 68 76 69 77 75 78 77 79
REMARK SMILES IDX 70 80 71 81 72 82 73 83 74 84 50 85 51 86 60 87 52 88 53 89
REMARK SMILES IDX 59 90 61 91 54 92 55 93 56 94 57 95 58 96
REMARK H PARENT 16 6 12 12 12 13 20 27 82 46 48 57
REMARK Flexibility Score: inf
ROOT
ATOM      1  C   UNL     1      -4.806  -3.004  -7.157  1.00  0.00     0.042 C 
ENDROOT
BRANCH   1   2
ATOM      2  C   UNL     1      -3.617  -3.955  -7.156  1.00  0.00     0.118 C 
BRANCH   2   3
ATOM      3  N   UNL     1      -2.349  -3.255  -7.087  1.00  0.00    -0.351 N 
ATOM      4  C   UNL     1      -1.458  -3.065  -6.074  1.00  0.00     0.278 C 
ATOM      5  O   UNL     1      -0.475  -2.361  -6.336  1.00  0.00    -0.268 OA
ATOM      6  H   UNL     1      -2.080  -2.835  -7.936  1.00  0.00     0.163 HD
BRANCH   4   7
ATOM      7  C   UNL     1      -1.636  -3.668  -4.665  1.00  0.00     0.280 C 
ATOM      8  C   UNL     1      -2.777  -3.027  -3.863  1.00  0.00     0.093 C 
ATOM      9  C   UNL     1      -3.791  -4.153  -3.666  1.00  0.00     0.076 C 
ATOM     10  C   UNL     1      -3.013  -5.442  -3.875  1.00  0.00     0.262 C 
ATOM     11  N   UNL     1      -1.849  -5.138  -4.708  1.00  0.00    -0.335 N 
ATOM     12  H   UNL     1      -2.022  -5.436  -5.668  1.00  0.00     0.346 HD
ATOM     13  H   UNL     1      -1.024  -5.629  -4.363  1.00  0.00     0.346 HD
BRANCH   8  14
ATOM     14  C   UNL     1      -2.314  -2.464  -2.527  1.00  0.00    -0.038 A 
ATOM     15  C   UNL     1      -1.429  -1.394  -0.070  1.00  0.00    -0.048 A 
ATOM     16  C   UNL     1      -2.110  -0.590  -0.991  1.00  0.00     0.004 A 
ATOM     17  C   UNL     1      -1.222  -2.742  -0.372  1.00  0.00     0.004 A 
ATOM     18  C   UNL     1      -2.550  -1.120  -2.208  1.00  0.00     0.004 A 
ATOM     19  C   UNL     1      -1.648  -3.266  -1.589  1.00  0.00     0.004 A 
BRANCH  15  20
ATOM     20  C   UNL     1      -0.879  -0.818   1.212  1.00  0.00     0.038 C 
BRANCH  20  21
ATOM     21  C   UNL     1       0.664  -0.820   1.248  1.00  0.00    -0.013 C 
ATOM     22  C   UNL     1       1.260   0.110   0.188  1.00  0.00     0.008 C 
ATOM     23  C   UNL     1       1.158  -0.418   2.637  1.00  0.00     0.008 C 
ENDBRANCH  20  21
ENDBRANCH  15  20
ENDBRANCH   8  14
ENDBRANCH   4   7
ENDBRANCH   2   3
ENDBRANCH   1   2
BRANCH   1  24
ATOM     24  C   UNL     1      -4.991  -2.269  -8.480  1.00  0.00     0.118 C 
BRANCH  24  25
ATOM     25  N   UNL     1      -5.300  -3.183  -9.573  1.00  0.00    -0.352 N 
ATOM     26  C   UNL     1      -6.425  -3.288 -10.349  1.00  0.00     0.251 C 
ATOM     27  H   UNL     1      -4.586  -3.826  -9.789  1.00  0.00     0.163 HD
ATOM     28  O   UNL     1      -6.578  -4.288 -11.050  1.00  0.00    -0.269 OA
BRANCH  26  29
ATOM     29  C   UNL     1      -7.448  -2.222 -10.346  1.00  0.00     0.039 A 
ATOM     30  C   UNL     1      -8.799  -2.578 -10.409  1.00  0.00     0.014 A 
ATOM     31  C   UNL     1      -7.083  -0.873 -10.325  1.00  0.00     0.014 A 
ATOM     32  C   UNL     1      -9.780  -1.584 -10.393  1.00  0.00     0.010 A 
ATOM     33  C   UNL     1      -8.061   0.112 -10.229  1.00  0.00     0.010 A 
ATOM     34  C   UNL     1      -9.420  -0.232 -10.270  1.00  0.00    -0.014 A 
BRANCH  34  35
ATOM     35  C   UNL     1     -10.446   0.838 -10.188  1.00  0.00     0.031 A 
ATOM     36  C   UNL     1     -10.521   1.895 -11.259  1.00  0.00     0.074 A 
ATOM     37  C   UNL     1     -11.258   0.899  -9.114  1.00  0.00     0.049 A 
ATOM     38  N   UNL     1     -11.279   2.958 -11.315  1.00  0.00    -0.248 NA
ATOM     39  C   UNL     1      -9.603   1.754 -12.402  1.00  0.00     0.031 C 
ATOM     40  C   UNL     1     -11.242  -0.037  -7.986  1.00  0.00     0.029 A 
ATOM     41  N   UNL     1     -12.243   1.795  -8.783  1.00  0.00    -0.354 N 
ATOM     42  C   UNL     1     -10.916   3.623 -12.482  1.00  0.00     0.074 A 
ATOM     43  C   UNL     1      -9.841   2.866 -13.083  1.00  0.00     0.031 C 
ATOM     44  C   UNL     1     -12.180   0.328  -7.096  1.00  0.00     0.029 A 
ATOM     45  C   UNL     1     -12.837   1.541  -7.569  1.00  0.00     0.049 A 
ATOM     46  H   UNL     1     -12.500   2.550  -9.361  1.00  0.00     0.167 HD
ATOM     47  C   UNL     1     -11.447   4.749 -13.012  1.00  0.00     0.037 A 
ATOM     48  C   UNL     1     -13.794   2.219  -6.904  1.00  0.00     0.037 A 
ATOM     49  C   UNL     1     -12.549   5.471 -12.430  1.00  0.00     0.049 A 
ATOM     50  C   UNL     1     -14.381   3.456  -7.529  1.00  0.00     0.074 A 
ATOM     51  C   UNL     1     -13.209   6.580 -12.931  1.00  0.00     0.029 A 
ATOM     52  N   UNL     1     -13.153   5.157 -11.223  1.00  0.00    -0.354 N 
ATOM     53  N   UNL     1     -14.074   4.027  -8.670  1.00  0.00    -0.248 NA
ATOM     54  C   UNL     1     -15.448   4.137  -6.784  1.00  0.00     0.031 C 
ATOM     55  C   UNL     1     -14.186   6.961 -12.007  1.00  0.00     0.029 A 
ATOM     56  C   UNL     1     -14.167   6.061 -10.953  1.00  0.00     0.049 A 
ATOM     57  H   UNL     1     -12.900   4.403 -10.643  1.00  0.00     0.167 HD
ATOM     58  C   UNL     1     -14.931   5.115  -8.792  1.00  0.00     0.074 A 
ATOM     59  C   UNL     1     -15.777   5.115  -7.616  1.00  0.00     0.031 C 
ATOM     60  C   UNL     1     -15.012   6.033  -9.786  1.00  0.00     0.037 A 
BRANCH  47  61
ATOM     61  C   UNL     1     -10.863   5.273 -14.295  1.00  0.00     0.058 A 
ATOM     62  C   UNL     1     -11.078   4.624 -15.521  1.00  0.00     0.135 A 
ATOM     63  C   UNL     1     -10.147   6.481 -14.310  1.00  0.00     0.135 A 
ATOM     64  F   UNL     1     -11.740   3.457 -15.561  1.00  0.00    -0.206 F 
ATOM     65  C   UNL     1     -10.598   5.149 -16.715  1.00  0.00     0.059 A 
ATOM     66  C   UNL     1      -9.680   7.039 -15.497  1.00  0.00     0.059 A 
ATOM     67  F   UNL     1      -9.910   7.141 -13.165  1.00  0.00    -0.206 F 
ATOM     68  C   UNL     1      -9.905   6.361 -16.694  1.00  0.00     0.060 A 
BRANCH  68  69
ATOM     69  S   UNL     1      -9.329   7.051 -18.260  1.00  0.00     0.124 S 
ATOM     70  O   UNL     1      -8.225   6.154 -18.585  1.00  0.00    -0.237 OA
ATOM     71  O   UNL     1     -10.512   6.933 -19.106  1.00  0.00    -0.237 OA
ATOM     72  O   UNL     1      -8.946   8.416 -17.911  1.00  0.00    -0.744 OA
ENDBRANCH  68  69
ENDBRANCH  47  61
BRANCH  48  73
ATOM     73  C   UNL     1     -14.264   1.745  -5.575  1.00  0.00     0.058 A 
ATOM     74  C   UNL     1     -15.557   1.227  -5.406  1.00  0.00     0.135 A 
ATOM     75  C   UNL     1     -13.437   1.817  -4.442  1.00  0.00     0.135 A 
ATOM     76  F   UNL     1     -16.385   1.140  -6.458  1.00  0.00    -0.206 F 
ATOM     77  C   UNL     1     -16.027   0.831  -4.159  1.00  0.00     0.059 A 
ATOM     78  C   UNL     1     -13.875   1.401  -3.189  1.00  0.00     0.059 A 
ATOM     79  F   UNL     1     -12.183   2.284  -4.553  1.00  0.00    -0.206 F 
ATOM     80  C   UNL     1     -15.179   0.926  -3.054  1.00  0.00     0.060 A 
BRANCH  80  81
ATOM     81  S   UNL     1     -15.793   0.398  -1.440  1.00  0.00     0.124 S 
ATOM     82  O   UNL     1     -16.676   1.503  -1.087  1.00  0.00    -0.237 OA
ATOM     83  O   UNL     1     -16.447  -0.867  -1.758  1.00  0.00    -0.237 OA
ATOM     84  O   UNL     1     -14.575   0.282  -0.642  1.00  0.00    -0.744 OA
ENDBRANCH  80  81
ENDBRANCH  48  73
BRANCH  60  85
ATOM     85  C   UNL     1     -16.077   7.087  -9.673  1.00  0.00     0.058 A 
ATOM     86  C   UNL     1     -15.974   8.145  -8.758  1.00  0.00     0.135 A 
ATOM     87  C   UNL     1     -17.188   7.066 -10.532  1.00  0.00     0.135 A 
ATOM     88  F   UNL     1     -14.935   8.207  -7.910  1.00  0.00    -0.206 F 
ATOM     89  C   UNL     1     -16.948   9.135  -8.682  1.00  0.00     0.059 A 
ATOM     90  C   UNL     1     -18.159   8.060 -10.492  1.00  0.00     0.059 A 
ATOM     91  F   UNL     1     -17.327   6.080 -11.433  1.00  0.00    -0.206 F 
ATOM     92  C   UNL     1     -18.037   9.085  -9.555  1.00  0.00     0.060 A 
BRANCH  92  93
ATOM     93  S   UNL     1     -19.275  10.395  -9.471  1.00  0.00     0.124 S 
ATOM     94  O   UNL     1     -19.996  10.040  -8.253  1.00  0.00    -0.237 OA
ATOM     95  O   UNL     1     -18.453  11.599  -9.394  1.00  0.00    -0.237 OA
ATOM     96  O   UNL     1     -20.025  10.234 -10.714  1.00  0.00    -0.744 OA
ENDBRANCH  92  93
ENDBRANCH  60  85
ENDBRANCH  34  35
ENDBRANCH  26  29
ENDBRANCH  24  25
ENDBRANCH   1  24
TORSDOF 16
