REMARK SMILES O=C(CCc1nc(-c2ccccc2)c(-c2ccccc2)o1)NCCCNC(=O)c1ccc(-c2c3nc(c(-c4c(F)cc(S(=O)(=O)[O-])cc4F)c4ccc([nH]4)c(-c4c(F)cc(S(=O)(=O)[O-])cc4F)c4nc(c(-c5c(F)cc(S(=O)(=O)[O-])cc5F)c5ccc2[nH]5)C=C4)C=C3)cc1
REMARK SMILES IDX 24 1 23 2 22 3 1 4 2 5 3 7 4 8 5 9 6 10 21 11 7 12 14 13
REMARK SMILES IDX 8 14 9 15 13 16 10 17 12 18 11 19 15 20 16 21 20 22 17 23
REMARK SMILES IDX 19 24 18 25 25 26 26 27 27 28 28 30 29 31 30 32 94 33 31 34
REMARK SMILES IDX 93 35 32 36 33 37 34 38 87 39 35 40 92 41 86 42 88 43 36 44
REMARK SMILES IDX 91 45 85 46 84 47 37 49 71 50 50 51 70 52 51 53 54 54 69 55
REMARK SMILES IDX 89 56 52 57 53 58 68 60 90 61 55 62 38 63 39 64 48 65 40 66
REMARK SMILES IDX 41 67 47 68 49 69 42 70 43 71 44 72 45 73 46 74 72 75 73 76
REMARK SMILES IDX 82 77 74 78 75 79 81 80 83 81 76 82 77 83 78 84 79 85 80 86
REMARK SMILES IDX 56 87 57 88 66 89 58 90 59 91 65 92 67 93 60 94 61 95 62 96
REMARK SMILES IDX 63 97 64 98
REMARK H PARENT 22 6 26 29 88 48 54 59
REMARK Flexibility Score: inf
ROOT
ATOM      1  C   UNL     1       1.988  -2.702   2.091  1.00  0.00     0.042 C 
ENDROOT
BRANCH   1   2
ATOM      2  C   UNL     1       1.835  -1.192   1.946  1.00  0.00     0.117 C 
BRANCH   2   3
ATOM      3  N   UNL     1       2.599  -0.656   0.841  1.00  0.00    -0.356 N 
ATOM      4  O   UNL     1       0.953   0.711  -0.000  1.00  0.00    -0.275 OA
ATOM      5  C   UNL     1       2.105   0.286  -0.028  1.00  0.00     0.220 C 
ATOM      6  H   UNL     1       3.518  -0.982   0.704  1.00  0.00     0.163 HD
BRANCH   5   7
ATOM      7  C   UNL     1       3.115   0.798  -1.034  1.00  0.00     0.110 C 
BRANCH   7   8
ATOM      8  C   UNL     1       4.077   1.799  -0.399  1.00  0.00     0.107 C 
BRANCH   8   9
ATOM      9  C   UNL     1       5.099   1.151   0.470  1.00  0.00     0.196 A 
ATOM     10  N   UNL     1       5.348  -0.139   0.628  1.00  0.00    -0.213 NA
ATOM     11  O   UNL     1       5.870   1.986   1.240  1.00  0.00    -0.440 OA
ATOM     12  C   UNL     1       6.340  -0.159   1.578  1.00  0.00     0.117 A 
ATOM     13  C   UNL     1       6.686   1.132   1.929  1.00  0.00     0.162 A 
BRANCH  12  14
ATOM     14  C   UNL     1       6.958  -1.350   2.122  1.00  0.00     0.004 A 
ATOM     15  C   UNL     1       7.131  -1.486   3.508  1.00  0.00     0.010 A 
ATOM     16  C   UNL     1       7.478  -2.327   1.269  1.00  0.00     0.010 A 
ATOM     17  C   UNL     1       7.866  -2.548   4.032  1.00  0.00     0.001 A 
ATOM     18  C   UNL     1       8.213  -3.393   1.796  1.00  0.00     0.001 A 
ATOM     19  C   UNL     1       8.418  -3.494   3.174  1.00  0.00     0.000 A 
ENDBRANCH  12  14
BRANCH  13  20
ATOM     20  C   UNL     1       7.682   1.689   2.826  1.00  0.00     0.020 A 
ATOM     21  C   UNL     1       7.317   2.549   3.866  1.00  0.00     0.012 A 
ATOM     22  C   UNL     1       9.003   1.215   2.765  1.00  0.00     0.012 A 
ATOM     23  C   UNL     1       8.245   2.880   4.858  1.00  0.00     0.001 A 
ATOM     24  C   UNL     1       9.925   1.542   3.756  1.00  0.00     0.001 A 
ATOM     25  C   UNL     1       9.541   2.365   4.811  1.00  0.00     0.000 A 
ENDBRANCH  13  20
ENDBRANCH   8   9
ENDBRANCH   7   8
ENDBRANCH   5   7
ENDBRANCH   2   3
ENDBRANCH   1   2
BRANCH   1  26
ATOM     26  C   UNL     1       3.393  -3.184   2.446  1.00  0.00     0.118 C 
BRANCH  26  27
ATOM     27  N   UNL     1       3.849  -2.733   3.751  1.00  0.00    -0.352 N 
ATOM     28  C   UNL     1       4.577  -3.379   4.721  1.00  0.00     0.251 C 
ATOM     29  H   UNL     1       3.593  -1.810   3.977  1.00  0.00     0.163 HD
ATOM     30  O   UNL     1       4.773  -2.796   5.788  1.00  0.00    -0.269 OA
BRANCH  28  31
ATOM     31  C   UNL     1       5.116  -4.752   4.530  1.00  0.00     0.039 A 
ATOM     32  C   UNL     1       5.225  -5.581   5.655  1.00  0.00     0.014 A 
ATOM     33  C   UNL     1       5.561  -5.227   3.293  1.00  0.00     0.014 A 
ATOM     34  C   UNL     1       5.687  -6.894   5.522  1.00  0.00     0.010 A 
ATOM     35  C   UNL     1       5.987  -6.546   3.149  1.00  0.00     0.010 A 
ATOM     36  C   UNL     1       6.024  -7.399   4.257  1.00  0.00    -0.014 A 
BRANCH  36  37
ATOM     37  C   UNL     1       6.250  -8.848   4.045  1.00  0.00     0.031 A 
ATOM     38  C   UNL     1       7.600  -9.389   3.679  1.00  0.00     0.074 A 
ATOM     39  C   UNL     1       5.173  -9.656   4.077  1.00  0.00     0.049 A 
ATOM     40  N   UNL     1       7.945 -10.621   3.412  1.00  0.00    -0.248 NA
ATOM     41  C   UNL     1       8.702  -8.420   3.582  1.00  0.00     0.031 C 
ATOM     42  C   UNL     1       3.801  -9.213   4.349  1.00  0.00     0.029 A 
ATOM     43  N   UNL     1       5.048 -11.002   3.856  1.00  0.00    -0.354 N 
ATOM     44  C   UNL     1       9.303 -10.585   3.123  1.00  0.00     0.074 A 
ATOM     45  C   UNL     1       9.710  -9.197   3.204  1.00  0.00     0.031 C 
ATOM     46  C   UNL     1       2.977 -10.268   4.283  1.00  0.00     0.029 A 
ATOM     47  C   UNL     1       3.752 -11.453   3.934  1.00  0.00     0.049 A 
ATOM     48  H   UNL     1       5.813 -11.590   3.660  1.00  0.00     0.167 HD
ATOM     49  C   UNL     1      10.129 -11.620   2.831  1.00  0.00     0.037 A 
ATOM     50  C   UNL     1       3.241 -12.682   3.736  1.00  0.00     0.037 A 
ATOM     51  C   UNL     1       9.696 -12.993   2.739  1.00  0.00     0.049 A 
ATOM     52  C   UNL     1       4.176 -13.809   3.402  1.00  0.00     0.074 A 
ATOM     53  C   UNL     1      10.461 -14.125   2.512  1.00  0.00     0.029 A 
ATOM     54  N   UNL     1       8.379 -13.421   2.849  1.00  0.00    -0.354 N 
ATOM     55  N   UNL     1       5.476 -13.774   3.231  1.00  0.00    -0.248 NA
ATOM     56  C   UNL     1       3.580 -15.141   3.246  1.00  0.00     0.031 C 
ATOM     57  C   UNL     1       9.602 -15.227   2.430  1.00  0.00     0.029 A 
ATOM     58  C   UNL     1       8.307 -14.793   2.663  1.00  0.00     0.049 A 
ATOM     59  H   UNL     1       7.609 -12.835   3.031  1.00  0.00     0.167 HD
ATOM     60  C   UNL     1       5.859 -15.084   2.970  1.00  0.00     0.074 A 
ATOM     61  C   UNL     1       4.653 -15.887   3.022  1.00  0.00     0.031 C 
ATOM     62  C   UNL     1       7.096 -15.577   2.711  1.00  0.00     0.037 A 
BRANCH  49  63
ATOM     63  C   UNL     1      11.585 -11.315   2.591  1.00  0.00     0.058 A 
ATOM     64  C   UNL     1      12.432 -10.904   3.634  1.00  0.00     0.135 A 
ATOM     65  C   UNL     1      12.158 -11.493   1.321  1.00  0.00     0.135 A 
ATOM     66  F   UNL     1      11.940 -10.708   4.867  1.00  0.00    -0.206 F 
ATOM     67  C   UNL     1      13.785 -10.655   3.421  1.00  0.00     0.059 A 
ATOM     68  C   UNL     1      13.515 -11.277   1.091  1.00  0.00     0.059 A 
ATOM     69  F   UNL     1      11.399 -11.888   0.286  1.00  0.00    -0.206 F 
ATOM     70  C   UNL     1      14.318 -10.845   2.145  1.00  0.00     0.060 A 
BRANCH  70  71
ATOM     71  S   UNL     1      16.076 -10.523   1.890  1.00  0.00     0.124 S 
ATOM     72  O   UNL     1      16.120  -9.066   1.979  1.00  0.00    -0.237 OA
ATOM     73  O   UNL     1      16.690 -11.244   3.000  1.00  0.00    -0.237 OA
ATOM     74  O   UNL     1      16.336 -11.077   0.565  1.00  0.00    -0.744 OA
ENDBRANCH  70  71
ENDBRANCH  49  63
BRANCH  50  75
ATOM     75  C   UNL     1       1.779 -12.903   3.880  1.00  0.00     0.058 A 
ATOM     76  C   UNL     1       1.263 -13.619   4.970  1.00  0.00     0.135 A 
ATOM     77  C   UNL     1       0.866 -12.372   2.955  1.00  0.00     0.135 A 
ATOM     78  F   UNL     1       2.096 -14.145   5.880  1.00  0.00    -0.206 F 
ATOM     79  C   UNL     1      -0.104 -13.814   5.131  1.00  0.00     0.059 A 
ATOM     80  C   UNL     1      -0.507 -12.531   3.109  1.00  0.00     0.059 A 
ATOM     81  F   UNL     1       1.308 -11.659   1.907  1.00  0.00    -0.206 F 
ATOM     82  C   UNL     1      -0.982 -13.263   4.197  1.00  0.00     0.060 A 
BRANCH  82  83
ATOM     83  S   UNL     1      -2.757 -13.481   4.445  1.00  0.00     0.124 S 
ATOM     84  O   UNL     1      -2.926 -14.893   4.121  1.00  0.00    -0.237 OA
ATOM     85  O   UNL     1      -2.915 -13.125   5.851  1.00  0.00    -0.237 OA
ATOM     86  O   UNL     1      -3.347 -12.540   3.497  1.00  0.00    -0.744 OA
ENDBRANCH  82  83
ENDBRANCH  50  75
BRANCH  62  87
ATOM     87  C   UNL     1       7.207 -17.060   2.485  1.00  0.00     0.058 A 
ATOM     88  C   UNL     1       6.724 -17.666   1.314  1.00  0.00     0.135 A 
ATOM     89  C   UNL     1       7.834 -17.880   3.436  1.00  0.00     0.135 A 
ATOM     90  F   UNL     1       6.106 -16.928   0.377  1.00  0.00    -0.206 F 
ATOM     91  C   UNL     1       6.835 -19.036   1.107  1.00  0.00     0.059 A 
ATOM     92  C   UNL     1       7.983 -19.249   3.236  1.00  0.00     0.059 A 
ATOM     93  F   UNL     1       8.321 -17.351   4.570  1.00  0.00    -0.206 F 
ATOM     94  C   UNL     1       7.468 -19.820   2.073  1.00  0.00     0.060 A 
BRANCH  94  95
ATOM     95  S   UNL     1       7.631 -21.593   1.778  1.00  0.00     0.124 S 
ATOM     96  O   UNL     1       6.262 -22.053   1.987  1.00  0.00    -0.237 OA
ATOM     97  O   UNL     1       8.111 -21.637   0.400  1.00  0.00    -0.237 OA
ATOM     98  O   UNL     1       8.598 -22.018   2.786  1.00  0.00    -0.744 OA
ENDBRANCH  94  95
ENDBRANCH  62  87
ENDBRANCH  36  37
ENDBRANCH  28  31
ENDBRANCH  26  27
ENDBRANCH   1  26
TORSDOF 17
