REMARK SMILES CCCc1c(C(=O)NCCCNC(=O)c2ccc(-c3c4nc(c(-c5c(F)cc(S(=O)(=O)[O-])cc5F)c5ccc([nH]5)c(-c5c(F)cc(S(=O)(=O)[O-])cc5F)c5nc(c(-c6c(F)cc(S(=O)(=O)[O-])cc6F)c6ccc3[nH]6)C=C5)C=C4)cc2)nnn1-c1cccc(C(F)(F)F)c1
REMARK SMILES IDX 10 1 9 2 8 3 6 4 7 5 5 7 4 8 83 9 81 10 82 11 3 12 2 13 1 14
REMARK SMILES IDX 84 15 85 16 93 17 86 18 88 19 87 20 89 21 90 22 91 23 92 24
REMARK SMILES IDX 11 25 12 26 13 27 14 29 15 30 16 31 80 32 17 33 79 34 18 35
REMARK SMILES IDX 19 36 20 37 73 38 21 39 78 40 72 41 74 42 22 43 77 44 71 45
REMARK SMILES IDX 70 46 23 48 57 49 36 50 56 51 37 52 40 53 55 54 75 55 38 56
REMARK SMILES IDX 39 57 54 59 76 60 41 61 24 62 25 63 34 64 26 65 27 66 33 67
REMARK SMILES IDX 35 68 28 69 29 70 30 71 31 72 32 73 58 74 59 75 68 76 60 77
REMARK SMILES IDX 61 78 67 79 69 80 62 81 63 82 64 83 65 84 66 85 42 86 43 87
REMARK SMILES IDX 52 88 44 89 45 90 51 91 53 92 46 93 47 94 48 95 49 96 50 97
REMARK H PARENT 8 6 12 28 74 47 40 58
REMARK Flexibility Score: inf
ROOT
ATOM      1  C   UNL     1       2.279   1.139   0.464  1.00  0.00     0.042 C 
ENDROOT
BRANCH   1   2
ATOM      2  C   UNL     1       3.008   0.419  -0.681  1.00  0.00     0.118 C 
BRANCH   2   3
ATOM      3  N   UNL     1       2.503  -0.919  -0.939  1.00  0.00    -0.351 N 
ATOM      4  C   UNL     1       1.787  -1.482  -1.970  1.00  0.00     0.273 C 
ATOM      5  O   UNL     1       1.806  -2.714  -2.000  1.00  0.00    -0.267 OA
ATOM      6  H   UNL     1       2.720  -1.559  -0.223  1.00  0.00     0.163 HD
BRANCH   4   7
ATOM      7  C   UNL     1       1.054  -0.722  -2.989  1.00  0.00     0.174 A 
ATOM      8  C   UNL     1       0.414   0.515  -3.001  1.00  0.00     0.078 A 
ATOM      9  N   UNL     1      -0.122   0.594  -4.273  1.00  0.00    -0.217 N 
ATOM     10  N   UNL     1       0.742  -1.363  -4.179  1.00  0.00    -0.124 NA
ATOM     11  N   UNL     1      -0.028  -0.576  -4.913  1.00  0.00    -0.061 NA
BRANCH   8  12
ATOM     12  C   UNL     1       0.114   1.560  -1.989  1.00  0.00     0.059 C 
BRANCH  12  13
ATOM     13  C   UNL     1      -1.034   1.217  -1.028  1.00  0.00     0.003 C 
ATOM     14  C   UNL     1      -1.124  -0.218  -0.524  1.00  0.00     0.004 C 
ENDBRANCH  12  13
ENDBRANCH   8  12
BRANCH   9  15
ATOM     15  C   UNL     1      -0.660   1.731  -4.899  1.00  0.00     0.067 A 
ATOM     16  C   UNL     1      -2.003   1.745  -5.272  1.00  0.00     0.028 A 
ATOM     17  C   UNL     1       0.156   2.858  -5.062  1.00  0.00     0.041 A 
ATOM     18  C   UNL     1      -2.549   2.929  -5.765  1.00  0.00     0.003 A 
ATOM     19  C   UNL     1      -0.379   4.034  -5.602  1.00  0.00     0.058 A 
ATOM     20  C   UNL     1      -1.745   4.063  -5.929  1.00  0.00     0.013 A 
BRANCH  19  21
ATOM     21  C   UNL     1       0.491   5.243  -5.835  1.00  0.00     0.416 C 
ATOM     22  F   UNL     1       0.528   5.615  -7.144  1.00  0.00    -0.166 F 
ATOM     23  F   UNL     1       0.063   6.337  -5.146  1.00  0.00    -0.166 F 
ATOM     24  F   UNL     1       1.790   5.058  -5.465  1.00  0.00    -0.166 F 
ENDBRANCH  19  21
ENDBRANCH   9  15
ENDBRANCH   4   7
ENDBRANCH   2   3
ENDBRANCH   1   2
BRANCH   1  25
ATOM     25  C   UNL     1       2.540   0.543   1.825  1.00  0.00     0.118 C 
BRANCH  25  26
ATOM     26  N   UNL     1       3.661   1.163   2.516  1.00  0.00    -0.352 N 
ATOM     27  C   UNL     1       3.939   1.116   3.870  1.00  0.00     0.251 C 
ATOM     28  H   UNL     1       4.291   1.672   1.957  1.00  0.00     0.163 HD
ATOM     29  O   UNL     1       4.671   1.959   4.374  1.00  0.00    -0.269 OA
BRANCH  27  30
ATOM     30  C   UNL     1       3.346   0.037   4.692  1.00  0.00     0.039 A 
ATOM     31  C   UNL     1       3.111   0.196   6.061  1.00  0.00     0.014 A 
ATOM     32  C   UNL     1       3.055  -1.175   4.076  1.00  0.00     0.014 A 
ATOM     33  C   UNL     1       2.582  -0.874   6.782  1.00  0.00     0.010 A 
ATOM     34  C   UNL     1       2.330  -2.129   4.722  1.00  0.00     0.010 A 
ATOM     35  C   UNL     1       2.212  -2.038   6.097  1.00  0.00    -0.014 A 
BRANCH  35  36
ATOM     36  C   UNL     1       1.657  -3.203   6.764  1.00  0.00     0.031 A 
ATOM     37  C   UNL     1       0.385  -2.946   7.474  1.00  0.00     0.074 A 
ATOM     38  C   UNL     1       2.129  -4.445   6.510  1.00  0.00     0.049 A 
ATOM     39  N   UNL     1       0.186  -2.965   8.748  1.00  0.00    -0.248 NA
ATOM     40  C   UNL     1      -0.760  -2.435   6.701  1.00  0.00     0.031 C 
ATOM     41  C   UNL     1       3.195  -4.843   5.578  1.00  0.00     0.029 A 
ATOM     42  N   UNL     1       1.652  -5.644   6.930  1.00  0.00    -0.354 N 
ATOM     43  C   UNL     1      -1.172  -2.725   8.919  1.00  0.00     0.074 A 
ATOM     44  C   UNL     1      -1.640  -2.180   7.672  1.00  0.00     0.031 C 
ATOM     45  C   UNL     1       3.104  -6.165   5.322  1.00  0.00     0.029 A 
ATOM     46  C   UNL     1       2.088  -6.736   6.184  1.00  0.00     0.049 A 
ATOM     47  H   UNL     1       1.046  -5.735   7.700  1.00  0.00     0.167 HD
ATOM     48  C   UNL     1      -1.848  -3.248   9.979  1.00  0.00     0.037 A 
ATOM     49  C   UNL     1       1.605  -8.004   6.248  1.00  0.00     0.037 A 
ATOM     50  C   UNL     1      -0.933  -3.764  10.970  1.00  0.00     0.049 A 
ATOM     51  C   UNL     1       0.919  -8.124   7.567  1.00  0.00     0.074 A 
ATOM     52  C   UNL     1       0.104  -3.216  11.702  1.00  0.00     0.029 A 
ATOM     53  N   UNL     1      -0.747  -5.128  11.019  1.00  0.00    -0.354 N 
ATOM     54  N   UNL     1       1.547  -8.067   8.712  1.00  0.00    -0.248 NA
ATOM     55  C   UNL     1      -0.501  -7.803   7.627  1.00  0.00     0.031 C 
ATOM     56  C   UNL     1       1.110  -4.225  11.728  1.00  0.00     0.029 A 
ATOM     57  C   UNL     1       0.604  -5.359  11.092  1.00  0.00     0.049 A 
ATOM     58  H   UNL     1      -1.455  -5.812  11.004  1.00  0.00     0.167 HD
ATOM     59  C   UNL     1       0.733  -7.295   9.530  1.00  0.00     0.074 A 
ATOM     60  C   UNL     1      -0.554  -7.240   8.839  1.00  0.00     0.031 C 
ATOM     61  C   UNL     1       1.260  -6.521  10.527  1.00  0.00     0.037 A 
BRANCH  48  62
ATOM     62  C   UNL     1      -3.306  -3.637   9.962  1.00  0.00     0.058 A 
ATOM     63  C   UNL     1      -3.933  -3.986  11.176  1.00  0.00     0.135 A 
ATOM     64  C   UNL     1      -4.032  -3.945   8.790  1.00  0.00     0.135 A 
ATOM     65  F   UNL     1      -3.332  -3.740  12.351  1.00  0.00    -0.206 F 
ATOM     66  C   UNL     1      -5.149  -4.666  11.219  1.00  0.00     0.059 A 
ATOM     67  C   UNL     1      -5.273  -4.569   8.813  1.00  0.00     0.059 A 
ATOM     68  F   UNL     1      -3.534  -3.752   7.564  1.00  0.00    -0.206 F 
ATOM     69  C   UNL     1      -5.802  -4.968  10.028  1.00  0.00     0.060 A 
BRANCH  69  70
ATOM     70  S   UNL     1      -7.312  -5.947  10.072  1.00  0.00     0.124 S 
ATOM     71  O   UNL     1      -6.800  -7.249  10.482  1.00  0.00    -0.237 OA
ATOM     72  O   UNL     1      -8.108  -5.230  11.062  1.00  0.00    -0.237 OA
ATOM     73  O   UNL     1      -7.805  -5.864   8.700  1.00  0.00    -0.744 OA
ENDBRANCH  69  70
ENDBRANCH  48  62
BRANCH  49  74
ATOM     74  C   UNL     1       1.429  -8.979   5.134  1.00  0.00     0.058 A 
ATOM     75  C   UNL     1       1.038 -10.308   5.386  1.00  0.00     0.135 A 
ATOM     76  C   UNL     1       1.373  -8.571   3.784  1.00  0.00     0.135 A 
ATOM     77  F   UNL     1       1.047 -10.788   6.639  1.00  0.00    -0.206 F 
ATOM     78  C   UNL     1       0.559 -11.153   4.376  1.00  0.00     0.059 A 
ATOM     79  C   UNL     1       0.915  -9.400   2.760  1.00  0.00     0.059 A 
ATOM     80  F   UNL     1       1.673  -7.315   3.422  1.00  0.00    -0.206 F 
ATOM     81  C   UNL     1       0.477 -10.680   3.067  1.00  0.00     0.060 A 
BRANCH  81  82
ATOM     82  S   UNL     1      -0.340 -11.682   1.801  1.00  0.00     0.124 S 
ATOM     83  O   UNL     1       0.632 -12.748   1.584  1.00  0.00    -0.237 OA
ATOM     84  O   UNL     1      -1.577 -12.073   2.468  1.00  0.00    -0.237 OA
ATOM     85  O   UNL     1      -0.505 -10.751   0.688  1.00  0.00    -0.744 OA
ENDBRANCH  81  82
ENDBRANCH  49  74
BRANCH  61  86
ATOM     86  C   UNL     1       2.707  -6.725  10.910  1.00  0.00     0.058 A 
ATOM     87  C   UNL     1       3.799  -6.496  10.053  1.00  0.00     0.135 A 
ATOM     88  C   UNL     1       3.005  -6.997  12.254  1.00  0.00     0.135 A 
ATOM     89  F   UNL     1       3.611  -6.119   8.782  1.00  0.00    -0.206 F 
ATOM     90  C   UNL     1       5.120  -6.578  10.496  1.00  0.00     0.059 A 
ATOM     91  C   UNL     1       4.314  -7.051  12.727  1.00  0.00     0.059 A 
ATOM     92  F   UNL     1       2.011  -7.159  13.143  1.00  0.00    -0.206 F 
ATOM     93  C   UNL     1       5.368  -6.855  11.838  1.00  0.00     0.060 A 
BRANCH  93  94
ATOM     94  S   UNL     1       7.075  -6.888  12.427  1.00  0.00     0.124 S 
ATOM     95  O   UNL     1       7.571  -8.136  11.857  1.00  0.00    -0.237 OA
ATOM     96  O   UNL     1       7.633  -5.665  11.857  1.00  0.00    -0.237 OA
ATOM     97  O   UNL     1       6.933  -6.878  13.881  1.00  0.00    -0.744 OA
ENDBRANCH  93  94
ENDBRANCH  61  86
ENDBRANCH  35  36
ENDBRANCH  27  30
ENDBRANCH  25  26
ENDBRANCH   1  25
TORSDOF 17
