REMARK SMILES C[C@]12C(=O)N(c3ccc(C(=O)NCCCNC(=O)c4ccc(-c5c6nc(c(-c7c(F)cc(S(=O)(=O)[O-])cc7F)c7ccc([nH]7)c(-c7c(F)cc(S(=O)(=O)[O-])cc7F)c7nc(c(-c8c(F)cc(S(=O)(=O)[O-])cc8F)c8ccc5[nH]8)C=C7)C=C6)cc4)cc3)C(=O)[C@H]1[C@H]1c3ccccc3[C@@H]2c2ccccc21
REMARK SMILES IDX 15 1 14 2 13 3 12 4 10 5 11 6 9 8 6 9 7 10 86 11 8 12 85 13
REMARK SMILES IDX 5 14 1 15 2 16 3 17 89 18 97 19 4 20 87 21 90 22 96 23 98 24
REMARK SMILES IDX 88 25 91 26 103 27 95 28 99 29 92 30 102 31 94 32 100 33
REMARK SMILES IDX 93 34 101 35 16 36 17 37 18 39 19 40 20 41 84 42 21 43 83 44
REMARK SMILES IDX 22 45 23 46 24 47 77 48 25 49 82 50 76 51 78 52 26 53 81 54
REMARK SMILES IDX 75 55 74 56 27 58 61 59 40 60 60 61 41 62 44 63 59 64 79 65
REMARK SMILES IDX 42 66 43 67 58 69 80 70 45 71 28 72 29 73 38 74 30 75 31 76
REMARK SMILES IDX 37 77 39 78 32 79 33 80 34 81 35 82 36 83 62 84 63 85 72 86
REMARK SMILES IDX 64 87 65 88 71 89 73 90 66 91 67 92 68 93 69 94 70 95 46 96
REMARK SMILES IDX 47 97 56 98 48 99 49 100 55 101 57 102 50 103 51 104 52 105
REMARK SMILES IDX 53 106 54 107
REMARK H PARENT 12 7 16 38 78 57 44 68
REMARK Flexibility Score: inf
ROOT
ATOM      1  C   UNL     1      -8.946  -7.131  -0.747  1.00  0.00     0.118 C 
ENDROOT
BRANCH   1   2
ATOM      2  C   UNL     1      -8.001  -6.121  -0.110  1.00  0.00     0.042 C 
BRANCH   2   3
ATOM      3  C   UNL     1      -6.776  -6.758   0.530  1.00  0.00     0.118 C 
BRANCH   3   4
ATOM      4  N   UNL     1      -5.896  -7.386  -0.444  1.00  0.00    -0.352 N 
ATOM      5  C   UNL     1      -4.758  -6.954  -1.073  1.00  0.00     0.251 C 
ATOM      6  O   UNL     1      -4.306  -7.639  -1.992  1.00  0.00    -0.269 OA
ATOM      7  H   UNL     1      -6.171  -8.296  -0.700  1.00  0.00     0.163 HD
BRANCH   5   8
ATOM      8  C   UNL     1      -4.050  -5.708  -0.695  1.00  0.00     0.039 A 
ATOM      9  C   UNL     1      -2.430  -3.450  -0.056  1.00  0.00     0.052 A 
ATOM     10  C   UNL     1      -2.579  -3.900  -1.380  1.00  0.00     0.027 A 
ATOM     11  C   UNL     1      -3.145  -4.144   0.930  1.00  0.00     0.027 A 
ATOM     12  C   UNL     1      -3.376  -5.009  -1.697  1.00  0.00     0.016 A 
ATOM     13  C   UNL     1      -3.905  -5.281   0.622  1.00  0.00     0.016 A 
BRANCH   9  14
ATOM     14  N   UNL     1      -1.438  -2.481   0.297  1.00  0.00    -0.250 N 
ATOM     15  C   UNL     1       1.080  -0.087  -0.295  1.00  0.00     0.024 C 
ATOM     16  C   UNL     1       0.689  -1.517   0.102  1.00  0.00     0.071 C 
ATOM     17  C   UNL     1      -0.583  -1.897  -0.613  1.00  0.00     0.241 C 
ATOM     18  C   UNL     1       0.321  -1.608   1.607  1.00  0.00     0.107 C 
ATOM     19  C   UNL     1       1.780  -2.595  -0.246  1.00  0.00     0.066 C 
ATOM     20  O   UNL     1      -0.731  -1.716  -1.811  1.00  0.00    -0.273 OA
ATOM     21  C   UNL     1      -1.100  -2.123   1.589  1.00  0.00     0.238 C 
ATOM     22  C   UNL     1       1.261  -2.620   2.341  1.00  0.00     0.063 C 
ATOM     23  C   UNL     1       1.290  -3.960   0.271  1.00  0.00    -0.036 A 
ATOM     24  C   UNL     1       2.986  -2.229   0.615  1.00  0.00    -0.036 A 
ATOM     25  O   UNL     1      -1.759  -2.208   2.619  1.00  0.00    -0.274 OA
ATOM     26  C   UNL     1       1.035  -3.977   1.669  1.00  0.00    -0.036 A 
ATOM     27  C   UNL     1       2.699  -2.212   2.007  1.00  0.00    -0.036 A 
ATOM     28  C   UNL     1       1.015  -5.079  -0.502  1.00  0.00     0.005 A 
ATOM     29  C   UNL     1       4.256  -1.944   0.137  1.00  0.00     0.005 A 
ATOM     30  C   UNL     1       0.524  -5.108   2.292  1.00  0.00     0.004 A 
ATOM     31  C   UNL     1       3.697  -1.905   2.919  1.00  0.00     0.004 A 
ATOM     32  C   UNL     1       0.489  -6.213   0.126  1.00  0.00     0.000 A 
ATOM     33  C   UNL     1       5.253  -1.634   1.059  1.00  0.00     0.000 A 
ATOM     34  C   UNL     1       0.251  -6.229   1.509  1.00  0.00     0.000 A 
ATOM     35  C   UNL     1       4.976  -1.613   2.436  1.00  0.00     0.000 A 
ENDBRANCH   9  14
ENDBRANCH   5   8
ENDBRANCH   3   4
ENDBRANCH   2   3
ENDBRANCH   1   2
BRANCH   1  36
ATOM     36  N   UNL     1      -9.546  -8.038   0.227  1.00  0.00    -0.352 N 
ATOM     37  C   UNL     1     -10.741  -7.987   0.906  1.00  0.00     0.251 C 
ATOM     38  H   UNL     1      -8.997  -8.828   0.435  1.00  0.00     0.163 HD
ATOM     39  O   UNL     1     -10.926  -8.761   1.843  1.00  0.00    -0.269 OA
BRANCH  37  40
ATOM     40  C   UNL     1     -11.787  -7.003   0.548  1.00  0.00     0.039 A 
ATOM     41  C   UNL     1     -12.064  -6.695  -0.782  1.00  0.00     0.014 A 
ATOM     42  C   UNL     1     -12.538  -6.399   1.564  1.00  0.00     0.014 A 
ATOM     43  C   UNL     1     -12.929  -5.650  -1.088  1.00  0.00     0.010 A 
ATOM     44  C   UNL     1     -13.490  -5.423   1.248  1.00  0.00     0.010 A 
ATOM     45  C   UNL     1     -13.653  -4.997  -0.078  1.00  0.00    -0.014 A 
BRANCH  45  46
ATOM     46  C   UNL     1     -14.554  -3.870  -0.444  1.00  0.00     0.031 A 
ATOM     47  C   UNL     1     -14.287  -2.477   0.066  1.00  0.00     0.074 A 
ATOM     48  C   UNL     1     -15.568  -4.087  -1.306  1.00  0.00     0.049 A 
ATOM     49  N   UNL     1     -14.940  -1.369  -0.184  1.00  0.00    -0.248 NA
ATOM     50  C   UNL     1     -13.144  -2.301   0.976  1.00  0.00     0.031 C 
ATOM     51  C   UNL     1     -15.924  -5.388  -1.878  1.00  0.00     0.029 A 
ATOM     52  N   UNL     1     -16.460  -3.219  -1.884  1.00  0.00    -0.354 N 
ATOM     53  C   UNL     1     -14.303  -0.375   0.549  1.00  0.00     0.074 A 
ATOM     54  C   UNL     1     -13.229  -1.012   1.278  1.00  0.00     0.031 C 
ATOM     55  C   UNL     1     -16.904  -5.221  -2.778  1.00  0.00     0.029 A 
ATOM     56  C   UNL     1     -17.295  -3.816  -2.799  1.00  0.00     0.049 A 
ATOM     57  H   UNL     1     -16.498  -2.260  -1.665  1.00  0.00     0.167 HD
ATOM     58  C   UNL     1     -14.576   0.951   0.598  1.00  0.00     0.037 A 
ATOM     59  C   UNL     1     -18.271  -3.296  -3.568  1.00  0.00     0.037 A 
ATOM     60  C   UNL     1     -15.626   1.590  -0.153  1.00  0.00     0.049 A 
ATOM     61  C   UNL     1     -18.574  -1.829  -3.474  1.00  0.00     0.074 A 
ATOM     62  C   UNL     1     -15.973   2.930  -0.178  1.00  0.00     0.029 A 
ATOM     63  N   UNL     1     -16.492   0.937  -1.018  1.00  0.00    -0.354 N 
ATOM     64  N   UNL     1     -17.970  -0.909  -2.760  1.00  0.00    -0.248 NA
ATOM     65  C   UNL     1     -19.701  -1.330  -4.274  1.00  0.00     0.031 C 
ATOM     66  C   UNL     1     -17.069   3.082  -1.034  1.00  0.00     0.029 A 
ATOM     67  C   UNL     1     -17.382   1.844  -1.571  1.00  0.00     0.049 A 
ATOM     68  H   UNL     1     -16.476  -0.028  -1.212  1.00  0.00     0.167 HD
ATOM     69  C   UNL     1     -18.642   0.278  -3.025  1.00  0.00     0.074 A 
ATOM     70  C   UNL     1     -19.684  -0.036  -3.982  1.00  0.00     0.031 C 
ATOM     71  C   UNL     1     -18.419   1.514  -2.515  1.00  0.00     0.037 A 
BRANCH  58  72
ATOM     72  C   UNL     1     -13.731   1.806   1.501  1.00  0.00     0.058 A 
ATOM     73  C   UNL     1     -12.410   2.145   1.170  1.00  0.00     0.135 A 
ATOM     74  C   UNL     1     -14.263   2.330   2.691  1.00  0.00     0.135 A 
ATOM     75  F   UNL     1     -11.847   1.657   0.053  1.00  0.00    -0.206 F 
ATOM     76  C   UNL     1     -11.639   2.957   1.996  1.00  0.00     0.059 A 
ATOM     77  C   UNL     1     -13.517   3.162   3.521  1.00  0.00     0.059 A 
ATOM     78  F   UNL     1     -15.521   2.036   3.055  1.00  0.00    -0.206 F 
ATOM     79  C   UNL     1     -12.201   3.461   3.170  1.00  0.00     0.060 A 
BRANCH  79  80
ATOM     80  S   UNL     1     -11.188   4.517   4.228  1.00  0.00     0.124 S 
ATOM     81  O   UNL     1     -10.263   3.547   4.807  1.00  0.00    -0.237 OA
ATOM     82  O   UNL     1     -10.607   5.453   3.270  1.00  0.00    -0.237 OA
ATOM     83  O   UNL     1     -12.154   5.095   5.157  1.00  0.00    -0.744 OA
ENDBRANCH  79  80
ENDBRANCH  58  72
BRANCH  59  84
ATOM     84  C   UNL     1     -19.028  -4.180  -4.492  1.00  0.00     0.058 A 
ATOM     85  C   UNL     1     -18.842  -4.101  -5.879  1.00  0.00     0.135 A 
ATOM     86  C   UNL     1     -19.913  -5.154  -4.003  1.00  0.00     0.135 A 
ATOM     87  F   UNL     1     -18.012  -3.180  -6.393  1.00  0.00    -0.206 F 
ATOM     88  C   UNL     1     -19.503  -4.959  -6.752  1.00  0.00     0.059 A 
ATOM     89  C   UNL     1     -20.568  -6.038  -4.854  1.00  0.00     0.059 A 
ATOM     90  F   UNL     1     -20.115  -5.277  -2.682  1.00  0.00    -0.206 F 
ATOM     91  C   UNL     1     -20.358  -5.931  -6.228  1.00  0.00     0.060 A 
BRANCH  91  92
ATOM     92  S   UNL     1     -21.149  -7.093  -7.362  1.00  0.00     0.124 S 
ATOM     93  O   UNL     1     -22.167  -6.252  -7.981  1.00  0.00    -0.237 OA
ATOM     94  O   UNL     1     -20.037  -7.488  -8.221  1.00  0.00    -0.237 OA
ATOM     95  O   UNL     1     -21.647  -8.140  -6.475  1.00  0.00    -0.744 OA
ENDBRANCH  91  92
ENDBRANCH  59  84
BRANCH  71  96
ATOM     96  C   UNL     1     -19.320   2.622  -2.978  1.00  0.00     0.058 A 
ATOM     97  C   UNL     1     -20.633   2.742  -2.498  1.00  0.00     0.135 A 
ATOM     98  C   UNL     1     -18.847   3.607  -3.859  1.00  0.00     0.135 A 
ATOM     99  F   UNL     1     -21.133   1.821  -1.660  1.00  0.00    -0.206 F 
ATOM    100  C   UNL     1     -21.452   3.796  -2.887  1.00  0.00     0.059 A 
ATOM    101  C   UNL     1     -19.642   4.681  -4.245  1.00  0.00     0.059 A 
ATOM    102  F   UNL     1     -17.595   3.540  -4.340  1.00  0.00    -0.206 F 
ATOM    103  C   UNL     1     -20.947   4.763  -3.759  1.00  0.00     0.060 A 
BRANCH 103 104
ATOM    104  S   UNL     1     -22.008   6.149  -4.220  1.00  0.00     0.124 S 
ATOM    105  O   UNL     1     -22.941   5.510  -5.142  1.00  0.00    -0.237 OA
ATOM    106  O   UNL     1     -22.566   6.557  -2.934  1.00  0.00    -0.237 OA
ATOM    107  O   UNL     1     -21.080   7.101  -4.824  1.00  0.00    -0.744 OA
ENDBRANCH 103 104
ENDBRANCH  71  96
ENDBRANCH  45  46
ENDBRANCH  37  40
ENDBRANCH   1  36
TORSDOF 14
