REMARK SMILES Cc1cc(OC(F)(F)F)cc2c1O[C@H](C(F)(F)F)C(C(=O)NCCCNC(=O)c1ccc(-c3c4nc(c(-c5c(F)cc(S(=O)(=O)[O-])cc5F)c5ccc([nH]5)c(-c5c(F)cc(S(=O)(=O)[O-])cc5F)c5nc(c(-c6c(F)cc(S(=O)(=O)[O-])cc6F)c6ccc3[nH]6)C=C5)C=C4)cc1)=C2
REMARK SMILES IDX 24 1 23 2 22 3 20 4 21 5 19 7 1 8 2 9 3 10 12 11 4 12 11 13
REMARK SMILES IDX 13 14 10 15 95 16 14 17 5 18 6 19 7 20 8 21 9 22 15 23 16 24
REMARK SMILES IDX 17 25 18 26 25 27 26 28 27 29 28 31 29 32 30 33 94 34 31 35
REMARK SMILES IDX 93 36 32 37 33 38 34 39 87 40 35 41 92 42 86 43 88 44 36 45
REMARK SMILES IDX 91 46 85 47 84 48 37 50 71 51 50 52 70 53 51 54 54 55 69 56
REMARK SMILES IDX 89 57 52 58 53 59 68 61 90 62 55 63 38 64 39 65 48 66 40 67
REMARK SMILES IDX 41 68 47 69 49 70 42 71 43 72 44 73 45 74 46 75 72 76 73 77
REMARK SMILES IDX 82 78 74 79 75 80 81 81 83 82 76 83 77 84 78 85 79 86 80 87
REMARK SMILES IDX 56 88 57 89 66 90 58 91 59 92 65 93 67 94 60 95 61 96 62 97
REMARK SMILES IDX 63 98 64 99
REMARK H PARENT 22 6 26 30 88 49 54 60
REMARK Flexibility Score: inf
ROOT
ATOM      1  C   UNL     1      -4.968  -0.627   4.467  1.00  0.00     0.042 C 
ENDROOT
BRANCH   1   2
ATOM      2  C   UNL     1      -5.221   0.080   3.143  1.00  0.00     0.118 C 
BRANCH   2   3
ATOM      3  N   UNL     1      -5.058   1.522   3.259  1.00  0.00    -0.352 N 
ATOM      4  C   UNL     1      -4.151   2.454   2.889  1.00  0.00     0.251 C 
ATOM      5  O   UNL     1      -4.428   3.614   3.214  1.00  0.00    -0.270 OA
ATOM      6  H   UNL     1      -5.816   1.931   3.737  1.00  0.00     0.163 HD
BRANCH   4   7
ATOM      7  C   UNL     1      -2.894   2.181   2.134  1.00  0.00     0.067 C 
ATOM      8  C   UNL     1       1.256   0.150  -0.111  1.00  0.00     0.048 C 
ATOM      9  C   UNL     1       0.786   1.541   0.210  1.00  0.00    -0.005 A 
ATOM     10  C   UNL     1       1.521   2.649  -0.241  1.00  0.00     0.054 A 
ATOM     11  C   UNL     1      -0.414   1.758   0.897  1.00  0.00     0.131 A 
ATOM     12  C   UNL     1       1.086   3.950   0.024  1.00  0.00     0.130 A 
ATOM     13  C   UNL     1      -0.857   3.052   1.174  1.00  0.00     0.021 A 
ATOM     14  O   UNL     1      -1.105   0.657   1.319  1.00  0.00    -0.475 OA
ATOM     15  C   UNL     1      -0.102   4.144   0.738  1.00  0.00     0.058 A 
ATOM     16  C   UNL     1      -2.085   3.240   1.938  1.00  0.00     0.025 C 
ATOM     17  C   UNL     1      -2.523   0.842   1.566  1.00  0.00     0.314 C 
BRANCH  12  18
ATOM     18  O   UNL     1       1.714   5.105  -0.350  1.00  0.00    -0.406 OA
BRANCH  18  19
ATOM     19  C   UNL     1       2.947   4.992  -1.040  1.00  0.00     0.573 C 
ATOM     20  F   UNL     1       3.868   4.343  -0.297  1.00  0.00    -0.132 F 
ATOM     21  F   UNL     1       2.788   4.356  -2.221  1.00  0.00    -0.132 F 
ATOM     22  F   UNL     1       3.415   6.234  -1.297  1.00  0.00    -0.132 F 
ENDBRANCH  18  19
ENDBRANCH  12  18
BRANCH  17  23
ATOM     23  C   UNL     1      -3.309   0.506   0.284  1.00  0.00     0.429 C 
ATOM     24  F   UNL     1      -3.210  -0.815  -0.005  1.00  0.00    -0.167 F 
ATOM     25  F   UNL     1      -4.632   0.775   0.399  1.00  0.00    -0.167 F 
ATOM     26  F   UNL     1      -2.867   1.190  -0.796  1.00  0.00    -0.167 F 
ENDBRANCH  17  23
ENDBRANCH   4   7
ENDBRANCH   2   3
ENDBRANCH   1   2
BRANCH   1  27
ATOM     27  C   UNL     1      -6.160  -0.512   5.410  1.00  0.00     0.118 C 
BRANCH  27  28
ATOM     28  N   UNL     1      -7.309  -1.266   4.914  1.00  0.00    -0.352 N 
ATOM     29  C   UNL     1      -7.751  -2.515   5.276  1.00  0.00     0.251 C 
ATOM     30  H   UNL     1      -7.842  -0.815   4.221  1.00  0.00     0.163 HD
ATOM     31  O   UNL     1      -8.544  -3.119   4.558  1.00  0.00    -0.269 OA
BRANCH  29  32
ATOM     32  C   UNL     1      -7.263  -3.123   6.527  1.00  0.00     0.039 A 
ATOM     33  C   UNL     1      -6.843  -4.455   6.531  1.00  0.00     0.014 A 
ATOM     34  C   UNL     1      -7.232  -2.365   7.701  1.00  0.00     0.014 A 
ATOM     35  C   UNL     1      -6.327  -5.007   7.705  1.00  0.00     0.010 A 
ATOM     36  C   UNL     1      -6.648  -2.891   8.846  1.00  0.00     0.010 A 
ATOM     37  C   UNL     1      -6.201  -4.219   8.861  1.00  0.00    -0.014 A 
BRANCH  37  38
ATOM     38  C   UNL     1      -5.635  -4.776  10.111  1.00  0.00     0.031 A 
ATOM     39  C   UNL     1      -6.518  -4.938  11.317  1.00  0.00     0.074 A 
ATOM     40  C   UNL     1      -4.325  -5.081  10.172  1.00  0.00     0.049 A 
ATOM     41  N   UNL     1      -6.211  -5.379  12.508  1.00  0.00    -0.248 NA
ATOM     42  C   UNL     1      -7.926  -4.528  11.172  1.00  0.00     0.031 C 
ATOM     43  C   UNL     1      -3.366  -4.913   9.078  1.00  0.00     0.029 A 
ATOM     44  N   UNL     1      -3.572  -5.593  11.198  1.00  0.00    -0.354 N 
ATOM     45  C   UNL     1      -7.383  -5.303  13.250  1.00  0.00     0.074 A 
ATOM     46  C   UNL     1      -8.389  -4.709  12.400  1.00  0.00     0.031 C 
ATOM     47  C   UNL     1      -2.159  -5.345   9.482  1.00  0.00     0.029 A 
ATOM     48  C   UNL     1      -2.253  -5.795  10.867  1.00  0.00     0.049 A 
ATOM     49  H   UNL     1      -3.942  -5.798  12.087  1.00  0.00     0.167 HD
ATOM     50  C   UNL     1      -7.609  -5.726  14.515  1.00  0.00     0.037 A 
ATOM     51  C   UNL     1      -1.238  -6.296  11.599  1.00  0.00     0.037 A 
ATOM     52  C   UNL     1      -6.608  -6.340  15.343  1.00  0.00     0.049 A 
ATOM     53  C   UNL     1      -1.509  -6.747  13.009  1.00  0.00     0.074 A 
ATOM     54  C   UNL     1      -6.745  -6.851  16.621  1.00  0.00     0.029 A 
ATOM     55  N   UNL     1      -5.286  -6.531  14.971  1.00  0.00    -0.354 N 
ATOM     56  N   UNL     1      -2.640  -6.729  13.673  1.00  0.00    -0.248 NA
ATOM     57  C   UNL     1      -0.373  -7.288  13.768  1.00  0.00     0.031 C 
ATOM     58  C   UNL     1      -5.495  -7.321  17.035  1.00  0.00     0.029 A 
ATOM     59  C   UNL     1      -4.590  -7.137  16.001  1.00  0.00     0.049 A 
ATOM     60  H   UNL     1      -4.900  -6.273  14.103  1.00  0.00     0.167 HD
ATOM     61  C   UNL     1      -2.358  -7.280  14.918  1.00  0.00     0.074 A 
ATOM     62  C   UNL     1      -0.951  -7.623  14.915  1.00  0.00     0.031 C 
ATOM     63  C   UNL     1      -3.191  -7.484  15.968  1.00  0.00     0.037 A 
BRANCH  50  64
ATOM     64  C   UNL     1      -8.998  -5.566  15.064  1.00  0.00     0.058 A 
ATOM     65  C   UNL     1     -10.058  -6.364  14.604  1.00  0.00     0.135 A 
ATOM     66  C   UNL     1      -9.270  -4.634  16.078  1.00  0.00     0.135 A 
ATOM     67  F   UNL     1      -9.855  -7.257  13.622  1.00  0.00    -0.206 F 
ATOM     68  C   UNL     1     -11.344  -6.227  15.112  1.00  0.00     0.059 A 
ATOM     69  C   UNL     1     -10.545  -4.498  16.619  1.00  0.00     0.059 A 
ATOM     70  F   UNL     1      -8.293  -3.844  16.550  1.00  0.00    -0.206 F 
ATOM     71  C   UNL     1     -11.578  -5.291  16.120  1.00  0.00     0.060 A 
BRANCH  71  72
ATOM     72  S   UNL     1     -13.254  -5.135  16.773  1.00  0.00     0.124 S 
ATOM     73  O   UNL     1     -13.937  -4.478  15.663  1.00  0.00    -0.237 OA
ATOM     74  O   UNL     1     -13.626  -6.525  17.013  1.00  0.00    -0.237 OA
ATOM     75  O   UNL     1     -13.078  -4.320  17.971  1.00  0.00    -0.744 OA
ENDBRANCH  71  72
ENDBRANCH  50  64
BRANCH  51  76
ATOM     76  C   UNL     1       0.109  -6.445  10.990  1.00  0.00     0.058 A 
ATOM     77  C   UNL     1       0.600  -7.711  10.640  1.00  0.00     0.135 A 
ATOM     78  C   UNL     1       0.916  -5.331  10.713  1.00  0.00     0.135 A 
ATOM     79  F   UNL     1      -0.135  -8.806  10.889  1.00  0.00    -0.206 F 
ATOM     80  C   UNL     1       1.845  -7.871  10.042  1.00  0.00     0.059 A 
ATOM     81  C   UNL     1       2.158  -5.463  10.097  1.00  0.00     0.059 A 
ATOM     82  F   UNL     1       0.485  -4.096  11.013  1.00  0.00    -0.206 F 
ATOM     83  C   UNL     1       2.616  -6.739   9.770  1.00  0.00     0.060 A 
BRANCH  83  84
ATOM     84  S   UNL     1       4.204  -6.956   8.937  1.00  0.00     0.124 S 
ATOM     85  O   UNL     1       5.010  -7.557   9.994  1.00  0.00    -0.237 OA
ATOM     86  O   UNL     1       3.849  -7.834   7.827  1.00  0.00    -0.237 OA
ATOM     87  O   UNL     1       4.572  -5.596   8.557  1.00  0.00    -0.744 OA
ENDBRANCH  83  84
ENDBRANCH  51  76
BRANCH  63  88
ATOM     88  C   UNL     1      -2.623  -8.122  17.201  1.00  0.00     0.058 A 
ATOM     89  C   UNL     1      -1.855  -7.385  18.114  1.00  0.00     0.135 A 
ATOM     90  C   UNL     1      -2.965  -9.442  17.538  1.00  0.00     0.135 A 
ATOM     91  F   UNL     1      -1.498  -6.122  17.831  1.00  0.00    -0.206 F 
ATOM     92  C   UNL     1      -1.455  -7.931  19.328  1.00  0.00     0.059 A 
ATOM     93  C   UNL     1      -2.592 -10.001  18.755  1.00  0.00     0.059 A 
ATOM     94  F   UNL     1      -3.705 -10.183  16.698  1.00  0.00    -0.206 F 
ATOM     95  C   UNL     1      -1.841  -9.235  19.646  1.00  0.00     0.060 A 
BRANCH  95  96
ATOM     96  S   UNL     1      -1.399  -9.893  21.268  1.00  0.00     0.124 S 
ATOM     97  O   UNL     1       0.037 -10.108  21.118  1.00  0.00    -0.237 OA
ATOM     98  O   UNL     1      -1.787  -8.805  22.160  1.00  0.00    -0.237 OA
ATOM     99  O   UNL     1      -2.207 -11.104  21.377  1.00  0.00    -0.744 OA
ENDBRANCH  95  96
ENDBRANCH  63  88
ENDBRANCH  37  38
ENDBRANCH  29  32
ENDBRANCH  27  28
ENDBRANCH   1  27
TORSDOF 16
