REMARK SMILES Cc1nn(C)c(=O)c(C(=O)N2CCCC[C@H]2C(=O)NCCCNC(=O)c2ccc(-c3c4nc(c(-c5c(F)cc(S(=O)(=O)[O-])cc5F)c5ccc([nH]5)c(-c5c(F)cc(S(=O)(=O)[O-])cc5F)c5nc(c(-c6c(F)cc(S(=O)(=O)[O-])cc6F)c6ccc3[nH]6)C=C5)C=C4)cc2)c1C
REMARK SMILES IDX 21 1 20 2 19 3 17 4 18 5 16 7 11 8 12 9 13 10 15 11 14 12
REMARK SMILES IDX 9 13 10 14 8 15 1 16 2 17 3 18 92 19 4 20 93 21 5 22 6 23
REMARK SMILES IDX 7 24 22 25 23 26 24 27 25 29 26 30 27 31 91 32 28 33 90 34
REMARK SMILES IDX 29 35 30 36 31 37 84 38 32 39 89 40 83 41 85 42 33 43 88 44
REMARK SMILES IDX 82 45 81 46 34 48 68 49 47 50 67 51 48 52 51 53 66 54 86 55
REMARK SMILES IDX 49 56 50 57 65 59 87 60 52 61 35 62 36 63 45 64 37 65 38 66
REMARK SMILES IDX 44 67 46 68 39 69 40 70 41 71 42 72 43 73 69 74 70 75 79 76
REMARK SMILES IDX 71 77 72 78 78 79 80 80 73 81 74 82 75 83 76 84 77 85 53 86
REMARK SMILES IDX 54 87 63 88 55 89 56 90 62 91 64 92 57 93 58 94 59 95 60 96
REMARK SMILES IDX 61 97
REMARK H PARENT 19 6 23 28 85 47 51 58
REMARK Flexibility Score: inf
ROOT
ATOM      1  C   UNL     1      -4.015  -0.013   3.060  1.00  0.00     0.042 C 
ENDROOT
BRANCH   1   2
ATOM      2  C   UNL     1      -4.908   0.463   1.917  1.00  0.00     0.117 C 
BRANCH   2   3
ATOM      3  N   UNL     1      -4.214   0.854   0.700  1.00  0.00    -0.354 N 
ATOM      4  C   UNL     1      -3.864   0.225  -0.451  1.00  0.00     0.242 C 
ATOM      5  O   UNL     1      -3.493   0.988  -1.359  1.00  0.00    -0.273 OA
ATOM      6  H   UNL     1      -3.932   1.796   0.715  1.00  0.00     0.163 HD
BRANCH   4   7
ATOM      7  C   UNL     1      -3.999  -1.296  -0.776  1.00  0.00     0.174 C 
ATOM      8  N   UNL     1      -3.839  -2.327   0.266  1.00  0.00    -0.326 N 
ATOM      9  C   UNL     1      -5.033  -2.776   1.001  1.00  0.00     0.120 C 
ATOM     10  C   UNL     1      -6.404  -2.600   0.344  1.00  0.00     0.022 C 
ATOM     11  C   UNL     1      -5.294  -1.490  -1.582  1.00  0.00     0.035 C 
ATOM     12  C   UNL     1      -6.513  -1.484  -0.679  1.00  0.00     0.004 C 
BRANCH   8  13
ATOM     13  C   UNL     1      -2.645  -2.958   0.651  1.00  0.00     0.260 C 
ATOM     14  O   UNL     1      -2.647  -3.743   1.608  1.00  0.00    -0.269 OA
BRANCH  13  15
ATOM     15  C   UNL     1      -1.302  -2.740   0.002  1.00  0.00     0.111 A 
ATOM     16  C   UNL     1       1.602  -0.316  -0.324  1.00  0.00     0.069 C 
ATOM     17  C   UNL     1       0.838  -1.620  -0.223  1.00  0.00     0.062 A 
ATOM     18  N   UNL     1       1.524  -2.702  -0.384  1.00  0.00    -0.175 NA
ATOM     19  C   UNL     1      -0.617  -1.584   0.108  1.00  0.00    -0.010 A 
ATOM     20  N   UNL     1       0.847  -3.887  -0.354  1.00  0.00    -0.232 N 
ATOM     21  C   UNL     1      -1.093  -0.309   0.705  1.00  0.00     0.047 C 
ATOM     22  C   UNL     1       1.689  -5.072  -0.371  1.00  0.00     0.178 C 
ATOM     23  C   UNL     1      -0.542  -3.981  -0.388  1.00  0.00     0.279 A 
ATOM     24  O   UNL     1      -1.140  -5.011  -0.692  1.00  0.00    -0.267 OA
ENDBRANCH  13  15
ENDBRANCH   8  13
ENDBRANCH   4   7
ENDBRANCH   2   3
ENDBRANCH   1   2
BRANCH   1  25
ATOM     25  C   UNL     1      -3.081   1.056   3.619  1.00  0.00     0.118 C 
BRANCH  25  26
ATOM     26  N   UNL     1      -3.807   2.099   4.327  1.00  0.00    -0.352 N 
ATOM     27  C   UNL     1      -4.003   2.295   5.672  1.00  0.00     0.251 C 
ATOM     28  H   UNL     1      -4.225   2.776   3.747  1.00  0.00     0.163 HD
ATOM     29  O   UNL     1      -4.886   3.071   6.031  1.00  0.00    -0.269 OA
BRANCH  27  30
ATOM     30  C   UNL     1      -3.179   1.596   6.687  1.00  0.00     0.039 A 
ATOM     31  C   UNL     1      -3.784   1.185   7.880  1.00  0.00     0.014 A 
ATOM     32  C   UNL     1      -1.803   1.423   6.519  1.00  0.00     0.014 A 
ATOM     33  C   UNL     1      -3.022   0.569   8.878  1.00  0.00     0.010 A 
ATOM     34  C   UNL     1      -1.057   0.741   7.481  1.00  0.00     0.010 A 
ATOM     35  C   UNL     1      -1.654   0.323   8.679  1.00  0.00    -0.014 A 
BRANCH  35  36
ATOM     36  C   UNL     1      -0.827  -0.333   9.726  1.00  0.00     0.031 A 
ATOM     37  C   UNL     1       0.285   0.430  10.396  1.00  0.00     0.074 A 
ATOM     38  C   UNL     1      -1.047  -1.623  10.045  1.00  0.00     0.049 A 
ATOM     39  N   UNL     1       1.153   0.018  11.285  1.00  0.00    -0.248 NA
ATOM     40  C   UNL     1       0.460   1.837   9.999  1.00  0.00     0.031 C 
ATOM     41  C   UNL     1      -2.075  -2.477   9.446  1.00  0.00     0.029 A 
ATOM     42  N   UNL     1      -0.420  -2.444  10.948  1.00  0.00    -0.354 N 
ATOM     43  C   UNL     1       1.977   1.107  11.546  1.00  0.00     0.074 A 
ATOM     44  C   UNL     1       1.543   2.182  10.681  1.00  0.00     0.031 C 
ATOM     45  C   UNL     1      -2.026  -3.691  10.018  1.00  0.00     0.029 A 
ATOM     46  C   UNL     1      -0.942  -3.715  10.996  1.00  0.00     0.049 A 
ATOM     47  H   UNL     1       0.334  -2.150  11.510  1.00  0.00     0.167 HD
ATOM     48  C   UNL     1       2.986   1.211  12.444  1.00  0.00     0.037 A 
ATOM     49  C   UNL     1      -0.587  -4.781  11.740  1.00  0.00     0.037 A 
ATOM     50  C   UNL     1       3.398   0.146  13.320  1.00  0.00     0.049 A 
ATOM     51  C   UNL     1       0.550  -4.649  12.716  1.00  0.00     0.074 A 
ATOM     52  C   UNL     1       4.381   0.165  14.294  1.00  0.00     0.029 A 
ATOM     53  N   UNL     1       2.848  -1.128  13.332  1.00  0.00    -0.354 N 
ATOM     54  N   UNL     1       1.293  -3.599  12.977  1.00  0.00    -0.248 NA
ATOM     55  C   UNL     1       0.898  -5.843  13.499  1.00  0.00     0.031 C 
ATOM     56  C   UNL     1       4.452  -1.109  14.868  1.00  0.00     0.029 A 
ATOM     57  C   UNL     1       3.484  -1.909  14.282  1.00  0.00     0.049 A 
ATOM     58  H   UNL     1       2.115  -1.432  12.750  1.00  0.00     0.167 HD
ATOM     59  C   UNL     1       2.184  -4.000  13.966  1.00  0.00     0.074 A 
ATOM     60  C   UNL     1       1.879  -5.384  14.267  1.00  0.00     0.031 C 
ATOM     61  C   UNL     1       3.167  -3.287  14.569  1.00  0.00     0.037 A 
BRANCH  48  62
ATOM     62  C   UNL     1       3.707   2.529  12.533  1.00  0.00     0.058 A 
ATOM     63  C   UNL     1       3.090   3.666  13.079  1.00  0.00     0.135 A 
ATOM     64  C   UNL     1       5.038   2.651  12.104  1.00  0.00     0.135 A 
ATOM     65  F   UNL     1       1.814   3.611  13.492  1.00  0.00    -0.206 F 
ATOM     66  C   UNL     1       3.757   4.884  13.170  1.00  0.00     0.059 A 
ATOM     67  C   UNL     1       5.734   3.852  12.210  1.00  0.00     0.059 A 
ATOM     68  F   UNL     1       5.677   1.596  11.573  1.00  0.00    -0.206 F 
ATOM     69  C   UNL     1       5.079   4.967  12.732  1.00  0.00     0.060 A 
BRANCH  69  70
ATOM     70  S   UNL     1       5.926   6.556  12.859  1.00  0.00     0.124 S 
ATOM     71  O   UNL     1       5.250   7.330  11.822  1.00  0.00    -0.237 OA
ATOM     72  O   UNL     1       5.642   6.952  14.233  1.00  0.00    -0.237 OA
ATOM     73  O   UNL     1       7.321   6.222  12.581  1.00  0.00    -0.744 OA
ENDBRANCH  69  70
ENDBRANCH  48  62
BRANCH  49  74
ATOM     74  C   UNL     1      -1.346  -6.054  11.615  1.00  0.00     0.058 A 
ATOM     75  C   UNL     1      -2.212  -6.475  12.634  1.00  0.00     0.135 A 
ATOM     76  C   UNL     1      -1.256  -6.851  10.463  1.00  0.00     0.135 A 
ATOM     77  F   UNL     1      -2.325  -5.751  13.759  1.00  0.00    -0.206 F 
ATOM     78  C   UNL     1      -2.962  -7.640  12.519  1.00  0.00     0.059 A 
ATOM     79  C   UNL     1      -2.014  -8.009  10.314  1.00  0.00     0.059 A 
ATOM     80  F   UNL     1      -0.451  -6.485   9.453  1.00  0.00    -0.206 F 
ATOM     81  C   UNL     1      -2.862  -8.397  11.350  1.00  0.00     0.060 A 
BRANCH  81  82
ATOM     82  S   UNL     1      -3.897  -9.868  11.186  1.00  0.00     0.124 S 
ATOM     83  O   UNL     1      -3.279 -10.773  12.148  1.00  0.00    -0.237 OA
ATOM     84  O   UNL     1      -5.215  -9.354  11.549  1.00  0.00    -0.237 OA
ATOM     85  O   UNL     1      -3.741 -10.236   9.782  1.00  0.00    -0.744 OA
ENDBRANCH  81  82
ENDBRANCH  49  74
BRANCH  61  86
ATOM     86  C   UNL     1       3.982  -3.979  15.625  1.00  0.00     0.058 A 
ATOM     87  C   UNL     1       4.956  -4.932  15.291  1.00  0.00     0.135 A 
ATOM     88  C   UNL     1       3.841  -3.630  16.978  1.00  0.00     0.135 A 
ATOM     89  F   UNL     1       5.125  -5.306  14.013  1.00  0.00    -0.206 F 
ATOM     90  C   UNL     1       5.756  -5.523  16.263  1.00  0.00     0.059 A 
ATOM     91  C   UNL     1       4.647  -4.189  17.964  1.00  0.00     0.059 A 
ATOM     92  F   UNL     1       2.930  -2.716  17.349  1.00  0.00    -0.206 F 
ATOM     93  C   UNL     1       5.599  -5.141  17.597  1.00  0.00     0.060 A 
BRANCH  93  94
ATOM     94  S   UNL     1       6.681  -5.878  18.839  1.00  0.00     0.124 S 
ATOM     95  O   UNL     1       6.160  -7.239  18.913  1.00  0.00    -0.237 OA
ATOM     96  O   UNL     1       7.999  -5.736  18.228  1.00  0.00    -0.237 OA
ATOM     97  O   UNL     1       6.453  -5.055  20.023  1.00  0.00    -0.744 OA
ENDBRANCH  93  94
ENDBRANCH  61  86
ENDBRANCH  35  36
ENDBRANCH  27  30
ENDBRANCH  25  26
ENDBRANCH   1  25
TORSDOF 15
