REMARK SMILES O=C(NCCCNC(=O)[C@@]1(Cc2cn3ccccc3n2)CCC[NH2+]C1)c1ccc(-c2c3nc(c(-c4c(F)cc(S(=O)(=O)[O-])cc4F)c4ccc([nH]4)c(-c4c(F)cc(S(=O)(=O)[O-])cc4F)c4nc(c(-c5c(F)cc(S(=O)(=O)[O-])cc5F)c5ccc2[nH]5)C=C4)C=C3)cc1
REMARK SMILES IDX 4 1 3 2 1 3 2 4 26 6 27 7 91 8 28 9 90 10 29 11 30 12 31 13
REMARK SMILES IDX 84 14 32 15 89 16 83 17 85 18 33 19 88 20 82 21 81 22 34 24
REMARK SMILES IDX 68 25 47 26 67 27 48 28 51 29 66 30 86 31 49 32 50 33 65 35
REMARK SMILES IDX 87 36 52 37 35 38 36 39 45 40 37 41 38 42 44 43 46 44 39 45
REMARK SMILES IDX 40 46 41 47 42 48 43 49 69 50 70 51 79 52 71 53 72 54 78 55
REMARK SMILES IDX 80 56 73 57 74 58 75 59 76 60 77 61 53 62 54 63 63 64 55 65
REMARK SMILES IDX 56 66 62 67 64 68 57 69 58 70 59 71 60 72 61 73 5 74 6 75
REMARK SMILES IDX 7 76 8 77 9 79 10 80 21 81 25 82 22 83 24 84 23 85 11 88
REMARK SMILES IDX 12 89 13 90 20 91 14 92 19 93 15 94 18 95 16 96 17 97
REMARK H PARENT 3 5 85 23 51 34 7 78 24 86 24 87
REMARK Flexibility Score: inf
ROOT
ATOM      1  C   UNL     1       5.056   2.272  10.304  1.00  0.00     0.118 C 
ENDROOT
BRANCH   1   2
ATOM      2  N   UNL     1       6.109   2.820  11.146  1.00  0.00    -0.352 N 
ATOM      3  O   UNL     1       7.172   4.362  12.384  1.00  0.00    -0.269 OA
ATOM      4  C   UNL     1       6.108   3.936  11.947  1.00  0.00     0.251 C 
ATOM      5  H   UNL     1       6.953   2.312  11.142  1.00  0.00     0.163 HD
BRANCH   4   6
ATOM      6  C   UNL     1       4.839   4.626  12.273  1.00  0.00     0.039 A 
ATOM      7  C   UNL     1       3.680   3.901  12.562  1.00  0.00     0.014 A 
ATOM      8  C   UNL     1       4.821   6.022  12.344  1.00  0.00     0.014 A 
ATOM      9  C   UNL     1       2.479   4.565  12.779  1.00  0.00     0.010 A 
ATOM     10  C   UNL     1       3.633   6.688  12.661  1.00  0.00     0.010 A 
ATOM     11  C   UNL     1       2.447   5.965  12.861  1.00  0.00    -0.014 A 
BRANCH  11  12
ATOM     12  C   UNL     1       1.187   6.646  13.248  1.00  0.00     0.031 A 
ATOM     13  C   UNL     1       0.494   7.594  12.312  1.00  0.00     0.074 A 
ATOM     14  C   UNL     1       0.677   6.405  14.472  1.00  0.00     0.049 A 
ATOM     15  N   UNL     1      -0.593   8.295  12.507  1.00  0.00    -0.248 NA
ATOM     16  C   UNL     1       1.106   7.790  10.989  1.00  0.00     0.031 C 
ATOM     17  C   UNL     1       1.278   5.520  15.474  1.00  0.00     0.029 A 
ATOM     18  N   UNL     1      -0.453   6.880  15.087  1.00  0.00    -0.354 N 
ATOM     19  C   UNL     1      -0.785   9.033  11.345  1.00  0.00     0.074 A 
ATOM     20  C   UNL     1       0.313   8.710  10.458  1.00  0.00     0.031 C 
ATOM     21  C   UNL     1       0.505   5.502  16.568  1.00  0.00     0.029 A 
ATOM     22  C   UNL     1      -0.611   6.420  16.372  1.00  0.00     0.049 A 
ATOM     23  H   UNL     1      -1.089   7.492  14.650  1.00  0.00     0.167 HD
ATOM     24  C   UNL     1      -1.789   9.895  11.049  1.00  0.00     0.037 A 
ATOM     25  C   UNL     1      -1.530   6.726  17.307  1.00  0.00     0.037 A 
ATOM     26  C   UNL     1      -2.878  10.200  11.943  1.00  0.00     0.049 A 
ATOM     27  C   UNL     1      -2.623   7.693  16.964  1.00  0.00     0.074 A 
ATOM     28  C   UNL     1      -3.971  11.018  11.719  1.00  0.00     0.029 A 
ATOM     29  N   UNL     1      -3.006   9.711  13.236  1.00  0.00    -0.354 N 
ATOM     30  N   UNL     1      -2.821   8.341  15.840  1.00  0.00    -0.248 NA
ATOM     31  C   UNL     1      -3.616   7.973  18.007  1.00  0.00     0.031 C 
ATOM     32  C   UNL     1      -4.730  11.066  12.893  1.00  0.00     0.029 A 
ATOM     33  C   UNL     1      -4.142  10.234  13.833  1.00  0.00     0.049 A 
ATOM     34  H   UNL     1      -2.380   9.084  13.667  1.00  0.00     0.167 HD
ATOM     35  C   UNL     1      -3.969   9.097  16.035  1.00  0.00     0.074 A 
ATOM     36  C   UNL     1      -4.430   8.814  17.381  1.00  0.00     0.031 C 
ATOM     37  C   UNL     1      -4.585   9.946  15.176  1.00  0.00     0.037 A 
BRANCH  24  38
ATOM     38  C   UNL     1      -1.736  10.593   9.717  1.00  0.00     0.058 A 
ATOM     39  C   UNL     1      -1.951   9.910   8.509  1.00  0.00     0.135 A 
ATOM     40  C   UNL     1      -1.477  11.973   9.648  1.00  0.00     0.135 A 
ATOM     41  F   UNL     1      -2.193   8.589   8.513  1.00  0.00    -0.206 F 
ATOM     42  C   UNL     1      -1.867  10.558   7.280  1.00  0.00     0.059 A 
ATOM     43  C   UNL     1      -1.416  12.647   8.431  1.00  0.00     0.059 A 
ATOM     44  F   UNL     1      -1.270  12.678  10.770  1.00  0.00    -0.206 F 
ATOM     45  C   UNL     1      -1.589  11.926   7.251  1.00  0.00     0.060 A 
BRANCH  45  46
ATOM     46  S   UNL     1      -1.445  12.746   5.649  1.00  0.00     0.124 S 
ATOM     47  O   UNL     1      -0.151  12.252   5.187  1.00  0.00    -0.237 OA
ATOM     48  O   UNL     1      -2.609  12.238   4.930  1.00  0.00    -0.237 OA
ATOM     49  O   UNL     1      -1.490  14.165   5.987  1.00  0.00    -0.744 OA
ENDBRANCH  45  46
ENDBRANCH  24  38
BRANCH  25  50
ATOM     50  C   UNL     1      -1.420   6.110  18.655  1.00  0.00     0.058 A 
ATOM     51  C   UNL     1      -2.309   5.111  19.073  1.00  0.00     0.135 A 
ATOM     52  C   UNL     1      -0.368   6.457  19.520  1.00  0.00     0.135 A 
ATOM     53  F   UNL     1      -3.331   4.749  18.283  1.00  0.00    -0.206 F 
ATOM     54  C   UNL     1      -2.158   4.471  20.299  1.00  0.00     0.059 A 
ATOM     55  C   UNL     1      -0.181   5.814  20.738  1.00  0.00     0.059 A 
ATOM     56  F   UNL     1       0.521   7.393  19.154  1.00  0.00    -0.206 F 
ATOM     57  C   UNL     1      -1.084   4.823  21.120  1.00  0.00     0.060 A 
BRANCH  57  58
ATOM     58  S   UNL     1      -0.845   3.924  22.668  1.00  0.00     0.124 S 
ATOM     59  O   UNL     1      -1.916   4.471  23.493  1.00  0.00    -0.237 OA
ATOM     60  O   UNL     1      -1.008   2.537  22.245  1.00  0.00    -0.237 OA
ATOM     61  O   UNL     1       0.510   4.294  23.065  1.00  0.00    -0.744 OA
ENDBRANCH  57  58
ENDBRANCH  25  50
BRANCH  37  62
ATOM     62  C   UNL     1      -5.841  10.620  15.654  1.00  0.00     0.058 A 
ATOM     63  C   UNL     1      -5.804  11.671  16.583  1.00  0.00     0.135 A 
ATOM     64  C   UNL     1      -7.088  10.255  15.122  1.00  0.00     0.135 A 
ATOM     65  F   UNL     1      -4.638  12.050  17.130  1.00  0.00    -0.206 F 
ATOM     66  C   UNL     1      -6.964  12.332  16.976  1.00  0.00     0.059 A 
ATOM     67  C   UNL     1      -8.257  10.919  15.482  1.00  0.00     0.059 A 
ATOM     68  F   UNL     1      -7.176   9.260  14.226  1.00  0.00    -0.206 F 
ATOM     69  C   UNL     1      -8.185  11.953  16.414  1.00  0.00     0.060 A 
BRANCH  69  70
ATOM     70  S   UNL     1      -9.673  12.857  16.888  1.00  0.00     0.124 S 
ATOM     71  O   UNL     1      -9.905  12.356  18.239  1.00  0.00    -0.237 OA
ATOM     72  O   UNL     1      -9.238  14.247  16.793  1.00  0.00    -0.237 OA
ATOM     73  O   UNL     1     -10.654  12.445  15.889  1.00  0.00    -0.744 OA
ENDBRANCH  69  70
ENDBRANCH  37  62
ENDBRANCH  11  12
ENDBRANCH   4   6
ENDBRANCH   1   2
BRANCH   1  74
ATOM     74  C   UNL     1       5.336   2.487   8.826  1.00  0.00     0.042 C 
BRANCH  74  75
ATOM     75  C   UNL     1       6.500   1.658   8.302  1.00  0.00     0.117 C 
BRANCH  75  76
ATOM     76  N   UNL     1       6.213   0.230   8.300  1.00  0.00    -0.355 N 
ATOM     77  C   UNL     1       6.033  -0.676   7.296  1.00  0.00     0.232 C 
ATOM     78  H   UNL     1       6.133  -0.159   9.201  1.00  0.00     0.163 HD
ATOM     79  O   UNL     1       5.824  -1.837   7.665  1.00  0.00    -0.274 OA
BRANCH  77  80
ATOM     80  C   UNL     1       6.128  -0.301   5.796  1.00  0.00     0.104 C 
ATOM     81  C   UNL     1       5.053   0.764   5.459  1.00  0.00     0.029 C 
ATOM     82  C   UNL     1       7.583   0.182   5.541  1.00  0.00     0.277 C 
ATOM     83  C   UNL     1       5.404   1.682   4.290  1.00  0.00     0.063 C 
ATOM     84  N   UNL     1       7.784   1.035   4.366  1.00  0.00    -0.345 N 
ATOM     85  C   UNL     1       6.850   2.154   4.324  1.00  0.00     0.260 C 
ATOM     86  H   UNL     1       8.735   1.403   4.388  1.00  0.00     0.346 HD
ATOM     87  H   UNL     1       7.623   0.464   3.536  1.00  0.00     0.346 HD
BRANCH  80  88
ATOM     88  C   UNL     1       5.835  -1.621   4.996  1.00  0.00     0.080 C 
BRANCH  88  89
ATOM     89  C   UNL     1       5.865  -1.506   3.509  1.00  0.00     0.061 A 
ATOM     90  C   UNL     1       6.959  -1.390   2.675  1.00  0.00     0.116 A 
ATOM     91  N   UNL     1       4.697  -1.460   2.777  1.00  0.00    -0.234 NA
ATOM     92  N   UNL     1       6.449  -1.052   1.452  1.00  0.00    -0.307 N 
ATOM     93  C   UNL     1       5.069  -1.178   1.545  1.00  0.00     0.136 A 
ATOM     94  C   UNL     1       7.112  -0.610   0.311  1.00  0.00     0.093 A 
ATOM     95  C   UNL     1       4.317  -0.918   0.364  1.00  0.00     0.048 A 
ATOM     96  C   UNL     1       6.394  -0.311  -0.785  1.00  0.00     0.018 A 
ATOM     97  C   UNL     1       4.950  -0.498  -0.750  1.00  0.00     0.005 A 
ENDBRANCH  88  89
ENDBRANCH  80  88
ENDBRANCH  77  80
ENDBRANCH  75  76
ENDBRANCH  74  75
ENDBRANCH   1  74
TORSDOF 15
