REMARK SMILES O=C(NCCCNC(=O)c1cc(N2C(=O)[C@H]3[C@@H]4C=C[C@@H]([C@@H]5C[C@H]45)[C@@H]3C2=O)ccc1Cl)c1ccc(-c2c3nc(c(-c4c(F)cc(S(=O)(=O)[O-])cc4F)c4ccc([nH]4)c(-c4c(F)cc(S(=O)(=O)[O-])cc4F)c4nc(c(-c5c(F)cc(S(=O)(=O)[O-])cc5F)c5ccc2[nH]5)C=C4)C=C3)cc1
REMARK SMILES IDX 4 1 3 2 1 3 2 4 31 6 32 7 96 8 33 9 95 10 34 11 35 12 36 13
REMARK SMILES IDX 89 14 37 15 94 16 88 17 90 18 38 19 93 20 87 21 86 22 39 24
REMARK SMILES IDX 73 25 52 26 72 27 53 28 56 29 71 30 91 31 54 32 55 33 70 35
REMARK SMILES IDX 92 36 57 37 40 38 41 39 50 40 42 41 43 42 49 43 51 44 44 45
REMARK SMILES IDX 45 46 46 47 47 48 48 49 74 50 75 51 84 52 76 53 77 54 83 55
REMARK SMILES IDX 85 56 78 57 79 58 80 59 81 60 82 61 58 62 59 63 68 64 60 65
REMARK SMILES IDX 61 66 67 67 69 68 62 69 63 70 64 71 65 72 66 73 5 74 6 75
REMARK SMILES IDX 7 76 8 77 9 79 10 80 11 81 29 82 12 83 28 84 30 85 27 86
REMARK SMILES IDX 13 87 14 88 25 89 15 90 16 91 24 92 26 93 17 94 20 95 18 96
REMARK SMILES IDX 23 97 19 98 21 99 22 100
REMARK H PARENT 3 5 90 23 56 34 7 78
REMARK Flexibility Score: inf
ROOT
ATOM      1  C   UNL     1       4.472  -0.124  -1.323  1.00  0.00     0.118 C 
ENDROOT
BRANCH   1   2
ATOM      2  N   UNL     1       3.030  -0.015  -1.131  1.00  0.00    -0.352 N 
ATOM      3  O   UNL     1       1.065  -0.068  -0.031  1.00  0.00    -0.269 OA
ATOM      4  C   UNL     1       2.289   0.007   0.028  1.00  0.00     0.251 C 
ATOM      5  H   UNL     1       2.505   0.053  -1.960  1.00  0.00     0.163 HD
BRANCH   4   6
ATOM      6  C   UNL     1       2.969   0.094   1.338  1.00  0.00     0.039 A 
ATOM      7  C   UNL     1       4.060   0.944   1.512  1.00  0.00     0.014 A 
ATOM      8  C   UNL     1       2.512  -0.684   2.405  1.00  0.00     0.014 A 
ATOM      9  C   UNL     1       4.811   0.872   2.676  1.00  0.00     0.010 A 
ATOM     10  C   UNL     1       3.196  -0.658   3.625  1.00  0.00     0.010 A 
ATOM     11  C   UNL     1       4.373   0.094   3.759  1.00  0.00    -0.014 A 
BRANCH  11  12
ATOM     12  C   UNL     1       5.122   0.163   5.040  1.00  0.00     0.031 A 
ATOM     13  C   UNL     1       5.771  -1.054   5.636  1.00  0.00     0.074 A 
ATOM     14  C   UNL     1       5.232   1.361   5.649  1.00  0.00     0.049 A 
ATOM     15  N   UNL     1       6.466  -1.154   6.741  1.00  0.00    -0.248 NA
ATOM     16  C   UNL     1       5.618  -2.325   4.910  1.00  0.00     0.031 C 
ATOM     17  C   UNL     1       4.630   2.608   5.165  1.00  0.00     0.029 A 
ATOM     18  N   UNL     1       5.895   1.737   6.787  1.00  0.00    -0.354 N 
ATOM     19  C   UNL     1       6.814  -2.495   6.857  1.00  0.00     0.074 A 
ATOM     20  C   UNL     1       6.233  -3.177   5.720  1.00  0.00     0.031 C 
ATOM     21  C   UNL     1       4.990   3.615   5.971  1.00  0.00     0.029 A 
ATOM     22  C   UNL     1       5.778   3.077   7.072  1.00  0.00     0.049 A 
ATOM     23  H   UNL     1       6.406   1.109   7.347  1.00  0.00     0.167 HD
ATOM     24  C   UNL     1       7.553  -3.095   7.822  1.00  0.00     0.037 A 
ATOM     25  C   UNL     1       6.226   3.795   8.118  1.00  0.00     0.037 A 
ATOM     26  C   UNL     1       8.134  -2.396   8.943  1.00  0.00     0.049 A 
ATOM     27  C   UNL     1       7.019   3.100   9.185  1.00  0.00     0.074 A 
ATOM     28  C   UNL     1       8.934  -2.906   9.951  1.00  0.00     0.029 A 
ATOM     29  N   UNL     1       7.971  -1.044   9.211  1.00  0.00    -0.354 N 
ATOM     30  N   UNL     1       7.369   1.838   9.258  1.00  0.00    -0.248 NA
ATOM     31  C   UNL     1       7.477   3.922  10.311  1.00  0.00     0.031 C 
ATOM     32  C   UNL     1       9.202  -1.878  10.861  1.00  0.00     0.029 A 
ATOM     33  C   UNL     1       8.628  -0.709  10.385  1.00  0.00     0.049 A 
ATOM     34  H   UNL     1       7.463  -0.414   8.650  1.00  0.00     0.167 HD
ATOM     35  C   UNL     1       8.106   1.717  10.429  1.00  0.00     0.074 A 
ATOM     36  C   UNL     1       8.166   3.039  11.021  1.00  0.00     0.031 C 
ATOM     37  C   UNL     1       8.679   0.611  10.965  1.00  0.00     0.037 A 
BRANCH  24  38
ATOM     38  C   UNL     1       7.761  -4.584   7.732  1.00  0.00     0.058 A 
ATOM     39  C   UNL     1       8.579  -5.165   6.750  1.00  0.00     0.135 A 
ATOM     40  C   UNL     1       7.180  -5.440   8.684  1.00  0.00     0.135 A 
ATOM     41  F   UNL     1       9.151  -4.400   5.806  1.00  0.00    -0.206 F 
ATOM     42  C   UNL     1       8.795  -6.540   6.700  1.00  0.00     0.059 A 
ATOM     43  C   UNL     1       7.405  -6.814   8.671  1.00  0.00     0.059 A 
ATOM     44  F   UNL     1       6.389  -4.941   9.647  1.00  0.00    -0.206 F 
ATOM     45  C   UNL     1       8.205  -7.356   7.667  1.00  0.00     0.060 A 
BRANCH  45  46
ATOM     46  S   UNL     1       8.505  -9.135   7.593  1.00  0.00     0.124 S 
ATOM     47  O   UNL     1       7.742  -9.510   6.406  1.00  0.00    -0.237 OA
ATOM     48  O   UNL     1       9.957  -9.200   7.458  1.00  0.00    -0.237 OA
ATOM     49  O   UNL     1       7.973  -9.625   8.861  1.00  0.00    -0.744 OA
ENDBRANCH  45  46
ENDBRANCH  24  38
BRANCH  25  50
ATOM     50  C   UNL     1       5.909   5.245   8.203  1.00  0.00     0.058 A 
ATOM     51  C   UNL     1       6.910   6.217   8.066  1.00  0.00     0.135 A 
ATOM     52  C   UNL     1       4.588   5.687   8.383  1.00  0.00     0.135 A 
ATOM     53  F   UNL     1       8.188   5.846   7.895  1.00  0.00    -0.206 F 
ATOM     54  C   UNL     1       6.615   7.575   8.118  1.00  0.00     0.059 A 
ATOM     55  C   UNL     1       4.264   7.038   8.405  1.00  0.00     0.059 A 
ATOM     56  F   UNL     1       3.590   4.796   8.498  1.00  0.00    -0.206 F 
ATOM     57  C   UNL     1       5.288   7.976   8.283  1.00  0.00     0.060 A 
BRANCH  57  58
ATOM     58  S   UNL     1       4.911   9.741   8.295  1.00  0.00     0.124 S 
ATOM     59  O   UNL     1       5.454  10.147   9.586  1.00  0.00    -0.237 OA
ATOM     60  O   UNL     1       5.634  10.216   7.119  1.00  0.00    -0.237 OA
ATOM     61  O   UNL     1       3.456   9.775   8.183  1.00  0.00    -0.744 OA
ENDBRANCH  57  58
ENDBRANCH  25  50
BRANCH  37  62
ATOM     62  C   UNL     1       9.453   0.789  12.242  1.00  0.00     0.058 A 
ATOM     63  C   UNL     1       8.816   1.055  13.465  1.00  0.00     0.135 A 
ATOM     64  C   UNL     1      10.851   0.652  12.249  1.00  0.00     0.135 A 
ATOM     65  F   UNL     1       7.483   1.206  13.513  1.00  0.00    -0.206 F 
ATOM     66  C   UNL     1       9.539   1.205  14.643  1.00  0.00     0.059 A 
ATOM     67  C   UNL     1      11.591   0.765  13.421  1.00  0.00     0.059 A 
ATOM     68  F   UNL     1      11.511   0.390  11.109  1.00  0.00    -0.206 F 
ATOM     69  C   UNL     1      10.927   1.055  14.612  1.00  0.00     0.060 A 
BRANCH  69  70
ATOM     70  S   UNL     1      11.849   1.220  16.154  1.00  0.00     0.124 S 
ATOM     71  O   UNL     1      11.768   2.658  16.393  1.00  0.00    -0.237 OA
ATOM     72  O   UNL     1      11.082   0.381  17.068  1.00  0.00    -0.237 OA
ATOM     73  O   UNL     1      13.176   0.716  15.813  1.00  0.00    -0.744 OA
ENDBRANCH  69  70
ENDBRANCH  37  62
ENDBRANCH  11  12
ENDBRANCH   4   6
ENDBRANCH   1   2
BRANCH   1  74
ATOM     74  C   UNL     1       4.891  -1.444  -1.948  1.00  0.00     0.042 C 
BRANCH  74  75
ATOM     75  C   UNL     1       4.340  -1.663  -3.345  1.00  0.00     0.118 C 
BRANCH  75  76
ATOM     76  N   UNL     1       4.750  -0.621  -4.274  1.00  0.00    -0.352 N 
ATOM     77  C   UNL     1       5.484  -0.720  -5.424  1.00  0.00     0.252 C 
ATOM     78  H   UNL     1       4.455   0.289  -4.042  1.00  0.00     0.163 HD
ATOM     79  O   UNL     1       5.811   0.289  -6.043  1.00  0.00    -0.269 OA
BRANCH  77  80
ATOM     80  C   UNL     1       5.937  -2.031  -5.909  1.00  0.00     0.060 A 
ATOM     81  C   UNL     1       7.323  -2.198  -6.061  1.00  0.00     0.042 A 
ATOM     82  C   UNL     1       5.052  -3.049  -6.286  1.00  0.00     0.053 A 
ATOM     83  C   UNL     1       7.819  -3.376  -6.616  1.00  0.00     0.053 A 
ATOM     84  C   UNL     1       5.559  -4.262  -6.747  1.00  0.00     0.023 A 
ATOM     85  Cl  UNL     1       3.333  -2.873  -6.267  1.00  0.00    -0.083 Cl
ATOM     86  C   UNL     1       6.932  -4.415  -6.934  1.00  0.00     0.028 A 
BRANCH  83  87
ATOM     87  N   UNL     1       9.200  -3.578  -6.793  1.00  0.00    -0.250 N 
ATOM     88  C   UNL     1      10.126  -3.428  -5.747  1.00  0.00     0.238 C 
ATOM     89  C   UNL     1       9.736  -4.289  -7.887  1.00  0.00     0.238 C 
ATOM     90  O   UNL     1       9.960  -3.024  -4.609  1.00  0.00    -0.274 OA
ATOM     91  C   UNL     1      11.416  -3.887  -6.346  1.00  0.00     0.100 C 
ATOM     92  C   UNL     1      10.876  -4.996  -7.253  1.00  0.00     0.100 C 
ATOM     93  O   UNL     1       9.292  -4.465  -9.004  1.00  0.00    -0.274 OA
ATOM     94  C   UNL     1      12.695  -4.383  -5.651  1.00  0.00     0.028 C 
ATOM     95  C   UNL     1      12.021  -5.894  -7.693  1.00  0.00     0.028 C 
ATOM     96  C   UNL     1      13.683  -4.329  -6.843  1.00  0.00    -0.026 C 
ATOM     97  C   UNL     1      12.690  -5.865  -5.231  1.00  0.00     0.001 C 
ATOM     98  C   UNL     1      13.297  -5.064  -7.913  1.00  0.00    -0.026 C 
ATOM     99  C   UNL     1      12.311  -6.768  -6.416  1.00  0.00     0.001 C 
ATOM    100  C   UNL     1      11.514  -6.788  -5.108  1.00  0.00     0.009 C 
ENDBRANCH  83  87
ENDBRANCH  77  80
ENDBRANCH  75  76
ENDBRANCH  74  75
ENDBRANCH   1  74
TORSDOF 14
