REMARK SMILES C[C@@H]1CCC[C@H](C)[N@H+]1Cc1cc2c(cc1Cl)C=C(C(=O)NCCCNC(=O)c1ccc(-c3c4nc(c(-c5c(F)cc(S(=O)(=O)[O-])cc5F)c5ccc([nH]5)c(-c5c(F)cc(S(=O)(=O)[O-])cc5F)c5nc(c(-c6c(F)cc(S(=O)(=O)[O-])cc6F)c6ccc3[nH]6)C=C5)C=C4)cc1)[C@@H](C(F)(F)F)O2
REMARK SMILES IDX 23 1 22 2 21 3 19 4 20 5 18 7 10 8 11 9 15 10 12 11 14 12
REMARK SMILES IDX 16 13 13 14 99 15 17 16 94 17 9 18 8 19 7 20 6 21 5 22 4 23
REMARK SMILES IDX 2 24 3 26 1 27 95 28 96 29 97 30 98 31 24 32 25 33 26 34
REMARK SMILES IDX 27 36 28 37 29 38 93 39 30 40 92 41 31 42 32 43 33 44 86 45
REMARK SMILES IDX 34 46 91 47 85 48 87 49 35 50 90 51 84 52 83 53 36 55 70 56
REMARK SMILES IDX 49 57 69 58 50 59 53 60 68 61 88 62 51 63 52 64 67 66 89 67
REMARK SMILES IDX 54 68 37 69 38 70 47 71 39 72 40 73 46 74 48 75 41 76 42 77
REMARK SMILES IDX 43 78 44 79 45 80 71 81 72 82 81 83 73 84 74 85 80 86 82 87
REMARK SMILES IDX 75 88 76 89 77 90 78 91 79 92 55 93 56 94 65 95 57 96 58 97
REMARK SMILES IDX 64 98 66 99 59 100 60 101 61 102 62 103 63 104
REMARK H PARENT 21 6 8 25 25 35 87 54 53 65
REMARK Flexibility Score: inf
ROOT
ATOM      1  C   UNL     1       4.250   7.959   6.545  1.00  0.00     0.042 C 
ENDROOT
BRANCH   1   2
ATOM      2  C   UNL     1       2.854   8.436   6.178  1.00  0.00     0.118 C 
BRANCH   2   3
ATOM      3  N   UNL     1       2.772   8.833   4.782  1.00  0.00    -0.352 N 
ATOM      4  C   UNL     1       2.114   8.409   3.679  1.00  0.00     0.251 C 
ATOM      5  O   UNL     1       2.289   9.089   2.663  1.00  0.00    -0.270 OA
ATOM      6  H   UNL     1       3.342   9.612   4.589  1.00  0.00     0.163 HD
BRANCH   4   7
ATOM      7  C   UNL     1       1.234   7.213   3.623  1.00  0.00     0.067 C 
ATOM      8  C   UNL     1      -1.425   3.335   1.828  1.00  0.00     0.029 A 
ATOM      9  C   UNL     1      -0.538   3.505   2.905  1.00  0.00     0.058 A 
ATOM     10  C   UNL     1      -1.871   4.485   1.152  1.00  0.00     0.050 A 
ATOM     11  C   UNL     1       0.020   4.751   3.163  1.00  0.00     0.128 A 
ATOM     12  C   UNL     1      -1.264   5.725   1.381  1.00  0.00     0.033 A 
ATOM     13  Cl  UNL     1      -3.156   4.451  -0.003  1.00  0.00    -0.084 Cl
ATOM     14  C   UNL     1      -0.275   5.845   2.351  1.00  0.00     0.019 A 
ATOM     15  O   UNL     1       0.917   4.831   4.193  1.00  0.00    -0.475 OA
ATOM     16  C   UNL     1       0.523   7.056   2.491  1.00  0.00     0.025 C 
ATOM     17  C   UNL     1       1.113   6.179   4.707  1.00  0.00     0.314 C 
BRANCH   8  18
ATOM     18  C   UNL     1      -1.752   1.923   1.388  1.00  0.00     0.301 C 
BRANCH  18  19
ATOM     19  N   UNL     1      -0.809   1.301   0.428  1.00  0.00    -0.327 N 
ATOM     20  C   UNL     1       0.984  -0.405   0.478  1.00  0.00     0.075 C 
ATOM     21  C   UNL     1       0.523   0.975   0.970  1.00  0.00     0.181 C 
ATOM     22  C   UNL     1       1.611   2.028   0.691  1.00  0.00     0.065 C 
ATOM     23  C   UNL     1       1.630   2.505  -0.753  1.00  0.00     0.012 C 
ATOM     24  C   UNL     1      -0.840   1.881  -0.924  1.00  0.00     0.181 C 
ATOM     25  H   UNL     1      -1.195   0.369   0.276  1.00  0.00     0.348 HD
ATOM     26  C   UNL     1       0.240   2.942  -1.194  1.00  0.00     0.065 C 
ATOM     27  C   UNL     1      -0.810   0.788  -2.002  1.00  0.00     0.075 C 
ENDBRANCH  18  19
ENDBRANCH   8  18
BRANCH  17  28
ATOM     28  C   UNL     1      -0.003   6.541   5.714  1.00  0.00     0.429 C 
ATOM     29  F   UNL     1       0.150   5.854   6.871  1.00  0.00    -0.167 F 
ATOM     30  F   UNL     1       0.011   7.858   6.041  1.00  0.00    -0.167 F 
ATOM     31  F   UNL     1      -1.246   6.280   5.249  1.00  0.00    -0.167 F 
ENDBRANCH  17  28
ENDBRANCH   4   7
ENDBRANCH   2   3
ENDBRANCH   1   2
BRANCH   1  32
ATOM     32  C   UNL     1       5.214   9.116   6.757  1.00  0.00     0.118 C 
BRANCH  32  33
ATOM     33  N   UNL     1       4.874   9.903   7.941  1.00  0.00    -0.352 N 
ATOM     34  C   UNL     1       5.524  10.014   9.147  1.00  0.00     0.251 C 
ATOM     35  H   UNL     1       4.050  10.436   7.863  1.00  0.00     0.163 HD
ATOM     36  O   UNL     1       4.955  10.538  10.101  1.00  0.00    -0.269 OA
BRANCH  34  37
ATOM     37  C   UNL     1       6.894   9.483   9.292  1.00  0.00     0.039 A 
ATOM     38  C   UNL     1       7.822   9.665   8.268  1.00  0.00     0.014 A 
ATOM     39  C   UNL     1       7.251   8.782  10.447  1.00  0.00     0.014 A 
ATOM     40  C   UNL     1       9.021   8.971   8.300  1.00  0.00     0.010 A 
ATOM     41  C   UNL     1       8.511   8.182  10.529  1.00  0.00     0.010 A 
ATOM     42  C   UNL     1       9.386   8.225   9.432  1.00  0.00    -0.014 A 
BRANCH  42  43
ATOM     43  C   UNL     1      10.683   7.500   9.427  1.00  0.00     0.031 A 
ATOM     44  C   UNL     1      10.727   5.998   9.528  1.00  0.00     0.074 A 
ATOM     45  C   UNL     1      11.819   8.202   9.240  1.00  0.00     0.049 A 
ATOM     46  N   UNL     1      11.768   5.205   9.521  1.00  0.00    -0.248 NA
ATOM     47  C   UNL     1       9.441   5.293   9.658  1.00  0.00     0.031 C 
ATOM     48  C   UNL     1      11.895   9.660   9.104  1.00  0.00     0.029 A 
ATOM     49  N   UNL     1      13.118   7.791   9.088  1.00  0.00    -0.354 N 
ATOM     50  C   UNL     1      11.268   3.915   9.665  1.00  0.00     0.074 A 
ATOM     51  C   UNL     1       9.831   4.032   9.787  1.00  0.00     0.031 C 
ATOM     52  C   UNL     1      13.155  10.011   8.809  1.00  0.00     0.029 A 
ATOM     53  C   UNL     1      13.992   8.818   8.819  1.00  0.00     0.049 A 
ATOM     54  H   UNL     1      13.398   6.850   9.164  1.00  0.00     0.167 HD
ATOM     55  C   UNL     1      11.945   2.742   9.680  1.00  0.00     0.037 A 
ATOM     56  C   UNL     1      15.323   8.806   8.619  1.00  0.00     0.037 A 
ATOM     57  C   UNL     1      13.373   2.635   9.530  1.00  0.00     0.049 A 
ATOM     58  C   UNL     1      16.054   7.498   8.691  1.00  0.00     0.074 A 
ATOM     59  C   UNL     1      14.156   1.493   9.535  1.00  0.00     0.029 A 
ATOM     60  N   UNL     1      14.233   3.707   9.338  1.00  0.00    -0.354 N 
ATOM     61  N   UNL     1      15.566   6.293   8.863  1.00  0.00    -0.248 NA
ATOM     62  C   UNL     1      17.516   7.548   8.564  1.00  0.00     0.031 C 
ATOM     63  C   UNL     1      15.492   1.878   9.381  1.00  0.00     0.029 A 
ATOM     64  C   UNL     1      15.538   3.256   9.238  1.00  0.00     0.049 A 
ATOM     65  H   UNL     1      13.956   4.650   9.281  1.00  0.00     0.167 HD
ATOM     66  C   UNL     1      16.661   5.438   8.861  1.00  0.00     0.074 A 
ATOM     67  C   UNL     1      17.834   6.263   8.648  1.00  0.00     0.031 C 
ATOM     68  C   UNL     1      16.692   4.094   9.029  1.00  0.00     0.037 A 
BRANCH  55  69
ATOM     69  C   UNL     1      11.155   1.476   9.872  1.00  0.00     0.058 A 
ATOM     70  C   UNL     1      10.350   0.948   8.851  1.00  0.00     0.135 A 
ATOM     71  C   UNL     1      11.246   0.753  11.073  1.00  0.00     0.135 A 
ATOM     72  F   UNL     1      10.211   1.608   7.690  1.00  0.00    -0.206 F 
ATOM     73  C   UNL     1       9.650  -0.243   9.019  1.00  0.00     0.059 A 
ATOM     74  C   UNL     1      10.574  -0.453  11.255  1.00  0.00     0.059 A 
ATOM     75  F   UNL     1      12.001   1.214  12.084  1.00  0.00    -0.206 F 
ATOM     76  C   UNL     1       9.770  -0.937  10.225  1.00  0.00     0.060 A 
BRANCH  76  77
ATOM     77  S   UNL     1       8.862  -2.486  10.418  1.00  0.00     0.124 S 
ATOM     78  O   UNL     1       7.486  -2.007  10.512  1.00  0.00    -0.237 OA
ATOM     79  O   UNL     1       9.201  -3.201   9.192  1.00  0.00    -0.237 OA
ATOM     80  O   UNL     1       9.413  -3.053  11.645  1.00  0.00    -0.744 OA
ENDBRANCH  76  77
ENDBRANCH  55  69
BRANCH  56  81
ATOM     81  C   UNL     1      16.039  10.079   8.343  1.00  0.00     0.058 A 
ATOM     82  C   UNL     1      16.584  10.340   7.078  1.00  0.00     0.135 A 
ATOM     83  C   UNL     1      16.156  11.076   9.325  1.00  0.00     0.135 A 
ATOM     84  F   UNL     1      16.502   9.415   6.109  1.00  0.00    -0.206 F 
ATOM     85  C   UNL     1      17.221  11.543   6.795  1.00  0.00     0.059 A 
ATOM     86  C   UNL     1      16.764  12.297   9.058  1.00  0.00     0.059 A 
ATOM     87  F   UNL     1      15.638  10.880  10.548  1.00  0.00    -0.206 F 
ATOM     88  C   UNL     1      17.300  12.519   7.791  1.00  0.00     0.060 A 
BRANCH  88  89
ATOM     89  S   UNL     1      18.071  14.102   7.393  1.00  0.00     0.124 S 
ATOM     90  O   UNL     1      19.480  13.734   7.324  1.00  0.00    -0.237 OA
ATOM     91  O   UNL     1      17.436  14.441   6.122  1.00  0.00    -0.237 OA
ATOM     92  O   UNL     1      17.693  14.952   8.518  1.00  0.00    -0.744 OA
ENDBRANCH  88  89
ENDBRANCH  56  81
BRANCH  68  93
ATOM     93  C   UNL     1      18.037   3.428   8.981  1.00  0.00     0.058 A 
ATOM     94  C   UNL     1      18.938   3.525  10.052  1.00  0.00     0.135 A 
ATOM     95  C   UNL     1      18.402   2.637   7.880  1.00  0.00     0.135 A 
ATOM     96  F   UNL     1      18.638   4.277  11.122  1.00  0.00    -0.206 F 
ATOM     97  C   UNL     1      20.165   2.870  10.027  1.00  0.00     0.059 A 
ATOM     98  C   UNL     1      19.614   1.954   7.845  1.00  0.00     0.059 A 
ATOM     99  F   UNL     1      17.571   2.507   6.835  1.00  0.00    -0.206 F 
ATOM    100  C   UNL     1      20.491   2.083   8.921  1.00  0.00     0.060 A 
BRANCH 100 101
ATOM    101  S   UNL     1      22.068   1.205   8.924  1.00  0.00     0.124 S 
ATOM    102  O   UNL     1      23.014   2.297   8.720  1.00  0.00    -0.237 OA
ATOM    103  O   UNL     1      22.081   0.594  10.250  1.00  0.00    -0.237 OA
ATOM    104  O   UNL     1      21.939   0.270   7.811  1.00  0.00    -0.744 OA
ENDBRANCH 100 101
ENDBRANCH  68  93
ENDBRANCH  42  43
ENDBRANCH  34  37
ENDBRANCH  32  33
ENDBRANCH   1  32
TORSDOF 16
