REMARK SMILES Nc1cc(=O)[nH]c(SCC(=O)Nc2ccccc2C(=O)NCCCNC(=O)c2ccc(-c3c4nc(c(-c5c(F)cc(S(=O)(=O)[O-])cc5F)c5ccc([nH]5)c(-c5c(F)cc(S(=O)(=O)[O-])cc5F)c5nc(c(-c6c(F)cc(S(=O)(=O)[O-])cc6F)c6ccc3[nH]6)C=C5)C=C4)cc2)n1
REMARK SMILES IDX 22 1 21 2 19 3 20 4 18 6 13 7 14 8 15 9 17 10 16 11 12 12
REMARK SMILES IDX 10 13 11 14 9 16 8 17 7 18 2 19 3 20 94 21 4 22 5 23 6 24
REMARK SMILES IDX 1 26 23 29 24 30 25 31 26 32 27 34 28 35 29 36 93 37 30 38
REMARK SMILES IDX 92 39 31 40 32 41 33 42 86 43 34 44 91 45 85 46 87 47 35 48
REMARK SMILES IDX 90 49 84 50 83 51 36 53 70 54 49 55 69 56 50 57 53 58 68 59
REMARK SMILES IDX 88 60 51 61 52 62 67 64 89 65 54 66 37 67 38 68 47 69 39 70
REMARK SMILES IDX 40 71 46 72 48 73 41 74 42 75 43 76 44 77 45 78 71 79 72 80
REMARK SMILES IDX 81 81 73 82 74 83 80 84 82 85 75 86 76 87 77 88 78 89 79 90
REMARK SMILES IDX 55 91 56 92 65 93 57 94 58 95 64 96 66 97 59 98 60 99 61 100
REMARK SMILES IDX 62 101 63 102
REMARK H PARENT 21 5 12 15 6 25 1 27 1 28 25 33 87 52 53 63
REMARK Flexibility Score: inf
ROOT
ATOM      1  C   UNL     1       2.035   2.372   2.806  1.00  0.00     0.118 C 
ENDROOT
BRANCH   1   2
ATOM      2  N   UNL     1       0.706   2.184   2.259  1.00  0.00    -0.352 N 
ATOM      3  C   UNL     1      -0.272   3.114   1.999  1.00  0.00     0.253 C 
ATOM      4  O   UNL     1      -1.377   2.711   1.628  1.00  0.00    -0.269 OA
ATOM      5  H   UNL     1       0.469   1.254   2.042  1.00  0.00     0.163 HD
BRANCH   3   6
ATOM      6  C   UNL     1      -0.101   4.575   2.226  1.00  0.00     0.063 A 
ATOM      7  C   UNL     1       1.054   5.355   2.061  1.00  0.00     0.054 A 
ATOM      8  C   UNL     1       1.113   6.583   2.753  1.00  0.00     0.027 A 
ATOM      9  C   UNL     1       0.006   7.112   3.422  1.00  0.00     0.002 A 
ATOM     10  C   UNL     1      -1.240   5.158   2.833  1.00  0.00     0.016 A 
ATOM     11  C   UNL     1      -1.194   6.422   3.413  1.00  0.00     0.001 A 
BRANCH   7  12
ATOM     12  N   UNL     1       2.245   5.032   1.384  1.00  0.00    -0.325 N 
ATOM     13  C   UNL     1       2.596   4.351   0.254  1.00  0.00     0.234 C 
ATOM     14  O   UNL     1       3.771   3.945   0.245  1.00  0.00    -0.274 OA
ATOM     15  H   UNL     1       3.034   5.394   1.848  1.00  0.00     0.169 HD
BRANCH  13  16
ATOM     16  C   UNL     1       1.829   4.346  -1.050  1.00  0.00     0.178 C 
BRANCH  16  17
ATOM     17  S   UNL     1       0.126   3.839  -1.088  1.00  0.00    -0.078 SA
BRANCH  17  18
ATOM     18  C   UNL     1       0.204   2.101  -1.046  1.00  0.00     0.170 A 
ATOM     19  C   UNL     1       1.145   0.031  -1.199  1.00  0.00     0.131 A 
ATOM     20  C   UNL     1      -0.021  -0.578  -0.925  1.00  0.00     0.118 A 
ATOM     21  N   UNL     1       1.270   1.403  -1.247  1.00  0.00    -0.207 NA
ATOM     22  C   UNL     1      -1.211   0.236  -0.667  1.00  0.00     0.253 A 
ATOM     23  O   UNL     1      -2.282  -0.273  -0.363  1.00  0.00    -0.269 OA
ATOM     24  N   UNL     1      -1.016   1.571  -0.781  1.00  0.00    -0.301 N 
ATOM     25  H   UNL     1      -1.783   2.176  -0.667  1.00  0.00     0.172 HD
BRANCH  19  26
ATOM     26  N   UNL     1       2.244  -0.739  -1.435  1.00  0.00    -0.383 N 
ATOM     27  H   UNL     1       2.173  -1.721  -1.405  1.00  0.00     0.158 HD
ATOM     28  H   UNL     1       3.109  -0.314  -1.636  1.00  0.00     0.158 HD
ENDBRANCH  19  26
ENDBRANCH  17  18
ENDBRANCH  16  17
ENDBRANCH  13  16
ENDBRANCH   7  12
ENDBRANCH   3   6
ENDBRANCH   1   2
BRANCH   1  29
ATOM     29  C   UNL     1       2.728   1.106   3.269  1.00  0.00     0.042 C 
BRANCH  29  30
ATOM     30  C   UNL     1       3.174   0.183   2.138  1.00  0.00     0.118 C 
BRANCH  30  31
ATOM     31  N   UNL     1       4.186   0.726   1.231  1.00  0.00    -0.352 N 
ATOM     32  C   UNL     1       5.287   0.091   0.683  1.00  0.00     0.251 C 
ATOM     33  H   UNL     1       4.068   1.670   0.977  1.00  0.00     0.163 HD
ATOM     34  O   UNL     1       6.038   0.667  -0.086  1.00  0.00    -0.269 OA
BRANCH  32  35
ATOM     35  C   UNL     1       5.579  -1.305   1.084  1.00  0.00     0.039 A 
ATOM     36  C   UNL     1       6.848  -1.615   1.582  1.00  0.00     0.014 A 
ATOM     37  C   UNL     1       4.573  -2.270   1.065  1.00  0.00     0.014 A 
ATOM     38  C   UNL     1       7.063  -2.856   2.186  1.00  0.00     0.010 A 
ATOM     39  C   UNL     1       4.760  -3.465   1.747  1.00  0.00     0.010 A 
ATOM     40  C   UNL     1       5.998  -3.761   2.337  1.00  0.00    -0.014 A 
BRANCH  40  41
ATOM     41  C   UNL     1       6.126  -4.992   3.158  1.00  0.00     0.031 A 
ATOM     42  C   UNL     1       5.882  -6.340   2.534  1.00  0.00     0.074 A 
ATOM     43  C   UNL     1       6.329  -4.883   4.488  1.00  0.00     0.049 A 
ATOM     44  N   UNL     1       5.813  -7.513   3.107  1.00  0.00    -0.248 NA
ATOM     45  C   UNL     1       5.638  -6.368   1.082  1.00  0.00     0.031 C 
ATOM     46  C   UNL     1       6.482  -3.624   5.225  1.00  0.00     0.029 A 
ATOM     47  N   UNL     1       6.418  -5.843   5.464  1.00  0.00    -0.354 N 
ATOM     48  C   UNL     1       5.482  -8.409   2.098  1.00  0.00     0.074 A 
ATOM     49  C   UNL     1       5.321  -7.640   0.884  1.00  0.00     0.031 C 
ATOM     50  C   UNL     1       6.665  -3.891   6.528  1.00  0.00     0.029 A 
ATOM     51  C   UNL     1       6.612  -5.335   6.729  1.00  0.00     0.049 A 
ATOM     52  H   UNL     1       6.349  -6.808   5.278  1.00  0.00     0.167 HD
ATOM     53  C   UNL     1       5.350  -9.754   2.172  1.00  0.00     0.037 A 
ATOM     54  C   UNL     1       6.732  -5.962   7.915  1.00  0.00     0.037 A 
ATOM     55  C   UNL     1       5.582 -10.517   3.370  1.00  0.00     0.049 A 
ATOM     56  C   UNL     1       6.670  -7.465   7.950  1.00  0.00     0.074 A 
ATOM     57  C   UNL     1       5.575 -11.892   3.529  1.00  0.00     0.029 A 
ATOM     58  N   UNL     1       5.876  -9.972   4.610  1.00  0.00    -0.354 N 
ATOM     59  N   UNL     1       6.447  -8.303   6.966  1.00  0.00    -0.248 NA
ATOM     60  C   UNL     1       6.894  -8.111   9.252  1.00  0.00     0.031 C 
ATOM     61  C   UNL     1       5.843 -12.178   4.872  1.00  0.00     0.029 A 
ATOM     62  C   UNL     1       6.052 -10.982   5.540  1.00  0.00     0.049 A 
ATOM     63  H   UNL     1       5.950  -9.009   4.802  1.00  0.00     0.167 HD
ATOM     64  C   UNL     1       6.543  -9.574   7.522  1.00  0.00     0.074 A 
ATOM     65  C   UNL     1       6.850  -9.395   8.926  1.00  0.00     0.031 C 
ATOM     66  C   UNL     1       6.391 -10.781   6.924  1.00  0.00     0.037 A 
BRANCH  53  67
ATOM     67  C   UNL     1       4.971 -10.498   0.923  1.00  0.00     0.058 A 
ATOM     68  C   UNL     1       5.875 -10.658  -0.139  1.00  0.00     0.135 A 
ATOM     69  C   UNL     1       3.716 -11.119   0.814  1.00  0.00     0.135 A 
ATOM     70  F   UNL     1       7.082 -10.070  -0.094  1.00  0.00    -0.206 F 
ATOM     71  C   UNL     1       5.545 -11.396  -1.270  1.00  0.00     0.059 A 
ATOM     72  C   UNL     1       3.374 -11.883  -0.298  1.00  0.00     0.059 A 
ATOM     73  F   UNL     1       2.813 -10.994   1.799  1.00  0.00    -0.206 F 
ATOM     74  C   UNL     1       4.294 -12.010  -1.338  1.00  0.00     0.060 A 
BRANCH  74  75
ATOM     75  S   UNL     1       3.900 -13.003  -2.793  1.00  0.00     0.124 S 
ATOM     76  O   UNL     1       3.662 -11.968  -3.795  1.00  0.00    -0.237 OA
ATOM     77  O   UNL     1       5.115 -13.790  -2.973  1.00  0.00    -0.237 OA
ATOM     78  O   UNL     1       2.722 -13.759  -2.380  1.00  0.00    -0.744 OA
ENDBRANCH  74  75
ENDBRANCH  53  67
BRANCH  54  79
ATOM     79  C   UNL     1       6.964  -5.185   9.162  1.00  0.00     0.058 A 
ATOM     80  C   UNL     1       8.208  -5.223   9.810  1.00  0.00     0.135 A 
ATOM     81  C   UNL     1       5.948  -4.413   9.745  1.00  0.00     0.135 A 
ATOM     82  F   UNL     1       9.212  -5.948   9.291  1.00  0.00    -0.206 F 
ATOM     83  C   UNL     1       8.427  -4.558  11.012  1.00  0.00     0.059 A 
ATOM     84  C   UNL     1       6.150  -3.718  10.934  1.00  0.00     0.059 A 
ATOM     85  F   UNL     1       4.747  -4.323   9.153  1.00  0.00    -0.206 F 
ATOM     86  C   UNL     1       7.388  -3.813  11.570  1.00  0.00     0.060 A 
BRANCH  86  87
ATOM     87  S   UNL     1       7.680  -2.945  13.127  1.00  0.00     0.124 S 
ATOM     88  O   UNL     1       7.599  -4.037  14.090  1.00  0.00    -0.237 OA
ATOM     89  O   UNL     1       9.007  -2.373  12.920  1.00  0.00    -0.237 OA
ATOM     90  O   UNL     1       6.590  -1.975  13.177  1.00  0.00    -0.744 OA
ENDBRANCH  86  87
ENDBRANCH  54  79
BRANCH  66  91
ATOM     91  C   UNL     1       6.621 -12.001   7.768  1.00  0.00     0.058 A 
ATOM     92  C   UNL     1       5.686 -12.426   8.724  1.00  0.00     0.135 A 
ATOM     93  C   UNL     1       7.774 -12.780   7.580  1.00  0.00     0.135 A 
ATOM     94  F   UNL     1       4.571 -11.711   8.943  1.00  0.00    -0.206 F 
ATOM     95  C   UNL     1       5.899 -13.570   9.485  1.00  0.00     0.059 A 
ATOM     96  C   UNL     1       7.995 -13.941   8.312  1.00  0.00     0.059 A 
ATOM     97  F   UNL     1       8.692 -12.421   6.669  1.00  0.00    -0.206 F 
ATOM     98  C   UNL     1       7.058 -14.321   9.272  1.00  0.00     0.060 A 
BRANCH  98  99
ATOM     99  S   UNL     1       7.312 -15.819  10.245  1.00  0.00     0.124 S 
ATOM    100  O   UNL     1       7.745 -15.268  11.524  1.00  0.00    -0.237 OA
ATOM    101  O   UNL     1       5.987 -16.431  10.235  1.00  0.00    -0.237 OA
ATOM    102  O   UNL     1       8.334 -16.542   9.493  1.00  0.00    -0.744 OA
ENDBRANCH  98  99
ENDBRANCH  66  91
ENDBRANCH  40  41
ENDBRANCH  32  35
ENDBRANCH  30  31
ENDBRANCH  29  30
ENDBRANCH   1  29
TORSDOF 18
