REMARK SMILES CC1(C)S[C@H](c2ccccc2O)[NH2+][C@H]1C(=O)NCCCNC(=O)c1ccc(-c2c3nc(c(-c4c(F)cc(S(=O)(=O)[O-])cc4F)c4ccc([nH]4)c(-c4c(F)cc(S(=O)(=O)[O-])cc4F)c4nc(c(-c5c(F)cc(S(=O)(=O)[O-])cc5F)c5ccc2[nH]5)C=C4)C=C3)cc1
REMARK SMILES IDX 19 1 18 2 17 3 15 4 16 5 14 7 1 8 2 9 3 10 4 11 5 12 13 13
REMARK SMILES IDX 6 16 7 17 11 18 8 19 10 20 9 21 12 22 20 24 21 25 22 26
REMARK SMILES IDX 23 28 24 29 25 30 89 31 26 32 88 33 27 34 28 35 29 36 82 37
REMARK SMILES IDX 30 38 87 39 81 40 83 41 31 42 86 43 80 44 79 45 32 47 66 48
REMARK SMILES IDX 45 49 65 50 46 51 49 52 64 53 84 54 47 55 48 56 63 58 85 59
REMARK SMILES IDX 50 60 33 61 34 62 43 63 35 64 36 65 42 66 44 67 37 68 38 69
REMARK SMILES IDX 39 70 40 71 41 72 67 73 68 74 77 75 69 76 70 77 76 78 78 79
REMARK SMILES IDX 71 80 72 81 73 82 74 83 75 84 51 85 52 86 61 87 53 88 54 89
REMARK SMILES IDX 60 90 62 91 55 92 56 93 57 94 58 95 59 96
REMARK H PARENT 17 6 13 14 13 15 12 23 21 27 83 46 49 57
REMARK Flexibility Score: inf
ROOT
ATOM      1  C   UNL     1       1.226   2.238   3.475  1.00  0.00     0.042 C 
ENDROOT
BRANCH   1   2
ATOM      2  C   UNL     1       0.070   2.431   2.498  1.00  0.00     0.118 C 
BRANCH   2   3
ATOM      3  N   UNL     1       0.504   2.950   1.208  1.00  0.00    -0.351 N 
ATOM      4  C   UNL     1       0.489   2.495  -0.072  1.00  0.00     0.279 C 
ATOM      5  O   UNL     1       1.012   3.249  -0.905  1.00  0.00    -0.268 OA
ATOM      6  H   UNL     1       0.906   3.846   1.282  1.00  0.00     0.163 HD
BRANCH   4   7
ATOM      7  C   UNL     1      -0.067   1.135  -0.538  1.00  0.00     0.289 C 
ATOM      8  C   UNL     1       1.619  -0.189   0.950  1.00  0.00     0.030 C 
ATOM      9  C   UNL     1       0.906  -0.047  -0.390  1.00  0.00     0.077 C 
ATOM     10  C   UNL     1       1.939  -0.072  -1.523  1.00  0.00     0.030 C 
ATOM     11  S   UNL     1      -0.193  -1.488  -0.572  1.00  0.00    -0.081 SA
ATOM     12  C   UNL     1      -1.746  -0.557  -0.341  1.00  0.00     0.278 C 
ATOM     13  N   UNL     1      -1.412   0.835   0.013  1.00  0.00    -0.320 N 
ATOM     14  H   UNL     1      -1.403   0.943   1.028  1.00  0.00     0.348 HD
ATOM     15  H   UNL     1      -2.105   1.476  -0.372  1.00  0.00     0.348 HD
BRANCH  12  16
ATOM     16  C   UNL     1      -2.667  -0.718  -1.536  1.00  0.00     0.062 A 
ATOM     17  C   UNL     1      -2.865   0.295  -2.490  1.00  0.00     0.015 A 
ATOM     18  C   UNL     1      -3.331  -1.940  -1.742  1.00  0.00     0.125 A 
ATOM     19  C   UNL     1      -3.664   0.079  -3.617  1.00  0.00     0.001 A 
ATOM     20  C   UNL     1      -4.124  -2.165  -2.867  1.00  0.00     0.047 A 
ATOM     21  C   UNL     1      -4.284  -1.152  -3.810  1.00  0.00     0.004 A 
BRANCH  18  22
ATOM     22  O   UNL     1      -3.197  -2.931  -0.808  1.00  0.00    -0.507 OA
ATOM     23  H   UNL     1      -2.667  -2.791  -0.049  1.00  0.00     0.293 HD
ENDBRANCH  18  22
ENDBRANCH  12  16
ENDBRANCH   4   7
ENDBRANCH   2   3
ENDBRANCH   1   2
BRANCH   1  24
ATOM     24  C   UNL     1       1.927   3.527   3.876  1.00  0.00     0.118 C 
BRANCH  24  25
ATOM     25  N   UNL     1       1.189   4.258   4.894  1.00  0.00    -0.352 N 
ATOM     26  C   UNL     1       1.436   4.382   6.240  1.00  0.00     0.251 C 
ATOM     27  H   UNL     1       0.393   4.737   4.569  1.00  0.00     0.163 HD
ATOM     28  O   UNL     1       0.563   4.847   6.967  1.00  0.00    -0.269 OA
BRANCH  26  29
ATOM     29  C   UNL     1       2.728   3.944   6.822  1.00  0.00     0.039 A 
ATOM     30  C   UNL     1       2.728   3.304   8.066  1.00  0.00     0.014 A 
ATOM     31  C   UNL     1       3.942   4.200   6.179  1.00  0.00     0.014 A 
ATOM     32  C   UNL     1       3.933   2.877   8.633  1.00  0.00     0.010 A 
ATOM     33  C   UNL     1       5.131   3.694   6.700  1.00  0.00     0.010 A 
ATOM     34  C   UNL     1       5.145   3.044   7.942  1.00  0.00    -0.014 A 
BRANCH  34  35
ATOM     35  C   UNL     1       6.438   2.589   8.519  1.00  0.00     0.031 A 
ATOM     36  C   UNL     1       7.518   3.594   8.831  1.00  0.00     0.074 A 
ATOM     37  C   UNL     1       6.666   1.275   8.713  1.00  0.00     0.049 A 
ATOM     38  N   UNL     1       8.738   3.391   9.259  1.00  0.00    -0.248 NA
ATOM     39  C   UNL     1       7.193   5.011   8.602  1.00  0.00     0.031 C 
ATOM     40  C   UNL     1       5.723   0.197   8.408  1.00  0.00     0.029 A 
ATOM     41  N   UNL     1       7.767   0.621   9.206  1.00  0.00    -0.354 N 
ATOM     42  C   UNL     1       9.331   4.647   9.326  1.00  0.00     0.074 A 
ATOM     43  C   UNL     1       8.354   5.601   8.847  1.00  0.00     0.031 C 
ATOM     44  C   UNL     1       6.276  -0.980   8.746  1.00  0.00     0.029 A 
ATOM     45  C   UNL     1       7.622  -0.745   9.259  1.00  0.00     0.049 A 
ATOM     46  H   UNL     1       8.585   1.087   9.494  1.00  0.00     0.167 HD
ATOM     47  C   UNL     1      10.566   4.982   9.771  1.00  0.00     0.037 A 
ATOM     48  C   UNL     1       8.476  -1.701   9.674  1.00  0.00     0.037 A 
ATOM     49  C   UNL     1      11.519   4.039  10.292  1.00  0.00     0.049 A 
ATOM     50  C   UNL     1       9.831  -1.303  10.192  1.00  0.00     0.074 A 
ATOM     51  C   UNL     1      12.775   4.286  10.820  1.00  0.00     0.029 A 
ATOM     52  N   UNL     1      11.319   2.668  10.360  1.00  0.00    -0.354 N 
ATOM     53  N   UNL     1      10.357  -0.105  10.288  1.00  0.00    -0.248 NA
ATOM     54  C   UNL     1      10.707  -2.385  10.663  1.00  0.00     0.031 C 
ATOM     55  C   UNL     1      13.344   3.061  11.185  1.00  0.00     0.029 A 
ATOM     56  C   UNL     1      12.429   2.055  10.915  1.00  0.00     0.049 A 
ATOM     57  H   UNL     1      10.507   2.201  10.058  1.00  0.00     0.167 HD
ATOM     58  C   UNL     1      11.615  -0.287  10.850  1.00  0.00     0.074 A 
ATOM     59  C   UNL     1      11.768  -1.709  11.083  1.00  0.00     0.031 C 
ATOM     60  C   UNL     1      12.560   0.639  11.147  1.00  0.00     0.037 A 
BRANCH  47  61
ATOM     61  C   UNL     1      10.947   6.436   9.726  1.00  0.00     0.058 A 
ATOM     62  C   UNL     1      10.379   7.372  10.605  1.00  0.00     0.135 A 
ATOM     63  C   UNL     1      11.905   6.897   8.808  1.00  0.00     0.135 A 
ATOM     64  F   UNL     1       9.447   6.987  11.491  1.00  0.00    -0.206 F 
ATOM     65  C   UNL     1      10.721   8.719  10.554  1.00  0.00     0.059 A 
ATOM     66  C   UNL     1      12.281   8.236   8.757  1.00  0.00     0.059 A 
ATOM     67  F   UNL     1      12.480   6.045   7.945  1.00  0.00    -0.206 F 
ATOM     68  C   UNL     1      11.670   9.143   9.623  1.00  0.00     0.060 A 
BRANCH  68  69
ATOM     69  S   UNL     1      12.101  10.895   9.564  1.00  0.00     0.124 S 
ATOM     70  O   UNL     1      10.941  11.455   8.877  1.00  0.00    -0.237 OA
ATOM     71  O   UNL     1      12.225  11.236  10.978  1.00  0.00    -0.237 OA
ATOM     72  O   UNL     1      13.349  10.912   8.807  1.00  0.00    -0.744 OA
ENDBRANCH  68  69
ENDBRANCH  47  61
BRANCH  48  73
ATOM     73  C   UNL     1       8.060  -3.127   9.651  1.00  0.00     0.058 A 
ATOM     74  C   UNL     1       7.758  -3.805  10.841  1.00  0.00     0.135 A 
ATOM     75  C   UNL     1       7.938  -3.834   8.445  1.00  0.00     0.135 A 
ATOM     76  F   UNL     1       7.866  -3.172  12.019  1.00  0.00    -0.206 F 
ATOM     77  C   UNL     1       7.362  -5.138  10.840  1.00  0.00     0.059 A 
ATOM     78  C   UNL     1       7.523  -5.162   8.417  1.00  0.00     0.059 A 
ATOM     79  F   UNL     1       8.200  -3.224   7.279  1.00  0.00    -0.206 F 
ATOM     80  C   UNL     1       7.246  -5.808   9.621  1.00  0.00     0.060 A 
BRANCH  80  81
ATOM     81  S   UNL     1       6.675  -7.522   9.624  1.00  0.00     0.124 S 
ATOM     82  O   UNL     1       7.871  -8.229  10.067  1.00  0.00    -0.237 OA
ATOM     83  O   UNL     1       5.570  -7.478  10.576  1.00  0.00    -0.237 OA
ATOM     84  O   UNL     1       6.285  -7.746   8.235  1.00  0.00    -0.744 OA
ENDBRANCH  80  81
ENDBRANCH  48  73
BRANCH  60  85
ATOM     85  C   UNL     1      13.829   0.149  11.783  1.00  0.00     0.058 A 
ATOM     86  C   UNL     1      14.815  -0.514  11.038  1.00  0.00     0.135 A 
ATOM     87  C   UNL     1      14.081   0.390  13.143  1.00  0.00     0.135 A 
ATOM     88  F   UNL     1      14.618  -0.773   9.736  1.00  0.00    -0.206 F 
ATOM     89  C   UNL     1      16.001  -0.942  11.625  1.00  0.00     0.059 A 
ATOM     90  C   UNL     1      15.270  -0.009  13.746  1.00  0.00     0.059 A 
ATOM     91  F   UNL     1      13.173   1.030  13.897  1.00  0.00    -0.206 F 
ATOM     92  C   UNL     1      16.219  -0.685  12.980  1.00  0.00     0.060 A 
BRANCH  92  93
ATOM     93  S   UNL     1      17.776  -1.216  13.725  1.00  0.00     0.124 S 
ATOM     94  O   UNL     1      17.545  -2.647  13.898  1.00  0.00    -0.237 OA
ATOM     95  O   UNL     1      18.755  -0.850  12.706  1.00  0.00    -0.237 OA
ATOM     96  O   UNL     1      17.844  -0.437  14.958  1.00  0.00    -0.744 OA
ENDBRANCH  92  93
ENDBRANCH  60  85
ENDBRANCH  34  35
ENDBRANCH  26  29
ENDBRANCH  24  25
ENDBRANCH   1  24
TORSDOF 15
