REMARK SMILES O=C(CSc1ccc(NC(=O)c2cccc3ccccc23)cc1)NCCCNC(=O)c1ccc(-c2c3nc(c(-c4c(F)cc(S(=O)(=O)[O-])cc4F)c4ccc([nH]4)c(-c4c(F)cc(S(=O)(=O)[O-])cc4F)c4nc(c(-c5c(F)cc(S(=O)(=O)[O-])cc5F)c5ccc2[nH]5)C=C4)C=C3)cc1
REMARK SMILES IDX 25 1 24 2 1 3 2 4 3 6 4 7 5 8 6 9 23 10 7 11 22 12 8 13 9 14
REMARK SMILES IDX 10 15 11 17 12 18 13 19 21 20 14 21 16 22 20 23 15 24 17 25
REMARK SMILES IDX 19 26 18 27 26 28 27 29 28 30 29 31 30 33 31 34 32 35 96 36
REMARK SMILES IDX 33 37 95 38 34 39 35 40 36 41 89 42 37 43 94 44 88 45 90 46
REMARK SMILES IDX 38 47 93 48 87 49 86 50 39 52 73 53 52 54 72 55 53 56 56 57
REMARK SMILES IDX 71 58 91 59 54 60 55 61 70 63 92 64 57 65 40 66 41 67 50 68
REMARK SMILES IDX 42 69 43 70 49 71 51 72 44 73 45 74 46 75 47 76 48 77 74 78
REMARK SMILES IDX 75 79 84 80 76 81 77 82 83 83 85 84 78 85 79 86 80 87 81 88
REMARK SMILES IDX 82 89 58 90 59 91 68 92 60 93 61 94 67 95 69 96 62 97 63 98
REMARK SMILES IDX 64 99 65 100 66 101
REMARK H PARENT 24 5 9 16 28 32 90 51 56 62
REMARK Flexibility Score: inf
ROOT
ATOM      1  C   UNL     1       2.219   1.390  -1.699  1.00  0.00     0.117 C 
ENDROOT
BRANCH   1   2
ATOM      2  N   UNL     1       2.919   0.669  -0.654  1.00  0.00    -0.355 N 
ATOM      3  O   UNL     1       1.111   0.501   0.740  1.00  0.00    -0.274 OA
ATOM      4  C   UNL     1       2.274   0.203   0.468  1.00  0.00     0.230 C 
ATOM      5  H   UNL     1       3.885   0.509  -0.750  1.00  0.00     0.163 HD
BRANCH   4   6
ATOM      6  C   UNL     1       3.086  -0.690   1.392  1.00  0.00     0.174 C 
BRANCH   6   7
ATOM      7  S   UNL     1       4.118  -1.920   0.523  1.00  0.00    -0.116 SA
BRANCH   7   8
ATOM      8  C   UNL     1       2.948  -3.108  -0.123  1.00  0.00     0.008 A 
ATOM      9  C   UNL     1       1.601  -2.847  -0.368  1.00  0.00     0.017 A 
ATOM     10  C   UNL     1       3.454  -4.359  -0.500  1.00  0.00     0.017 A 
ATOM     11  C   UNL     1       0.810  -3.752  -1.081  1.00  0.00     0.027 A 
ATOM     12  C   UNL     1       2.665  -5.265  -1.216  1.00  0.00     0.027 A 
ATOM     13  C   UNL     1       1.370  -4.912  -1.599  1.00  0.00     0.041 A 
BRANCH  13  14
ATOM     14  N   UNL     1       0.753  -5.708  -2.571  1.00  0.00    -0.322 N 
ATOM     15  C   UNL     1      -0.244  -5.448  -3.483  1.00  0.00     0.256 C 
ATOM     16  H   UNL     1       1.098  -6.630  -2.608  1.00  0.00     0.170 HD
ATOM     17  O   UNL     1      -0.632  -6.378  -4.196  1.00  0.00    -0.269 OA
BRANCH  15  18
ATOM     18  C   UNL     1      -0.887  -4.123  -3.678  1.00  0.00     0.048 A 
ATOM     19  C   UNL     1      -2.289  -4.152  -3.571  1.00  0.00     0.014 A 
ATOM     20  C   UNL     1      -0.209  -2.919  -4.039  1.00  0.00    -0.006 A 
ATOM     21  C   UNL     1      -3.042  -3.014  -3.827  1.00  0.00     0.001 A 
ATOM     22  C   UNL     1      -1.005  -1.774  -4.315  1.00  0.00    -0.018 A 
ATOM     23  C   UNL     1       1.198  -2.752  -4.128  1.00  0.00     0.009 A 
ATOM     24  C   UNL     1      -2.403  -1.841  -4.217  1.00  0.00     0.009 A 
ATOM     25  C   UNL     1      -0.405  -0.557  -4.676  1.00  0.00     0.009 A 
ATOM     26  C   UNL     1       1.781  -1.510  -4.400  1.00  0.00     0.001 A 
ATOM     27  C   UNL     1       0.979  -0.418  -4.697  1.00  0.00     0.001 A 
ENDBRANCH  15  18
ENDBRANCH  13  14
ENDBRANCH   7   8
ENDBRANCH   6   7
ENDBRANCH   4   6
ENDBRANCH   1   2
BRANCH   1  28
ATOM     28  C   UNL     1       2.512   2.882  -1.712  1.00  0.00     0.042 C 
BRANCH  28  29
ATOM     29  C   UNL     1       3.966   3.229  -2.007  1.00  0.00     0.118 C 
BRANCH  29  30
ATOM     30  N   UNL     1       4.411   2.792  -3.325  1.00  0.00    -0.352 N 
ATOM     31  C   UNL     1       5.043   3.491  -4.327  1.00  0.00     0.251 C 
ATOM     32  H   UNL     1       4.230   1.846  -3.530  1.00  0.00     0.163 HD
ATOM     33  O   UNL     1       5.214   2.955  -5.415  1.00  0.00    -0.269 OA
BRANCH  31  34
ATOM     34  C   UNL     1       5.488   4.887  -4.105  1.00  0.00     0.039 A 
ATOM     35  C   UNL     1       5.322   5.820  -5.133  1.00  0.00     0.014 A 
ATOM     36  C   UNL     1       6.073   5.280  -2.899  1.00  0.00     0.014 A 
ATOM     37  C   UNL     1       5.678   7.156  -4.924  1.00  0.00     0.010 A 
ATOM     38  C   UNL     1       6.335   6.626  -2.659  1.00  0.00     0.010 A 
ATOM     39  C   UNL     1       6.154   7.578  -3.672  1.00  0.00    -0.014 A 
BRANCH  39  40
ATOM     40  C   UNL     1       6.490   9.003  -3.409  1.00  0.00     0.031 A 
ATOM     41  C   UNL     1       7.898   9.387  -3.033  1.00  0.00     0.074 A 
ATOM     42  C   UNL     1       5.523   9.941  -3.449  1.00  0.00     0.049 A 
ATOM     43  N   UNL     1       8.375  10.559  -2.702  1.00  0.00    -0.248 NA
ATOM     44  C   UNL     1       8.896   8.305  -2.994  1.00  0.00     0.031 C 
ATOM     45  C   UNL     1       4.111   9.690  -3.751  1.00  0.00     0.029 A 
ATOM     46  N   UNL     1       5.576  11.295  -3.227  1.00  0.00    -0.354 N 
ATOM     47  C   UNL     1       9.717  10.353  -2.403  1.00  0.00     0.074 A 
ATOM     48  C   UNL     1       9.963   8.934  -2.527  1.00  0.00     0.031 C 
ATOM     49  C   UNL     1       3.441  10.853  -3.723  1.00  0.00     0.029 A 
ATOM     50  C   UNL     1       4.361  11.926  -3.360  1.00  0.00     0.049 A 
ATOM     51  H   UNL     1       6.406  11.770  -2.994  1.00  0.00     0.167 HD
ATOM     52  C   UNL     1      10.666  11.265  -2.082  1.00  0.00     0.037 A 
ATOM     53  C   UNL     1       4.024  13.222  -3.200  1.00  0.00     0.037 A 
ATOM     54  C   UNL     1      10.419  12.680  -1.985  1.00  0.00     0.049 A 
ATOM     55  C   UNL     1       5.094  14.216  -2.836  1.00  0.00     0.074 A 
ATOM     56  C   UNL     1      11.323  13.694  -1.721  1.00  0.00     0.029 A 
ATOM     57  N   UNL     1       9.179  13.282  -2.146  1.00  0.00    -0.354 N 
ATOM     58  N   UNL     1       6.372  14.012  -2.621  1.00  0.00    -0.248 NA
ATOM     59  C   UNL     1       4.680  15.620  -2.703  1.00  0.00     0.031 C 
ATOM     60  C   UNL     1      10.621  14.902  -1.669  1.00  0.00     0.029 A 
ATOM     61  C   UNL     1       9.291  14.650  -1.964  1.00  0.00     0.049 A 
ATOM     62  H   UNL     1       8.344  12.806  -2.358  1.00  0.00     0.167 HD
ATOM     63  C   UNL     1       6.920  15.264  -2.362  1.00  0.00     0.074 A 
ATOM     64  C   UNL     1       5.836  16.220  -2.458  1.00  0.00     0.031 C 
ATOM     65  C   UNL     1       8.204  15.593  -2.074  1.00  0.00     0.037 A 
BRANCH  52  66
ATOM     66  C   UNL     1      12.060  10.760  -1.817  1.00  0.00     0.058 A 
ATOM     67  C   UNL     1      12.858  10.221  -2.839  1.00  0.00     0.135 A 
ATOM     68  C   UNL     1      12.618  10.847  -0.531  1.00  0.00     0.135 A 
ATOM     69  F   UNL     1      12.372  10.098  -4.085  1.00  0.00    -0.206 F 
ATOM     70  C   UNL     1      14.145   9.755  -2.590  1.00  0.00     0.059 A 
ATOM     71  C   UNL     1      13.916  10.418  -0.266  1.00  0.00     0.059 A 
ATOM     72  F   UNL     1      11.902  11.353   0.485  1.00  0.00    -0.206 F 
ATOM     73  C   UNL     1      14.666   9.859  -1.300  1.00  0.00     0.060 A 
BRANCH  73  74
ATOM     74  S   UNL     1      16.339   9.253  -0.996  1.00  0.00     0.124 S 
ATOM     75  O   UNL     1      16.146   7.809  -1.090  1.00  0.00    -0.237 OA
ATOM     76  O   UNL     1      17.093   9.864  -2.086  1.00  0.00    -0.237 OA
ATOM     77  O   UNL     1      16.648   9.758   0.338  1.00  0.00    -0.744 OA
ENDBRANCH  73  74
ENDBRANCH  52  66
BRANCH  53  78
ATOM     78  C   UNL     1       2.615  13.657  -3.406  1.00  0.00     0.058 A 
ATOM     79  C   UNL     1       2.260  14.464  -4.497  1.00  0.00     0.135 A 
ATOM     80  C   UNL     1       1.595  13.272  -2.521  1.00  0.00     0.135 A 
ATOM     81  F   UNL     1       3.198  14.865  -5.368  1.00  0.00    -0.206 F 
ATOM     82  C   UNL     1       0.950  14.892  -4.694  1.00  0.00     0.059 A 
ATOM     83  C   UNL     1       0.273  13.662  -2.713  1.00  0.00     0.059 A 
ATOM     84  F   UNL     1       1.877  12.486  -1.470  1.00  0.00    -0.206 F 
ATOM     85  C   UNL     1      -0.037  14.482  -3.797  1.00  0.00     0.060 A 
BRANCH  85  86
ATOM     86  S   UNL     1      -1.741  15.008  -4.087  1.00  0.00     0.124 S 
ATOM     87  O   UNL     1      -1.670  16.427  -3.759  1.00  0.00    -0.237 OA
ATOM     88  O   UNL     1      -1.923  14.686  -5.499  1.00  0.00    -0.237 OA
ATOM     89  O   UNL     1      -2.509  14.183  -3.159  1.00  0.00    -0.744 OA
ENDBRANCH  85  86
ENDBRANCH  53  78
BRANCH  65  90
ATOM     90  C   UNL     1       8.525  17.052  -1.889  1.00  0.00     0.058 A 
ATOM     91  C   UNL     1       8.095  17.771  -0.763  1.00  0.00     0.135 A 
ATOM     92  C   UNL     1       9.322  17.725  -2.830  1.00  0.00     0.135 A 
ATOM     93  F   UNL     1       7.327  17.178   0.165  1.00  0.00    -0.206 F 
ATOM     94  C   UNL     1       8.420  19.113  -0.590  1.00  0.00     0.059 A 
ATOM     95  C   UNL     1       9.686  19.056  -2.662  1.00  0.00     0.059 A 
ATOM     96  F   UNL     1       9.770  17.082  -3.920  1.00  0.00    -0.206 F 
ATOM     97  C   UNL     1       9.219  19.746  -1.544  1.00  0.00     0.060 A 
BRANCH  97  98
ATOM     98  S   UNL     1       9.660  21.478  -1.291  1.00  0.00     0.124 S 
ATOM     99  O   UNL     1       8.391  22.147  -1.561  1.00  0.00    -0.237 OA
ATOM    100  O   UNL     1      10.098  21.488   0.101  1.00  0.00    -0.237 OA
ATOM    101  O   UNL     1      10.713  21.709  -2.275  1.00  0.00    -0.744 OA
ENDBRANCH  97  98
ENDBRANCH  65  90
ENDBRANCH  39  40
ENDBRANCH  31  34
ENDBRANCH  29  30
ENDBRANCH  28  29
ENDBRANCH   1  28
TORSDOF 17
