REMARK SMILES O=C(NCCCNC(=O)C1CC[NH+]([C@H]2CC(=O)N(c3ccc4c(c3)OCCO4)C2=O)CC1)c1ccc(-c2c3nc(c(-c4c(F)cc(S(=O)(=O)[O-])cc4F)c4ccc([nH]4)c(-c4c(F)cc(S(=O)(=O)[O-])cc4F)c4nc(c(-c5c(F)cc(S(=O)(=O)[O-])cc5F)c5ccc2[nH]5)C=C4)C=C3)cc1
REMARK SMILES IDX 4 1 3 2 1 3 2 4 33 6 34 7 98 8 35 9 97 10 36 11 37 12 38 13
REMARK SMILES IDX 91 14 39 15 96 16 90 17 92 18 40 19 95 20 89 21 88 22 41 24
REMARK SMILES IDX 75 25 54 26 74 27 55 28 58 29 73 30 93 31 56 32 57 33 72 35
REMARK SMILES IDX 94 36 59 37 42 38 43 39 52 40 44 41 45 42 51 43 53 44 46 45
REMARK SMILES IDX 47 46 48 47 49 48 50 49 76 50 77 51 86 52 78 53 79 54 85 55
REMARK SMILES IDX 87 56 80 57 81 58 82 59 83 60 84 61 60 62 61 63 70 64 62 65
REMARK SMILES IDX 63 66 69 67 71 68 64 69 65 70 66 71 67 72 68 73 5 74 6 75
REMARK SMILES IDX 7 76 8 77 9 79 10 80 11 81 32 82 12 83 31 84 13 85 14 87
REMARK SMILES IDX 15 88 29 89 16 90 18 91 30 92 17 93 19 94 20 95 24 96 21 97
REMARK SMILES IDX 23 98 22 99 25 100 28 101 26 102 27 103
REMARK H PARENT 3 5 92 23 58 34 7 78 13 86
REMARK Flexibility Score: inf
ROOT
ATOM      1  C   UNL     1      12.243  -4.575 -10.164  1.00  0.00     0.118 C 
ENDROOT
BRANCH   1   2
ATOM      2  N   UNL     1      12.807  -5.181 -11.364  1.00  0.00    -0.352 N 
ATOM      3  O   UNL     1      13.606  -5.296 -13.461  1.00  0.00    -0.269 OA
ATOM      4  C   UNL     1      13.330  -4.595 -12.491  1.00  0.00     0.251 C 
ATOM      5  H   UNL     1      12.814  -6.165 -11.367  1.00  0.00     0.163 HD
BRANCH   4   6
ATOM      6  C   UNL     1      13.535  -3.132 -12.547  1.00  0.00     0.039 A 
ATOM      7  C   UNL     1      14.074  -2.441 -11.461  1.00  0.00     0.014 A 
ATOM      8  C   UNL     1      13.195  -2.444 -13.716  1.00  0.00     0.014 A 
ATOM      9  C   UNL     1      14.125  -1.051 -11.484  1.00  0.00     0.010 A 
ATOM     10  C   UNL     1      13.327  -1.053 -13.768  1.00  0.00     0.010 A 
ATOM     11  C   UNL     1      13.752  -0.340 -12.636  1.00  0.00    -0.014 A 
BRANCH  11  12
ATOM     12  C   UNL     1      13.832   1.143 -12.634  1.00  0.00     0.031 A 
ATOM     13  C   UNL     1      12.590   1.986 -12.755  1.00  0.00     0.074 A 
ATOM     14  C   UNL     1      15.035   1.731 -12.479  1.00  0.00     0.049 A 
ATOM     15  N   UNL     1      12.472   3.289 -12.717  1.00  0.00    -0.248 NA
ATOM     16  C   UNL     1      11.316   1.276 -12.951  1.00  0.00     0.031 C 
ATOM     17  C   UNL     1      16.311   1.020 -12.367  1.00  0.00     0.029 A 
ATOM     18  N   UNL     1      15.381   3.053 -12.363  1.00  0.00    -0.354 N 
ATOM     19  C   UNL     1      11.122   3.557 -12.912  1.00  0.00     0.074 A 
ATOM     20  C   UNL     1      10.462   2.281 -13.089  1.00  0.00     0.031 C 
ATOM     21  C   UNL     1      17.291   1.908 -12.143  1.00  0.00     0.029 A 
ATOM     22  C   UNL     1      16.724   3.252 -12.148  1.00  0.00     0.049 A 
ATOM     23  H   UNL     1      14.730   3.788 -12.428  1.00  0.00     0.167 HD
ATOM     24  C   UNL     1      10.490   4.756 -12.933  1.00  0.00     0.037 A 
ATOM     25  C   UNL     1      17.423   4.389 -11.973  1.00  0.00     0.037 A 
ATOM     26  C   UNL     1      11.149   6.021 -12.728  1.00  0.00     0.049 A 
ATOM     27  C   UNL     1      16.698   5.703 -11.989  1.00  0.00     0.074 A 
ATOM     28  C   UNL     1      10.590   7.287 -12.688  1.00  0.00     0.029 A 
ATOM     29  N   UNL     1      12.512   6.182 -12.528  1.00  0.00    -0.354 N 
ATOM     30  N   UNL     1      15.415   5.934 -12.140  1.00  0.00    -0.248 NA
ATOM     31  C   UNL     1      17.512   6.911 -11.809  1.00  0.00     0.031 C 
ATOM     32  C   UNL     1      11.620   8.216 -12.501  1.00  0.00     0.029 A 
ATOM     33  C   UNL     1      12.815   7.526 -12.380  1.00  0.00     0.049 A 
ATOM     34  H   UNL     1      13.168   5.449 -12.496  1.00  0.00     0.167 HD
ATOM     35  C   UNL     1      15.266   7.312 -12.049  1.00  0.00     0.074 A 
ATOM     36  C   UNL     1      16.587   7.861 -11.819  1.00  0.00     0.031 C 
ATOM     37  C   UNL     1      14.135   8.056 -12.143  1.00  0.00     0.037 A 
BRANCH  24  38
ATOM     38  C   UNL     1       9.011   4.760 -13.209  1.00  0.00     0.058 A 
ATOM     39  C   UNL     1       8.078   4.315 -12.259  1.00  0.00     0.135 A 
ATOM     40  C   UNL     1       8.518   5.241 -14.433  1.00  0.00     0.135 A 
ATOM     41  F   UNL     1       8.493   3.831 -11.078  1.00  0.00    -0.206 F 
ATOM     42  C   UNL     1       6.712   4.317 -12.525  1.00  0.00     0.059 A 
ATOM     43  C   UNL     1       7.155   5.275 -14.711  1.00  0.00     0.059 A 
ATOM     44  F   UNL     1       9.366   5.681 -15.376  1.00  0.00    -0.206 F 
ATOM     45  C   UNL     1       6.260   4.794 -13.757  1.00  0.00     0.060 A 
BRANCH  45  46
ATOM     46  S   UNL     1       4.486   4.777 -14.095  1.00  0.00     0.124 S 
ATOM     47  O   UNL     1       4.255   3.359 -14.354  1.00  0.00    -0.237 OA
ATOM     48  O   UNL     1       3.924   5.292 -12.850  1.00  0.00    -0.237 OA
ATOM     49  O   UNL     1       4.352   5.657 -15.251  1.00  0.00    -0.744 OA
ENDBRANCH  45  46
ENDBRANCH  24  38
BRANCH  25  50
ATOM     50  C   UNL     1      18.890   4.323 -11.742  1.00  0.00     0.058 A 
ATOM     51  C   UNL     1      19.433   4.609 -10.482  1.00  0.00     0.135 A 
ATOM     52  C   UNL     1      19.770   3.940 -12.766  1.00  0.00     0.135 A 
ATOM     53  F   UNL     1      18.630   4.983  -9.474  1.00  0.00    -0.206 F 
ATOM     54  C   UNL     1      20.801   4.529 -10.245  1.00  0.00     0.059 A 
ATOM     55  C   UNL     1      21.139   3.828 -12.546  1.00  0.00     0.059 A 
ATOM     56  F   UNL     1      19.295   3.638 -13.984  1.00  0.00    -0.206 F 
ATOM     57  C   UNL     1      21.646   4.133 -11.284  1.00  0.00     0.060 A 
BRANCH  57  58
ATOM     58  S   UNL     1      23.414   3.973 -10.952  1.00  0.00     0.124 S 
ATOM     59  O   UNL     1      23.834   5.369 -10.927  1.00  0.00    -0.237 OA
ATOM     60  O   UNL     1      23.424   3.279  -9.668  1.00  0.00    -0.237 OA
ATOM     61  O   UNL     1      23.896   3.186 -12.084  1.00  0.00    -0.744 OA
ENDBRANCH  57  58
ENDBRANCH  25  50
BRANCH  37  62
ATOM     62  C   UNL     1      14.275   9.540 -11.955  1.00  0.00     0.058 A 
ATOM     63  C   UNL     1      14.847  10.359 -12.941  1.00  0.00     0.135 A 
ATOM     64  C   UNL     1      13.808  10.151 -10.781  1.00  0.00     0.135 A 
ATOM     65  F   UNL     1      15.315   9.822 -14.078  1.00  0.00    -0.206 F 
ATOM     66  C   UNL     1      14.978  11.732 -12.756  1.00  0.00     0.059 A 
ATOM     67  C   UNL     1      13.907  11.524 -10.585  1.00  0.00     0.059 A 
ATOM     68  F   UNL     1      13.244   9.412  -9.812  1.00  0.00    -0.206 F 
ATOM     69  C   UNL     1      14.508  12.304 -11.572  1.00  0.00     0.060 A 
BRANCH  69  70
ATOM     70  S   UNL     1      14.669  14.088 -11.345  1.00  0.00     0.124 S 
ATOM     71  O   UNL     1      16.081  14.213 -11.000  1.00  0.00    -0.237 OA
ATOM     72  O   UNL     1      14.289  14.608 -12.655  1.00  0.00    -0.237 OA
ATOM     73  O   UNL     1      13.729  14.378 -10.267  1.00  0.00    -0.744 OA
ENDBRANCH  69  70
ENDBRANCH  37  62
ENDBRANCH  11  12
ENDBRANCH   4   6
ENDBRANCH   1   2
BRANCH   1  74
ATOM     74  C   UNL     1      10.822  -5.047  -9.873  1.00  0.00     0.042 C 
BRANCH  74  75
ATOM     75  C   UNL     1      10.702  -6.552  -9.660  1.00  0.00     0.117 C 
BRANCH  75  76
ATOM     76  N   UNL     1      11.515  -7.014  -8.545  1.00  0.00    -0.356 N 
ATOM     77  C   UNL     1      11.169  -7.165  -7.231  1.00  0.00     0.223 C 
ATOM     78  H   UNL     1      12.444  -7.251  -8.768  1.00  0.00     0.163 HD
ATOM     79  O   UNL     1      12.033  -7.492  -6.420  1.00  0.00    -0.275 OA
BRANCH  77  80
ATOM     80  C   UNL     1       9.708  -6.987  -6.848  1.00  0.00     0.089 C 
ATOM     81  C   UNL     1       9.553  -6.511  -5.396  1.00  0.00     0.075 C 
ATOM     82  C   UNL     1       8.955  -8.284  -7.185  1.00  0.00     0.075 C 
ATOM     83  C   UNL     1       9.455  -7.638  -4.372  1.00  0.00     0.263 C 
ATOM     84  C   UNL     1       8.906  -9.284  -6.031  1.00  0.00     0.263 C 
ATOM     85  N   UNL     1       8.527  -8.709  -4.744  1.00  0.00    -0.324 N 
ATOM     86  H   UNL     1       8.633  -9.485  -4.090  1.00  0.00     0.348 HD
BRANCH  85  87
ATOM     87  C   UNL     1       7.102  -8.426  -4.474  1.00  0.00     0.284 C 
ATOM     88  C   UNL     1       6.327  -7.524  -5.419  1.00  0.00     0.176 C 
ATOM     89  C   UNL     1       6.261  -9.707  -4.500  1.00  0.00     0.292 C 
ATOM     90  C   UNL     1       5.580  -8.478  -6.297  1.00  0.00     0.240 C 
ATOM     91  N   UNL     1       5.486  -9.681  -5.642  1.00  0.00    -0.245 N 
ATOM     92  O   UNL     1       6.333 -10.600  -3.663  1.00  0.00    -0.267 OA
ATOM     93  O   UNL     1       5.077  -8.141  -7.359  1.00  0.00    -0.274 OA
BRANCH  91  94
ATOM     94  C   UNL     1       4.646 -10.735  -6.073  1.00  0.00     0.056 A 
ATOM     95  C   UNL     1       3.881 -11.459  -5.148  1.00  0.00     0.031 A 
ATOM     96  C   UNL     1       4.527 -11.042  -7.436  1.00  0.00     0.077 A 
ATOM     97  C   UNL     1       2.979 -12.437  -5.581  1.00  0.00     0.052 A 
ATOM     98  C   UNL     1       3.664 -12.053  -7.862  1.00  0.00     0.163 A 
ATOM     99  C   UNL     1       2.883 -12.745  -6.935  1.00  0.00     0.161 A 
ATOM    100  O   UNL     1       3.651 -12.322  -9.207  1.00  0.00    -0.486 OA
ATOM    101  O   UNL     1       1.998 -13.731  -7.283  1.00  0.00    -0.486 OA
ATOM    102  C   UNL     1       2.515 -13.107  -9.580  1.00  0.00     0.271 C 
ATOM    103  C   UNL     1       2.277 -14.237  -8.592  1.00  0.00     0.271 C 
ENDBRANCH  91  94
ENDBRANCH  85  87
ENDBRANCH  77  80
ENDBRANCH  75  76
ENDBRANCH  74  75
ENDBRANCH   1  74
TORSDOF 15
