REMARK SMILES C[N@@H+]1CC2(CCN(C(=O)c3cc(-c4ccncc4)n[nH]3)CC2)C[C@H]1C(=O)NCCCNC(=O)c1ccc(-c2c3nc(c(-c4c(F)cc(S(=O)(=O)[O-])cc4F)c4ccc([nH]4)c(-c4c(F)cc(S(=O)(=O)[O-])cc4F)c4nc(c(-c5c(F)cc(S(=O)(=O)[O-])cc5F)c5ccc2[nH]5)C=C4)C=C3)cc1
REMARK SMILES IDX 29 1 28 2 27 3 25 4 26 5 24 7 1 8 2 9 3 10 4 12 23 13 5 14
REMARK SMILES IDX 22 15 6 16 21 17 7 18 8 19 9 20 10 21 11 22 20 23 12 24
REMARK SMILES IDX 19 25 13 27 14 28 18 29 15 30 17 31 16 32 30 33 31 34 32 35
REMARK SMILES IDX 33 37 34 38 35 39 99 40 36 41 98 42 37 43 38 44 39 45 92 46
REMARK SMILES IDX 40 47 97 48 91 49 93 50 41 51 96 52 90 53 89 54 42 56 76 57
REMARK SMILES IDX 55 58 75 59 56 60 59 61 74 62 94 63 57 64 58 65 73 67 95 68
REMARK SMILES IDX 60 69 43 70 44 71 53 72 45 73 46 74 52 75 54 76 47 77 48 78
REMARK SMILES IDX 49 79 50 80 51 81 77 82 78 83 87 84 79 85 80 86 86 87 88 88
REMARK SMILES IDX 81 89 82 90 83 91 84 92 85 93 61 94 62 95 71 96 63 97 64 98
REMARK SMILES IDX 70 99 72 100 65 101 66 102 67 103 68 104 69 105
REMARK H PARENT 27 6 2 11 20 26 31 36 93 55 59 66
REMARK Flexibility Score: inf
ROOT
ATOM      1  C   UNL     1      -1.119  -1.335   4.359  1.00  0.00     0.042 C 
ENDROOT
BRANCH   1   2
ATOM      2  C   UNL     1       0.243  -2.005   4.247  1.00  0.00     0.118 C 
BRANCH   2   3
ATOM      3  N   UNL     1       0.394  -2.939   3.163  1.00  0.00    -0.351 N 
ATOM      4  C   UNL     1       1.129  -2.829   2.017  1.00  0.00     0.278 C 
ATOM      5  O   UNL     1       1.276  -3.874   1.367  1.00  0.00    -0.268 OA
ATOM      6  H   UNL     1      -0.107  -3.781   3.261  1.00  0.00     0.163 HD
BRANCH   4   7
ATOM      7  C   UNL     1       1.772  -1.505   1.495  1.00  0.00     0.274 C 
ATOM      8  C   UNL     1       0.718  -0.057  -0.127  1.00  0.00     0.333 C 
ATOM      9  N   UNL     1       0.744  -0.470   1.276  1.00  0.00    -0.327 N 
ATOM     10  C   UNL     1       1.008   0.651   2.182  1.00  0.00     0.269 C 
ATOM     11  H   UNL     1      -0.182  -0.843   1.484  1.00  0.00     0.348 HD
ATOM     12  C   UNL     1       2.456   0.550   2.709  1.00  0.00     0.029 C 
ATOM     13  C   UNL     1       2.911  -0.866   2.291  1.00  0.00     0.088 C 
ATOM     14  C   UNL     1       2.610   0.705   4.244  1.00  0.00     0.034 C 
ATOM     15  C   UNL     1       3.312   1.701   2.098  1.00  0.00     0.034 C 
ATOM     16  C   UNL     1       2.054   2.031   4.709  1.00  0.00     0.120 C 
ATOM     17  C   UNL     1       2.951   3.098   2.676  1.00  0.00     0.120 C 
ATOM     18  N   UNL     1       2.869   3.091   4.139  1.00  0.00    -0.337 N 
ATOM     19  C   UNL     1       3.341   4.162   4.894  1.00  0.00     0.271 C 
ATOM     20  O   UNL     1       3.647   5.240   4.382  1.00  0.00    -0.267 OA
BRANCH  19  21
ATOM     21  C   UNL     1       3.464   3.948   6.314  1.00  0.00     0.123 A 
ATOM     22  C   UNL     1       4.046   2.918   7.031  1.00  0.00     0.064 A 
ATOM     23  N   UNL     1       2.992   4.809   7.263  1.00  0.00    -0.272 N 
ATOM     24  C   UNL     1       3.761   3.183   8.393  1.00  0.00     0.093 A 
ATOM     25  N   UNL     1       3.098   4.341   8.522  1.00  0.00    -0.175 NA
ATOM     26  H   UNL     1       2.610   5.690   7.047  1.00  0.00     0.190 HD
BRANCH  24  27
ATOM     27  C   UNL     1       4.091   2.341   9.534  1.00  0.00     0.005 A 
ATOM     28  C   UNL     1       5.408   1.931   9.746  1.00  0.00     0.030 A 
ATOM     29  C   UNL     1       3.094   1.907  10.407  1.00  0.00     0.030 A 
ATOM     30  C   UNL     1       5.670   1.103  10.824  1.00  0.00     0.111 A 
ATOM     31  C   UNL     1       3.457   1.069  11.449  1.00  0.00     0.111 A 
ATOM     32  N   UNL     1       4.724   0.657  11.677  1.00  0.00    -0.265 NA
ENDBRANCH  24  27
ENDBRANCH  19  21
ENDBRANCH   4   7
ENDBRANCH   2   3
ENDBRANCH   1   2
BRANCH   1  33
ATOM     33  C   UNL     1      -1.968  -1.867   5.505  1.00  0.00     0.118 C 
BRANCH  33  34
ATOM     34  N   UNL     1      -1.398  -1.569   6.819  1.00  0.00    -0.352 N 
ATOM     35  C   UNL     1      -1.933  -0.935   7.916  1.00  0.00     0.251 C 
ATOM     36  H   UNL     1      -0.470  -1.874   6.938  1.00  0.00     0.163 HD
ATOM     37  O   UNL     1      -1.194  -0.671   8.863  1.00  0.00    -0.269 OA
BRANCH  35  38
ATOM     38  C   UNL     1      -3.362  -0.544   7.965  1.00  0.00     0.039 A 
ATOM     39  C   UNL     1      -3.719   0.639   8.624  1.00  0.00     0.014 A 
ATOM     40  C   UNL     1      -4.357  -1.338   7.394  1.00  0.00     0.014 A 
ATOM     41  C   UNL     1      -5.054   1.059   8.638  1.00  0.00     0.010 A 
ATOM     42  C   UNL     1      -5.666  -0.874   7.325  1.00  0.00     0.010 A 
ATOM     43  C   UNL     1      -6.032   0.326   7.951  1.00  0.00    -0.014 A 
BRANCH  43  44
ATOM     44  C   UNL     1      -7.447   0.776   7.875  1.00  0.00     0.031 A 
ATOM     45  C   UNL     1      -8.544  -0.096   8.425  1.00  0.00     0.074 A 
ATOM     46  C   UNL     1      -7.755   1.906   7.209  1.00  0.00     0.049 A 
ATOM     47  N   UNL     1      -9.840   0.038   8.318  1.00  0.00    -0.248 NA
ATOM     48  C   UNL     1      -8.123  -1.305   9.151  1.00  0.00     0.031 C 
ATOM     49  C   UNL     1      -6.791   2.799   6.562  1.00  0.00     0.029 A 
ATOM     50  N   UNL     1      -8.971   2.481   6.940  1.00  0.00    -0.354 N 
ATOM     51  C   UNL     1     -10.388  -1.091   8.918  1.00  0.00     0.074 A 
ATOM     52  C   UNL     1      -9.281  -1.915   9.352  1.00  0.00     0.031 C 
ATOM     53  C   UNL     1      -7.451   3.811   5.978  1.00  0.00     0.029 A 
ATOM     54  C   UNL     1      -8.885   3.624   6.181  1.00  0.00     0.049 A 
ATOM     55  H   UNL     1      -9.825   2.110   7.260  1.00  0.00     0.167 HD
ATOM     56  C   UNL     1     -11.692  -1.404   9.106  1.00  0.00     0.037 A 
ATOM     57  C   UNL     1      -9.850   4.426   5.693  1.00  0.00     0.037 A 
ATOM     58  C   UNL     1     -12.787  -0.551   8.727  1.00  0.00     0.049 A 
ATOM     59  C   UNL     1     -11.287   4.112   5.993  1.00  0.00     0.074 A 
ATOM     60  C   UNL     1     -14.140  -0.728   8.959  1.00  0.00     0.029 A 
ATOM     61  N   UNL     1     -12.652   0.648   8.042  1.00  0.00    -0.354 N 
ATOM     62  N   UNL     1     -11.787   3.076   6.625  1.00  0.00    -0.248 NA
ATOM     63  C   UNL     1     -12.292   5.078   5.528  1.00  0.00     0.031 C 
ATOM     64  C   UNL     1     -14.825   0.356   8.397  1.00  0.00     0.029 A 
ATOM     65  C   UNL     1     -13.896   1.220   7.838  1.00  0.00     0.049 A 
ATOM     66  H   UNL     1     -11.797   1.035   7.745  1.00  0.00     0.167 HD
ATOM     67  C   UNL     1     -13.162   3.270   6.643  1.00  0.00     0.074 A 
ATOM     68  C   UNL     1     -13.415   4.530   5.972  1.00  0.00     0.031 C 
ATOM     69  C   UNL     1     -14.128   2.475   7.168  1.00  0.00     0.037 A 
BRANCH  56  70
ATOM     70  C   UNL     1     -11.992  -2.727   9.753  1.00  0.00     0.058 A 
ATOM     71  C   UNL     1     -11.725  -2.961  11.112  1.00  0.00     0.135 A 
ATOM     72  C   UNL     1     -12.527  -3.784   9.000  1.00  0.00     0.135 A 
ATOM     73  F   UNL     1     -11.199  -1.989  11.874  1.00  0.00    -0.206 F 
ATOM     74  C   UNL     1     -11.925  -4.211  11.688  1.00  0.00     0.059 A 
ATOM     75  C   UNL     1     -12.760  -5.036   9.562  1.00  0.00     0.059 A 
ATOM     76  F   UNL     1     -12.805  -3.615   7.698  1.00  0.00    -0.206 F 
ATOM     77  C   UNL     1     -12.430  -5.247  10.901  1.00  0.00     0.060 A 
BRANCH  77  78
ATOM     78  S   UNL     1     -12.640  -6.880  11.642  1.00  0.00     0.124 S 
ATOM     79  O   UNL     1     -11.276  -7.397  11.588  1.00  0.00    -0.237 OA
ATOM     80  O   UNL     1     -13.143  -6.562  12.974  1.00  0.00    -0.237 OA
ATOM     81  O   UNL     1     -13.597  -7.532  10.754  1.00  0.00    -0.744 OA
ENDBRANCH  77  78
ENDBRANCH  56  70
BRANCH  57  82
ATOM     82  C   UNL     1      -9.469   5.621   4.898  1.00  0.00     0.058 A 
ATOM     83  C   UNL     1      -9.490   6.900   5.471  1.00  0.00     0.135 A 
ATOM     84  C   UNL     1      -9.005   5.499   3.579  1.00  0.00     0.135 A 
ATOM     85  F   UNL     1      -9.929   7.063   6.728  1.00  0.00    -0.206 F 
ATOM     86  C   UNL     1      -9.058   8.019   4.768  1.00  0.00     0.059 A 
ATOM     87  C   UNL     1      -8.552   6.601   2.861  1.00  0.00     0.059 A 
ATOM     88  F   UNL     1      -8.949   4.292   2.996  1.00  0.00    -0.206 F 
ATOM     89  C   UNL     1      -8.582   7.858   3.465  1.00  0.00     0.060 A 
BRANCH  89  90
ATOM     90  S   UNL     1      -7.926   9.299   2.596  1.00  0.00     0.124 S 
ATOM     91  O   UNL     1      -9.149   9.979   2.188  1.00  0.00    -0.237 OA
ATOM     92  O   UNL     1      -7.144   9.960   3.638  1.00  0.00    -0.237 OA
ATOM     93  O   UNL     1      -7.139   8.708   1.517  1.00  0.00    -0.744 OA
ENDBRANCH  89  90
ENDBRANCH  57  82
BRANCH  69  94
ATOM     94  C   UNL     1     -15.547   2.950   7.050  1.00  0.00     0.058 A 
ATOM     95  C   UNL     1     -16.253   2.849   5.842  1.00  0.00     0.135 A 
ATOM     96  C   UNL     1     -16.222   3.460   8.169  1.00  0.00     0.135 A 
ATOM     97  F   UNL     1     -15.647   2.374   4.742  1.00  0.00    -0.206 F 
ATOM     98  C   UNL     1     -17.580   3.252   5.743  1.00  0.00     0.059 A 
ATOM     99  C   UNL     1     -17.555   3.853   8.098  1.00  0.00     0.059 A 
ATOM    100  F   UNL     1     -15.591   3.569   9.348  1.00  0.00    -0.206 F 
ATOM    101  C   UNL     1     -18.223   3.753   6.877  1.00  0.00     0.060 A 
BRANCH 101 102
ATOM    102  S   UNL     1     -19.958   4.238   6.751  1.00  0.00     0.124 S 
ATOM    103  O   UNL     1     -19.851   5.544   6.110  1.00  0.00    -0.237 OA
ATOM    104  O   UNL     1     -20.525   3.173   5.930  1.00  0.00    -0.237 OA
ATOM    105  O   UNL     1     -20.405   4.253   8.141  1.00  0.00    -0.744 OA
ENDBRANCH 101 102
ENDBRANCH  69  94
ENDBRANCH  43  44
ENDBRANCH  35  38
ENDBRANCH  33  34
ENDBRANCH   1  33
TORSDOF 15
