REMARK SMILES CC[C@@H](C(=O)NCCCNC(=O)c1ccc(-c2c3nc(c(-c4c(F)cc(S(=O)(=O)[O-])cc4F)c4ccc([nH]4)c(-c4c(F)cc(S(=O)(=O)[O-])cc4F)c4nc(c(-c5c(F)cc(S(=O)(=O)[O-])cc5F)c5ccc2[nH]5)C=C4)C=C3)cc1)N1C(=O)/C(=C/C(C)=C/c2ccccc2)SC1=S
REMARK SMILES IDX 8 1 7 2 6 3 4 4 5 5 3 7 2 8 1 9 79 10 80 11 94 12 81 13
REMARK SMILES IDX 82 14 93 15 95 16 83 17 84 18 85 19 86 20 87 21 88 22 92 23
REMARK SMILES IDX 89 24 91 25 90 26 9 27 10 28 11 29 12 31 13 32 14 33 78 34
REMARK SMILES IDX 15 35 77 36 16 37 17 38 18 39 71 40 19 41 76 42 70 43 72 44
REMARK SMILES IDX 20 45 75 46 69 47 68 48 21 50 55 51 34 52 54 53 35 54 38 55
REMARK SMILES IDX 53 56 73 57 36 58 37 59 52 61 74 62 39 63 22 64 23 65 32 66
REMARK SMILES IDX 24 67 25 68 31 69 33 70 26 71 27 72 28 73 29 74 30 75 56 76
REMARK SMILES IDX 57 77 66 78 58 79 59 80 65 81 67 82 60 83 61 84 62 85 63 86
REMARK SMILES IDX 64 87 40 88 41 89 50 90 42 91 43 92 49 93 51 94 44 95 45 96
REMARK SMILES IDX 46 97 47 98 48 99
REMARK H PARENT 6 6 10 30 72 49 38 60
REMARK Flexibility Score: inf
ROOT
ATOM      1  C   UNL     1       1.349  -0.367   2.493  1.00  0.00     0.042 C 
ENDROOT
BRANCH   1   2
ATOM      2  C   UNL     1       1.742  -1.628   1.718  1.00  0.00     0.117 C 
BRANCH   2   3
ATOM      3  N   UNL     1       0.562  -2.328   1.228  1.00  0.00    -0.354 N 
ATOM      4  C   UNL     1       0.042  -2.493  -0.022  1.00  0.00     0.243 C 
ATOM      5  O   UNL     1      -1.052  -3.067  -0.086  1.00  0.00    -0.273 OA
ATOM      6  H   UNL     1       0.039  -2.767   1.937  1.00  0.00     0.163 HD
BRANCH   4   7
ATOM      7  C   UNL     1       0.776  -2.028  -1.307  1.00  0.00     0.181 C 
BRANCH   7   8
ATOM      8  C   UNL     1       0.552  -0.548  -1.660  1.00  0.00     0.032 C 
ATOM      9  C   UNL     1       1.187   0.525  -0.800  1.00  0.00     0.006 C 
ENDBRANCH   7   8
BRANCH   7  10
ATOM     10  N   UNL     1       0.307  -2.989  -2.379  1.00  0.00    -0.280 N 
ATOM     11  C   UNL     1       0.906  -4.253  -2.401  1.00  0.00     0.266 C 
ATOM     12  C   UNL     1      -0.774  -2.846  -3.239  1.00  0.00     0.149 C 
ATOM     13  O   UNL     1       1.846  -4.612  -1.711  1.00  0.00    -0.268 OA
ATOM     14  C   UNL     1       0.259  -5.132  -3.427  1.00  0.00     0.080 C 
ATOM     15  S   UNL     1      -1.186  -4.392  -3.965  1.00  0.00    -0.054 SA
ATOM     16  S   UNL     1      -1.646  -1.513  -3.738  1.00  0.00    -0.052 S 
ATOM     17  C   UNL     1       0.785  -6.284  -3.877  1.00  0.00     0.024 C 
BRANCH  17  18
ATOM     18  C   UNL     1       0.290  -7.133  -4.976  1.00  0.00    -0.049 C 
ATOM     19  C   UNL     1       0.366  -8.617  -4.729  1.00  0.00     0.044 C 
ATOM     20  C   UNL     1      -0.076  -6.588  -6.158  1.00  0.00     0.011 C 
BRANCH  20  21
ATOM     21  C   UNL     1      -0.617  -7.207  -7.383  1.00  0.00    -0.025 A 
ATOM     22  C   UNL     1      -0.314  -6.594  -8.609  1.00  0.00     0.008 A 
ATOM     23  C   UNL     1      -1.522  -8.274  -7.382  1.00  0.00     0.008 A 
ATOM     24  C   UNL     1      -0.874  -7.052  -9.804  1.00  0.00     0.001 A 
ATOM     25  C   UNL     1      -2.076  -8.742  -8.580  1.00  0.00     0.001 A 
ATOM     26  C   UNL     1      -1.752  -8.130  -9.790  1.00  0.00     0.000 A 
ENDBRANCH  20  21
ENDBRANCH  17  18
ENDBRANCH   7  10
ENDBRANCH   4   7
ENDBRANCH   2   3
ENDBRANCH   1   2
BRANCH   1  27
ATOM     27  C   UNL     1       0.791  -0.621   3.890  1.00  0.00     0.118 C 
BRANCH  27  28
ATOM     28  N   UNL     1       1.831  -0.722   4.897  1.00  0.00    -0.352 N 
ATOM     29  C   UNL     1       2.124   0.097   5.964  1.00  0.00     0.251 C 
ATOM     30  H   UNL     1       2.422  -1.504   4.803  1.00  0.00     0.163 HD
ATOM     31  O   UNL     1       3.177  -0.089   6.572  1.00  0.00    -0.269 OA
BRANCH  29  32
ATOM     32  C   UNL     1       1.223   1.204   6.381  1.00  0.00     0.039 A 
ATOM     33  C   UNL     1       1.800   2.388   6.857  1.00  0.00     0.014 A 
ATOM     34  C   UNL     1      -0.169   1.083   6.372  1.00  0.00     0.014 A 
ATOM     35  C   UNL     1       0.990   3.453   7.268  1.00  0.00     0.010 A 
ATOM     36  C   UNL     1      -0.976   2.176   6.702  1.00  0.00     0.010 A 
ATOM     37  C   UNL     1      -0.408   3.371   7.166  1.00  0.00    -0.014 A 
BRANCH  37  38
ATOM     38  C   UNL     1      -1.273   4.524   7.542  1.00  0.00     0.031 A 
ATOM     39  C   UNL     1      -2.265   4.411   8.671  1.00  0.00     0.074 A 
ATOM     40  C   UNL     1      -1.207   5.667   6.830  1.00  0.00     0.049 A 
ATOM     41  N   UNL     1      -3.105   5.307   9.127  1.00  0.00    -0.248 NA
ATOM     42  C   UNL     1      -2.345   3.114   9.359  1.00  0.00     0.031 C 
ATOM     43  C   UNL     1      -0.344   5.887   5.668  1.00  0.00     0.029 A 
ATOM     44  N   UNL     1      -1.882   6.855   6.971  1.00  0.00    -0.354 N 
ATOM     45  C   UNL     1      -3.825   4.678  10.137  1.00  0.00     0.074 A 
ATOM     46  C   UNL     1      -3.357   3.309  10.192  1.00  0.00     0.031 C 
ATOM     47  C   UNL     1      -0.527   7.137   5.215  1.00  0.00     0.029 A 
ATOM     48  C   UNL     1      -1.540   7.799   6.032  1.00  0.00     0.049 A 
ATOM     49  H   UNL     1      -2.549   7.015   7.677  1.00  0.00     0.167 HD
ATOM     50  C   UNL     1      -4.772   5.194  10.959  1.00  0.00     0.037 A 
ATOM     51  C   UNL     1      -1.989   9.056   5.843  1.00  0.00     0.037 A 
ATOM     52  C   UNL     1      -5.218   6.564  10.919  1.00  0.00     0.049 A 
ATOM     53  C   UNL     1      -3.011   9.624   6.785  1.00  0.00     0.074 A 
ATOM     54  C   UNL     1      -6.104   7.207  11.767  1.00  0.00     0.029 A 
ATOM     55  N   UNL     1      -4.824   7.499   9.973  1.00  0.00    -0.354 N 
ATOM     56  N   UNL     1      -3.609   9.043   7.798  1.00  0.00    -0.248 NA
ATOM     57  C   UNL     1      -3.411  11.021   6.569  1.00  0.00     0.031 C 
ATOM     58  C   UNL     1      -6.281   8.516  11.305  1.00  0.00     0.029 A 
ATOM     59  C   UNL     1      -5.470   8.705  10.197  1.00  0.00     0.049 A 
ATOM     60  H   UNL     1      -4.179   7.331   9.248  1.00  0.00     0.167 HD
ATOM     61  C   UNL     1      -4.450  10.005   8.347  1.00  0.00     0.074 A 
ATOM     62  C   UNL     1      -4.266  11.212   7.565  1.00  0.00     0.031 C 
ATOM     63  C   UNL     1      -5.296   9.897   9.402  1.00  0.00     0.037 A 
BRANCH  50  64
ATOM     64  C   UNL     1      -5.396   4.263  11.966  1.00  0.00     0.058 A 
ATOM     65  C   UNL     1      -4.669   3.754  13.055  1.00  0.00     0.135 A 
ATOM     66  C   UNL     1      -6.739   3.872  11.839  1.00  0.00     0.135 A 
ATOM     67  F   UNL     1      -3.379   4.087  13.222  1.00  0.00    -0.206 F 
ATOM     68  C   UNL     1      -5.233   2.848  13.948  1.00  0.00     0.059 A 
ATOM     69  C   UNL     1      -7.333   2.991  12.740  1.00  0.00     0.059 A 
ATOM     70  F   UNL     1      -7.485   4.333  10.824  1.00  0.00    -0.206 F 
ATOM     71  C   UNL     1      -6.563   2.465  13.776  1.00  0.00     0.060 A 
BRANCH  71  72
ATOM     72  S   UNL     1      -7.270   1.258  14.918  1.00  0.00     0.124 S 
ATOM     73  O   UNL     1      -6.653   0.021  14.449  1.00  0.00    -0.237 OA
ATOM     74  O   UNL     1      -6.807   1.743  16.214  1.00  0.00    -0.237 OA
ATOM     75  O   UNL     1      -8.706   1.371  14.686  1.00  0.00    -0.744 OA
ENDBRANCH  71  72
ENDBRANCH  50  64
BRANCH  51  76
ATOM     76  C   UNL     1      -1.438   9.860   4.720  1.00  0.00     0.058 A 
ATOM     77  C   UNL     1      -0.522  10.895   4.954  1.00  0.00     0.135 A 
ATOM     78  C   UNL     1      -1.760   9.558   3.388  1.00  0.00     0.135 A 
ATOM     79  F   UNL     1      -0.190  11.226   6.211  1.00  0.00    -0.206 F 
ATOM     80  C   UNL     1       0.066  11.596   3.906  1.00  0.00     0.059 A 
ATOM     81  C   UNL     1      -1.169  10.230   2.323  1.00  0.00     0.059 A 
ATOM     82  F   UNL     1      -2.621   8.566   3.113  1.00  0.00    -0.206 F 
ATOM     83  C   UNL     1      -0.254  11.247   2.593  1.00  0.00     0.060 A 
BRANCH  83  84
ATOM     84  S   UNL     1       0.600  12.087   1.240  1.00  0.00     0.124 S 
ATOM     85  O   UNL     1      -0.041  13.397   1.254  1.00  0.00    -0.237 OA
ATOM     86  O   UNL     1       1.989  12.050   1.686  1.00  0.00    -0.237 OA
ATOM     87  O   UNL     1       0.300  11.248   0.083  1.00  0.00    -0.744 OA
ENDBRANCH  83  84
ENDBRANCH  51  76
BRANCH  63  88
ATOM     88  C   UNL     1      -6.091  11.118   9.776  1.00  0.00     0.058 A 
ATOM     89  C   UNL     1      -7.159  11.571   8.986  1.00  0.00     0.135 A 
ATOM     90  C   UNL     1      -5.804  11.824  10.956  1.00  0.00     0.135 A 
ATOM     91  F   UNL     1      -7.472  10.937   7.844  1.00  0.00    -0.206 F 
ATOM     92  C   UNL     1      -7.898  12.697   9.336  1.00  0.00     0.059 A 
ATOM     93  C   UNL     1      -6.546  12.937  11.340  1.00  0.00     0.059 A 
ATOM     94  F   UNL     1      -4.800  11.428  11.754  1.00  0.00    -0.206 F 
ATOM     95  C   UNL     1      -7.582  13.375  10.515  1.00  0.00     0.060 A 
BRANCH  95  96
ATOM     96  S   UNL     1      -8.558  14.824  10.970  1.00  0.00     0.124 S 
ATOM     97  O   UNL     1      -8.045  15.826  10.041  1.00  0.00    -0.237 OA
ATOM     98  O   UNL     1      -9.925  14.373  10.724  1.00  0.00    -0.237 OA
ATOM     99  O   UNL     1      -8.218  15.036  12.374  1.00  0.00    -0.744 OA
ENDBRANCH  95  96
ENDBRANCH  63  88
ENDBRANCH  37  38
ENDBRANCH  29  32
ENDBRANCH  27  28
ENDBRANCH   1  27
TORSDOF 17
