REMARK SMILES CC/C=C/C/C=C/C/C=C/C/C=C/CC/C=C/COCC(=O)NCCCNC(=O)c1ccc(-c2c3nc(c(-c4c(F)cc(S(=O)(=O)[O-])cc4F)c4ccc([nH]4)c(-c4c(F)cc(S(=O)(=O)[O-])cc4F)c4nc(c(-c5c(F)cc(S(=O)(=O)[O-])cc5F)c5ccc2[nH]5)C=C4)C=C3)cc1
REMARK SMILES IDX 18 1 17 2 16 3 15 4 14 5 13 6 12 7 11 8 10 9 9 10 8 11 7 12
REMARK SMILES IDX 6 13 5 14 4 15 3 16 2 17 1 18 19 19 20 20 21 21 22 22 23 23
REMARK SMILES IDX 24 25 25 26 26 27 27 28 28 29 29 31 30 32 31 33 95 34 32 35
REMARK SMILES IDX 94 36 33 37 34 38 35 39 88 40 36 41 93 42 87 43 89 44 37 45
REMARK SMILES IDX 92 46 86 47 85 48 38 50 72 51 51 52 71 53 52 54 55 55 70 56
REMARK SMILES IDX 90 57 53 58 54 59 69 61 91 62 56 63 39 64 40 65 49 66 41 67
REMARK SMILES IDX 42 68 48 69 50 70 43 71 44 72 45 73 46 74 47 75 73 76 74 77
REMARK SMILES IDX 83 78 75 79 76 80 82 81 84 82 77 83 78 84 79 85 80 86 81 87
REMARK SMILES IDX 57 88 58 89 67 90 59 91 60 92 66 93 68 94 61 95 62 96 63 97
REMARK SMILES IDX 64 98 65 99
REMARK H PARENT 23 24 27 30 89 49 55 60
REMARK Flexibility Score: inf
ROOT
ATOM      1  C   UNL     1      -8.050 -10.402  10.647  1.00  0.00     0.188 C 
ENDROOT
BRANCH   1   2
ATOM      2  C   UNL     1      -7.453 -10.666   9.299  1.00  0.00    -0.003 C 
ATOM      3  C   UNL     1      -6.640  -9.797   8.679  1.00  0.00    -0.029 C 
BRANCH   3   4
ATOM      4  C   UNL     1      -6.142  -9.950   7.269  1.00  0.00     0.031 C 
BRANCH   4   5
ATOM      5  C   UNL     1      -6.718  -8.881   6.324  1.00  0.00     0.031 C 
BRANCH   5   6
ATOM      6  C   UNL     1      -6.272  -7.486   6.670  1.00  0.00    -0.031 C 
ATOM      7  C   UNL     1      -5.463  -6.737   5.904  1.00  0.00    -0.027 C 
BRANCH   7   8
ATOM      8  C   UNL     1      -4.982  -5.367   6.292  1.00  0.00     0.054 C 
BRANCH   8   9
ATOM      9  C   UNL     1      -3.481  -5.330   6.326  1.00  0.00    -0.027 C 
ATOM     10  C   UNL     1      -2.730  -4.508   5.576  1.00  0.00    -0.027 C 
BRANCH  10  11
ATOM     11  C   UNL     1      -1.229  -4.502   5.578  1.00  0.00     0.054 C 
BRANCH  11  12
ATOM     12  C   UNL     1      -0.701  -4.797   4.203  1.00  0.00    -0.027 C 
ATOM     13  C   UNL     1       0.070  -3.955   3.495  1.00  0.00    -0.027 C 
BRANCH  13  14
ATOM     14  C   UNL     1       0.573  -4.237   2.110  1.00  0.00     0.054 C 
BRANCH  14  15
ATOM     15  C   UNL     1       0.099  -3.186   1.146  1.00  0.00    -0.027 C 
ATOM     16  C   UNL     1       0.915  -2.383   0.445  1.00  0.00    -0.031 C 
BRANCH  16  17
ATOM     17  C   UNL     1       0.434  -1.324  -0.504  1.00  0.00     0.023 C 
ATOM     18  C   UNL     1       0.912   0.056  -0.080  1.00  0.00     0.008 C 
ENDBRANCH  16  17
ENDBRANCH  14  15
ENDBRANCH  13  14
ENDBRANCH  11  12
ENDBRANCH  10  11
ENDBRANCH   8   9
ENDBRANCH   7   8
ENDBRANCH   5   6
ENDBRANCH   4   5
ENDBRANCH   3   4
ENDBRANCH   1   2
BRANCH   1  19
ATOM     19  O   UNL     1      -9.476 -10.347  10.556  1.00  0.00    -0.368 OA
BRANCH  19  20
ATOM     20  C   UNL     1      -9.965  -9.272   9.765  1.00  0.00     0.260 C 
BRANCH  20  21
ATOM     21  C   UNL     1      -9.603  -7.852  10.216  1.00  0.00     0.246 C 
ATOM     22  O   UNL     1      -8.911  -7.103   9.525  1.00  0.00    -0.272 OA
ATOM     23  N   UNL     1     -10.080  -7.396  11.412  1.00  0.00    -0.354 N 
ATOM     24  H   UNL     1      -9.844  -6.469  11.646  1.00  0.00     0.163 HD
BRANCH  23  25
ATOM     25  C   UNL     1     -10.893  -8.108  12.381  1.00  0.00     0.117 C 
BRANCH  25  26
ATOM     26  C   UNL     1     -10.111  -8.476  13.637  1.00  0.00     0.042 C 
BRANCH  26  27
ATOM     27  C   UNL     1      -9.574  -7.281  14.423  1.00  0.00     0.118 C 
BRANCH  27  28
ATOM     28  N   UNL     1     -10.623  -6.382  14.882  1.00  0.00    -0.352 N 
ATOM     29  C   UNL     1     -10.928  -5.934  16.142  1.00  0.00     0.251 C 
ATOM     30  H   UNL     1     -11.211  -6.038  14.170  1.00  0.00     0.163 HD
ATOM     31  O   UNL     1     -11.969  -5.297  16.311  1.00  0.00    -0.269 OA
BRANCH  29  32
ATOM     32  C   UNL     1     -10.044  -6.218  17.294  1.00  0.00     0.039 A 
ATOM     33  C   UNL     1     -10.630  -6.540  18.523  1.00  0.00     0.014 A 
ATOM     34  C   UNL     1      -8.653  -6.134  17.192  1.00  0.00     0.014 A 
ATOM     35  C   UNL     1      -9.825  -6.837  19.625  1.00  0.00     0.010 A 
ATOM     36  C   UNL     1      -7.850  -6.501  18.272  1.00  0.00     0.010 A 
ATOM     37  C   UNL     1      -8.426  -6.856  19.500  1.00  0.00    -0.014 A 
BRANCH  37  38
ATOM     38  C   UNL     1      -7.560  -7.255  20.641  1.00  0.00     0.031 A 
ATOM     39  C   UNL     1      -6.598  -6.272  21.253  1.00  0.00     0.074 A 
ATOM     40  C   UNL     1      -7.602  -8.525  21.092  1.00  0.00     0.049 A 
ATOM     41  N   UNL     1      -5.732  -6.456  22.217  1.00  0.00    -0.248 NA
ATOM     42  C   UNL     1      -6.593  -4.911  20.694  1.00  0.00     0.031 C 
ATOM     43  C   UNL     1      -8.457  -9.586  20.553  1.00  0.00     0.029 A 
ATOM     44  N   UNL     1      -6.907  -9.143  22.102  1.00  0.00    -0.354 N 
ATOM     45  C   UNL     1      -5.072  -5.242  22.373  1.00  0.00     0.074 A 
ATOM     46  C   UNL     1      -5.603  -4.344  21.370  1.00  0.00     0.031 C 
ATOM     47  C   UNL     1      -8.253 -10.714  21.253  1.00  0.00     0.029 A 
ATOM     48  C   UNL     1      -7.230 -10.470  22.264  1.00  0.00     0.049 A 
ATOM     49  H   UNL     1      -6.240  -8.679  22.658  1.00  0.00     0.167 HD
ATOM     50  C   UNL     1      -4.128  -4.899  23.283  1.00  0.00     0.037 A 
ATOM     51  C   UNL     1      -6.753 -11.389  23.126  1.00  0.00     0.037 A 
ATOM     52  C   UNL     1      -3.618  -5.790  24.294  1.00  0.00     0.049 A 
ATOM     53  C   UNL     1      -5.705 -10.984  24.127  1.00  0.00     0.074 A 
ATOM     54  C   UNL     1      -2.698  -5.521  25.293  1.00  0.00     0.029 A 
ATOM     55  N   UNL     1      -3.982  -7.121  24.436  1.00  0.00    -0.354 N 
ATOM     56  N   UNL     1      -5.135  -9.816  24.296  1.00  0.00    -0.248 NA
ATOM     57  C   UNL     1      -5.242 -12.021  25.059  1.00  0.00     0.031 C 
ATOM     58  C   UNL     1      -2.476  -6.700  26.013  1.00  0.00     0.029 A 
ATOM     59  C   UNL     1      -3.293  -7.691  25.494  1.00  0.00     0.049 A 
ATOM     60  H   UNL     1      -4.634  -7.591  23.868  1.00  0.00     0.167 HD
ATOM     61  C   UNL     1      -4.265  -9.970  25.369  1.00  0.00     0.074 A 
ATOM     62  C   UNL     1      -4.395 -11.341  25.818  1.00  0.00     0.031 C 
ATOM     63  C   UNL     1      -3.434  -9.057  25.933  1.00  0.00     0.037 A 
BRANCH  50  64
ATOM     64  C   UNL     1      -3.588  -3.495  23.231  1.00  0.00     0.058 A 
ATOM     65  C   UNL     1      -4.371  -2.392  23.608  1.00  0.00     0.135 A 
ATOM     66  C   UNL     1      -2.263  -3.251  22.835  1.00  0.00     0.135 A 
ATOM     67  F   UNL     1      -5.649  -2.565  23.981  1.00  0.00    -0.206 F 
ATOM     68  C   UNL     1      -3.870  -1.095  23.564  1.00  0.00     0.059 A 
ATOM     69  C   UNL     1      -1.732  -1.964  22.811  1.00  0.00     0.059 A 
ATOM     70  F   UNL     1      -1.469  -4.269  22.466  1.00  0.00    -0.206 F 
ATOM     71  C   UNL     1      -2.549  -0.891  23.163  1.00  0.00     0.060 A 
BRANCH  71  72
ATOM     72  S   UNL     1      -1.914   0.798  23.113  1.00  0.00     0.124 S 
ATOM     73  O   UNL     1      -2.586   1.327  21.930  1.00  0.00    -0.237 OA
ATOM     74  O   UNL     1      -2.365   1.340  24.392  1.00  0.00    -0.237 OA
ATOM     75  O   UNL     1      -0.471   0.616  22.987  1.00  0.00    -0.744 OA
ENDBRANCH  71  72
ENDBRANCH  50  64
BRANCH  51  76
ATOM     76  C   UNL     1      -7.284 -12.778  23.098  1.00  0.00     0.058 A 
ATOM     77  C   UNL     1      -8.104 -13.256  24.131  1.00  0.00     0.135 A 
ATOM     78  C   UNL     1      -6.995 -13.648  22.036  1.00  0.00     0.135 A 
ATOM     79  F   UNL     1      -8.404 -12.463  25.171  1.00  0.00    -0.206 F 
ATOM     80  C   UNL     1      -8.607 -14.553  24.122  1.00  0.00     0.059 A 
ATOM     81  C   UNL     1      -7.506 -14.942  21.992  1.00  0.00     0.059 A 
ATOM     82  F   UNL     1      -6.229 -13.233  21.015  1.00  0.00    -0.206 F 
ATOM     83  C   UNL     1      -8.303 -15.388  23.045  1.00  0.00     0.060 A 
BRANCH  83  84
ATOM     84  S   UNL     1      -9.001 -17.054  23.018  1.00  0.00     0.124 S 
ATOM     85  O   UNL     1      -8.190 -17.728  24.025  1.00  0.00    -0.237 OA
ATOM     86  O   UNL     1     -10.394 -16.809  23.377  1.00  0.00    -0.237 OA
ATOM     87  O   UNL     1      -8.784 -17.485  21.640  1.00  0.00    -0.744 OA
ENDBRANCH  83  84
ENDBRANCH  51  76
BRANCH  63  88
ATOM     88  C   UNL     1      -2.625  -9.503  27.120  1.00  0.00     0.058 A 
ATOM     89  C   UNL     1      -1.534 -10.376  26.984  1.00  0.00     0.135 A 
ATOM     90  C   UNL     1      -2.923  -9.021  28.405  1.00  0.00     0.135 A 
ATOM     91  F   UNL     1      -1.211 -10.871  25.779  1.00  0.00    -0.206 F 
ATOM     92  C   UNL     1      -0.786 -10.780  28.085  1.00  0.00     0.059 A 
ATOM     93  C   UNL     1      -2.170  -9.389  29.516  1.00  0.00     0.059 A 
ATOM     94  F   UNL     1      -3.948  -8.174  28.588  1.00  0.00    -0.206 F 
ATOM     95  C   UNL     1      -1.112 -10.281  29.348  1.00  0.00     0.060 A 
BRANCH  95  96
ATOM     96  S   UNL     1      -0.120 -10.795  30.766  1.00  0.00     0.124 S 
ATOM     97  O   UNL     1      -0.599 -12.156  30.981  1.00  0.00    -0.237 OA
ATOM     98  O   UNL     1       1.242 -10.675  30.256  1.00  0.00    -0.237 OA
ATOM     99  O   UNL     1      -0.483  -9.831  31.801  1.00  0.00    -0.744 OA
ENDBRANCH  95  96
ENDBRANCH  63  88
ENDBRANCH  37  38
ENDBRANCH  29  32
ENDBRANCH  27  28
ENDBRANCH  26  27
ENDBRANCH  25  26
ENDBRANCH  23  25
ENDBRANCH  20  21
ENDBRANCH  19  20
ENDBRANCH   1  19
TORSDOF 26
