REMARK SMILES O=C(NCCCNC(=O)[C@@H]1CCCC[C@@H]1C(=O)Nc1nc(-c2ccc(Cl)c(Cl)c2)cs1)c1ccc(-c2c3nc(c(-c4c(F)cc(S(=O)(=O)[O-])cc4F)c4ccc([nH]4)c(-c4c(F)cc(S(=O)(=O)[O-])cc4F)c4nc(c(-c5c(F)cc(S(=O)(=O)[O-])cc5F)c5ccc2[nH]5)C=C4)C=C3)cc1
REMARK SMILES IDX 5 1 4 2 3 3 1 4 2 5 32 7 33 8 97 9 34 10 96 11 35 12 36 13
REMARK SMILES IDX 37 14 90 15 38 16 95 17 89 18 91 19 39 20 94 21 88 22 87 23
REMARK SMILES IDX 40 25 74 26 53 27 73 28 54 29 57 30 72 31 92 32 55 33 56 34
REMARK SMILES IDX 71 36 93 37 58 38 41 39 42 40 51 41 43 42 44 43 50 44 52 45
REMARK SMILES IDX 45 46 46 47 47 48 48 49 49 50 75 51 76 52 85 53 77 54 78 55
REMARK SMILES IDX 84 56 86 57 79 58 80 59 81 60 82 61 83 62 59 63 60 64 69 65
REMARK SMILES IDX 61 66 62 67 68 68 70 69 63 70 64 71 65 72 66 73 67 74 6 75
REMARK SMILES IDX 7 76 8 77 9 79 10 80 11 81 15 82 12 83 14 84 13 85 16 86
REMARK SMILES IDX 17 87 18 88 19 90 20 91 31 92 21 93 30 94 22 95 23 96 29 97
REMARK SMILES IDX 24 98 27 99 25 100 28 101 26 102
REMARK H PARENT 3 6 91 24 57 35 7 78 18 89
REMARK Flexibility Score: inf
ROOT
ATOM      1  C   UNL     1       4.445   0.807  -2.489  1.00  0.00     0.042 C 
ENDROOT
BRANCH   1   2
ATOM      2  C   UNL     1       4.311   1.123  -1.004  1.00  0.00     0.118 C 
BRANCH   2   3
ATOM      3  N   UNL     1       2.924   1.043  -0.553  1.00  0.00    -0.352 N 
ATOM      4  O   UNL     1       1.083   0.082   0.309  1.00  0.00    -0.269 OA
ATOM      5  C   UNL     1       2.307   0.122   0.262  1.00  0.00     0.251 C 
ATOM      6  H   UNL     1       2.338   1.761  -0.884  1.00  0.00     0.163 HD
BRANCH   5   7
ATOM      7  C   UNL     1       3.117  -0.810   1.076  1.00  0.00     0.039 A 
ATOM      8  C   UNL     1       4.293  -0.371   1.681  1.00  0.00     0.014 A 
ATOM      9  C   UNL     1       2.679  -2.124   1.276  1.00  0.00     0.014 A 
ATOM     10  C   UNL     1       5.112  -1.276   2.337  1.00  0.00     0.010 A 
ATOM     11  C   UNL     1       3.448  -3.006   2.045  1.00  0.00     0.010 A 
ATOM     12  C   UNL     1       4.684  -2.595   2.563  1.00  0.00    -0.014 A 
BRANCH  12  13
ATOM     13  C   UNL     1       5.526  -3.459   3.429  1.00  0.00     0.031 A 
ATOM     14  C   UNL     1       6.175  -4.709   2.906  1.00  0.00     0.074 A 
ATOM     15  C   UNL     1       5.766  -3.040   4.688  1.00  0.00     0.049 A 
ATOM     16  N   UNL     1       7.011  -5.513   3.514  1.00  0.00    -0.248 NA
ATOM     17  C   UNL     1       5.841  -5.121   1.534  1.00  0.00     0.031 C 
ATOM     18  C   UNL     1       5.160  -1.855   5.307  1.00  0.00     0.029 A 
ATOM     19  N   UNL     1       6.607  -3.520   5.657  1.00  0.00    -0.354 N 
ATOM     20  C   UNL     1       7.299  -6.526   2.607  1.00  0.00     0.074 A 
ATOM     21  C   UNL     1       6.521  -6.255   1.416  1.00  0.00     0.031 C 
ATOM     22  C   UNL     1       5.705  -1.658   6.514  1.00  0.00     0.029 A 
ATOM     23  C   UNL     1       6.640  -2.740   6.790  1.00  0.00     0.049 A 
ATOM     24  H   UNL     1       7.136  -4.344   5.553  1.00  0.00     0.167 HD
ATOM     25  C   UNL     1       8.143  -7.575   2.755  1.00  0.00     0.037 A 
ATOM     26  C   UNL     1       7.336  -2.884   7.932  1.00  0.00     0.037 A 
ATOM     27  C   UNL     1       8.917  -7.826   3.947  1.00  0.00     0.049 A 
ATOM     28  C   UNL     1       8.269  -4.051   8.063  1.00  0.00     0.074 A 
ATOM     29  C   UNL     1       9.801  -8.862   4.199  1.00  0.00     0.029 A 
ATOM     30  N   UNL     1       8.905  -7.030   5.084  1.00  0.00    -0.354 N 
ATOM     31  N   UNL     1       8.532  -4.993   7.189  1.00  0.00    -0.248 NA
ATOM     32  C   UNL     1       8.995  -4.179   9.331  1.00  0.00     0.031 C 
ATOM     33  C   UNL     1      10.296  -8.711   5.499  1.00  0.00     0.029 A 
ATOM     34  C   UNL     1       9.757  -7.557   6.043  1.00  0.00     0.049 A 
ATOM     35  H   UNL     1       8.370  -6.211   5.194  1.00  0.00     0.167 HD
ATOM     36  C   UNL     1       9.453  -5.831   7.803  1.00  0.00     0.074 A 
ATOM     37  C   UNL     1       9.732  -5.258   9.105  1.00  0.00     0.031 C 
ATOM     38  C   UNL     1      10.009  -6.977   7.338  1.00  0.00     0.037 A 
BRANCH  25  39
ATOM     39  C   UNL     1       8.277  -8.538   1.606  1.00  0.00     0.058 A 
ATOM     40  C   UNL     1       8.964  -8.191   0.432  1.00  0.00     0.135 A 
ATOM     41  C   UNL     1       7.770  -9.845   1.703  1.00  0.00     0.135 A 
ATOM     42  F   UNL     1       9.455  -6.951   0.278  1.00  0.00    -0.206 F 
ATOM     43  C   UNL     1       9.131  -9.098  -0.610  1.00  0.00     0.059 A 
ATOM     44  C   UNL     1       7.946 -10.777   0.682  1.00  0.00     0.059 A 
ATOM     45  F   UNL     1       7.104 -10.231   2.802  1.00  0.00    -0.206 F 
ATOM     46  C   UNL     1       8.621 -10.391  -0.474  1.00  0.00     0.060 A 
BRANCH  46  47
ATOM     47  S   UNL     1       8.870 -11.563  -1.826  1.00  0.00     0.124 S 
ATOM     48  O   UNL     1       7.951 -11.044  -2.835  1.00  0.00    -0.237 OA
ATOM     49  O   UNL     1      10.290 -11.402  -2.121  1.00  0.00    -0.237 OA
ATOM     50  O   UNL     1       8.497 -12.845  -1.238  1.00  0.00    -0.744 OA
ENDBRANCH  46  47
ENDBRANCH  25  39
BRANCH  26  51
ATOM     51  C   UNL     1       7.146  -1.912   9.042  1.00  0.00     0.058 A 
ATOM     52  C   UNL     1       8.168  -1.036   9.433  1.00  0.00     0.135 A 
ATOM     53  C   UNL     1       5.920  -1.831   9.722  1.00  0.00     0.135 A 
ATOM     54  F   UNL     1       9.359  -1.075   8.815  1.00  0.00    -0.206 F 
ATOM     55  C   UNL     1       7.991  -0.130  10.474  1.00  0.00     0.059 A 
ATOM     56  C   UNL     1       5.707  -0.911  10.742  1.00  0.00     0.059 A 
ATOM     57  F   UNL     1       4.901  -2.632   9.371  1.00  0.00    -0.206 F 
ATOM     58  C   UNL     1       6.755  -0.076  11.122  1.00  0.00     0.060 A 
BRANCH  58  59
ATOM     59  S   UNL     1       6.516   1.126  12.448  1.00  0.00     0.124 S 
ATOM     60  O   UNL     1       7.228   0.489  13.550  1.00  0.00    -0.237 OA
ATOM     61  O   UNL     1       7.136   2.326  11.895  1.00  0.00    -0.237 OA
ATOM     62  O   UNL     1       5.064   1.188  12.585  1.00  0.00    -0.744 OA
ENDBRANCH  58  59
ENDBRANCH  26  51
BRANCH  38  63
ATOM     63  C   UNL     1      10.976  -7.673   8.253  1.00  0.00     0.058 A 
ATOM     64  C   UNL     1      10.540  -8.346   9.406  1.00  0.00     0.135 A 
ATOM     65  C   UNL     1      12.352  -7.666   7.976  1.00  0.00     0.135 A 
ATOM     66  F   UNL     1       9.235  -8.374   9.719  1.00  0.00    -0.206 F 
ATOM     67  C   UNL     1      11.439  -8.951  10.276  1.00  0.00     0.059 A 
ATOM     68  C   UNL     1      13.267  -8.290   8.817  1.00  0.00     0.059 A 
ATOM     69  F   UNL     1      12.819  -7.046   6.880  1.00  0.00    -0.206 F 
ATOM     70  C   UNL     1      12.802  -8.912   9.976  1.00  0.00     0.060 A 
BRANCH  70  71
ATOM     71  S   UNL     1      13.962  -9.696  11.115  1.00  0.00     0.124 S 
ATOM     72  O   UNL     1      14.004  -8.725  12.204  1.00  0.00    -0.237 OA
ATOM     73  O   UNL     1      13.299 -10.961  11.418  1.00  0.00    -0.237 OA
ATOM     74  O   UNL     1      15.186  -9.810  10.327  1.00  0.00    -0.744 OA
ENDBRANCH  70  71
ENDBRANCH  38  63
ENDBRANCH  12  13
ENDBRANCH   5   7
ENDBRANCH   2   3
ENDBRANCH   1   2
BRANCH   1  75
ATOM     75  C   UNL     1       3.841   1.895  -3.366  1.00  0.00     0.117 C 
BRANCH  75  76
ATOM     76  N   UNL     1       4.685   3.071  -3.406  1.00  0.00    -0.356 N 
ATOM     77  C   UNL     1       5.729   3.443  -4.180  1.00  0.00     0.223 C 
ATOM     78  H   UNL     1       4.448   3.742  -2.726  1.00  0.00     0.163 HD
ATOM     79  O   UNL     1       6.276   4.499  -3.833  1.00  0.00    -0.275 OA
BRANCH  77  80
ATOM     80  C   UNL     1       6.157   2.752  -5.491  1.00  0.00     0.091 C 
ATOM     81  C   UNL     1       5.876   1.258  -5.697  1.00  0.00     0.014 C 
ATOM     82  C   UNL     1       7.651   3.113  -5.757  1.00  0.00     0.091 C 
ATOM     83  C   UNL     1       6.457   0.689  -6.990  1.00  0.00     0.001 C 
ATOM     84  C   UNL     1       8.143   2.522  -7.089  1.00  0.00     0.014 C 
ATOM     85  C   UNL     1       7.926   1.016  -7.160  1.00  0.00     0.001 C 
BRANCH  82  86
ATOM     86  C   UNL     1       8.584   2.655  -4.621  1.00  0.00     0.230 C 
ATOM     87  O   UNL     1       8.226   1.804  -3.800  1.00  0.00    -0.274 OA
ATOM     88  N   UNL     1       9.883   3.072  -4.576  1.00  0.00    -0.302 N 
ATOM     89  H   UNL     1      10.497   2.550  -4.011  1.00  0.00     0.172 HD
BRANCH  88  90
ATOM     90  C   UNL     1      10.414   4.139  -5.237  1.00  0.00     0.189 A 
ATOM     91  N   UNL     1       9.793   5.114  -5.847  1.00  0.00    -0.220 NA
ATOM     92  S   UNL     1      12.120   4.208  -5.242  1.00  0.00    -0.105 S 
ATOM     93  C   UNL     1      10.714   6.016  -6.329  1.00  0.00     0.084 A 
ATOM     94  C   UNL     1      12.038   5.658  -6.166  1.00  0.00     0.097 A 
BRANCH  93  95
ATOM     95  C   UNL     1      10.286   7.282  -6.883  1.00  0.00     0.003 A 
ATOM     96  C   UNL     1       9.747   8.247  -6.022  1.00  0.00     0.012 A 
ATOM     97  C   UNL     1      10.378   7.546  -8.252  1.00  0.00     0.032 A 
ATOM     98  C   UNL     1       9.327   9.481  -6.521  1.00  0.00     0.023 A 
ATOM     99  C   UNL     1       9.946   8.779  -8.754  1.00  0.00     0.060 A 
ATOM    100  C   UNL     1       9.427   9.751  -7.888  1.00  0.00     0.059 A 
ATOM    101  Cl  UNL     1      10.079   9.042 -10.458  1.00  0.00    -0.083 Cl
ATOM    102  Cl  UNL     1       8.894  11.299  -8.440  1.00  0.00    -0.083 Cl
ENDBRANCH  93  95
ENDBRANCH  88  90
ENDBRANCH  82  86
ENDBRANCH  77  80
ENDBRANCH  75  76
ENDBRANCH   1  75
TORSDOF 16
