REMARK SMILES CC(=O)Nc1cccc(-c2cc(F)ccc2C(=O)NCCCNC(=O)c2ccc(-c3c4nc(c(-c5c(F)cc(S(=O)(=O)[O-])cc5F)c5ccc([nH]5)c(-c5c(F)cc(S(=O)(=O)[O-])cc5F)c5nc(c(-c6c(F)cc(S(=O)(=O)[O-])cc6F)c6ccc3[nH]6)C=C5)C=C4)cc2)c1
REMARK SMILES IDX 21 1 20 2 19 3 17 4 18 5 16 7 10 8 11 9 12 10 15 11 13 12
REMARK SMILES IDX 14 13 9 14 5 15 6 16 92 17 7 18 8 19 4 20 1 21 2 22 3 23
REMARK SMILES IDX 22 25 23 26 24 27 25 29 26 30 27 31 91 32 28 33 90 34 29 35
REMARK SMILES IDX 30 36 31 37 84 38 32 39 89 40 83 41 85 42 33 43 88 44 82 45
REMARK SMILES IDX 81 46 34 48 68 49 47 50 67 51 48 52 51 53 66 54 86 55 49 56
REMARK SMILES IDX 50 57 65 59 87 60 52 61 35 62 36 63 45 64 37 65 38 66 44 67
REMARK SMILES IDX 46 68 39 69 40 70 41 71 42 72 43 73 69 74 70 75 79 76 71 77
REMARK SMILES IDX 72 78 78 79 80 80 73 81 74 82 75 83 76 84 77 85 53 86 54 87
REMARK SMILES IDX 63 88 55 89 56 90 62 91 64 92 57 93 58 94 59 95 60 96 61 97
REMARK H PARENT 19 6 4 24 23 28 85 47 51 58
REMARK Flexibility Score: inf
ROOT
ATOM      1  C   UNL     1       3.606  -0.696   5.017  1.00  0.00     0.042 C 
ENDROOT
BRANCH   1   2
ATOM      2  C   UNL     1       3.877  -0.711   3.534  1.00  0.00     0.118 C 
BRANCH   2   3
ATOM      3  N   UNL     1       4.888   0.137   2.986  1.00  0.00    -0.352 N 
ATOM      4  C   UNL     1       5.588  -0.042   1.813  1.00  0.00     0.251 C 
ATOM      5  O   UNL     1       6.183   0.957   1.393  1.00  0.00    -0.269 OA
ATOM      6  H   UNL     1       5.111   0.942   3.507  1.00  0.00     0.163 HD
BRANCH   4   7
ATOM      7  C   UNL     1       5.789  -1.349   1.065  1.00  0.00     0.047 A 
ATOM      8  C   UNL     1       4.907  -2.439   0.787  1.00  0.00    -0.003 A 
ATOM      9  C   UNL     1       5.408  -3.520   0.012  1.00  0.00     0.048 A 
ATOM     10  C   UNL     1       6.707  -3.540  -0.477  1.00  0.00     0.123 A 
ATOM     11  C   UNL     1       7.110  -1.418   0.538  1.00  0.00     0.017 A 
ATOM     12  F   UNL     1       7.125  -4.583  -1.204  1.00  0.00    -0.207 F 
ATOM     13  C   UNL     1       7.567  -2.495  -0.221  1.00  0.00     0.040 A 
BRANCH   8  14
ATOM     14  C   UNL     1       3.508  -2.608   1.241  1.00  0.00    -0.015 A 
ATOM     15  C   UNL     1       1.259  -1.715   1.584  1.00  0.00     0.041 A 
ATOM     16  C   UNL     1       0.996  -2.745   2.496  1.00  0.00     0.026 A 
ATOM     17  C   UNL     1       2.500  -1.682   0.923  1.00  0.00     0.034 A 
ATOM     18  C   UNL     1       1.940  -3.740   2.736  1.00  0.00     0.003 A 
ATOM     19  C   UNL     1       3.184  -3.674   2.112  1.00  0.00     0.009 A 
BRANCH  15  20
ATOM     20  N   UNL     1       0.342  -0.646   1.559  1.00  0.00    -0.326 N 
ATOM     21  C   UNL     1       0.762   0.321  -0.690  1.00  0.00     0.114 C 
ATOM     22  C   UNL     1       0.208   0.408   0.704  1.00  0.00     0.221 C 
ATOM     23  O   UNL     1      -0.403   1.416   1.062  1.00  0.00    -0.275 OA
ATOM     24  H   UNL     1      -0.320  -0.664   2.288  1.00  0.00     0.169 HD
ENDBRANCH  15  20
ENDBRANCH   8  14
ENDBRANCH   4   7
ENDBRANCH   2   3
ENDBRANCH   1   2
BRANCH   1  25
ATOM     25  C   UNL     1       2.670   0.401   5.503  1.00  0.00     0.118 C 
BRANCH  25  26
ATOM     26  N   UNL     1       1.374   0.451   4.819  1.00  0.00    -0.352 N 
ATOM     27  C   UNL     1       0.109   0.001   5.133  1.00  0.00     0.251 C 
ATOM     28  H   UNL     1       1.416   0.903   3.946  1.00  0.00     0.163 HD
ATOM     29  O   UNL     1      -0.727  -0.043   4.235  1.00  0.00    -0.269 OA
BRANCH  27  30
ATOM     30  C   UNL     1      -0.249  -0.489   6.489  1.00  0.00     0.039 A 
ATOM     31  C   UNL     1      -1.321  -1.380   6.637  1.00  0.00     0.014 A 
ATOM     32  C   UNL     1       0.442  -0.087   7.625  1.00  0.00     0.014 A 
ATOM     33  C   UNL     1      -1.603  -1.940   7.888  1.00  0.00     0.010 A 
ATOM     34  C   UNL     1       0.282  -0.772   8.820  1.00  0.00     0.010 A 
ATOM     35  C   UNL     1      -0.756  -1.695   8.979  1.00  0.00    -0.014 A 
BRANCH  35  36
ATOM     36  C   UNL     1      -0.934  -2.355  10.300  1.00  0.00     0.031 A 
ATOM     37  C   UNL     1      -1.058  -1.517  11.550  1.00  0.00     0.074 A 
ATOM     38  C   UNL     1      -0.874  -3.700  10.388  1.00  0.00     0.049 A 
ATOM     39  N   UNL     1      -1.080  -1.894  12.802  1.00  0.00    -0.248 NA
ATOM     40  C   UNL     1      -1.110  -0.054  11.371  1.00  0.00     0.031 C 
ATOM     41  C   UNL     1      -0.683  -4.619   9.262  1.00  0.00     0.029 A 
ATOM     42  N   UNL     1      -0.957  -4.531  11.476  1.00  0.00    -0.354 N 
ATOM     43  C   UNL     1      -1.105  -0.722  13.551  1.00  0.00     0.074 A 
ATOM     44  C   UNL     1      -1.022   0.378  12.619  1.00  0.00     0.031 C 
ATOM     45  C   UNL     1      -0.709  -5.883   9.712  1.00  0.00     0.029 A 
ATOM     46  C   UNL     1      -0.865  -5.867  11.161  1.00  0.00     0.049 A 
ATOM     47  H   UNL     1      -1.071  -4.202  12.397  1.00  0.00     0.167 HD
ATOM     48  C   UNL     1      -1.222  -0.573  14.892  1.00  0.00     0.037 A 
ATOM     49  C   UNL     1      -0.900  -6.956  11.953  1.00  0.00     0.037 A 
ATOM     50  C   UNL     1      -1.366  -1.676  15.805  1.00  0.00     0.049 A 
ATOM     51  C   UNL     1      -1.069  -6.767  13.436  1.00  0.00     0.074 A 
ATOM     52  C   UNL     1      -1.582  -1.642  17.171  1.00  0.00     0.029 A 
ATOM     53  N   UNL     1      -1.312  -3.014  15.441  1.00  0.00    -0.354 N 
ATOM     54  N   UNL     1      -1.166  -5.651  14.120  1.00  0.00    -0.248 NA
ATOM     55  C   UNL     1      -1.144  -7.984  14.254  1.00  0.00     0.031 C 
ATOM     56  C   UNL     1      -1.608  -2.959  17.641  1.00  0.00     0.029 A 
ATOM     57  C   UNL     1      -1.468  -3.815  16.560  1.00  0.00     0.049 A 
ATOM     58  H   UNL     1      -1.182  -3.346  14.523  1.00  0.00     0.167 HD
ATOM     59  C   UNL     1      -1.343  -6.032  15.446  1.00  0.00     0.074 A 
ATOM     60  C   UNL     1      -1.359  -7.481  15.461  1.00  0.00     0.031 C 
ATOM     61  C   UNL     1      -1.482  -5.257  16.551  1.00  0.00     0.037 A 
BRANCH  48  62
ATOM     62  C   UNL     1      -1.212   0.828  15.447  1.00  0.00     0.058 A 
ATOM     63  C   UNL     1      -2.253   1.737  15.195  1.00  0.00     0.135 A 
ATOM     64  C   UNL     1      -0.154   1.262  16.264  1.00  0.00     0.135 A 
ATOM     65  F   UNL     1      -3.283   1.385  14.408  1.00  0.00    -0.206 F 
ATOM     66  C   UNL     1      -2.228   3.034  15.698  1.00  0.00     0.059 A 
ATOM     67  C   UNL     1      -0.126   2.543  16.807  1.00  0.00     0.059 A 
ATOM     68  F   UNL     1       0.870   0.438  16.539  1.00  0.00    -0.206 F 
ATOM     69  C   UNL     1      -1.159   3.428  16.504  1.00  0.00     0.060 A 
BRANCH  69  70
ATOM     70  S   UNL     1      -1.147   5.112  17.154  1.00  0.00     0.124 S 
ATOM     71  O   UNL     1      -0.852   5.885  15.952  1.00  0.00    -0.237 OA
ATOM     72  O   UNL     1      -2.500   5.252  17.681  1.00  0.00    -0.237 OA
ATOM     73  O   UNL     1      -0.086   5.082  18.157  1.00  0.00    -0.744 OA
ENDBRANCH  69  70
ENDBRANCH  48  62
BRANCH  49  74
ATOM     74  C   UNL     1      -0.819  -8.318  11.358  1.00  0.00     0.058 A 
ATOM     75  C   UNL     1      -1.936  -9.168  11.357  1.00  0.00     0.135 A 
ATOM     76  C   UNL     1       0.362  -8.794  10.768  1.00  0.00     0.135 A 
ATOM     77  F   UNL     1      -3.088  -8.761  11.911  1.00  0.00    -0.206 F 
ATOM     78  C   UNL     1      -1.881 -10.447  10.813  1.00  0.00     0.059 A 
ATOM     79  C   UNL     1       0.434 -10.059  10.191  1.00  0.00     0.059 A 
ATOM     80  F   UNL     1       1.454  -8.014  10.722  1.00  0.00    -0.206 F 
ATOM     81  C   UNL     1      -0.691 -10.883  10.229  1.00  0.00     0.060 A 
BRANCH  81  82
ATOM     82  S   UNL     1      -0.645 -12.528   9.485  1.00  0.00     0.124 S 
ATOM     83  O   UNL     1      -0.671 -13.385  10.664  1.00  0.00    -0.237 OA
ATOM     84  O   UNL     1      -1.855 -12.526   8.668  1.00  0.00    -0.237 OA
ATOM     85  O   UNL     1       0.608 -12.522   8.736  1.00  0.00    -0.744 OA
ENDBRANCH  81  82
ENDBRANCH  49  74
BRANCH  61  86
ATOM     86  C   UNL     1      -1.702  -5.964  17.860  1.00  0.00     0.058 A 
ATOM     87  C   UNL     1      -0.684  -6.703  18.483  1.00  0.00     0.135 A 
ATOM     88  C   UNL     1      -2.944  -5.881  18.509  1.00  0.00     0.135 A 
ATOM     89  F   UNL     1       0.521  -6.817  17.902  1.00  0.00    -0.206 F 
ATOM     90  C   UNL     1      -0.904  -7.373  19.681  1.00  0.00     0.059 A 
ATOM     91  C   UNL     1      -3.175  -6.513  19.726  1.00  0.00     0.059 A 
ATOM     92  F   UNL     1      -3.947  -5.173  17.965  1.00  0.00    -0.206 F 
ATOM     93  C   UNL     1      -2.155  -7.274  20.294  1.00  0.00     0.060 A 
BRANCH  93  94
ATOM     94  S   UNL     1      -2.428  -8.147  21.849  1.00  0.00     0.124 S 
ATOM     95  O   UNL     1      -2.520  -9.531  21.395  1.00  0.00    -0.237 OA
ATOM     96  O   UNL     1      -1.230  -7.808  22.612  1.00  0.00    -0.237 OA
ATOM     97  O   UNL     1      -3.669  -7.566  22.351  1.00  0.00    -0.744 OA
ENDBRANCH  93  94
ENDBRANCH  61  86
ENDBRANCH  35  36
ENDBRANCH  27  30
ENDBRANCH  25  26
ENDBRANCH   1  25
TORSDOF 15
