REMARK SMILES Cc1ccc(-c2nn(CCC(=O)NCCCNC(=O)c3ccc(-c4c5nc(c(-c6c(F)cc(S(=O)(=O)[O-])cc6F)c6ccc([nH]6)c(-c6c(F)cc(S(=O)(=O)[O-])cc6F)c6nc(c(-c7c(F)cc(S(=O)(=O)[O-])cc7F)c7ccc4[nH]7)C=C6)C=C5)cc3)c(=O)c3noc(C)c23)cc1C
REMARK SMILES IDX 15 1 14 2 13 3 11 4 12 5 10 7 9 8 8 9 6 10 7 11 93 12 88 13
REMARK SMILES IDX 91 14 86 15 89 16 90 17 92 18 87 19 5 20 1 21 2 22 3 23
REMARK SMILES IDX 95 24 4 25 94 26 96 27 16 28 17 29 18 30 19 32 20 33 21 34
REMARK SMILES IDX 85 35 22 36 84 37 23 38 24 39 25 40 78 41 26 42 83 43 77 44
REMARK SMILES IDX 79 45 27 46 82 47 76 48 75 49 28 51 62 52 41 53 61 54 42 55
REMARK SMILES IDX 45 56 60 57 80 58 43 59 44 60 59 62 81 63 46 64 29 65 30 66
REMARK SMILES IDX 39 67 31 68 32 69 38 70 40 71 33 72 34 73 35 74 36 75 37 76
REMARK SMILES IDX 63 77 64 78 73 79 65 80 66 81 72 82 74 83 67 84 68 85 69 86
REMARK SMILES IDX 70 87 71 88 47 89 48 90 57 91 49 92 50 93 56 94 58 95 51 96
REMARK SMILES IDX 52 97 53 98 54 99 55 100
REMARK H PARENT 13 6 17 31 79 50 45 61
REMARK Flexibility Score: inf
ROOT
ATOM      1  C   UNL     1      -5.808  -4.534   1.148  1.00  0.00     0.042 C 
ENDROOT
BRANCH   1   2
ATOM      2  C   UNL     1      -5.465  -5.139  -0.215  1.00  0.00     0.117 C 
BRANCH   2   3
ATOM      3  N   UNL     1      -6.581  -5.008  -1.140  1.00  0.00    -0.356 N 
ATOM      4  C   UNL     1      -6.808  -4.130  -2.155  1.00  0.00     0.221 C 
ATOM      5  O   UNL     1      -7.913  -4.149  -2.703  1.00  0.00    -0.275 OA
ATOM      6  H   UNL     1      -7.297  -5.670  -1.008  1.00  0.00     0.163 HD
BRANCH   4   7
ATOM      7  C   UNL     1      -5.729  -3.192  -2.653  1.00  0.00     0.124 C 
BRANCH   7   8
ATOM      8  C   UNL     1      -5.878  -1.769  -2.118  1.00  0.00     0.158 C 
BRANCH   8   9
ATOM      9  N   UNL     1      -5.030  -1.509  -0.953  1.00  0.00    -0.227 N 
ATOM     10  C   UNL     1      -2.824  -1.153  -0.222  1.00  0.00     0.104 A 
ATOM     11  N   UNL     1      -3.659  -1.273  -1.219  1.00  0.00    -0.169 NA
ATOM     12  C   UNL     1      -3.281  -1.378   1.117  1.00  0.00     0.078 A 
ATOM     13  C   UNL     1      -4.652  -1.356   1.395  1.00  0.00     0.183 A 
ATOM     14  C   UNL     1      -2.683  -1.702   2.309  1.00  0.00     0.143 A 
ATOM     15  C   UNL     1      -5.633  -1.362   0.323  1.00  0.00     0.296 A 
ATOM     16  N   UNL     1      -4.896  -1.511   2.701  1.00  0.00    -0.074 NA
ATOM     17  O   UNL     1      -3.651  -1.744   3.274  1.00  0.00    -0.360 OA
ATOM     18  C   UNL     1      -1.323  -2.063   2.754  1.00  0.00     0.091 C 
ATOM     19  O   UNL     1      -6.844  -1.350   0.507  1.00  0.00    -0.265 OA
BRANCH  10  20
ATOM     20  C   UNL     1      -1.500  -0.534  -0.392  1.00  0.00     0.003 A 
ATOM     21  C   UNL     1       2.208   1.603   0.022  1.00  0.00     0.044 C 
ATOM     22  C   UNL     1       0.937   0.823  -0.178  1.00  0.00    -0.048 A 
ATOM     23  C   UNL     1      -0.271   1.534  -0.241  1.00  0.00     0.004 A 
ATOM     24  C   UNL     1       0.920  -0.588  -0.268  1.00  0.00    -0.048 A 
ATOM     25  C   UNL     1      -1.483   0.862  -0.344  1.00  0.00     0.011 A 
ATOM     26  C   UNL     1      -0.313  -1.262  -0.390  1.00  0.00     0.014 A 
ATOM     27  C   UNL     1       2.168  -1.421  -0.141  1.00  0.00     0.044 C 
ENDBRANCH  10  20
ENDBRANCH   8   9
ENDBRANCH   7   8
ENDBRANCH   4   7
ENDBRANCH   2   3
ENDBRANCH   1   2
BRANCH   1  28
ATOM     28  C   UNL     1      -5.719  -5.445   2.375  1.00  0.00     0.118 C 
BRANCH  28  29
ATOM     29  N   UNL     1      -4.343  -5.845   2.620  1.00  0.00    -0.352 N 
ATOM     30  C   UNL     1      -3.465  -5.633   3.651  1.00  0.00     0.251 C 
ATOM     31  H   UNL     1      -3.961  -6.384   1.891  1.00  0.00     0.163 HD
ATOM     32  O   UNL     1      -2.271  -5.771   3.358  1.00  0.00    -0.269 OA
BRANCH  30  33
ATOM     33  C   UNL     1      -3.825  -5.293   5.063  1.00  0.00     0.039 A 
ATOM     34  C   UNL     1      -2.754  -4.923   5.900  1.00  0.00     0.014 A 
ATOM     35  C   UNL     1      -5.089  -5.425   5.643  1.00  0.00     0.014 A 
ATOM     36  C   UNL     1      -2.941  -4.666   7.261  1.00  0.00     0.010 A 
ATOM     37  C   UNL     1      -5.284  -5.139   7.009  1.00  0.00     0.010 A 
ATOM     38  C   UNL     1      -4.215  -4.749   7.827  1.00  0.00    -0.014 A 
BRANCH  38  39
ATOM     39  C   UNL     1      -4.377  -4.293   9.229  1.00  0.00     0.031 A 
ATOM     40  C   UNL     1      -5.514  -3.350   9.465  1.00  0.00     0.074 A 
ATOM     41  C   UNL     1      -3.917  -5.004  10.283  1.00  0.00     0.049 A 
ATOM     42  N   UNL     1      -6.742  -3.758   9.593  1.00  0.00    -0.248 NA
ATOM     43  C   UNL     1      -5.391  -1.899   9.322  1.00  0.00     0.031 C 
ATOM     44  C   UNL     1      -3.897  -6.472  10.318  1.00  0.00     0.029 A 
ATOM     45  N   UNL     1      -3.627  -4.633  11.580  1.00  0.00    -0.354 N 
ATOM     46  C   UNL     1      -7.563  -2.647   9.511  1.00  0.00     0.074 A 
ATOM     47  C   UNL     1      -6.679  -1.514   9.347  1.00  0.00     0.031 C 
ATOM     48  C   UNL     1      -3.781  -6.874  11.601  1.00  0.00     0.029 A 
ATOM     49  C   UNL     1      -3.565  -5.713  12.463  1.00  0.00     0.049 A 
ATOM     50  H   UNL     1      -3.478  -3.699  11.856  1.00  0.00     0.167 HD
ATOM     51  C   UNL     1      -8.918  -2.736   9.585  1.00  0.00     0.037 A 
ATOM     52  C   UNL     1      -3.903  -5.669  13.784  1.00  0.00     0.037 A 
ATOM     53  C   UNL     1      -9.425  -4.059   9.807  1.00  0.00     0.049 A 
ATOM     54  C   UNL     1      -5.398  -5.506  13.689  1.00  0.00     0.074 A 
ATOM     55  C   UNL     1      -9.900  -5.106   9.049  1.00  0.00     0.029 A 
ATOM     56  N   UNL     1      -9.407  -4.538  11.097  1.00  0.00    -0.354 N 
ATOM     57  N   UNL     1      -6.251  -6.462  13.427  1.00  0.00    -0.248 NA
ATOM     58  C   UNL     1      -5.924  -4.153  13.502  1.00  0.00     0.031 C 
ATOM     59  C   UNL     1      -9.693  -6.276   9.848  1.00  0.00     0.029 A 
ATOM     60  C   UNL     1      -9.074  -5.867  11.028  1.00  0.00     0.049 A 
ATOM     61  H   UNL     1      -9.598  -4.024  11.914  1.00  0.00     0.167 HD
ATOM     62  C   UNL     1      -7.310  -5.840  12.763  1.00  0.00     0.074 A 
ATOM     63  C   UNL     1      -7.057  -4.417  12.865  1.00  0.00     0.031 C 
ATOM     64  C   UNL     1      -8.227  -6.511  12.008  1.00  0.00     0.037 A 
BRANCH  51  65
ATOM     65  C   UNL     1      -9.861  -1.597   9.636  1.00  0.00     0.058 A 
ATOM     66  C   UNL     1     -10.416  -1.262  10.881  1.00  0.00     0.135 A 
ATOM     67  C   UNL     1     -10.413  -1.016   8.489  1.00  0.00     0.135 A 
ATOM     68  F   UNL     1      -9.919  -1.806  12.005  1.00  0.00    -0.206 F 
ATOM     69  C   UNL     1     -11.519  -0.428  10.988  1.00  0.00     0.059 A 
ATOM     70  C   UNL     1     -11.517  -0.164   8.572  1.00  0.00     0.059 A 
ATOM     71  F   UNL     1      -9.926  -1.316   7.275  1.00  0.00    -0.206 F 
ATOM     72  C   UNL     1     -12.079   0.099   9.824  1.00  0.00     0.060 A 
BRANCH  72  73
ATOM     73  S   UNL     1     -13.581   1.089   9.988  1.00  0.00     0.124 S 
ATOM     74  O   UNL     1     -14.524   0.118  10.535  1.00  0.00    -0.237 OA
ATOM     75  O   UNL     1     -13.150   2.140  10.904  1.00  0.00    -0.237 OA
ATOM     76  O   UNL     1     -13.853   1.525   8.622  1.00  0.00    -0.744 OA
ENDBRANCH  72  73
ENDBRANCH  51  65
BRANCH  52  77
ATOM     77  C   UNL     1      -3.018  -4.828  14.655  1.00  0.00     0.058 A 
ATOM     78  C   UNL     1      -1.625  -5.053  14.592  1.00  0.00     0.135 A 
ATOM     79  C   UNL     1      -3.433  -3.814  15.533  1.00  0.00     0.135 A 
ATOM     80  F   UNL     1      -1.140  -6.099  13.903  1.00  0.00    -0.206 F 
ATOM     81  C   UNL     1      -0.702  -4.211  15.203  1.00  0.00     0.059 A 
ATOM     82  C   UNL     1      -2.527  -2.938  16.138  1.00  0.00     0.059 A 
ATOM     83  F   UNL     1      -4.730  -3.625  15.810  1.00  0.00    -0.206 F 
ATOM     84  C   UNL     1      -1.164  -3.117  15.926  1.00  0.00     0.060 A 
BRANCH  84  85
ATOM     85  S   UNL     1       0.040  -1.902  16.502  1.00  0.00     0.124 S 
ATOM     86  O   UNL     1       0.870  -2.694  17.401  1.00  0.00    -0.237 OA
ATOM     87  O   UNL     1       0.668  -1.496  15.248  1.00  0.00    -0.237 OA
ATOM     88  O   UNL     1      -0.786  -0.882  17.141  1.00  0.00    -0.744 OA
ENDBRANCH  84  85
ENDBRANCH  52  77
BRANCH  64  89
ATOM     89  C   UNL     1      -8.165  -8.000  12.065  1.00  0.00     0.058 A 
ATOM     90  C   UNL     1      -8.597  -8.677  13.213  1.00  0.00     0.135 A 
ATOM     91  C   UNL     1      -7.754  -8.769  10.963  1.00  0.00     0.135 A 
ATOM     92  F   UNL     1      -9.006  -7.990  14.292  1.00  0.00    -0.206 F 
ATOM     93  C   UNL     1      -8.662 -10.066  13.254  1.00  0.00     0.059 A 
ATOM     94  C   UNL     1      -7.834 -10.159  10.974  1.00  0.00     0.059 A 
ATOM     95  F   UNL     1      -7.307  -8.179   9.842  1.00  0.00    -0.206 F 
ATOM     96  C   UNL     1      -8.300 -10.798  12.121  1.00  0.00     0.060 A 
BRANCH  96  97
ATOM     97  S   UNL     1      -8.529 -12.588  12.147  1.00  0.00     0.124 S 
ATOM     98  O   UNL     1      -7.520 -13.013  13.112  1.00  0.00    -0.237 OA
ATOM     99  O   UNL     1      -9.916 -12.716  12.583  1.00  0.00    -0.237 OA
ATOM    100  O   UNL     1      -8.279 -12.987  10.764  1.00  0.00    -0.744 OA
ENDBRANCH  96  97
ENDBRANCH  64  89
ENDBRANCH  38  39
ENDBRANCH  30  33
ENDBRANCH  28  29
ENDBRANCH   1  28
TORSDOF 16
