REMARK SMILES Cc1ncccc1OC1(C(=O)NCCCNC(=O)c2ccc(-c3c4nc(c(-c5c(F)cc(S(=O)(=O)[O-])cc5F)c5ccc([nH]5)c(-c5c(F)cc(S(=O)(=O)[O-])cc5F)c5nc(c(-c6c(F)cc(S(=O)(=O)[O-])cc6F)c6ccc3[nH]6)C=C5)C=C4)cc2)CCN(C(=O)c2ccc(O)nn2)CC1
REMARK SMILES IDX 14 1 13 2 12 3 10 4 11 5 9 7 85 8 98 9 86 10 97 11 87 12
REMARK SMILES IDX 88 13 89 14 8 15 7 16 1 17 2 18 3 19 4 20 6 21 5 22 90 23
REMARK SMILES IDX 91 24 96 25 92 26 95 27 93 28 94 29 15 31 16 32 17 33 18 35
REMARK SMILES IDX 19 36 20 37 84 38 21 39 83 40 22 41 23 42 24 43 77 44 25 45
REMARK SMILES IDX 82 46 76 47 78 48 26 49 81 50 75 51 74 52 27 54 61 55 40 56
REMARK SMILES IDX 60 57 41 58 44 59 59 60 79 61 42 62 43 63 58 65 80 66 45 67
REMARK SMILES IDX 28 68 29 69 38 70 30 71 31 72 37 73 39 74 32 75 33 76 34 77
REMARK SMILES IDX 35 78 36 79 62 80 63 81 72 82 64 83 65 84 71 85 73 86 66 87
REMARK SMILES IDX 67 88 68 89 69 90 70 91 46 92 47 93 56 94 48 95 49 96 55 97
REMARK SMILES IDX 57 98 50 99 51 100 52 101 53 102 54 103
REMARK H PARENT 12 6 94 30 16 34 78 53 44 64
REMARK Flexibility Score: inf
ROOT
ATOM      1  C   UNL     1       5.904  -3.506   1.151  1.00  0.00     0.042 C 
ENDROOT
BRANCH   1   2
ATOM      2  C   UNL     1       5.022  -3.454  -0.090  1.00  0.00     0.118 C 
BRANCH   2   3
ATOM      3  N   UNL     1       3.725  -4.070   0.107  1.00  0.00    -0.353 N 
ATOM      4  C   UNL     1       2.455  -3.565   0.131  1.00  0.00     0.264 C 
ATOM      5  O   UNL     1       1.569  -4.426   0.219  1.00  0.00    -0.270 OA
ATOM      6  H   UNL     1       3.767  -5.043   0.251  1.00  0.00     0.163 HD
BRANCH   4   7
ATOM      7  C   UNL     1       2.125  -2.022   0.056  1.00  0.00     0.190 C 
ATOM      8  C   UNL     1       2.622  -1.372   1.342  1.00  0.00     0.080 C 
ATOM      9  C   UNL     1       2.592  -1.495  -1.296  1.00  0.00     0.080 C 
ATOM     10  C   UNL     1       3.862  -0.506   1.234  1.00  0.00     0.124 C 
ATOM     11  C   UNL     1       3.690  -0.445  -1.309  1.00  0.00     0.124 C 
ATOM     12  N   UNL     1       4.125   0.142  -0.043  1.00  0.00    -0.337 N 
ATOM     13  C   UNL     1       5.075   1.186  -0.011  1.00  0.00     0.274 C 
ATOM     14  O   UNL     1       5.647   1.538   1.020  1.00  0.00    -0.267 OA
BRANCH   7  15
ATOM     15  O   UNL     1       0.672  -2.065   0.067  1.00  0.00    -0.475 OA
BRANCH  15  16
ATOM     16  C   UNL     1      -0.281  -1.098   0.030  1.00  0.00     0.142 A 
ATOM     17  C   UNL     1       0.929   1.191  -0.026  1.00  0.00     0.071 C 
ATOM     18  C   UNL     1      -0.259   0.299  -0.009  1.00  0.00     0.079 A 
ATOM     19  N   UNL     1      -1.405   1.051  -0.035  1.00  0.00    -0.258 NA
ATOM     20  C   UNL     1      -2.595   0.430  -0.010  1.00  0.00     0.111 A 
ATOM     21  C   UNL     1      -1.555  -1.692   0.043  1.00  0.00     0.050 A 
ATOM     22  C   UNL     1      -2.723  -0.936   0.026  1.00  0.00     0.024 A 
ENDBRANCH  15  16
ENDBRANCH   7  15
BRANCH  13  23
ATOM     23  C   UNL     1       5.478   1.833  -1.281  1.00  0.00     0.151 A 
ATOM     24  C   UNL     1       6.802   1.780  -1.687  1.00  0.00     0.042 A 
ATOM     25  N   UNL     1       4.496   2.389  -2.035  1.00  0.00    -0.142 NA
ATOM     26  C   UNL     1       7.113   2.291  -2.939  1.00  0.00     0.072 A 
ATOM     27  N   UNL     1       4.806   2.891  -3.260  1.00  0.00    -0.112 NA
ATOM     28  C   UNL     1       6.084   2.828  -3.680  1.00  0.00     0.230 A 
BRANCH  28  29
ATOM     29  O   UNL     1       6.311   3.320  -4.925  1.00  0.00    -0.492 OA
ATOM     30  H   UNL     1       7.177   3.309  -5.282  1.00  0.00     0.295 HD
ENDBRANCH  28  29
ENDBRANCH  13  23
ENDBRANCH   4   7
ENDBRANCH   2   3
ENDBRANCH   1   2
BRANCH   1  31
ATOM     31  C   UNL     1       6.626  -4.833   1.345  1.00  0.00     0.118 C 
BRANCH  31  32
ATOM     32  N   UNL     1       7.639  -5.068   0.323  1.00  0.00    -0.352 N 
ATOM     33  C   UNL     1       9.007  -5.163   0.414  1.00  0.00     0.251 C 
ATOM     34  H   UNL     1       7.282  -5.178  -0.588  1.00  0.00     0.163 HD
ATOM     35  O   UNL     1       9.667  -5.159  -0.623  1.00  0.00    -0.269 OA
BRANCH  33  36
ATOM     36  C   UNL     1       9.694  -5.251   1.725  1.00  0.00     0.039 A 
ATOM     37  C   UNL     1      10.927  -4.609   1.884  1.00  0.00     0.014 A 
ATOM     38  C   UNL     1       9.168  -6.000   2.780  1.00  0.00     0.014 A 
ATOM     39  C   UNL     1      11.591  -4.658   3.115  1.00  0.00     0.010 A 
ATOM     40  C   UNL     1       9.788  -5.982   4.028  1.00  0.00     0.010 A 
ATOM     41  C   UNL     1      11.008  -5.314   4.210  1.00  0.00    -0.014 A 
BRANCH  41  42
ATOM     42  C   UNL     1      11.650  -5.314   5.551  1.00  0.00     0.031 A 
ATOM     43  C   UNL     1      12.088  -6.609   6.183  1.00  0.00     0.074 A 
ATOM     44  C   UNL     1      11.764  -4.160   6.238  1.00  0.00     0.049 A 
ATOM     45  N   UNL     1      12.557  -6.826   7.385  1.00  0.00    -0.248 NA
ATOM     46  C   UNL     1      11.950  -7.826   5.365  1.00  0.00     0.031 C 
ATOM     47  C   UNL     1      11.332  -2.844   5.760  1.00  0.00     0.029 A 
ATOM     48  N   UNL     1      12.261  -3.909   7.492  1.00  0.00    -0.354 N 
ATOM     49  C   UNL     1      12.741  -8.200   7.480  1.00  0.00     0.074 A 
ATOM     50  C   UNL     1      12.299  -8.772   6.226  1.00  0.00     0.031 C 
ATOM     51  C   UNL     1      11.600  -1.924   6.701  1.00  0.00     0.029 A 
ATOM     52  C   UNL     1      12.187  -2.587   7.862  1.00  0.00     0.049 A 
ATOM     53  H   UNL     1      12.636  -4.610   8.073  1.00  0.00     0.167 HD
ATOM     54  C   UNL     1      13.247  -8.919   8.511  1.00  0.00     0.037 A 
ATOM     55  C   UNL     1      12.544  -1.976   9.008  1.00  0.00     0.037 A 
ATOM     56  C   UNL     1      13.731  -8.344   9.738  1.00  0.00     0.049 A 
ATOM     57  C   UNL     1      13.140  -2.789  10.123  1.00  0.00     0.074 A 
ATOM     58  C   UNL     1      14.329  -8.982  10.811  1.00  0.00     0.029 A 
ATOM     59  N   UNL     1      13.680  -6.995  10.055  1.00  0.00    -0.354 N 
ATOM     60  N   UNL     1      13.352  -4.082  10.175  1.00  0.00    -0.248 NA
ATOM     61  C   UNL     1      13.549  -2.061  11.332  1.00  0.00     0.031 C 
ATOM     62  C   UNL     1      14.616  -8.022  11.788  1.00  0.00     0.029 A 
ATOM     63  C   UNL     1      14.226  -6.782  11.309  1.00  0.00     0.049 A 
ATOM     64  H   UNL     1      13.309  -6.292   9.473  1.00  0.00     0.167 HD
ATOM     65  C   UNL     1      13.939  -4.320  11.412  1.00  0.00     0.074 A 
ATOM     66  C   UNL     1      14.057  -3.037  12.074  1.00  0.00     0.031 C 
ATOM     67  C   UNL     1      14.343  -5.497  11.951  1.00  0.00     0.037 A 
BRANCH  54  68
ATOM     68  C   UNL     1      13.310 -10.413   8.351  1.00  0.00     0.058 A 
ATOM     69  C   UNL     1      14.239 -11.023   7.494  1.00  0.00     0.135 A 
ATOM     70  C   UNL     1      12.450 -11.246   9.085  1.00  0.00     0.135 A 
ATOM     71  F   UNL     1      15.074 -10.272   6.758  1.00  0.00    -0.206 F 
ATOM     72  C   UNL     1      14.293 -12.405   7.346  1.00  0.00     0.059 A 
ATOM     73  C   UNL     1      12.503 -12.632   8.971  1.00  0.00     0.059 A 
ATOM     74  F   UNL     1      11.543 -10.714   9.919  1.00  0.00    -0.206 F 
ATOM     75  C   UNL     1      13.418 -13.201   8.086  1.00  0.00     0.060 A 
BRANCH  75  76
ATOM     76  S   UNL     1      13.496 -14.993   7.881  1.00  0.00     0.124 S 
ATOM     77  O   UNL     1      12.818 -15.168   6.600  1.00  0.00    -0.237 OA
ATOM     78  O   UNL     1      14.933 -15.248   7.876  1.00  0.00    -0.237 OA
ATOM     79  O   UNL     1      12.777 -15.499   9.046  1.00  0.00    -0.744 OA
ENDBRANCH  75  76
ENDBRANCH  54  68
BRANCH  55  80
ATOM     80  C   UNL     1      12.374  -0.506   9.143  1.00  0.00     0.058 A 
ATOM     81  C   UNL     1      13.483   0.350   9.091  1.00  0.00     0.135 A 
ATOM     82  C   UNL     1      11.105   0.072   9.297  1.00  0.00     0.135 A 
ATOM     83  F   UNL     1      14.716  -0.159   8.951  1.00  0.00    -0.206 F 
ATOM     84  C   UNL     1      13.343   1.730   9.195  1.00  0.00     0.059 A 
ATOM     85  C   UNL     1      10.937   1.451   9.383  1.00  0.00     0.059 A 
ATOM     86  F   UNL     1      10.012  -0.706   9.336  1.00  0.00    -0.206 F 
ATOM     87  C   UNL     1      12.064   2.271   9.338  1.00  0.00     0.060 A 
BRANCH  87  88
ATOM     88  S   UNL     1      11.887   4.067   9.408  1.00  0.00     0.124 S 
ATOM     89  O   UNL     1      12.326   4.352  10.769  1.00  0.00    -0.237 OA
ATOM     90  O   UNL     1      12.783   4.507   8.342  1.00  0.00    -0.237 OA
ATOM     91  O   UNL     1      10.466   4.273   9.145  1.00  0.00    -0.744 OA
ENDBRANCH  87  88
ENDBRANCH  55  80
BRANCH  67  92
ATOM     92  C   UNL     1      14.979  -5.450  13.311  1.00  0.00     0.058 A 
ATOM     93  C   UNL     1      14.213  -5.273  14.473  1.00  0.00     0.135 A 
ATOM     94  C   UNL     1      16.362  -5.637  13.456  1.00  0.00     0.135 A 
ATOM     95  F   UNL     1      12.887  -5.084  14.386  1.00  0.00    -0.206 F 
ATOM     96  C   UNL     1      14.800  -5.266  15.734  1.00  0.00     0.059 A 
ATOM     97  C   UNL     1      16.968  -5.654  14.708  1.00  0.00     0.059 A 
ATOM     98  F   UNL     1      17.137  -5.819  12.374  1.00  0.00    -0.206 F 
ATOM     99  C   UNL     1      16.180  -5.457  15.841  1.00  0.00     0.060 A 
BRANCH  99 100
ATOM    100  S   UNL     1      16.928  -5.483  17.484  1.00  0.00     0.124 S 
ATOM    101  O   UNL     1      16.974  -4.061  17.808  1.00  0.00    -0.237 OA
ATOM    102  O   UNL     1      15.975  -6.278  18.252  1.00  0.00    -0.237 OA
ATOM    103  O   UNL     1      18.223  -6.118  17.255  1.00  0.00    -0.744 OA
ENDBRANCH  99 100
ENDBRANCH  67  92
ENDBRANCH  41  42
ENDBRANCH  33  36
ENDBRANCH  31  32
ENDBRANCH   1  31
TORSDOF 17
