REMARK SMILES O=C(NCCCNC(=O)c1ccc(N2C(=O)/C(=C\C3=Cc4ccccc4OC3)SC2=S)cc1)c1ccc(-c2c3nc(c(-c4c(F)cc(S(=O)(=O)[O-])cc4F)c4ccc([nH]4)c(-c4c(F)cc(S(=O)(=O)[O-])cc4F)c4nc(c(-c5c(F)cc(S(=O)(=O)[O-])cc5F)c5ccc2[nH]5)C=C4)C=C3)cc1
REMARK SMILES IDX 4 1 3 2 1 3 2 4 34 6 35 7 99 8 36 9 98 10 37 11 38 12 39 13
REMARK SMILES IDX 92 14 40 15 97 16 91 17 93 18 41 19 96 20 90 21 89 22 42 24
REMARK SMILES IDX 76 25 55 26 75 27 56 28 59 29 74 30 94 31 57 32 58 33 73 35
REMARK SMILES IDX 95 36 60 37 43 38 44 39 53 40 45 41 46 42 52 43 54 44 47 45
REMARK SMILES IDX 48 46 49 47 50 48 51 49 77 50 78 51 87 52 79 53 80 54 86 55
REMARK SMILES IDX 88 56 81 57 82 58 83 59 84 60 85 61 61 62 62 63 71 64 63 65
REMARK SMILES IDX 64 66 70 67 72 68 65 69 66 70 67 71 68 72 69 73 5 74 6 75
REMARK SMILES IDX 7 76 8 77 9 79 10 80 11 81 33 82 12 83 32 84 13 85 14 86
REMARK SMILES IDX 15 87 30 88 16 89 17 90 29 91 31 92 18 93 19 94 20 95 28 96
REMARK SMILES IDX 21 97 27 98 22 99 26 100 23 101 25 102 24 103
REMARK H PARENT 3 5 93 23 59 34 7 78
REMARK Flexibility Score: inf
ROOT
ATOM      1  C   UNL     1       4.650   1.192   1.002  1.00  0.00     0.118 C 
ENDROOT
BRANCH   1   2
ATOM      2  N   UNL     1       3.223   0.960   0.849  1.00  0.00    -0.352 N 
ATOM      3  O   UNL     1       1.318   0.268  -0.112  1.00  0.00    -0.269 OA
ATOM      4  C   UNL     1       2.541   0.172  -0.047  1.00  0.00     0.251 C 
ATOM      5  H   UNL     1       2.654   1.444   1.489  1.00  0.00     0.163 HD
BRANCH   4   6
ATOM      6  C   UNL     1       3.256  -0.773  -0.936  1.00  0.00     0.039 A 
ATOM      7  C   UNL     1       4.321  -1.549  -0.469  1.00  0.00     0.014 A 
ATOM      8  C   UNL     1       2.801  -0.942  -2.249  1.00  0.00     0.014 A 
ATOM      9  C   UNL     1       4.994  -2.406  -1.336  1.00  0.00     0.010 A 
ATOM     10  C   UNL     1       3.431  -1.858  -3.098  1.00  0.00     0.010 A 
ATOM     11  C   UNL     1       4.541  -2.590  -2.652  1.00  0.00    -0.014 A 
BRANCH  11  12
ATOM     12  C   UNL     1       5.163  -3.635  -3.503  1.00  0.00     0.031 A 
ATOM     13  C   UNL     1       5.935  -3.279  -4.742  1.00  0.00     0.074 A 
ATOM     14  C   UNL     1       5.008  -4.926  -3.146  1.00  0.00     0.049 A 
ATOM     15  N   UNL     1       6.520  -4.076  -5.599  1.00  0.00    -0.248 NA
ATOM     16  C   UNL     1       6.061  -1.850  -5.071  1.00  0.00     0.031 C 
ATOM     17  C   UNL     1       4.248  -5.391  -1.980  1.00  0.00     0.029 A 
ATOM     18  N   UNL     1       5.468  -6.083  -3.721  1.00  0.00    -0.354 N 
ATOM     19  C   UNL     1       7.066  -3.254  -6.577  1.00  0.00     0.074 A 
ATOM     20  C   UNL     1       6.734  -1.892  -6.215  1.00  0.00     0.031 C 
ATOM     21  C   UNL     1       4.306  -6.729  -1.920  1.00  0.00     0.029 A 
ATOM     22  C   UNL     1       5.060  -7.222  -3.066  1.00  0.00     0.049 A 
ATOM     23  H   UNL     1       6.035  -6.097  -4.525  1.00  0.00     0.167 HD
ATOM     24  C   UNL     1       7.782  -3.609  -7.671  1.00  0.00     0.037 A 
ATOM     25  C   UNL     1       5.242  -8.520  -3.370  1.00  0.00     0.037 A 
ATOM     26  C   UNL     1       8.135  -4.966  -8.003  1.00  0.00     0.049 A 
ATOM     27  C   UNL     1       6.025  -8.880  -4.600  1.00  0.00     0.074 A 
ATOM     28  C   UNL     1       8.946  -5.414  -9.032  1.00  0.00     0.029 A 
ATOM     29  N   UNL     1       7.688  -6.091  -7.329  1.00  0.00    -0.354 N 
ATOM     30  N   UNL     1       6.607  -8.084  -5.463  1.00  0.00    -0.248 NA
ATOM     31  C   UNL     1       6.167 -10.310  -4.904  1.00  0.00     0.031 C 
ATOM     32  C   UNL     1       8.949  -6.813  -9.010  1.00  0.00     0.029 A 
ATOM     33  C   UNL     1       8.171  -7.235  -7.945  1.00  0.00     0.049 A 
ATOM     34  H   UNL     1       7.112  -6.080  -6.530  1.00  0.00     0.167 HD
ATOM     35  C   UNL     1       7.182  -8.916  -6.415  1.00  0.00     0.074 A 
ATOM     36  C   UNL     1       6.903 -10.277  -6.006  1.00  0.00     0.031 C 
ATOM     37  C   UNL     1       7.871  -8.582  -7.533  1.00  0.00     0.037 A 
BRANCH  24  38
ATOM     38  C   UNL     1       8.241  -2.527  -8.607  1.00  0.00     0.058 A 
ATOM     39  C   UNL     1       9.336  -1.705  -8.304  1.00  0.00     0.135 A 
ATOM     40  C   UNL     1       7.646  -2.388  -9.873  1.00  0.00     0.135 A 
ATOM     41  F   UNL     1       9.933  -1.790  -7.104  1.00  0.00    -0.206 F 
ATOM     42  C   UNL     1       9.828  -0.783  -9.223  1.00  0.00     0.059 A 
ATOM     43  C   UNL     1       8.132  -1.484 -10.813  1.00  0.00     0.059 A 
ATOM     44  F   UNL     1       6.595  -3.150 -10.211  1.00  0.00    -0.206 F 
ATOM     45  C   UNL     1       9.223  -0.684 -10.478  1.00  0.00     0.060 A 
BRANCH  45  46
ATOM     46  S   UNL     1       9.906   0.482 -11.676  1.00  0.00     0.124 S 
ATOM     47  O   UNL     1       9.465   1.759 -11.123  1.00  0.00    -0.237 OA
ATOM     48  O   UNL     1      11.338   0.216 -11.590  1.00  0.00    -0.237 OA
ATOM     49  O   UNL     1       9.273   0.090 -12.932  1.00  0.00    -0.744 OA
ENDBRANCH  45  46
ENDBRANCH  24  38
BRANCH  25  50
ATOM     50  C   UNL     1       4.629  -9.573  -2.519  1.00  0.00     0.058 A 
ATOM     51  C   UNL     1       5.416 -10.408  -1.715  1.00  0.00     0.135 A 
ATOM     52  C   UNL     1       3.238  -9.759  -2.497  1.00  0.00     0.135 A 
ATOM     53  F   UNL     1       6.751 -10.269  -1.708  1.00  0.00    -0.206 F 
ATOM     54  C   UNL     1       4.848 -11.406  -0.930  1.00  0.00     0.059 A 
ATOM     55  C   UNL     1       2.644 -10.733  -1.702  1.00  0.00     0.059 A 
ATOM     56  F   UNL     1       2.441  -8.973  -3.237  1.00  0.00    -0.206 F 
ATOM     57  C   UNL     1       3.460 -11.562  -0.934  1.00  0.00     0.060 A 
BRANCH  57  58
ATOM     58  S   UNL     1       2.722 -12.839   0.108  1.00  0.00     0.124 S 
ATOM     59  O   UNL     1       2.957 -14.037  -0.690  1.00  0.00    -0.237 OA
ATOM     60  O   UNL     1       3.502 -12.727   1.337  1.00  0.00    -0.237 OA
ATOM     61  O   UNL     1       1.330 -12.414   0.219  1.00  0.00    -0.744 OA
ENDBRANCH  57  58
ENDBRANCH  25  50
BRANCH  37  62
ATOM     62  C   UNL     1       8.362  -9.707  -8.397  1.00  0.00     0.058 A 
ATOM     63  C   UNL     1       7.484 -10.417  -9.230  1.00  0.00     0.135 A 
ATOM     64  C   UNL     1       9.723 -10.046  -8.430  1.00  0.00     0.135 A 
ATOM     65  F   UNL     1       6.171 -10.136  -9.224  1.00  0.00    -0.206 F 
ATOM     66  C   UNL     1       7.938 -11.436 -10.059  1.00  0.00     0.059 A 
ATOM     67  C   UNL     1      10.202 -11.048  -9.268  1.00  0.00     0.059 A 
ATOM     68  F   UNL     1      10.602  -9.392  -7.655  1.00  0.00    -0.206 F 
ATOM     69  C   UNL     1       9.300 -11.743 -10.073  1.00  0.00     0.060 A 
BRANCH  69  70
ATOM     70  S   UNL     1       9.884 -13.039 -11.185  1.00  0.00     0.124 S 
ATOM     71  O   UNL     1       9.460 -14.244 -10.481  1.00  0.00    -0.237 OA
ATOM     72  O   UNL     1       9.167 -12.740 -12.421  1.00  0.00    -0.237 OA
ATOM     73  O   UNL     1      11.326 -12.816 -11.236  1.00  0.00    -0.744 OA
ENDBRANCH  69  70
ENDBRANCH  37  62
ENDBRANCH  11  12
ENDBRANCH   4   6
ENDBRANCH   1   2
BRANCH   1  74
ATOM     74  C   UNL     1       5.035   2.653   0.805  1.00  0.00     0.042 C 
BRANCH  74  75
ATOM     75  C   UNL     1       4.439   3.619   1.823  1.00  0.00     0.118 C 
BRANCH  75  76
ATOM     76  N   UNL     1       4.884   3.360   3.183  1.00  0.00    -0.352 N 
ATOM     77  C   UNL     1       5.595   4.143   4.058  1.00  0.00     0.251 C 
ATOM     78  H   UNL     1       4.634   2.476   3.535  1.00  0.00     0.163 HD
ATOM     79  O   UNL     1       5.982   3.662   5.120  1.00  0.00    -0.269 OA
BRANCH  77  80
ATOM     80  C   UNL     1       5.931   5.548   3.737  1.00  0.00     0.039 A 
ATOM     81  C   UNL     1       7.222   5.998   4.008  1.00  0.00     0.016 A 
ATOM     82  C   UNL     1       4.997   6.439   3.216  1.00  0.00     0.016 A 
ATOM     83  C   UNL     1       7.594   7.310   3.684  1.00  0.00     0.027 A 
ATOM     84  C   UNL     1       5.384   7.742   2.868  1.00  0.00     0.027 A 
ATOM     85  C   UNL     1       6.692   8.208   3.089  1.00  0.00     0.051 A 
BRANCH  85  86
ATOM     86  N   UNL     1       7.111   9.504   2.622  1.00  0.00    -0.261 N 
ATOM     87  C   UNL     1       8.414   9.697   2.156  1.00  0.00     0.270 C 
ATOM     88  C   UNL     1       6.330  10.655   2.607  1.00  0.00     0.152 C 
ATOM     89  O   UNL     1       9.433   9.117   2.489  1.00  0.00    -0.268 OA
ATOM     90  C   UNL     1       8.441  10.889   1.262  1.00  0.00     0.081 C 
ATOM     91  S   UNL     1       7.198  11.964   1.780  1.00  0.00    -0.054 SA
ATOM     92  S   UNL     1       4.841  10.978   3.304  1.00  0.00    -0.051 S 
ATOM     93  C   UNL     1       9.100  11.078   0.108  1.00  0.00     0.028 C 
BRANCH  93  94
ATOM     94  C   UNL     1       9.851  10.116  -0.715  1.00  0.00    -0.009 C 
ATOM     95  C   UNL     1      10.280   8.914  -0.278  1.00  0.00     0.019 C 
ATOM     96  C   UNL     1       9.246  10.018  -2.115  1.00  0.00     0.265 C 
ATOM     97  C   UNL     1       9.201   7.890  -0.416  1.00  0.00     0.017 A 
ATOM     98  O   UNL     1       8.017   9.260  -2.063  1.00  0.00    -0.488 OA
ATOM     99  C   UNL     1       9.231   6.729   0.358  1.00  0.00     0.012 A 
ATOM    100  C   UNL     1       8.102   8.139  -1.262  1.00  0.00     0.127 A 
ATOM    101  C   UNL     1       8.146   5.852   0.333  1.00  0.00     0.001 A 
ATOM    102  C   UNL     1       7.012   7.274  -1.267  1.00  0.00     0.047 A 
ATOM    103  C   UNL     1       7.033   6.134  -0.463  1.00  0.00     0.004 A 
ENDBRANCH  93  94
ENDBRANCH  85  86
ENDBRANCH  77  80
ENDBRANCH  75  76
ENDBRANCH  74  75
ENDBRANCH   1  74
TORSDOF 15
