REMARK SMILES CN(C)c1nccnc1N1CCC(Oc2ccc3ccccc3c2)(C(=O)NCCCNC(=O)c2ccc(-c3c4nc(c(-c5c(F)cc(S(=O)(=O)[O-])cc5F)c5ccc([nH]5)c(-c5c(F)cc(S(=O)(=O)[O-])cc5F)c5nc(c(-c6c(F)cc(S(=O)(=O)[O-])cc6F)c6ccc3[nH]6)C=C5)C=C4)cc2)CC1
REMARK SMILES IDX 29 1 28 2 27 3 25 4 26 5 13 7 10 8 11 9 101 10 12 11 100 12
REMARK SMILES IDX 9 13 4 14 5 15 6 16 8 17 7 18 2 19 1 20 3 21 14 22 15 23
REMARK SMILES IDX 16 24 24 25 17 26 23 27 18 28 22 29 19 30 21 31 20 32 30 33
REMARK SMILES IDX 31 34 32 35 33 37 34 38 35 39 99 40 36 41 98 42 37 43 38 44
REMARK SMILES IDX 39 45 92 46 40 47 97 48 91 49 93 50 41 51 96 52 90 53 89 54
REMARK SMILES IDX 42 56 76 57 55 58 75 59 56 60 59 61 74 62 94 63 57 64 58 65
REMARK SMILES IDX 73 67 95 68 60 69 43 70 44 71 53 72 45 73 46 74 52 75 54 76
REMARK SMILES IDX 47 77 48 78 49 79 50 80 51 81 77 82 78 83 87 84 79 85 80 86
REMARK SMILES IDX 86 87 88 88 81 89 82 90 83 91 84 92 85 93 61 94 62 95 71 96
REMARK SMILES IDX 63 97 64 98 70 99 72 100 65 101 66 102 67 103 68 104 69 105
REMARK H PARENT 27 6 31 36 93 55 59 66
REMARK Flexibility Score: inf
ROOT
ATOM      1  C   UNL     1      -5.597  -3.854   4.938  1.00  0.00     0.042 C 
ENDROOT
BRANCH   1   2
ATOM      2  C   UNL     1      -6.173  -3.688   3.538  1.00  0.00     0.118 C 
BRANCH   2   3
ATOM      3  N   UNL     1      -5.702  -2.471   2.902  1.00  0.00    -0.353 N 
ATOM      4  C   UNL     1      -4.903  -2.291   1.810  1.00  0.00     0.264 C 
ATOM      5  O   UNL     1      -4.772  -1.122   1.432  1.00  0.00    -0.270 OA
ATOM      6  H   UNL     1      -6.008  -1.639   3.329  1.00  0.00     0.163 HD
BRANCH   4   7
ATOM      7  C   UNL     1      -4.204  -3.488   1.099  1.00  0.00     0.190 C 
ATOM      8  N   UNL     1      -1.448  -2.751   1.249  1.00  0.00    -0.353 N 
ATOM      9  C   UNL     1      -2.077  -3.257   2.444  1.00  0.00     0.123 C 
ATOM     10  C   UNL     1      -2.237  -2.100   0.215  1.00  0.00     0.123 C 
ATOM     11  C   UNL     1      -3.208  -4.183   2.045  1.00  0.00     0.080 C 
ATOM     12  C   UNL     1      -3.453  -2.962  -0.146  1.00  0.00     0.080 C 
BRANCH   8  13
ATOM     13  C   UNL     1      -0.132  -3.081   0.978  1.00  0.00     0.171 A 
ATOM     14  C   UNL     1       0.835  -2.092   0.599  1.00  0.00     0.171 A 
ATOM     15  N   UNL     1       2.080  -2.463   0.197  1.00  0.00    -0.234 NA
ATOM     16  C   UNL     1       2.357  -3.784   0.239  1.00  0.00     0.134 A 
ATOM     17  N   UNL     1       0.186  -4.401   1.030  1.00  0.00    -0.234 NA
ATOM     18  C   UNL     1       1.438  -4.727   0.652  1.00  0.00     0.134 A 
BRANCH  14  19
ATOM     19  N   UNL     1       0.554  -0.715   0.682  1.00  0.00    -0.360 N 
ATOM     20  C   UNL     1       1.375   0.152  -0.137  1.00  0.00     0.145 C 
ATOM     21  C   UNL     1       0.191  -0.246   2.014  1.00  0.00     0.145 C 
ENDBRANCH  14  19
ENDBRANCH   8  13
BRANCH   7  22
ATOM     22  O   UNL     1      -5.354  -4.284   0.702  1.00  0.00    -0.477 OA
BRANCH  22  23
ATOM     23  C   UNL     1      -5.164  -5.486   0.090  1.00  0.00     0.121 A 
ATOM     24  C   UNL     1      -4.610  -6.584   0.738  1.00  0.00     0.047 A 
ATOM     25  C   UNL     1      -5.712  -5.641  -1.183  1.00  0.00     0.055 A 
ATOM     26  C   UNL     1      -4.471  -7.800   0.070  1.00  0.00     0.012 A 
ATOM     27  C   UNL     1      -5.632  -6.874  -1.851  1.00  0.00    -0.015 A 
ATOM     28  C   UNL     1      -4.973  -7.958  -1.227  1.00  0.00    -0.018 A 
ATOM     29  C   UNL     1      -6.201  -7.063  -3.121  1.00  0.00     0.009 A 
ATOM     30  C   UNL     1      -4.858  -9.182  -1.901  1.00  0.00     0.009 A 
ATOM     31  C   UNL     1      -6.100  -8.296  -3.770  1.00  0.00     0.001 A 
ATOM     32  C   UNL     1      -5.419  -9.349  -3.166  1.00  0.00     0.001 A 
ENDBRANCH  22  23
ENDBRANCH   7  22
ENDBRANCH   4   7
ENDBRANCH   2   3
ENDBRANCH   1   2
BRANCH   1  33
ATOM     33  C   UNL     1      -6.058  -2.788   5.924  1.00  0.00     0.118 C 
BRANCH  33  34
ATOM     34  N   UNL     1      -7.491  -2.845   6.177  1.00  0.00    -0.352 N 
ATOM     35  C   UNL     1      -8.172  -3.104   7.339  1.00  0.00     0.251 C 
ATOM     36  H   UNL     1      -8.059  -2.670   5.392  1.00  0.00     0.163 HD
ATOM     37  O   UNL     1      -9.386  -3.308   7.293  1.00  0.00    -0.269 OA
BRANCH  35  38
ATOM     38  C   UNL     1      -7.462  -3.158   8.634  1.00  0.00     0.039 A 
ATOM     39  C   UNL     1      -7.811  -4.148   9.556  1.00  0.00     0.014 A 
ATOM     40  C   UNL     1      -6.470  -2.227   8.954  1.00  0.00     0.014 A 
ATOM     41  C   UNL     1      -7.124  -4.242  10.768  1.00  0.00     0.010 A 
ATOM     42  C   UNL     1      -5.728  -2.375  10.123  1.00  0.00     0.010 A 
ATOM     43  C   UNL     1      -6.050  -3.380  11.046  1.00  0.00    -0.014 A 
BRANCH  43  44
ATOM     44  C   UNL     1      -5.257  -3.512  12.296  1.00  0.00     0.031 A 
ATOM     45  C   UNL     1      -5.230  -2.390  13.299  1.00  0.00     0.074 A 
ATOM     46  C   UNL     1      -4.514  -4.617  12.499  1.00  0.00     0.049 A 
ATOM     47  N   UNL     1      -4.554  -2.295  14.416  1.00  0.00    -0.248 NA
ATOM     48  C   UNL     1      -6.053  -1.208  12.995  1.00  0.00     0.031 C 
ATOM     49  C   UNL     1      -4.425  -5.758  11.583  1.00  0.00     0.029 A 
ATOM     50  N   UNL     1      -3.687  -4.964  13.538  1.00  0.00    -0.354 N 
ATOM     51  C   UNL     1      -4.861  -1.045  14.941  1.00  0.00     0.074 A 
ATOM     52  C   UNL     1      -5.734  -0.392  13.989  1.00  0.00     0.031 C 
ATOM     53  C   UNL     1      -3.620  -6.689  12.117  1.00  0.00     0.029 A 
ATOM     54  C   UNL     1      -3.098  -6.197  13.388  1.00  0.00     0.049 A 
ATOM     55  H   UNL     1      -3.530  -4.384  14.318  1.00  0.00     0.167 HD
ATOM     56  C   UNL     1      -4.474  -0.500  16.119  1.00  0.00     0.037 A 
ATOM     57  C   UNL     1      -2.232  -6.856  14.182  1.00  0.00     0.037 A 
ATOM     58  C   UNL     1      -3.613  -1.161  17.067  1.00  0.00     0.049 A 
ATOM     59  C   UNL     1      -1.788  -6.218  15.471  1.00  0.00     0.074 A 
ATOM     60  C   UNL     1      -3.196  -0.715  18.308  1.00  0.00     0.029 A 
ATOM     61  N   UNL     1      -3.032  -2.407  16.876  1.00  0.00    -0.354 N 
ATOM     62  N   UNL     1      -2.134  -5.059  15.979  1.00  0.00    -0.248 NA
ATOM     63  C   UNL     1      -0.839  -6.978  16.295  1.00  0.00     0.031 C 
ATOM     64  C   UNL     1      -2.323  -1.667  18.845  1.00  0.00     0.029 A 
ATOM     65  C   UNL     1      -2.241  -2.734  17.965  1.00  0.00     0.049 A 
ATOM     66  H   UNL     1      -3.164  -2.975  16.083  1.00  0.00     0.167 HD
ATOM     67  C   UNL     1      -1.471  -4.966  17.199  1.00  0.00     0.074 A 
ATOM     68  C   UNL     1      -0.711  -6.189  17.354  1.00  0.00     0.031 C 
ATOM     69  C   UNL     1      -1.494  -3.960  18.109  1.00  0.00     0.037 A 
BRANCH  56  70
ATOM     70  C   UNL     1      -4.978   0.882  16.444  1.00  0.00     0.058 A 
ATOM     71  C   UNL     1      -6.334   1.129  16.712  1.00  0.00     0.135 A 
ATOM     72  C   UNL     1      -4.094   1.973  16.496  1.00  0.00     0.135 A 
ATOM     73  F   UNL     1      -7.227   0.127  16.665  1.00  0.00    -0.206 F 
ATOM     74  C   UNL     1      -6.804   2.412  16.974  1.00  0.00     0.059 A 
ATOM     75  C   UNL     1      -4.537   3.260  16.789  1.00  0.00     0.059 A 
ATOM     76  F   UNL     1      -2.786   1.796  16.252  1.00  0.00    -0.206 F 
ATOM     77  C   UNL     1      -5.897   3.473  17.005  1.00  0.00     0.060 A 
BRANCH  77  78
ATOM     78  S   UNL     1      -6.527   5.134  17.323  1.00  0.00     0.124 S 
ATOM     79  O   UNL     1      -7.204   5.433  16.065  1.00  0.00    -0.237 OA
ATOM     80  O   UNL     1      -7.396   4.924  18.476  1.00  0.00    -0.237 OA
ATOM     81  O   UNL     1      -5.319   5.911  17.585  1.00  0.00    -0.744 OA
ENDBRANCH  77  78
ENDBRANCH  56  70
BRANCH  57  82
ATOM     82  C   UNL     1      -1.754  -8.212  13.798  1.00  0.00     0.058 A 
ATOM     83  C   UNL     1      -2.163  -9.346  14.516  1.00  0.00     0.135 A 
ATOM     84  C   UNL     1      -0.897  -8.406  12.704  1.00  0.00     0.135 A 
ATOM     85  F   UNL     1      -2.977  -9.212  15.574  1.00  0.00    -0.206 F 
ATOM     86  C   UNL     1      -1.729 -10.622  14.174  1.00  0.00     0.059 A 
ATOM     87  C   UNL     1      -0.470  -9.675  12.325  1.00  0.00     0.059 A 
ATOM     88  F   UNL     1      -0.489  -7.356  11.974  1.00  0.00    -0.206 F 
ATOM     89  C   UNL     1      -0.885 -10.777  13.073  1.00  0.00     0.060 A 
BRANCH  89  90
ATOM     90  S   UNL     1      -0.369 -12.444  12.607  1.00  0.00     0.124 S 
ATOM     91  O   UNL     1       0.562 -12.774  13.680  1.00  0.00    -0.237 OA
ATOM     92  O   UNL     1      -1.636 -13.168  12.614  1.00  0.00    -0.237 OA
ATOM     93  O   UNL     1       0.229 -12.254  11.289  1.00  0.00    -0.744 OA
ENDBRANCH  89  90
ENDBRANCH  57  82
BRANCH  69  94
ATOM     94  C   UNL     1      -0.704  -4.154  19.375  1.00  0.00     0.058 A 
ATOM     95  C   UNL     1       0.699  -4.117  19.387  1.00  0.00     0.135 A 
ATOM     96  C   UNL     1      -1.365  -4.333  20.602  1.00  0.00     0.135 A 
ATOM     97  F   UNL     1       1.381  -3.957  18.242  1.00  0.00    -0.206 F 
ATOM     98  C   UNL     1       1.420  -4.275  20.567  1.00  0.00     0.059 A 
ATOM     99  C   UNL     1      -0.665  -4.462  21.797  1.00  0.00     0.059 A 
ATOM    100  F   UNL     1      -2.706  -4.367  20.649  1.00  0.00    -0.206 F 
ATOM    101  C   UNL     1       0.728  -4.444  21.768  1.00  0.00     0.060 A 
BRANCH 101 102
ATOM    102  S   UNL     1       1.675  -4.612  23.296  1.00  0.00     0.124 S 
ATOM    103  O   UNL     1       2.218  -5.960  23.158  1.00  0.00    -0.237 OA
ATOM    104  O   UNL     1       2.643  -3.525  23.184  1.00  0.00    -0.237 OA
ATOM    105  O   UNL     1       0.670  -4.444  24.340  1.00  0.00    -0.744 OA
ENDBRANCH 101 102
ENDBRANCH  69  94
ENDBRANCH  43  44
ENDBRANCH  35  38
ENDBRANCH  33  34
ENDBRANCH   1  33
TORSDOF 17
