REMARK SMILES CC[C@@H](C)S(=O)(=O)c1cc(C(=O)NCCCNC(=O)c2ccc(-c3c4nc(c(-c5c(F)cc(S(=O)(=O)[O-])cc5F)c5ccc([nH]5)c(-c5c(F)cc(S(=O)(=O)[O-])cc5F)c5nc(c(-c6c(F)cc(S(=O)(=O)[O-])cc6F)c6ccc3[nH]6)C=C5)C=C4)cc2)c(C)cc1C
REMARK SMILES IDX 15 1 14 2 13 3 11 4 12 5 10 7 8 8 9 9 89 10 88 11 90 12
REMARK SMILES IDX 86 13 87 14 5 15 6 16 7 17 3 18 4 19 2 20 1 21 16 22 17 23
REMARK SMILES IDX 18 24 19 26 20 27 21 28 85 29 22 30 84 31 23 32 24 33 25 34
REMARK SMILES IDX 78 35 26 36 83 37 77 38 79 39 27 40 82 41 76 42 75 43 28 45
REMARK SMILES IDX 62 46 41 47 61 48 42 49 45 50 60 51 80 52 43 53 44 54 59 56
REMARK SMILES IDX 81 57 46 58 29 59 30 60 39 61 31 62 32 63 38 64 40 65 33 66
REMARK SMILES IDX 34 67 35 68 36 69 37 70 63 71 64 72 73 73 65 74 66 75 72 76
REMARK SMILES IDX 74 77 67 78 68 79 69 80 70 81 71 82 47 83 48 84 57 85 49 86
REMARK SMILES IDX 50 87 56 88 58 89 51 90 52 91 53 92 54 93 55 94
REMARK H PARENT 13 6 17 25 79 44 45 55
REMARK Flexibility Score: inf
ROOT
ATOM      1  C   UNL     1      -7.554   0.422   4.397  1.00  0.00     0.042 C 
ENDROOT
BRANCH   1   2
ATOM      2  C   UNL     1      -6.517   0.722   3.312  1.00  0.00     0.118 C 
BRANCH   2   3
ATOM      3  N   UNL     1      -5.379   1.411   3.884  1.00  0.00    -0.352 N 
ATOM      4  C   UNL     1      -4.126   1.046   4.291  1.00  0.00     0.251 C 
ATOM      5  O   UNL     1      -3.448   1.968   4.759  1.00  0.00    -0.269 OA
ATOM      6  H   UNL     1      -5.548   2.372   4.010  1.00  0.00     0.163 HD
BRANCH   4   7
ATOM      7  C   UNL     1      -3.466  -0.296   4.128  1.00  0.00     0.044 A 
ATOM      8  C   UNL     1      -1.211  -1.316   3.850  1.00  0.00     0.071 A 
ATOM      9  C   UNL     1      -2.060  -0.200   3.975  1.00  0.00     0.034 A 
ATOM     10  C   UNL     1      -1.764  -2.600   3.878  1.00  0.00    -0.032 A 
ATOM     11  C   UNL     1      -3.158  -2.702   4.030  1.00  0.00     0.009 A 
ATOM     12  C   UNL     1      -1.005  -3.894   3.793  1.00  0.00     0.046 C 
ATOM     13  C   UNL     1      -4.004  -1.586   4.230  1.00  0.00    -0.038 A 
ATOM     14  C   UNL     1      -5.394  -1.931   4.670  1.00  0.00     0.045 C 
BRANCH   8  15
ATOM     15  S   UNL     1       0.552  -0.983   3.830  1.00  0.00     0.181 S 
ATOM     16  O   UNL     1       1.266  -2.229   3.637  1.00  0.00    -0.223 OA
ATOM     17  O   UNL     1       0.827  -0.185   5.014  1.00  0.00    -0.223 OA
BRANCH  15  18
ATOM     18  C   UNL     1       0.917   0.005   2.378  1.00  0.00     0.110 C 
ATOM     19  C   UNL     1       0.513   1.471   2.506  1.00  0.00     0.025 C 
BRANCH  18  20
ATOM     20  C   UNL     1       0.385  -0.658   1.101  1.00  0.00     0.016 C 
ATOM     21  C   UNL     1       0.908  -0.003  -0.169  1.00  0.00     0.005 C 
ENDBRANCH  18  20
ENDBRANCH  15  18
ENDBRANCH   8  15
ENDBRANCH   4   7
ENDBRANCH   2   3
ENDBRANCH   1   2
BRANCH   1  22
ATOM     22  C   UNL     1      -8.479   1.590   4.722  1.00  0.00     0.118 C 
BRANCH  22  23
ATOM     23  N   UNL     1      -9.574   1.694   3.775  1.00  0.00    -0.352 N 
ATOM     24  C   UNL     1     -10.924   1.504   3.957  1.00  0.00     0.251 C 
ATOM     25  H   UNL     1      -9.309   1.939   2.859  1.00  0.00     0.163 HD
ATOM     26  O   UNL     1     -11.643   1.406   2.964  1.00  0.00    -0.269 OA
BRANCH  24  27
ATOM     27  C   UNL     1     -11.522   1.401   5.313  1.00  0.00     0.039 A 
ATOM     28  C   UNL     1     -12.600   0.529   5.505  1.00  0.00     0.014 A 
ATOM     29  C   UNL     1     -11.087   2.195   6.378  1.00  0.00     0.014 A 
ATOM     30  C   UNL     1     -13.207   0.424   6.762  1.00  0.00     0.010 A 
ATOM     31  C   UNL     1     -11.639   2.032   7.650  1.00  0.00     0.010 A 
ATOM     32  C   UNL     1     -12.716   1.157   7.854  1.00  0.00    -0.014 A 
BRANCH  32  33
ATOM     33  C   UNL     1     -13.335   1.044   9.203  1.00  0.00     0.031 A 
ATOM     34  C   UNL     1     -13.996   2.242   9.836  1.00  0.00     0.074 A 
ATOM     35  C   UNL     1     -13.255  -0.116   9.883  1.00  0.00     0.049 A 
ATOM     36  N   UNL     1     -14.524   2.362  11.027  1.00  0.00    -0.248 NA
ATOM     37  C   UNL     1     -14.046   3.475   9.034  1.00  0.00     0.031 C 
ATOM     38  C   UNL     1     -12.601  -1.335   9.402  1.00  0.00     0.029 A 
ATOM     39  N   UNL     1     -13.715  -0.459  11.131  1.00  0.00    -0.354 N 
ATOM     40  C   UNL     1     -14.947   3.683  11.126  1.00  0.00     0.074 A 
ATOM     41  C   UNL     1     -14.574   4.337   9.890  1.00  0.00     0.031 C 
ATOM     42  C   UNL     1     -12.717  -2.295  10.335  1.00  0.00     0.029 A 
ATOM     43  C   UNL     1     -13.422  -1.753  11.493  1.00  0.00     0.049 A 
ATOM     44  H   UNL     1     -14.209   0.164  11.712  1.00  0.00     0.167 HD
ATOM     45  C   UNL     1     -15.605   4.292  12.142  1.00  0.00     0.037 A 
ATOM     46  C   UNL     1     -13.683  -2.426  12.631  1.00  0.00     0.037 A 
ATOM     47  C   UNL     1     -16.009   3.627  13.354  1.00  0.00     0.049 A 
ATOM     48  C   UNL     1     -14.434  -1.737  13.737  1.00  0.00     0.074 A 
ATOM     49  C   UNL     1     -16.738   4.139  14.414  1.00  0.00     0.029 A 
ATOM     50  N   UNL     1     -15.722   2.307  13.667  1.00  0.00    -0.354 N 
ATOM     51  N   UNL     1     -14.877  -0.503  13.787  1.00  0.00    -0.248 NA
ATOM     52  C   UNL     1     -14.728  -2.531  14.938  1.00  0.00     0.031 C 
ATOM     53  C   UNL     1     -16.860   3.138  15.384  1.00  0.00     0.029 A 
ATOM     54  C   UNL     1     -16.245   1.991  14.910  1.00  0.00     0.049 A 
ATOM     55  H   UNL     1     -15.220   1.686  13.091  1.00  0.00     0.167 HD
ATOM     56  C   UNL     1     -15.522  -0.380  15.013  1.00  0.00     0.074 A 
ATOM     57  C   UNL     1     -15.422  -1.668  15.668  1.00  0.00     0.031 C 
ATOM     58  C   UNL     1     -16.142   0.701  15.547  1.00  0.00     0.037 A 
BRANCH  45  59
ATOM     59  C   UNL     1     -15.936   5.751  11.985  1.00  0.00     0.058 A 
ATOM     60  C   UNL     1     -16.918   6.191  11.083  1.00  0.00     0.135 A 
ATOM     61  C   UNL     1     -15.288   6.720  12.769  1.00  0.00     0.135 A 
ATOM     62  F   UNL     1     -17.559   5.310  10.299  1.00  0.00    -0.206 F 
ATOM     63  C   UNL     1     -17.224   7.541  10.940  1.00  0.00     0.059 A 
ATOM     64  C   UNL     1     -15.597   8.073  12.662  1.00  0.00     0.059 A 
ATOM     65  F   UNL     1     -14.342   6.355  13.649  1.00  0.00    -0.206 F 
ATOM     66  C   UNL     1     -16.555   8.475  11.732  1.00  0.00     0.060 A 
BRANCH  66  67
ATOM     67  S   UNL     1     -16.962  10.223  11.535  1.00  0.00     0.124 S 
ATOM     68  O   UNL     1     -16.306  10.533  10.269  1.00  0.00    -0.237 OA
ATOM     69  O   UNL     1     -18.421  10.204  11.503  1.00  0.00    -0.237 OA
ATOM     70  O   UNL     1     -16.373  10.845  12.716  1.00  0.00    -0.744 OA
ENDBRANCH  66  67
ENDBRANCH  45  59
BRANCH  46  71
ATOM     71  C   UNL     1     -13.249  -3.842  12.769  1.00  0.00     0.058 A 
ATOM     72  C   UNL     1     -14.183  -4.888  12.736  1.00  0.00     0.135 A 
ATOM     73  C   UNL     1     -11.894  -4.178  12.910  1.00  0.00     0.135 A 
ATOM     74  F   UNL     1     -15.491  -4.615  12.609  1.00  0.00    -0.206 F 
ATOM     75  C   UNL     1     -13.792  -6.218  12.849  1.00  0.00     0.059 A 
ATOM     76  C   UNL     1     -11.476  -5.503  13.002  1.00  0.00     0.059 A 
ATOM     77  F   UNL     1     -10.960  -3.215  12.930  1.00  0.00    -0.206 F 
ATOM     78  C   UNL     1     -12.434  -6.516  12.977  1.00  0.00     0.060 A 
BRANCH  78  79
ATOM     79  S   UNL     1     -11.930  -8.248  13.059  1.00  0.00     0.124 S 
ATOM     80  O   UNL     1     -12.319  -8.604  14.418  1.00  0.00    -0.237 OA
ATOM     81  O   UNL     1     -12.722  -8.849  11.989  1.00  0.00    -0.237 OA
ATOM     82  O   UNL     1     -10.493  -8.190  12.805  1.00  0.00    -0.744 OA
ENDBRANCH  78  79
ENDBRANCH  46  71
BRANCH  58  83
ATOM     83  C   UNL     1     -16.787   0.534  16.894  1.00  0.00     0.058 A 
ATOM     84  C   UNL     1     -16.026   0.455  18.070  1.00  0.00     0.135 A 
ATOM     85  C   UNL     1     -18.186   0.505  17.013  1.00  0.00     0.135 A 
ATOM     86  F   UNL     1     -14.685   0.471  18.009  1.00  0.00    -0.206 F 
ATOM     87  C   UNL     1     -16.629   0.333  19.317  1.00  0.00     0.059 A 
ATOM     88  C   UNL     1     -18.810   0.408  18.252  1.00  0.00     0.059 A 
ATOM     89  F   UNL     1     -18.959   0.588  15.919  1.00  0.00    -0.206 F 
ATOM     90  C   UNL     1     -18.023   0.311  19.398  1.00  0.00     0.060 A 
BRANCH  90  91
ATOM     91  S   UNL     1     -18.795   0.187  21.025  1.00  0.00     0.124 S 
ATOM     92  O   UNL     1     -18.589  -1.222  21.341  1.00  0.00    -0.237 OA
ATOM     93  O   UNL     1     -18.016   1.135  21.816  1.00  0.00    -0.237 OA
ATOM     94  O   UNL     1     -20.179   0.579  20.775  1.00  0.00    -0.744 OA
ENDBRANCH  90  91
ENDBRANCH  58  83
ENDBRANCH  32  33
ENDBRANCH  24  27
ENDBRANCH  22  23
ENDBRANCH   1  22
TORSDOF 16
