REMARK SMILES CC[C@@H](C)[C@H](NC(=O)CCc1ccc(F)c(F)c1)C(=O)NCCCNC(=O)c1ccc(-c2c3nc(c(-c4c(F)cc(S(=O)(=O)[O-])cc4F)c4ccc([nH]4)c(-c4c(F)cc(S(=O)(=O)[O-])cc4F)c4nc(c(-c5c(F)cc(S(=O)(=O)[O-])cc5F)c5ccc2[nH]5)C=C4)C=C3)cc1
REMARK SMILES IDX 22 1 21 2 19 3 20 4 5 6 3 7 4 8 2 9 1 10 6 11 7 12 8 14 9 15
REMARK SMILES IDX 10 16 11 17 12 18 18 19 13 20 16 21 14 22 17 23 15 24 23 25
REMARK SMILES IDX 24 26 25 27 26 28 27 30 28 31 29 32 93 33 30 34 92 35 31 36
REMARK SMILES IDX 32 37 33 38 86 39 34 40 91 41 85 42 87 43 35 44 90 45 84 46
REMARK SMILES IDX 83 47 36 49 70 50 49 51 69 52 50 53 53 54 68 55 88 56 51 57
REMARK SMILES IDX 52 58 67 60 89 61 54 62 37 63 38 64 47 65 39 66 40 67 46 68
REMARK SMILES IDX 48 69 41 70 42 71 43 72 44 73 45 74 71 75 72 76 81 77 73 78
REMARK SMILES IDX 74 79 80 80 82 81 75 82 76 83 77 84 78 85 79 86 55 87 56 88
REMARK SMILES IDX 65 89 57 90 58 91 64 92 66 93 59 94 60 95 61 96 62 97 63 98
REMARK H PARENT 21 5 6 13 25 29 87 48 53 59
REMARK Flexibility Score: inf
ROOT
ATOM      1  C   UNL     1       4.489   1.172   3.972  1.00  0.00     0.117 C 
ENDROOT
BRANCH   1   2
ATOM      2  N   UNL     1       3.550   1.545   5.019  1.00  0.00    -0.354 N 
ATOM      3  C   UNL     1       2.214   1.343   5.154  1.00  0.00     0.242 C 
ATOM      4  O   UNL     1       1.720   1.650   6.244  1.00  0.00    -0.273 OA
ATOM      5  H   UNL     1       3.959   2.035   5.768  1.00  0.00     0.163 HD
BRANCH   3   6
ATOM      6  C   UNL     1       1.376   0.614   4.084  1.00  0.00     0.174 C 
BRANCH   6   7
ATOM      7  C   UNL     1       1.387  -0.937   4.342  1.00  0.00     0.018 C 
ATOM      8  C   UNL     1       0.520  -1.270   5.566  1.00  0.00     0.010 C 
BRANCH   7   9
ATOM      9  C   UNL     1       2.804  -1.544   4.465  1.00  0.00     0.002 C 
ATOM     10  C   UNL     1       2.882  -3.004   4.883  1.00  0.00     0.004 C 
ENDBRANCH   7   9
ENDBRANCH   6   7
BRANCH   6  11
ATOM     11  N   UNL     1       1.638   0.944   2.673  1.00  0.00    -0.344 N 
ATOM     12  C   UNL     1       1.395   2.146   2.057  1.00  0.00     0.220 C 
ATOM     13  H   UNL     1       2.026   0.231   2.116  1.00  0.00     0.164 HD
ATOM     14  O   UNL     1       0.949   2.132   0.909  1.00  0.00    -0.275 OA
BRANCH  12  15
ATOM     15  C   UNL     1       1.761   3.454   2.736  1.00  0.00     0.105 C 
BRANCH  15  16
ATOM     16  C   UNL     1       0.603   4.404   3.007  1.00  0.00     0.045 C 
BRANCH  16  17
ATOM     17  C   UNL     1      -0.444   3.810   3.912  1.00  0.00    -0.044 A 
ATOM     18  C   UNL     1      -0.352   3.929   5.307  1.00  0.00     0.007 A 
ATOM     19  C   UNL     1      -1.496   3.068   3.354  1.00  0.00     0.046 A 
ATOM     20  C   UNL     1      -1.290   3.301   6.132  1.00  0.00     0.043 A 
ATOM     21  C   UNL     1      -2.420   2.443   4.182  1.00  0.00     0.159 A 
ATOM     22  C   UNL     1      -2.316   2.556   5.562  1.00  0.00     0.158 A 
ATOM     23  F   UNL     1      -3.396   1.706   3.636  1.00  0.00    -0.204 F 
ATOM     24  F   UNL     1      -3.197   1.932   6.357  1.00  0.00    -0.204 F 
ENDBRANCH  16  17
ENDBRANCH  15  16
ENDBRANCH  12  15
ENDBRANCH   6  11
ENDBRANCH   3   6
ENDBRANCH   1   2
BRANCH   1  25
ATOM     25  C   UNL     1       5.100   2.361   3.247  1.00  0.00     0.042 C 
BRANCH  25  26
ATOM     26  C   UNL     1       5.416   3.535   4.160  1.00  0.00     0.118 C 
BRANCH  26  27
ATOM     27  N   UNL     1       6.438   3.204   5.146  1.00  0.00    -0.352 N 
ATOM     28  C   UNL     1       7.804   3.318   5.045  1.00  0.00     0.251 C 
ATOM     29  H   UNL     1       6.104   2.849   6.002  1.00  0.00     0.163 HD
ATOM     30  O   UNL     1       8.535   2.756   5.854  1.00  0.00    -0.269 OA
BRANCH  28  31
ATOM     31  C   UNL     1       8.371   4.102   3.932  1.00  0.00     0.039 A 
ATOM     32  C   UNL     1       9.400   3.565   3.156  1.00  0.00     0.014 A 
ATOM     33  C   UNL     1       7.847   5.361   3.643  1.00  0.00     0.014 A 
ATOM     34  C   UNL     1       9.853   4.269   2.037  1.00  0.00     0.010 A 
ATOM     35  C   UNL     1       8.216   6.002   2.473  1.00  0.00     0.010 A 
ATOM     36  C   UNL     1       9.238   5.475   1.667  1.00  0.00    -0.014 A 
BRANCH  36  37
ATOM     37  C   UNL     1       9.661   6.263   0.484  1.00  0.00     0.031 A 
ATOM     38  C   UNL     1      10.129   7.678   0.689  1.00  0.00     0.074 A 
ATOM     39  C   UNL     1       9.496   5.772  -0.759  1.00  0.00     0.049 A 
ATOM     40  N   UNL     1      10.305   8.629  -0.189  1.00  0.00    -0.248 NA
ATOM     41  C   UNL     1      10.368   8.093   2.082  1.00  0.00     0.031 C 
ATOM     42  C   UNL     1       9.001   4.434  -1.087  1.00  0.00     0.029 A 
ATOM     43  N   UNL     1       9.696   6.362  -1.982  1.00  0.00    -0.354 N 
ATOM     44  C   UNL     1      10.615   9.766   0.549  1.00  0.00     0.074 A 
ATOM     45  C   UNL     1      10.554   9.396   1.945  1.00  0.00     0.031 C 
ATOM     46  C   UNL     1       8.936   4.305  -2.422  1.00  0.00     0.029 A 
ATOM     47  C   UNL     1       9.342   5.563  -3.043  1.00  0.00     0.049 A 
ATOM     48  H   UNL     1      10.058   7.271  -2.089  1.00  0.00     0.167 HD
ATOM     49  C   UNL     1      10.939  11.002   0.102  1.00  0.00     0.037 A 
ATOM     50  C   UNL     1       9.326   5.823  -4.365  1.00  0.00     0.037 A 
ATOM     51  C   UNL     1      11.063  11.337  -1.289  1.00  0.00     0.049 A 
ATOM     52  C   UNL     1       9.762   7.178  -4.849  1.00  0.00     0.074 A 
ATOM     53  C   UNL     1      11.470  12.530  -1.856  1.00  0.00     0.029 A 
ATOM     54  N   UNL     1      10.792  10.466  -2.335  1.00  0.00    -0.354 N 
ATOM     55  N   UNL     1      10.103   8.231  -4.144  1.00  0.00    -0.248 NA
ATOM     56  C   UNL     1       9.820   7.383  -6.303  1.00  0.00     0.031 C 
ATOM     57  C   UNL     1      11.424  12.388  -3.247  1.00  0.00     0.029 A 
ATOM     58  C   UNL     1      11.020  11.095  -3.546  1.00  0.00     0.049 A 
ATOM     59  H   UNL     1      10.482   9.537  -2.231  1.00  0.00     0.167 HD
ATOM     60  C   UNL     1      10.438   9.215  -5.066  1.00  0.00     0.074 A 
ATOM     61  C   UNL     1      10.261   8.633  -6.380  1.00  0.00     0.031 C 
ATOM     62  C   UNL     1      10.857  10.485  -4.843  1.00  0.00     0.037 A 
BRANCH  49  63
ATOM     63  C   UNL     1      11.178  12.065   1.138  1.00  0.00     0.058 A 
ATOM     64  C   UNL     1      12.291  12.027   1.994  1.00  0.00     0.135 A 
ATOM     65  C   UNL     1      10.262  13.117   1.302  1.00  0.00     0.135 A 
ATOM     66  F   UNL     1      13.190  11.035   1.891  1.00  0.00    -0.206 F 
ATOM     67  C   UNL     1      12.454  12.956   3.017  1.00  0.00     0.059 A 
ATOM     68  C   UNL     1      10.423  14.076   2.298  1.00  0.00     0.059 A 
ATOM     69  F   UNL     1       9.184  13.205   0.508  1.00  0.00    -0.206 F 
ATOM     70  C   UNL     1      11.507  13.969   3.169  1.00  0.00     0.060 A 
BRANCH  70  71
ATOM     71  S   UNL     1      11.697  15.136   4.532  1.00  0.00     0.124 S 
ATOM     72  O   UNL     1      11.206  14.347   5.658  1.00  0.00    -0.237 OA
ATOM     73  O   UNL     1      13.133  15.401   4.524  1.00  0.00    -0.237 OA
ATOM     74  O   UNL     1      10.854  16.259   4.136  1.00  0.00    -0.744 OA
ENDBRANCH  70  71
ENDBRANCH  49  63
BRANCH  50  75
ATOM     75  C   UNL     1       8.905   4.757  -5.311  1.00  0.00     0.058 A 
ATOM     76  C   UNL     1       9.854   4.055  -6.067  1.00  0.00     0.135 A 
ATOM     77  C   UNL     1       7.561   4.367  -5.419  1.00  0.00     0.135 A 
ATOM     78  F   UNL     1      11.150   4.395  -5.999  1.00  0.00    -0.206 F 
ATOM     79  C   UNL     1       9.488   2.997  -6.892  1.00  0.00     0.059 A 
ATOM     80  C   UNL     1       7.173   3.300  -6.223  1.00  0.00     0.059 A 
ATOM     81  F   UNL     1       6.619   4.997  -4.700  1.00  0.00    -0.206 F 
ATOM     82  C   UNL     1       8.146   2.620  -6.956  1.00  0.00     0.060 A 
BRANCH  82  83
ATOM     83  S   UNL     1       7.698   1.179  -7.951  1.00  0.00     0.124 S 
ATOM     84  O   UNL     1       7.800   1.713  -9.304  1.00  0.00    -0.237 OA
ATOM     85  O   UNL     1       8.722   0.212  -7.567  1.00  0.00    -0.237 OA
ATOM     86  O   UNL     1       6.348   0.864  -7.494  1.00  0.00    -0.744 OA
ENDBRANCH  82  83
ENDBRANCH  50  75
BRANCH  62  87
ATOM     87  C   UNL     1      11.195  11.330  -6.036  1.00  0.00     0.058 A 
ATOM     88  C   UNL     1      10.197  11.937  -6.812  1.00  0.00     0.135 A 
ATOM     89  C   UNL     1      12.535  11.628  -6.331  1.00  0.00     0.135 A 
ATOM     90  F   UNL     1       8.903  11.677  -6.571  1.00  0.00    -0.206 F 
ATOM     91  C   UNL     1      10.517  12.818  -7.839  1.00  0.00     0.059 A 
ATOM     92  C   UNL     1      12.877  12.521  -7.341  1.00  0.00     0.059 A 
ATOM     93  F   UNL     1      13.525  11.077  -5.610  1.00  0.00    -0.206 F 
ATOM     94  C   UNL     1      11.859  13.111  -8.090  1.00  0.00     0.060 A 
BRANCH  94  95
ATOM     95  S   UNL     1      12.258  14.324  -9.367  1.00  0.00     0.124 S 
ATOM     96  O   UNL     1      12.033  13.553 -10.585  1.00  0.00    -0.237 OA
ATOM     97  O   UNL     1      11.294  15.387  -9.101  1.00  0.00    -0.237 OA
ATOM     98  O   UNL     1      13.650  14.665  -9.088  1.00  0.00    -0.744 OA
ENDBRANCH  94  95
ENDBRANCH  62  87
ENDBRANCH  36  37
ENDBRANCH  28  31
ENDBRANCH  26  27
ENDBRANCH  25  26
ENDBRANCH   1  25
TORSDOF 19
