REMARK SMILES O=C(NCCCNC(=O)c1ccc(-c2c3nc(c(-c4c(F)cc(S(=O)(=O)[O-])cc4F)c4ccc([nH]4)c(-c4c(F)cc(S(=O)(=O)[O-])cc4F)c4nc(c(-c5c(F)cc(S(=O)(=O)[O-])cc5F)c5ccc2[nH]5)C=C4)C=C3)cc1)C1=Cc2c(ccc(Cl)c2Oc2ccccc2)O[C@H]1C(F)(F)F
REMARK SMILES IDX 5 1 4 2 3 3 1 4 2 5 76 7 77 8 93 9 78 10 92 11 79 12 84 13
REMARK SMILES IDX 80 14 82 15 81 16 83 17 94 18 95 19 96 20 97 21 85 22 86 23
REMARK SMILES IDX 87 24 91 25 88 26 90 27 89 28 6 29 7 30 8 31 9 33 10 34
REMARK SMILES IDX 11 35 75 36 12 37 74 38 13 39 14 40 15 41 68 42 16 43 73 44
REMARK SMILES IDX 67 45 69 46 17 47 72 48 66 49 65 50 18 52 52 53 31 54 51 55
REMARK SMILES IDX 32 56 35 57 50 58 70 59 33 60 34 61 49 63 71 64 36 65 19 66
REMARK SMILES IDX 20 67 29 68 21 69 22 70 28 71 30 72 23 73 24 74 25 75 26 76
REMARK SMILES IDX 27 77 53 78 54 79 63 80 55 81 56 82 62 83 64 84 57 85 58 86
REMARK SMILES IDX 59 87 60 88 61 89 37 90 38 91 47 92 39 93 40 94 46 95 48 96
REMARK SMILES IDX 41 97 42 98 43 99 44 100 45 101
REMARK H PARENT 3 6 7 32 69 51 35 62
REMARK Flexibility Score: inf
ROOT
ATOM      1  C   UNL     1       3.868   0.946  -2.985  1.00  0.00     0.042 C 
ENDROOT
BRANCH   1   2
ATOM      2  C   UNL     1       3.278   0.889  -1.583  1.00  0.00     0.118 C 
BRANCH   2   3
ATOM      3  N   UNL     1       2.312  -0.187  -1.423  1.00  0.00    -0.352 N 
ATOM      4  O   UNL     1       1.425  -2.124  -0.715  1.00  0.00    -0.270 OA
ATOM      5  C   UNL     1       2.315  -1.292  -0.622  1.00  0.00     0.251 C 
ATOM      6  H   UNL     1       1.515  -0.104  -1.995  1.00  0.00     0.163 HD
BRANCH   5   7
ATOM      7  C   UNL     1       3.418  -1.520   0.329  1.00  0.00     0.067 C 
ATOM      8  C   UNL     1       3.633  -0.681   1.347  1.00  0.00     0.029 C 
ATOM      9  C   UNL     1       4.445  -2.539  -0.035  1.00  0.00     0.314 C 
ATOM     10  C   UNL     1       4.944  -0.001   1.204  1.00  0.00     0.061 A 
ATOM     11  O   UNL     1       5.800  -1.998   0.045  1.00  0.00    -0.475 OA
ATOM     12  C   UNL     1       5.949  -0.707   0.501  1.00  0.00     0.131 A 
ATOM     13  C   UNL     1       5.132   1.363   1.540  1.00  0.00     0.156 A 
ATOM     14  C   UNL     1       7.133  -0.072   0.139  1.00  0.00     0.049 A 
ATOM     15  C   UNL     1       6.322   1.989   1.126  1.00  0.00     0.084 A 
ATOM     16  C   UNL     1       7.310   1.279   0.433  1.00  0.00     0.028 A 
ATOM     17  Cl  UNL     1       6.587   3.678   1.392  1.00  0.00    -0.080 Cl
BRANCH   9  18
ATOM     18  C   UNL     1       4.312  -3.811   0.825  1.00  0.00     0.429 C 
ATOM     19  F   UNL     1       3.079  -3.954   1.369  1.00  0.00    -0.167 F 
ATOM     20  F   UNL     1       4.552  -4.926   0.097  1.00  0.00    -0.167 F 
ATOM     21  F   UNL     1       5.186  -3.812   1.863  1.00  0.00    -0.167 F 
ENDBRANCH   9  18
BRANCH  13  22
ATOM     22  O   UNL     1       4.188   2.210   2.113  1.00  0.00    -0.455 OA
BRANCH  22  23
ATOM     23  C   UNL     1       3.152   1.672   2.832  1.00  0.00     0.127 A 
ATOM     24  C   UNL     1       1.875   1.679   2.265  1.00  0.00     0.047 A 
ATOM     25  C   UNL     1       3.373   1.099   4.085  1.00  0.00     0.047 A 
ATOM     26  C   UNL     1       0.837   1.001   2.902  1.00  0.00     0.004 A 
ATOM     27  C   UNL     1       2.328   0.431   4.724  1.00  0.00     0.004 A 
ATOM     28  C   UNL     1       1.069   0.363   4.122  1.00  0.00     0.000 A 
ENDBRANCH  22  23
ENDBRANCH  13  22
ENDBRANCH   5   7
ENDBRANCH   2   3
ENDBRANCH   1   2
BRANCH   1  29
ATOM     29  C   UNL     1       3.696   2.312  -3.639  1.00  0.00     0.118 C 
BRANCH  29  30
ATOM     30  N   UNL     1       4.455   3.382  -2.998  1.00  0.00    -0.352 N 
ATOM     31  C   UNL     1       5.447   4.209  -3.479  1.00  0.00     0.251 C 
ATOM     32  H   UNL     1       4.215   3.542  -2.057  1.00  0.00     0.163 HD
ATOM     33  O   UNL     1       5.978   5.011  -2.713  1.00  0.00    -0.269 OA
BRANCH  31  34
ATOM     34  C   UNL     1       5.925   4.110  -4.879  1.00  0.00     0.039 A 
ATOM     35  C   UNL     1       7.296   4.228  -5.134  1.00  0.00     0.014 A 
ATOM     36  C   UNL     1       5.050   3.882  -5.939  1.00  0.00     0.014 A 
ATOM     37  C   UNL     1       7.793   3.985  -6.420  1.00  0.00     0.010 A 
ATOM     38  C   UNL     1       5.553   3.524  -7.186  1.00  0.00     0.010 A 
ATOM     39  C   UNL     1       6.933   3.551  -7.439  1.00  0.00    -0.014 A 
BRANCH  39  40
ATOM     40  C   UNL     1       7.428   3.098  -8.769  1.00  0.00     0.031 A 
ATOM     41  C   UNL     1       6.884   3.727 -10.025  1.00  0.00     0.074 A 
ATOM     42  C   UNL     1       8.264   2.042  -8.858  1.00  0.00     0.049 A 
ATOM     43  N   UNL     1       6.970   3.314 -11.263  1.00  0.00    -0.248 NA
ATOM     44  C   UNL     1       6.096   4.959  -9.858  1.00  0.00     0.031 C 
ATOM     45  C   UNL     1       8.840   1.310  -7.726  1.00  0.00     0.029 A 
ATOM     46  N   UNL     1       8.760   1.384  -9.957  1.00  0.00    -0.354 N 
ATOM     47  C   UNL     1       6.205   4.201 -12.012  1.00  0.00     0.074 A 
ATOM     48  C   UNL     1       5.636   5.156 -11.085  1.00  0.00     0.031 C 
ATOM     49  C   UNL     1       9.629   0.327  -8.188  1.00  0.00     0.029 A 
ATOM     50  C   UNL     1       9.570   0.317  -9.645  1.00  0.00     0.049 A 
ATOM     51  H   UNL     1       8.555   1.651 -10.882  1.00  0.00     0.167 HD
ATOM     52  C   UNL     1       6.007   4.229 -13.352  1.00  0.00     0.037 A 
ATOM     53  C   UNL     1      10.179  -0.585 -10.440  1.00  0.00     0.037 A 
ATOM     54  C   UNL     1       6.634   3.325 -14.279  1.00  0.00     0.049 A 
ATOM     55  C   UNL     1       9.979  -0.509 -11.928  1.00  0.00     0.074 A 
ATOM     56  C   UNL     1       6.543   3.307 -15.660  1.00  0.00     0.029 A 
ATOM     57  N   UNL     1       7.489   2.294 -13.920  1.00  0.00    -0.354 N 
ATOM     58  N   UNL     1       9.248   0.335 -12.616  1.00  0.00    -0.248 NA
ATOM     59  C   UNL     1      10.674  -1.513 -12.745  1.00  0.00     0.031 C 
ATOM     60  C   UNL     1       7.337   2.258 -16.136  1.00  0.00     0.029 A 
ATOM     61  C   UNL     1       7.938   1.638 -15.053  1.00  0.00     0.049 A 
ATOM     62  H   UNL     1       7.740   2.064 -12.997  1.00  0.00     0.167 HD
ATOM     63  C   UNL     1       9.409  -0.027 -13.948  1.00  0.00     0.074 A 
ATOM     64  C   UNL     1      10.314  -1.158 -13.972  1.00  0.00     0.031 C 
ATOM     65  C   UNL     1       8.852   0.525 -15.053  1.00  0.00     0.037 A 
BRANCH  52  66
ATOM     66  C   UNL     1       5.085   5.284 -13.894  1.00  0.00     0.058 A 
ATOM     67  C   UNL     1       5.464   6.634 -13.942  1.00  0.00     0.135 A 
ATOM     68  C   UNL     1       3.816   4.940 -14.387  1.00  0.00     0.135 A 
ATOM     69  F   UNL     1       6.660   7.017 -13.468  1.00  0.00    -0.206 F 
ATOM     70  C   UNL     1       4.604   7.614 -14.426  1.00  0.00     0.059 A 
ATOM     71  C   UNL     1       2.948   5.901 -14.899  1.00  0.00     0.059 A 
ATOM     72  F   UNL     1       3.404   3.663 -14.366  1.00  0.00    -0.206 F 
ATOM     73  C   UNL     1       3.345   7.238 -14.897  1.00  0.00     0.060 A 
BRANCH  73  74
ATOM     74  S   UNL     1       2.232   8.519 -15.512  1.00  0.00     0.124 S 
ATOM     75  O   UNL     1       1.728   9.086 -14.265  1.00  0.00    -0.237 OA
ATOM     76  O   UNL     1       3.130   9.377 -16.279  1.00  0.00    -0.237 OA
ATOM     77  O   UNL     1       1.259   7.771 -16.301  1.00  0.00    -0.744 OA
ENDBRANCH  73  74
ENDBRANCH  52  66
BRANCH  53  78
ATOM     78  C   UNL     1      11.046  -1.637  -9.848  1.00  0.00     0.058 A 
ATOM     79  C   UNL     1      12.441  -1.562  -9.972  1.00  0.00     0.135 A 
ATOM     80  C   UNL     1      10.507  -2.728  -9.149  1.00  0.00     0.135 A 
ATOM     81  F   UNL     1      13.000  -0.540 -10.638  1.00  0.00    -0.206 F 
ATOM     82  C   UNL     1      13.274  -2.541  -9.440  1.00  0.00     0.059 A 
ATOM     83  C   UNL     1      11.321  -3.709  -8.590  1.00  0.00     0.059 A 
ATOM     84  F   UNL     1       9.179  -2.834  -8.988  1.00  0.00    -0.206 F 
ATOM     85  C   UNL     1      12.703  -3.612  -8.751  1.00  0.00     0.060 A 
BRANCH  85  86
ATOM     86  S   UNL     1      13.791  -4.857  -8.024  1.00  0.00     0.124 S 
ATOM     87  O   UNL     1      14.132  -5.664  -9.190  1.00  0.00    -0.237 OA
ATOM     88  O   UNL     1      14.870  -4.044  -7.472  1.00  0.00    -0.237 OA
ATOM     89  O   UNL     1      12.937  -5.504  -7.032  1.00  0.00    -0.744 OA
ENDBRANCH  85  86
ENDBRANCH  53  78
BRANCH  65  90
ATOM     90  C   UNL     1       9.227  -0.063 -16.381  1.00  0.00     0.058 A 
ATOM     91  C   UNL     1       8.645  -1.252 -16.843  1.00  0.00     0.135 A 
ATOM     92  C   UNL     1      10.123   0.608 -17.228  1.00  0.00     0.135 A 
ATOM     93  F   UNL     1       7.789  -1.933 -16.063  1.00  0.00    -0.206 F 
ATOM     94  C   UNL     1       8.941  -1.762 -18.102  1.00  0.00     0.059 A 
ATOM     95  C   UNL     1      10.421   0.125 -18.498  1.00  0.00     0.059 A 
ATOM     96  F   UNL     1      10.701   1.752 -16.830  1.00  0.00    -0.206 F 
ATOM     97  C   UNL     1       9.828  -1.063 -18.924  1.00  0.00     0.060 A 
BRANCH  97  98
ATOM     98  S   UNL     1      10.160  -1.699 -20.581  1.00  0.00     0.124 S 
ATOM     99  O   UNL     1      11.093  -2.784 -20.298  1.00  0.00    -0.237 OA
ATOM    100  O   UNL     1       8.833  -2.105 -21.035  1.00  0.00    -0.237 OA
ATOM    101  O   UNL     1      10.727  -0.548 -21.278  1.00  0.00    -0.744 OA
ENDBRANCH  97  98
ENDBRANCH  65  90
ENDBRANCH  39  40
ENDBRANCH  31  34
ENDBRANCH  29  30
ENDBRANCH   1  29
TORSDOF 16
