REMARK SMILES O=C(COc1ccccc1/C=N/NC(=O)c1cc(-c2ccc(F)cc2)nc2ccccc12)NCCCNC(=O)c1ccc(-c2c3nc(c(-c4c(F)cc(S(=O)(=O)[O-])cc4F)c4ccc([nH]4)c(-c4c(F)cc(S(=O)(=O)[O-])cc4F)c4nc(c(-c5c(F)cc(S(=O)(=O)[O-])cc5F)c5ccc2[nH]5)C=C4)C=C3)cc1
REMARK SMILES IDX 1 1 2 2 33 3 3 5 4 6 5 7 6 8 10 9 7 10 9 11 8 12 11 13 12 14
REMARK SMILES IDX 13 15 14 16 15 18 16 19 17 20 32 21 18 22 27 23 31 24 26 25
REMARK SMILES IDX 28 26 30 27 29 28 19 29 20 30 25 31 21 32 24 33 22 34 23 35
REMARK SMILES IDX 34 36 35 37 36 38 37 39 38 40 39 42 40 43 41 44 105 45 42 46
REMARK SMILES IDX 104 47 43 48 44 49 45 50 98 51 46 52 103 53 97 54 99 55
REMARK SMILES IDX 47 56 102 57 96 58 95 59 48 61 82 62 61 63 81 64 62 65 65 66
REMARK SMILES IDX 80 67 100 68 63 69 64 70 79 72 101 73 66 74 49 75 50 76
REMARK SMILES IDX 59 77 51 78 52 79 58 80 60 81 53 82 54 83 55 84 56 85 57 86
REMARK SMILES IDX 83 87 84 88 93 89 85 90 86 91 92 92 94 93 87 94 88 95 89 96
REMARK SMILES IDX 90 97 91 98 67 99 68 100 77 101 69 102 70 103 76 104 78 105
REMARK SMILES IDX 71 106 72 107 73 108 74 109 75 110
REMARK H PARENT 33 4 13 17 37 41 99 60 65 71
REMARK Flexibility Score: inf
ROOT
ATOM      1  O   UNL     1       2.632  -1.398  -0.944  1.00  0.00    -0.271 OA
ATOM      2  C   UNL     1       3.299  -0.513  -0.456  1.00  0.00     0.257 C 
ATOM      3  N   UNL     1       3.828  -0.492   0.829  1.00  0.00    -0.353 N 
ATOM      4  H   UNL     1       4.790  -0.313   0.940  1.00  0.00     0.163 HD
ENDROOT
BRANCH   2   5
ATOM      5  C   UNL     1       3.664   0.705  -1.272  1.00  0.00     0.329 C 
BRANCH   5   6
ATOM      6  O   UNL     1       3.931   1.721  -0.316  1.00  0.00    -0.483 OA
BRANCH   6   7
ATOM      7  C   UNL     1       3.024   2.740  -0.306  1.00  0.00     0.128 A 
ATOM      8  C   UNL     1       3.595   3.928  -0.804  1.00  0.00     0.047 A 
ATOM      9  C   UNL     1       1.821   2.764   0.419  1.00  0.00     0.037 A 
ATOM     10  C   UNL     1       3.036   5.166  -0.519  1.00  0.00     0.004 A 
ATOM     11  C   UNL     1       1.300   4.040   0.729  1.00  0.00     0.013 A 
ATOM     12  C   UNL     1       1.904   5.223   0.280  1.00  0.00     0.001 A 
BRANCH   9  13
ATOM     13  C   UNL     1       1.030   1.662   1.071  1.00  0.00     0.145 C 
ATOM     14  N   UNL     1       0.576   0.528   0.582  1.00  0.00    -0.180 NA
BRANCH  14  15
ATOM     15  N   UNL     1      -0.361  -0.062   1.445  1.00  0.00    -0.243 N 
ATOM     16  C   UNL     1      -0.852  -1.360   1.655  1.00  0.00     0.272 C 
ATOM     17  H   UNL     1      -0.775   0.594   2.051  1.00  0.00     0.194 HD
ATOM     18  O   UNL     1      -1.832  -1.399   2.411  1.00  0.00    -0.267 OA
BRANCH  16  19
ATOM     19  C   UNL     1      -0.225  -2.667   1.246  1.00  0.00     0.053 A 
ATOM     20  C   UNL     1       0.619  -2.795   0.150  1.00  0.00     0.043 A 
ATOM     21  C   UNL     1      -0.551  -3.904   1.916  1.00  0.00     0.013 A 
ATOM     22  C   UNL     1       1.454  -3.907   0.110  1.00  0.00     0.072 A 
ATOM     23  C   UNL     1       0.398  -4.932   1.806  1.00  0.00     0.072 A 
ATOM     24  C   UNL     1      -1.767  -4.284   2.542  1.00  0.00     0.011 A 
ATOM     25  N   UNL     1       1.499  -4.784   1.126  1.00  0.00    -0.248 NA
ATOM     26  C   UNL     1       0.175  -6.230   2.216  1.00  0.00     0.029 A 
ATOM     27  C   UNL     1      -2.034  -5.627   2.871  1.00  0.00     0.001 A 
ATOM     28  C   UNL     1      -1.065  -6.606   2.693  1.00  0.00     0.002 A 
BRANCH  22  29
ATOM     29  C   UNL     1       2.119  -4.580  -1.019  1.00  0.00     0.000 A 
ATOM     30  C   UNL     1       1.331  -5.535  -1.704  1.00  0.00     0.013 A 
ATOM     31  C   UNL     1       3.513  -4.791  -0.958  1.00  0.00     0.013 A 
ATOM     32  C   UNL     1       1.888  -6.738  -2.143  1.00  0.00     0.040 A 
ATOM     33  C   UNL     1       4.071  -5.989  -1.420  1.00  0.00     0.040 A 
ATOM     34  C   UNL     1       3.246  -6.966  -1.967  1.00  0.00     0.123 A 
ATOM     35  F   UNL     1       3.755  -8.167  -2.272  1.00  0.00    -0.207 F 
ENDBRANCH  22  29
ENDBRANCH  16  19
ENDBRANCH  14  15
ENDBRANCH   9  13
ENDBRANCH   6   7
ENDBRANCH   5   6
ENDBRANCH   2   5
BRANCH   3  36
ATOM     36  C   UNL     1       3.026  -0.721   2.011  1.00  0.00     0.117 C 
BRANCH  36  37
ATOM     37  C   UNL     1       3.221  -2.026   2.721  1.00  0.00     0.042 C 
BRANCH  37  38
ATOM     38  C   UNL     1       4.636  -2.247   3.166  1.00  0.00     0.118 C 
BRANCH  38  39
ATOM     39  N   UNL     1       5.024  -1.390   4.277  1.00  0.00    -0.352 N 
ATOM     40  C   UNL     1       5.541  -1.761   5.497  1.00  0.00     0.251 C 
ATOM     41  H   UNL     1       4.902  -0.423   4.139  1.00  0.00     0.163 HD
ATOM     42  O   UNL     1       5.673  -0.928   6.387  1.00  0.00    -0.269 OA
BRANCH  40  43
ATOM     43  C   UNL     1       5.893  -3.181   5.727  1.00  0.00     0.039 A 
ATOM     44  C   UNL     1       5.544  -3.781   6.936  1.00  0.00     0.014 A 
ATOM     45  C   UNL     1       6.504  -3.934   4.721  1.00  0.00     0.014 A 
ATOM     46  C   UNL     1       5.747  -5.152   7.104  1.00  0.00     0.010 A 
ATOM     47  C   UNL     1       6.570  -5.315   4.835  1.00  0.00     0.010 A 
ATOM     48  C   UNL     1       6.219  -5.938   6.039  1.00  0.00    -0.014 A 
BRANCH  48  49
ATOM     49  C   UNL     1       6.387  -7.407   6.170  1.00  0.00     0.031 A 
ATOM     50  C   UNL     1       7.748  -8.024   5.975  1.00  0.00     0.074 A 
ATOM     51  C   UNL     1       5.313  -8.185   6.410  1.00  0.00     0.049 A 
ATOM     52  N   UNL     1       8.095  -9.284   6.006  1.00  0.00    -0.248 NA
ATOM     53  C   UNL     1       8.862  -7.107   5.673  1.00  0.00     0.031 C 
ATOM     54  C   UNL     1       3.935  -7.708   6.551  1.00  0.00     0.029 A 
ATOM     55  N   UNL     1       5.210  -9.543   6.574  1.00  0.00    -0.354 N 
ATOM     56  C   UNL     1       9.454  -9.309   5.715  1.00  0.00     0.074 A 
ATOM     57  C   UNL     1       9.856  -7.949   5.439  1.00  0.00     0.031 C 
ATOM     58  C   UNL     1       3.133  -8.750   6.819  1.00  0.00     0.029 A 
ATOM     59  C   UNL     1       3.928  -9.974   6.822  1.00  0.00     0.049 A 
ATOM     60  H   UNL     1       5.981 -10.152   6.519  1.00  0.00     0.167 HD
ATOM     61  C   UNL     1      10.300 -10.366   5.709  1.00  0.00     0.037 A 
ATOM     62  C   UNL     1       3.447 -11.217   7.021  1.00  0.00     0.037 A 
ATOM     63  C   UNL     1       9.894 -11.714   6.009  1.00  0.00     0.049 A 
ATOM     64  C   UNL     1       4.405 -12.378   7.007  1.00  0.00     0.074 A 
ATOM     65  C   UNL     1      10.679 -12.849   6.091  1.00  0.00     0.029 A 
ATOM     66  N   UNL     1       8.589 -12.108   6.271  1.00  0.00    -0.354 N 
ATOM     67  N   UNL     1       5.702 -12.374   6.807  1.00  0.00    -0.248 NA
ATOM     68  C   UNL     1       3.839 -13.710   7.253  1.00  0.00     0.031 C 
ATOM     69  C   UNL     1       9.842 -13.940   6.346  1.00  0.00     0.029 A 
ATOM     70  C   UNL     1       8.544 -13.475   6.489  1.00  0.00     0.049 A 
ATOM     71  H   UNL     1       7.811 -11.505   6.298  1.00  0.00     0.167 HD
ATOM     72  C   UNL     1       6.111 -13.698   6.931  1.00  0.00     0.074 A 
ATOM     73  C   UNL     1       4.925 -14.471   7.239  1.00  0.00     0.031 C 
ATOM     74  C   UNL     1       7.353 -14.227   6.802  1.00  0.00     0.037 A 
BRANCH  61  75
ATOM     75  C   UNL     1      11.745 -10.107   5.374  1.00  0.00     0.058 A 
ATOM     76  C   UNL     1      12.584  -9.377   6.232  1.00  0.00     0.135 A 
ATOM     77  C   UNL     1      12.308 -10.624   4.196  1.00  0.00     0.135 A 
ATOM     78  F   UNL     1      12.097  -8.842   7.363  1.00  0.00    -0.206 F 
ATOM     79  C   UNL     1      13.920  -9.144   5.920  1.00  0.00     0.059 A 
ATOM     80  C   UNL     1      13.650 -10.432   3.881  1.00  0.00     0.059 A 
ATOM     81  F   UNL     1      11.553 -11.327   3.337  1.00  0.00    -0.206 F 
ATOM     82  C   UNL     1      14.445  -9.678   4.743  1.00  0.00     0.060 A 
BRANCH  82  83
ATOM     83  S   UNL     1      16.183  -9.377   4.363  1.00  0.00     0.124 S 
ATOM     84  O   UNL     1      16.169  -7.954   4.037  1.00  0.00    -0.237 OA
ATOM     85  O   UNL     1      16.841  -9.733   5.616  1.00  0.00    -0.237 OA
ATOM     86  O   UNL     1      16.448 -10.274   3.242  1.00  0.00    -0.744 OA
ENDBRANCH  82  83
ENDBRANCH  61  75
BRANCH  62  87
ATOM     87  C   UNL     1       1.994 -11.422   7.273  1.00  0.00     0.058 A 
ATOM     88  C   UNL     1       1.529 -11.845   8.528  1.00  0.00     0.135 A 
ATOM     89  C   UNL     1       1.040 -11.190   6.270  1.00  0.00     0.135 A 
ATOM     90  F   UNL     1       2.400 -12.086   9.520  1.00  0.00    -0.206 F 
ATOM     91  C   UNL     1       0.175 -12.050   8.774  1.00  0.00     0.059 A 
ATOM     92  C   UNL     1      -0.322 -11.358   6.501  1.00  0.00     0.059 A 
ATOM     93  F   UNL     1       1.428 -10.769   5.056  1.00  0.00    -0.206 F 
ATOM     94  C   UNL     1      -0.744 -11.800   7.753  1.00  0.00     0.060 A 
BRANCH  94  95
ATOM     95  S   UNL     1      -2.502 -12.030   8.095  1.00  0.00     0.124 S 
ATOM     96  O   UNL     1      -2.597 -13.483   8.184  1.00  0.00    -0.237 OA
ATOM     97  O   UNL     1      -2.668 -11.301   9.349  1.00  0.00    -0.237 OA
ATOM     98  O   UNL     1      -3.152 -11.425   6.936  1.00  0.00    -0.744 OA
ENDBRANCH  94  95
ENDBRANCH  62  87
BRANCH  74  99
ATOM     99  C   UNL     1       7.506 -15.706   7.033  1.00  0.00     0.058 A 
ATOM    100  C   UNL     1       7.010 -16.654   6.125  1.00  0.00     0.135 A 
ATOM    101  C   UNL     1       8.209 -16.178   8.154  1.00  0.00     0.135 A 
ATOM    102  F   UNL     1       6.326 -16.258   5.040  1.00  0.00    -0.206 F 
ATOM    103  C   UNL     1       7.181 -18.018   6.334  1.00  0.00     0.059 A 
ATOM    104  C   UNL     1       8.422 -17.536   8.365  1.00  0.00     0.059 A 
ATOM    105  F   UNL     1       8.715 -15.314   9.049  1.00  0.00    -0.206 F 
ATOM    106  C   UNL     1       7.893 -18.449   7.455  1.00  0.00     0.060 A 
BRANCH 106 107
ATOM    107  S   UNL     1       8.136 -20.221   7.695  1.00  0.00     0.124 S 
ATOM    108  O   UNL     1       6.794 -20.655   8.070  1.00  0.00    -0.237 OA
ATOM    109  O   UNL     1       8.598 -20.653   6.380  1.00  0.00    -0.237 OA
ATOM    110  O   UNL     1       9.136 -20.288   8.757  1.00  0.00    -0.744 OA
ENDBRANCH 106 107
ENDBRANCH  74  99
ENDBRANCH  48  49
ENDBRANCH  40  43
ENDBRANCH  38  39
ENDBRANCH  37  38
ENDBRANCH  36  37
ENDBRANCH   3  36
TORSDOF 19
