REMARK SMILES Cc1ccc(NC(=O)[C@H]2CC(Cl)=CC[C@@H]2C(=O)NCCCNC(=O)c2ccc(-c3c4nc(c(-c5c(F)cc(S(=O)(=O)[O-])cc5F)c5ccc([nH]5)c(-c5c(F)cc(S(=O)(=O)[O-])cc5F)c5nc(c(-c6c(F)cc(S(=O)(=O)[O-])cc6F)c6ccc3[nH]6)C=C5)C=C4)cc2)cc1[N+](=O)[O-]
REMARK SMILES IDX 20 1 19 2 18 3 16 4 17 5 15 7 9 8 10 9 11 10 14 11 12 12
REMARK SMILES IDX 13 13 7 14 6 15 8 17 5 18 1 19 2 20 3 21 92 22 4 23 91 24
REMARK SMILES IDX 93 25 94 26 95 27 21 28 22 29 23 30 24 32 25 33 26 34 90 35
REMARK SMILES IDX 27 36 89 37 28 38 29 39 30 40 83 41 31 42 88 43 82 44 84 45
REMARK SMILES IDX 32 46 87 47 81 48 80 49 33 51 67 52 46 53 66 54 47 55 50 56
REMARK SMILES IDX 65 57 85 58 48 59 49 60 64 62 86 63 51 64 34 65 35 66 44 67
REMARK SMILES IDX 36 68 37 69 43 70 45 71 38 72 39 73 40 74 41 75 42 76 68 77
REMARK SMILES IDX 69 78 78 79 70 80 71 81 77 82 79 83 72 84 73 85 74 86 75 87
REMARK SMILES IDX 76 88 52 89 53 90 62 91 54 92 55 93 61 94 63 95 56 96 57 97
REMARK SMILES IDX 58 98 59 99 60 100
REMARK H PARENT 18 6 6 16 22 31 84 50 50 61
REMARK Flexibility Score: inf
ROOT
ATOM      1  C   UNL     1      -3.494   1.718  -1.210  1.00  0.00     0.042 C 
ENDROOT
BRANCH   1   2
ATOM      2  C   UNL     1      -3.204   0.647  -2.261  1.00  0.00     0.117 C 
BRANCH   2   3
ATOM      3  N   UNL     1      -2.045  -0.173  -1.950  1.00  0.00    -0.356 N 
ATOM      4  C   UNL     1      -1.912  -1.514  -1.766  1.00  0.00     0.224 C 
ATOM      5  O   UNL     1      -0.763  -1.964  -1.726  1.00  0.00    -0.275 OA
ATOM      6  H   UNL     1      -1.206   0.333  -1.856  1.00  0.00     0.163 HD
BRANCH   4   7
ATOM      7  C   UNL     1      -3.117  -2.441  -1.552  1.00  0.00     0.095 C 
ATOM      8  C   UNL     1      -3.159  -2.869  -0.066  1.00  0.00     0.097 C 
ATOM      9  C   UNL     1      -4.137  -4.019   0.199  1.00  0.00     0.062 C 
ATOM     10  C   UNL     1      -3.836  -5.177  -0.690  1.00  0.00     0.015 C 
ATOM     11  C   UNL     1      -2.935  -3.679  -2.482  1.00  0.00     0.043 C 
ATOM     12  Cl  UNL     1      -4.163  -6.745  -0.053  1.00  0.00    -0.089 Cl
ATOM     13  C   UNL     1      -3.288  -5.023  -1.900  1.00  0.00    -0.010 C 
BRANCH   8  14
ATOM     14  C   UNL     1      -3.572  -1.729   0.849  1.00  0.00     0.228 C 
ATOM     15  N   UNL     1      -2.658  -1.044   1.596  1.00  0.00    -0.326 N 
ATOM     16  H   UNL     1      -3.029  -0.403   2.244  1.00  0.00     0.169 HD
ATOM     17  O   UNL     1      -4.746  -1.346   0.884  1.00  0.00    -0.274 OA
BRANCH  15  18
ATOM     18  C   UNL     1      -1.263  -1.135   1.562  1.00  0.00     0.048 A 
ATOM     19  C   UNL     1       2.867  -1.223   0.301  1.00  0.00     0.052 C 
ATOM     20  C   UNL     1       1.478  -1.164   0.867  1.00  0.00     0.027 A 
ATOM     21  C   UNL     1       0.823  -2.345   1.223  1.00  0.00     0.012 A 
ATOM     22  C   UNL     1       0.743   0.015   1.007  1.00  0.00     0.274 A 
ATOM     23  C   UNL     1      -0.533  -2.326   1.584  1.00  0.00     0.027 A 
ATOM     24  C   UNL     1      -0.597   0.059   1.387  1.00  0.00     0.112 A 
BRANCH  22  25
ATOM     25  N   UNL     1       1.314   1.288   0.708  1.00  0.00     0.063 N 
ATOM     26  O   UNL     1       0.967   1.801  -0.365  1.00  0.00    -0.258 OA
ATOM     27  O   UNL     1       1.978   1.798   1.616  1.00  0.00    -0.258 OA
ENDBRANCH  22  25
ENDBRANCH  15  18
ENDBRANCH   8  14
ENDBRANCH   4   7
ENDBRANCH   2   3
ENDBRANCH   1   2
BRANCH   1  28
ATOM     28  C   UNL     1      -2.450   2.845  -1.137  1.00  0.00     0.118 C 
BRANCH  28  29
ATOM     29  N   UNL     1      -3.104   4.149  -1.185  1.00  0.00    -0.352 N 
ATOM     30  C   UNL     1      -2.749   5.361  -0.624  1.00  0.00     0.251 C 
ATOM     31  H   UNL     1      -3.940   4.169  -1.705  1.00  0.00     0.163 HD
ATOM     32  O   UNL     1      -3.488   6.318  -0.650  1.00  0.00    -0.269 OA
BRANCH  30  33
ATOM     33  C   UNL     1      -1.398   5.480  -0.040  1.00  0.00     0.039 A 
ATOM     34  C   UNL     1      -0.446   6.224  -0.744  1.00  0.00     0.014 A 
ATOM     35  C   UNL     1      -1.050   4.764   1.099  1.00  0.00     0.014 A 
ATOM     36  C   UNL     1       0.902   6.114  -0.403  1.00  0.00     0.010 A 
ATOM     37  C   UNL     1       0.296   4.636   1.416  1.00  0.00     0.010 A 
ATOM     38  C   UNL     1       1.287   5.250   0.627  1.00  0.00    -0.014 A 
BRANCH  38  39
ATOM     39  C   UNL     1       2.665   4.741   0.741  1.00  0.00     0.031 A 
ATOM     40  C   UNL     1       3.488   4.824   1.975  1.00  0.00     0.074 A 
ATOM     41  C   UNL     1       3.125   3.932  -0.245  1.00  0.00     0.049 A 
ATOM     42  N   UNL     1       4.769   4.625   1.994  1.00  0.00    -0.248 NA
ATOM     43  C   UNL     1       2.944   5.129   3.293  1.00  0.00     0.031 C 
ATOM     44  C   UNL     1       4.186   2.928  -0.136  1.00  0.00     0.029 A 
ATOM     45  N   UNL     1       2.688   3.809  -1.568  1.00  0.00    -0.354 N 
ATOM     46  C   UNL     1       5.147   4.452   3.303  1.00  0.00     0.074 A 
ATOM     47  C   UNL     1       3.992   4.853   4.079  1.00  0.00     0.031 C 
ATOM     48  C   UNL     1       4.458   2.434  -1.349  1.00  0.00     0.029 A 
ATOM     49  C   UNL     1       3.738   3.235  -2.315  1.00  0.00     0.049 A 
ATOM     50  H   UNL     1       1.806   4.076  -1.916  1.00  0.00     0.167 HD
ATOM     51  C   UNL     1       6.343   3.868   3.613  1.00  0.00     0.037 A 
ATOM     52  C   UNL     1       4.332   3.956  -3.313  1.00  0.00     0.037 A 
ATOM     53  C   UNL     1       7.090   3.437   2.429  1.00  0.00     0.049 A 
ATOM     54  C   UNL     1       5.746   4.398  -2.989  1.00  0.00     0.074 A 
ATOM     55  C   UNL     1       7.323   2.213   1.821  1.00  0.00     0.029 A 
ATOM     56  N   UNL     1       7.529   4.389   1.526  1.00  0.00    -0.354 N 
ATOM     57  N   UNL     1       6.446   3.959  -1.978  1.00  0.00    -0.248 NA
ATOM     58  C   UNL     1       6.460   5.432  -3.741  1.00  0.00     0.031 C 
ATOM     59  C   UNL     1       7.883   2.447   0.532  1.00  0.00     0.029 A 
ATOM     60  C   UNL     1       7.985   3.814   0.353  1.00  0.00     0.049 A 
ATOM     61  H   UNL     1       7.519   5.359   1.697  1.00  0.00     0.167 HD
ATOM     62  C   UNL     1       7.568   4.728  -1.838  1.00  0.00     0.074 A 
ATOM     63  C   UNL     1       7.573   5.590  -3.004  1.00  0.00     0.031 C 
ATOM     64  C   UNL     1       8.382   4.677  -0.746  1.00  0.00     0.037 A 
BRANCH  51  65
ATOM     65  C   UNL     1       6.727   3.506   5.030  1.00  0.00     0.058 A 
ATOM     66  C   UNL     1       7.453   2.334   5.328  1.00  0.00     0.135 A 
ATOM     67  C   UNL     1       6.396   4.301   6.147  1.00  0.00     0.135 A 
ATOM     68  F   UNL     1       7.894   1.516   4.364  1.00  0.00    -0.206 F 
ATOM     69  C   UNL     1       7.744   1.933   6.633  1.00  0.00     0.059 A 
ATOM     70  C   UNL     1       6.628   3.895   7.465  1.00  0.00     0.059 A 
ATOM     71  F   UNL     1       5.850   5.517   5.989  1.00  0.00    -0.206 F 
ATOM     72  C   UNL     1       7.299   2.703   7.700  1.00  0.00     0.060 A 
BRANCH  72  73
ATOM     73  S   UNL     1       7.586   2.109   9.378  1.00  0.00     0.124 S 
ATOM     74  O   UNL     1       7.138   0.721   9.298  1.00  0.00    -0.237 OA
ATOM     75  O   UNL     1       9.024   2.303   9.527  1.00  0.00    -0.237 OA
ATOM     76  O   UNL     1       6.746   2.980  10.194  1.00  0.00    -0.744 OA
ENDBRANCH  72  73
ENDBRANCH  51  65
BRANCH  52  77
ATOM     77  C   UNL     1       3.325   4.689  -4.127  1.00  0.00     0.058 A 
ATOM     78  C   UNL     1       2.476   3.909  -4.937  1.00  0.00     0.135 A 
ATOM     79  C   UNL     1       2.887   5.973  -3.773  1.00  0.00     0.135 A 
ATOM     80  F   UNL     1       2.854   2.676  -5.315  1.00  0.00    -0.206 F 
ATOM     81  C   UNL     1       1.181   4.313  -5.239  1.00  0.00     0.059 A 
ATOM     82  C   UNL     1       1.591   6.400  -4.071  1.00  0.00     0.059 A 
ATOM     83  F   UNL     1       3.654   6.760  -3.003  1.00  0.00    -0.206 F 
ATOM     84  C   UNL     1       0.728   5.532  -4.743  1.00  0.00     0.060 A 
BRANCH  84  85
ATOM     85  S   UNL     1      -1.047   5.870  -4.839  1.00  0.00     0.124 S 
ATOM     86  O   UNL     1      -1.275   5.889  -6.279  1.00  0.00    -0.237 OA
ATOM     87  O   UNL     1      -1.611   4.723  -4.127  1.00  0.00    -0.237 OA
ATOM     88  O   UNL     1      -1.181   7.154  -4.161  1.00  0.00    -0.744 OA
ENDBRANCH  84  85
ENDBRANCH  52  77
BRANCH  64  89
ATOM     89  C   UNL     1       9.638   5.483  -0.657  1.00  0.00     0.058 A 
ATOM     90  C   UNL     1      10.624   5.396  -1.652  1.00  0.00     0.135 A 
ATOM     91  C   UNL     1       9.946   6.258   0.477  1.00  0.00     0.135 A 
ATOM     92  F   UNL     1      10.420   4.651  -2.751  1.00  0.00    -0.206 F 
ATOM     93  C   UNL     1      11.843   6.060  -1.542  1.00  0.00     0.059 A 
ATOM     94  C   UNL     1      11.172   6.898   0.628  1.00  0.00     0.059 A 
ATOM     95  F   UNL     1       9.051   6.428   1.462  1.00  0.00    -0.206 F 
ATOM     96  C   UNL     1      12.109   6.808  -0.396  1.00  0.00     0.060 A 
BRANCH  96  97
ATOM     97  S   UNL     1      13.699   7.643  -0.229  1.00  0.00     0.124 S 
ATOM     98  O   UNL     1      14.606   6.763  -0.961  1.00  0.00    -0.237 OA
ATOM     99  O   UNL     1      13.420   8.927  -0.862  1.00  0.00    -0.237 OA
ATOM    100  O   UNL     1      13.906   7.681   1.215  1.00  0.00    -0.744 OA
ENDBRANCH  96  97
ENDBRANCH  64  89
ENDBRANCH  38  39
ENDBRANCH  30  33
ENDBRANCH  28  29
ENDBRANCH   1  28
TORSDOF 16
