REMARK SMILES COc1ccc(C2=NN(C(=O)CCC(=O)NCCCNC(=O)c3ccc(-c4c5nc(c(-c6c(F)cc(S(=O)(=O)[O-])cc6F)c6ccc([nH]6)c(-c6c(F)cc(S(=O)(=O)[O-])cc6F)c6nc(c(-c7c(F)cc(S(=O)(=O)[O-])cc7F)c7ccc4[nH]7)C=C6)C=C5)cc3)[C@H](c3ccc(Cl)cc3Cl)C2)cc1
REMARK SMILES IDX 17 1 16 2 14 3 15 4 13 6 12 7 10 8 11 9 9 10 7 11 8 12 98 13
REMARK SMILES IDX 89 14 6 15 3 16 4 17 100 18 5 19 99 20 2 21 1 22 90 23 91 24
REMARK SMILES IDX 96 25 92 26 95 27 97 28 93 29 94 30 18 31 19 32 20 33 21 34
REMARK SMILES IDX 22 36 23 37 24 38 88 39 25 40 87 41 26 42 27 43 28 44 81 45
REMARK SMILES IDX 29 46 86 47 80 48 82 49 30 50 85 51 79 52 78 53 31 55 65 56
REMARK SMILES IDX 44 57 64 58 45 59 48 60 63 61 83 62 46 63 47 64 62 66 84 67
REMARK SMILES IDX 49 68 32 69 33 70 42 71 34 72 35 73 41 74 43 75 36 76 37 77
REMARK SMILES IDX 38 78 39 79 40 80 66 81 67 82 76 83 68 84 69 85 75 86 77 87
REMARK SMILES IDX 70 88 71 89 72 90 73 91 74 92 50 93 51 94 60 95 52 96 53 97
REMARK SMILES IDX 59 98 61 99 54 100 55 101 56 102 57 103 58 104
REMARK H PARENT 16 5 20 35 82 54 48 65
REMARK Flexibility Score: inf
ROOT
ATOM      1  C   UNL     1       2.250  -7.767  -3.792  1.00  0.00     0.117 C 
ENDROOT
BRANCH   1   2
ATOM      2  N   UNL     1       3.275  -8.010  -2.799  1.00  0.00    -0.356 N 
ATOM      3  C   UNL     1       3.900  -9.173  -2.466  1.00  0.00     0.220 C 
ATOM      4  O   UNL     1       4.991  -9.118  -1.893  1.00  0.00    -0.275 OA
ATOM      5  H   UNL     1       3.562  -7.219  -2.289  1.00  0.00     0.163 HD
BRANCH   3   6
ATOM      6  C   UNL     1       3.257 -10.508  -2.752  1.00  0.00     0.110 C 
BRANCH   6   7
ATOM      7  C   UNL     1       2.032 -10.884  -1.930  1.00  0.00     0.112 C 
BRANCH   7   8
ATOM      8  C   UNL     1       1.399  -9.928  -0.942  1.00  0.00     0.243 C 
ATOM      9  O   UNL     1       0.158  -9.882  -0.933  1.00  0.00    -0.273 OA
BRANCH   8  10
ATOM     10  N   UNL     1       2.144  -9.072  -0.168  1.00  0.00    -0.225 N 
ATOM     11  C   UNL     1       2.470  -7.059   0.544  1.00  0.00     0.071 C 
ATOM     12  N   UNL     1       1.657  -7.817  -0.109  1.00  0.00    -0.174 NA
ATOM     13  C   UNL     1       3.667  -7.756   1.109  1.00  0.00     0.091 C 
ATOM     14  C   UNL     1       3.304  -9.240   0.744  1.00  0.00     0.149 C 
BRANCH  11  15
ATOM     15  C   UNL     1       2.070  -5.648   0.679  1.00  0.00    -0.002 A 
ATOM     16  C   UNL     1       0.675  -2.305   0.823  1.00  0.00     0.118 A 
ATOM     17  C   UNL     1      -0.465  -3.975   0.734  1.00  0.00     0.047 A 
ATOM     18  C   UNL     1       2.471  -2.545   0.807  1.00  0.00     0.047 A 
ATOM     19  C   UNL     1       0.317  -5.566   0.688  1.00  0.00     0.014 A 
ATOM     20  C   UNL     1       3.112  -4.211   0.729  1.00  0.00     0.014 A 
BRANCH  16  21
ATOM     21  O   UNL     1       0.337  -0.967   1.073  1.00  0.00    -0.497 OA
ATOM     22  C   UNL     1       0.932  -0.014   0.196  1.00  0.00     0.278 C 
ENDBRANCH  16  21
ENDBRANCH  11  15
BRANCH  14  23
ATOM     23  C   UNL     1       2.886 -10.174   1.885  1.00  0.00    -0.004 A 
ATOM     24  C   UNL     1       2.301  -9.690   3.071  1.00  0.00     0.009 A 
ATOM     25  C   UNL     1       2.946 -11.576   1.725  1.00  0.00     0.047 A 
ATOM     26  C   UNL     1       1.789 -10.568   4.036  1.00  0.00     0.021 A 
ATOM     27  C   UNL     1       2.335 -12.445   2.635  1.00  0.00     0.041 A 
ATOM     28  Cl  UNL     1       3.863 -12.332   0.469  1.00  0.00    -0.084 Cl
ATOM     29  C   UNL     1       1.776 -11.937   3.797  1.00  0.00     0.042 A 
ATOM     30  Cl  UNL     1       1.111 -13.016   4.960  1.00  0.00    -0.084 Cl
ENDBRANCH  14  23
ENDBRANCH   8  10
ENDBRANCH   7   8
ENDBRANCH   6   7
ENDBRANCH   3   6
ENDBRANCH   1   2
BRANCH   1  31
ATOM     31  C   UNL     1       0.859  -7.350  -3.314  1.00  0.00     0.042 C 
BRANCH  31  32
ATOM     32  C   UNL     1       0.641  -6.072  -2.490  1.00  0.00     0.118 C 
BRANCH  32  33
ATOM     33  N   UNL     1       1.730  -5.118  -2.452  1.00  0.00    -0.352 N 
ATOM     34  C   UNL     1       1.990  -4.080  -1.577  1.00  0.00     0.251 C 
ATOM     35  H   UNL     1       2.397  -5.227  -3.168  1.00  0.00     0.163 HD
ATOM     36  O   UNL     1       2.881  -3.296  -1.912  1.00  0.00    -0.269 OA
BRANCH  34  37
ATOM     37  C   UNL     1       1.095  -3.785  -0.328  1.00  0.00     0.039 A 
ATOM     38  C   UNL     1      -0.279  -2.851  -1.046  1.00  0.00     0.014 A 
ATOM     39  C   UNL     1       1.147  -3.913   1.698  1.00  0.00     0.014 A 
ATOM     40  C   UNL     1      -1.501  -2.156   0.024  1.00  0.00     0.010 A 
ATOM     41  C   UNL     1      -0.185  -3.181   2.655  1.00  0.00     0.010 A 
ATOM     42  C   UNL     1      -1.497  -2.351   1.801  1.00  0.00    -0.014 A 
BRANCH  42  43
ATOM     43  C   UNL     1      -2.773  -2.149   2.575  1.00  0.00     0.031 A 
ATOM     44  C   UNL     1      -2.701  -1.589   3.972  1.00  0.00     0.074 A 
ATOM     45  C   UNL     1      -3.943  -2.673   2.131  1.00  0.00     0.049 A 
ATOM     46  N   UNL     1      -3.623  -1.549   4.900  1.00  0.00    -0.248 NA
ATOM     47  C   UNL     1      -1.390  -1.090   4.416  1.00  0.00     0.031 C 
ATOM     48  C   UNL     1      -4.159  -3.387   0.868  1.00  0.00     0.029 A 
ATOM     49  N   UNL     1      -5.190  -2.720   2.719  1.00  0.00    -0.354 N 
ATOM     50  C   UNL     1      -2.983  -1.071   6.039  1.00  0.00     0.074 A 
ATOM     51  C   UNL     1      -1.577  -0.979   5.722  1.00  0.00     0.031 C 
ATOM     52  C   UNL     1      -5.440  -3.764   0.761  1.00  0.00     0.029 A 
ATOM     53  C   UNL     1      -6.151  -3.354   1.956  1.00  0.00     0.049 A 
ATOM     54  H   UNL     1      -5.379  -2.334   3.605  1.00  0.00     0.167 HD
ATOM     55  C   UNL     1      -3.523  -0.669   7.215  1.00  0.00     0.037 A 
ATOM     56  C   UNL     1      -7.462  -3.579   2.175  1.00  0.00     0.037 A 
ATOM     57  C   UNL     1      -4.936  -0.692   7.482  1.00  0.00     0.049 A 
ATOM     58  C   UNL     1      -8.065  -3.065   3.450  1.00  0.00     0.074 A 
ATOM     59  C   UNL     1      -5.616  -0.196   8.578  1.00  0.00     0.029 A 
ATOM     60  N   UNL     1      -5.887  -1.238   6.630  1.00  0.00    -0.354 N 
ATOM     61  N   UNL     1      -7.467  -2.483   4.463  1.00  0.00    -0.248 NA
ATOM     62  C   UNL     1      -9.517  -3.211   3.608  1.00  0.00     0.031 C 
ATOM     63  C   UNL     1      -6.973  -0.495   8.417  1.00  0.00     0.029 A 
ATOM     64  C   UNL     1      -7.147  -1.114   7.188  1.00  0.00     0.049 A 
ATOM     65  H   UNL     1      -5.693  -1.652   5.759  1.00  0.00     0.167 HD
ATOM     66  C   UNL     1      -8.474  -2.161   5.364  1.00  0.00     0.074 A 
ATOM     67  C   UNL     1      -9.720  -2.602   4.768  1.00  0.00     0.031 C 
ATOM     68  C   UNL     1      -8.376  -1.551   6.571  1.00  0.00     0.037 A 
BRANCH  55  69
ATOM     69  C   UNL     1      -2.580  -0.134   8.264  1.00  0.00     0.058 A 
ATOM     70  C   UNL     1      -1.805   1.020   8.042  1.00  0.00     0.135 A 
ATOM     71  C   UNL     1      -2.425  -0.788   9.496  1.00  0.00     0.135 A 
ATOM     72  F   UNL     1      -1.907   1.694   6.885  1.00  0.00    -0.206 F 
ATOM     73  C   UNL     1      -0.859   1.455   8.963  1.00  0.00     0.059 A 
ATOM     74  C   UNL     1      -1.516  -0.342  10.454  1.00  0.00     0.059 A 
ATOM     75  F   UNL     1      -3.145  -1.885   9.777  1.00  0.00    -0.206 F 
ATOM     76  C   UNL     1      -0.718   0.764  10.165  1.00  0.00     0.060 A 
BRANCH  76  77
ATOM     77  S   UNL     1       0.532   1.331  11.335  1.00  0.00     0.124 S 
ATOM     78  O   UNL     1       1.766   0.954  10.651  1.00  0.00    -0.237 OA
ATOM     79  O   UNL     1       0.263   2.764  11.407  1.00  0.00    -0.237 OA
ATOM     80  O   UNL     1       0.232   0.577  12.548  1.00  0.00    -0.744 OA
ENDBRANCH  76  77
ENDBRANCH  55  69
BRANCH  56  81
ATOM     81  C   UNL     1      -8.302  -4.244   1.133  1.00  0.00     0.058 A 
ATOM     82  C   UNL     1      -9.252  -3.514   0.399  1.00  0.00     0.135 A 
ATOM     83  C   UNL     1      -8.158  -5.606   0.821  1.00  0.00     0.135 A 
ATOM     84  F   UNL     1      -9.435  -2.209   0.653  1.00  0.00    -0.206 F 
ATOM     85  C   UNL     1     -10.038  -4.108  -0.585  1.00  0.00     0.059 A 
ATOM     86  C   UNL     1      -8.913  -6.218  -0.179  1.00  0.00     0.059 A 
ATOM     87  F   UNL     1      -7.250  -6.351   1.471  1.00  0.00    -0.206 F 
ATOM     88  C   UNL     1      -9.857  -5.461  -0.873  1.00  0.00     0.060 A 
BRANCH  88  89
ATOM     89  S   UNL     1     -10.842  -6.202  -2.196  1.00  0.00     0.124 S 
ATOM     90  O   UNL     1     -12.181  -6.174  -1.621  1.00  0.00    -0.237 OA
ATOM     91  O   UNL     1     -10.604  -5.280  -3.303  1.00  0.00    -0.237 OA
ATOM     92  O   UNL     1     -10.252  -7.527  -2.356  1.00  0.00    -0.744 OA
ENDBRANCH  88  89
ENDBRANCH  56  81
BRANCH  68  93
ATOM     93  C   UNL     1      -9.653  -1.282   7.315  1.00  0.00     0.058 A 
ATOM     94  C   UNL     1     -10.409  -2.315   7.889  1.00  0.00     0.135 A 
ATOM     95  C   UNL     1     -10.082   0.040   7.519  1.00  0.00     0.135 A 
ATOM     96  F   UNL     1     -10.047  -3.596   7.718  1.00  0.00    -0.206 F 
ATOM     97  C   UNL     1     -11.559  -2.047   8.623  1.00  0.00     0.059 A 
ATOM     98  C   UNL     1     -11.205   0.333   8.282  1.00  0.00     0.059 A 
ATOM     99  F   UNL     1      -9.388   1.065   6.998  1.00  0.00    -0.206 F 
ATOM    100  C   UNL     1     -11.943  -0.719   8.822  1.00  0.00     0.060 A 
BRANCH 100 101
ATOM    101  S   UNL     1     -13.407  -0.387   9.820  1.00  0.00     0.124 S 
ATOM    102  O   UNL     1     -14.474  -0.855   8.942  1.00  0.00    -0.237 OA
ATOM    103  O   UNL     1     -13.162  -1.196  11.009  1.00  0.00    -0.237 OA
ATOM    104  O   UNL     1     -13.356   1.057  10.030  1.00  0.00    -0.744 OA
ENDBRANCH 100 101
ENDBRANCH  68  93
ENDBRANCH  42  43
ENDBRANCH  34  37
ENDBRANCH  32  33
ENDBRANCH  31  32
ENDBRANCH   1  31
TORSDOF 19
