REMARK SMILES CCOC(=O)[C@H]1CCCN(C(=O)N[C@](C)(CC)C(=O)NCCCNC(=O)c2ccc(-c3c4nc(c(-c5c(F)cc(S(=O)(=O)[O-])cc5F)c5ccc([nH]5)c(-c5c(F)cc(S(=O)(=O)[O-])cc5F)c5nc(c(-c6c(F)cc(S(=O)(=O)[O-])cc6F)c6ccc3[nH]6)C=C5)C=C4)cc2)C1
REMARK SMILES IDX 21 1 20 2 18 3 19 4 14 6 15 7 13 8 11 9 12 10 10 12 6 13
REMARK SMILES IDX 7 14 93 15 8 16 9 17 4 18 5 19 3 20 2 21 1 22 16 23 17 24
REMARK SMILES IDX 22 25 23 26 24 27 25 28 26 30 27 31 28 32 92 33 29 34 91 35
REMARK SMILES IDX 30 36 31 37 32 38 85 39 33 40 90 41 84 42 86 43 34 44 89 45
REMARK SMILES IDX 83 46 82 47 35 49 69 50 48 51 68 52 49 53 52 54 67 55 87 56
REMARK SMILES IDX 50 57 51 58 66 60 88 61 53 62 36 63 37 64 46 65 38 66 39 67
REMARK SMILES IDX 45 68 47 69 40 70 41 71 42 72 43 73 44 74 70 75 71 76 80 77
REMARK SMILES IDX 72 78 73 79 79 80 81 81 74 82 75 83 76 84 77 85 78 86 54 87
REMARK SMILES IDX 55 88 64 89 56 90 57 91 63 92 65 93 58 94 59 95 60 96 61 97
REMARK SMILES IDX 62 98
REMARK H PARENT 20 5 13 11 24 29 86 48 52 59
REMARK Flexibility Score: inf
ROOT
ATOM      1  C   UNL     1       3.980   7.552   3.699  1.00  0.00     0.117 C 
ENDROOT
BRANCH   1   2
ATOM      2  N   UNL     1       3.582   7.028   2.408  1.00  0.00    -0.354 N 
ATOM      3  C   UNL     1       2.404   6.577   1.905  1.00  0.00     0.245 C 
ATOM      4  O   UNL     1       2.490   6.140   0.747  1.00  0.00    -0.272 OA
ATOM      5  H   UNL     1       4.322   6.990   1.759  1.00  0.00     0.163 HD
BRANCH   3   6
ATOM      6  C   UNL     1       1.074   6.400   2.734  1.00  0.00     0.117 C 
ATOM      7  C   UNL     1      -0.117   6.423   1.719  1.00  0.00     0.045 C 
BRANCH   6   8
ATOM      8  N   UNL     1       0.817   7.570   3.640  1.00  0.00    -0.324 N 
ATOM      9  C   UNL     1       0.760   8.077   4.870  1.00  0.00     0.318 C 
ATOM     10  O   UNL     1       0.651   9.313   4.845  1.00  0.00    -0.249 OA
ATOM     11  H   UNL     1       0.578   8.314   3.042  1.00  0.00     0.166 HD
BRANCH   9  12
ATOM     12  N   UNL     1       0.847   7.423   6.053  1.00  0.00    -0.324 N 
ATOM     13  C   UNL     1       2.194   7.839   8.122  1.00  0.00     0.119 C 
ATOM     14  C   UNL     1       2.474   6.323   8.189  1.00  0.00     0.019 C 
ATOM     15  C   UNL     1       0.966   8.227   7.275  1.00  0.00     0.136 C 
ATOM     16  C   UNL     1       2.122   5.565   6.912  1.00  0.00     0.023 C 
ATOM     17  C   UNL     1       0.768   6.016   6.395  1.00  0.00     0.121 C 
BRANCH  13  18
ATOM     18  C   UNL     1       1.971   8.356   9.529  1.00  0.00     0.310 C 
ATOM     19  O   UNL     1       0.922   8.850   9.932  1.00  0.00    -0.252 OA
BRANCH  18  20
ATOM     20  O   UNL     1       3.079   8.162  10.294  1.00  0.00    -0.466 OA
BRANCH  20  21
ATOM     21  C   UNL     1       2.921   8.480  11.686  1.00  0.00     0.229 C 
ATOM     22  C   UNL     1       3.046   9.976  11.908  1.00  0.00     0.049 C 
ENDBRANCH  20  21
ENDBRANCH  18  20
ENDBRANCH  13  18
ENDBRANCH   9  12
ENDBRANCH   6   8
BRANCH   6  23
ATOM     23  C   UNL     1       1.114   5.031   3.421  1.00  0.00     0.035 C 
ATOM     24  C   UNL     1       1.363   3.796   2.566  1.00  0.00     0.007 C 
ENDBRANCH   6  23
ENDBRANCH   3   6
ENDBRANCH   1   2
BRANCH   1  25
ATOM     25  C   UNL     1       4.798   6.551   4.503  1.00  0.00     0.042 C 
BRANCH  25  26
ATOM     26  C   UNL     1       6.212   6.315   3.989  1.00  0.00     0.118 C 
BRANCH  26  27
ATOM     27  N   UNL     1       7.057   7.491   4.119  1.00  0.00    -0.352 N 
ATOM     28  C   UNL     1       8.125   7.769   4.935  1.00  0.00     0.251 C 
ATOM     29  H   UNL     1       6.819   8.225   3.507  1.00  0.00     0.163 HD
ATOM     30  O   UNL     1       8.521   8.933   4.985  1.00  0.00    -0.269 OA
BRANCH  28  31
ATOM     31  C   UNL     1       8.801   6.732   5.757  1.00  0.00     0.039 A 
ATOM     32  C   UNL     1       9.404   7.133   6.955  1.00  0.00     0.014 A 
ATOM     33  C   UNL     1       8.931   5.403   5.348  1.00  0.00     0.014 A 
ATOM     34  C   UNL     1      10.088   6.206   7.747  1.00  0.00     0.010 A 
ATOM     35  C   UNL     1       9.522   4.456   6.190  1.00  0.00     0.010 A 
ATOM     36  C   UNL     1      10.126   4.848   7.391  1.00  0.00    -0.014 A 
BRANCH  36  37
ATOM     37  C   UNL     1      10.799   3.852   8.271  1.00  0.00     0.031 A 
ATOM     38  C   UNL     1      11.982   3.056   7.779  1.00  0.00     0.074 A 
ATOM     39  C   UNL     1      10.331   3.654   9.520  1.00  0.00     0.049 A 
ATOM     40  N   UNL     1      12.705   2.171   8.419  1.00  0.00    -0.248 NA
ATOM     41  C   UNL     1      12.396   3.260   6.381  1.00  0.00     0.031 C 
ATOM     42  C   UNL     1       9.155   4.313  10.095  1.00  0.00     0.029 A 
ATOM     43  N   UNL     1      10.786   2.850  10.536  1.00  0.00    -0.354 N 
ATOM     44  C   UNL     1      13.650   1.713   7.506  1.00  0.00     0.074 A 
ATOM     45  C   UNL     1      13.370   2.370   6.249  1.00  0.00     0.031 C 
ATOM     46  C   UNL     1       9.011   3.924  11.371  1.00  0.00     0.029 A 
ATOM     47  C   UNL     1      10.055   2.959  11.696  1.00  0.00     0.049 A 
ATOM     48  H   UNL     1      11.563   2.252  10.442  1.00  0.00     0.167 HD
ATOM     49  C   UNL     1      14.674   0.847   7.703  1.00  0.00     0.037 A 
ATOM     50  C   UNL     1      10.208   2.353  12.890  1.00  0.00     0.037 A 
ATOM     51  C   UNL     1      14.961   0.209   8.963  1.00  0.00     0.049 A 
ATOM     52  C   UNL     1      11.358   1.403  13.084  1.00  0.00     0.074 A 
ATOM     53  C   UNL     1      16.008  -0.641   9.280  1.00  0.00     0.029 A 
ATOM     54  N   UNL     1      14.200   0.348  10.116  1.00  0.00    -0.354 N 
ATOM     55  N   UNL     1      12.283   1.040  12.227  1.00  0.00    -0.248 NA
ATOM     56  C   UNL     1      11.492   0.790  14.412  1.00  0.00     0.031 C 
ATOM     57  C   UNL     1      15.850  -1.057  10.607  1.00  0.00     0.029 A 
ATOM     58  C   UNL     1      14.739  -0.420  11.136  1.00  0.00     0.049 A 
ATOM     59  H   UNL     1      13.396   0.909  10.196  1.00  0.00     0.167 HD
ATOM     60  C   UNL     1      13.120   0.171  12.919  1.00  0.00     0.074 A 
ATOM     61  C   UNL     1      12.608   0.090  14.272  1.00  0.00     0.031 C 
ATOM     62  C   UNL     1      14.212  -0.502  12.476  1.00  0.00     0.037 A 
BRANCH  49  63
ATOM     63  C   UNL     1      15.572   0.541   6.531  1.00  0.00     0.058 A 
ATOM     64  C   UNL     1      16.449   1.503   6.002  1.00  0.00     0.135 A 
ATOM     65  C   UNL     1      15.596  -0.743   5.963  1.00  0.00     0.135 A 
ATOM     66  F   UNL     1      16.461   2.752   6.495  1.00  0.00    -0.206 F 
ATOM     67  C   UNL     1      17.297   1.210   4.939  1.00  0.00     0.059 A 
ATOM     68  C   UNL     1      16.458  -1.067   4.918  1.00  0.00     0.059 A 
ATOM     69  F   UNL     1      14.780  -1.703   6.427  1.00  0.00    -0.206 F 
ATOM     70  C   UNL     1      17.297  -0.079   4.405  1.00  0.00     0.060 A 
BRANCH  70  71
ATOM     71  S   UNL     1      18.418  -0.445   3.038  1.00  0.00     0.124 S 
ATOM     72  O   UNL     1      17.796   0.296   1.945  1.00  0.00    -0.237 OA
ATOM     73  O   UNL     1      19.686   0.088   3.524  1.00  0.00    -0.237 OA
ATOM     74  O   UNL     1      18.354  -1.899   2.924  1.00  0.00    -0.744 OA
ENDBRANCH  70  71
ENDBRANCH  49  63
BRANCH  50  75
ATOM     75  C   UNL     1       9.261   2.643  14.001  1.00  0.00     0.058 A 
ATOM     76  C   UNL     1       9.675   3.341  15.145  1.00  0.00     0.135 A 
ATOM     77  C   UNL     1       7.920   2.231  13.939  1.00  0.00     0.135 A 
ATOM     78  F   UNL     1      10.948   3.753  15.255  1.00  0.00    -0.206 F 
ATOM     79  C   UNL     1       8.805   3.599  16.199  1.00  0.00     0.059 A 
ATOM     80  C   UNL     1       7.022   2.504  14.966  1.00  0.00     0.059 A 
ATOM     81  F   UNL     1       7.466   1.577  12.859  1.00  0.00    -0.206 F 
ATOM     82  C   UNL     1       7.478   3.177  16.098  1.00  0.00     0.060 A 
BRANCH  82  83
ATOM     83  S   UNL     1       6.343   3.554  17.451  1.00  0.00     0.124 S 
ATOM     84  O   UNL     1       6.794   2.626  18.481  1.00  0.00    -0.237 OA
ATOM     85  O   UNL     1       6.617   4.966  17.697  1.00  0.00    -0.237 OA
ATOM     86  O   UNL     1       5.031   3.271  16.875  1.00  0.00    -0.744 OA
ENDBRANCH  82  83
ENDBRANCH  50  75
BRANCH  62  87
ATOM     87  C   UNL     1      14.933  -1.367  13.475  1.00  0.00     0.058 A 
ATOM     88  C   UNL     1      14.360  -2.545  13.981  1.00  0.00     0.135 A 
ATOM     89  C   UNL     1      16.212  -1.013  13.933  1.00  0.00     0.135 A 
ATOM     90  F   UNL     1      13.139  -2.930  13.579  1.00  0.00    -0.206 F 
ATOM     91  C   UNL     1      15.006  -3.312  14.945  1.00  0.00     0.059 A 
ATOM     92  C   UNL     1      16.892  -1.784  14.871  1.00  0.00     0.059 A 
ATOM     93  F   UNL     1      16.815   0.094  13.472  1.00  0.00    -0.206 F 
ATOM     94  C   UNL     1      16.270  -2.919  15.390  1.00  0.00     0.060 A 
BRANCH  94  95
ATOM     95  S   UNL     1      17.090  -3.911  16.654  1.00  0.00     0.124 S 
ATOM     96  O   UNL     1      16.329  -3.554  17.846  1.00  0.00    -0.237 OA
ATOM     97  O   UNL     1      16.894  -5.271  16.161  1.00  0.00    -0.237 OA
ATOM     98  O   UNL     1      18.468  -3.432  16.622  1.00  0.00    -0.744 OA
ENDBRANCH  94  95
ENDBRANCH  62  87
ENDBRANCH  36  37
ENDBRANCH  28  31
ENDBRANCH  26  27
ENDBRANCH  25  26
ENDBRANCH   1  25
TORSDOF 19
