REMARK SMILES CC1=C2C(=O)N(C[C@H]3CCCO3)C(=O)N=C2S[C@@H]1C(=O)NCCCNC(=O)c1ccc(-c2c3nc(c(-c4c(F)cc(S(=O)(=O)[O-])cc4F)c4ccc([nH]4)c(-c4c(F)cc(S(=O)(=O)[O-])cc4F)c4nc(c(-c5c(F)cc(S(=O)(=O)[O-])cc5F)c5ccc2[nH]5)C=C4)C=C3)cc1
REMARK SMILES IDX 23 1 22 2 21 3 19 4 20 5 18 7 1 8 2 9 3 10 4 11 16 12 17 13
REMARK SMILES IDX 5 14 6 15 15 16 13 17 14 18 7 19 8 20 9 21 12 22 10 23 11 24
REMARK SMILES IDX 24 25 25 26 26 27 27 29 28 30 29 31 93 32 30 33 92 34 31 35
REMARK SMILES IDX 32 36 33 37 86 38 34 39 91 40 85 41 87 42 35 43 90 44 84 45
REMARK SMILES IDX 83 46 36 48 70 49 49 50 69 51 50 52 53 53 68 54 88 55 51 56
REMARK SMILES IDX 52 57 67 59 89 60 54 61 37 62 38 63 47 64 39 65 40 66 46 67
REMARK SMILES IDX 48 68 41 69 42 70 43 71 44 72 45 73 71 74 72 75 81 76 73 77
REMARK SMILES IDX 74 78 80 79 82 80 75 81 76 82 77 83 78 84 79 85 55 86 56 87
REMARK SMILES IDX 65 88 57 89 58 90 64 91 66 92 59 93 60 94 61 95 62 96 63 97
REMARK H PARENT 21 6 25 28 87 47 53 58
REMARK Flexibility Score: inf
ROOT
ATOM      1  C   UNL     1      -6.969  -1.997   3.681  1.00  0.00     0.042 C 
ENDROOT
BRANCH   1   2
ATOM      2  C   UNL     1      -5.797  -2.865   3.252  1.00  0.00     0.117 C 
BRANCH   2   3
ATOM      3  N   UNL     1      -6.004  -4.269   3.562  1.00  0.00    -0.355 N 
ATOM      4  C   UNL     1      -6.269  -5.341   2.763  1.00  0.00     0.237 C 
ATOM      5  O   UNL     1      -6.366  -6.443   3.315  1.00  0.00    -0.273 OA
ATOM      6  H   UNL     1      -5.942  -4.485   4.521  1.00  0.00     0.163 HD
BRANCH   4   7
ATOM      7  C   UNL     1      -6.390  -5.238   1.236  1.00  0.00     0.169 C 
ATOM      8  C   UNL     1      -3.856  -5.095   0.797  1.00  0.00     0.042 C 
ATOM      9  C   UNL     1      -5.232  -4.559   0.556  1.00  0.00    -0.035 C 
ATOM     10  C   UNL     1      -5.559  -3.515  -0.219  1.00  0.00     0.073 C 
ATOM     11  C   UNL     1      -4.708  -2.575  -0.941  1.00  0.00     0.264 C 
ATOM     12  C   UNL     1      -6.986  -3.282  -0.329  1.00  0.00     0.116 C 
ATOM     13  S   UNL     1      -7.882  -4.305   0.751  1.00  0.00    -0.087 SA
ATOM     14  O   UNL     1      -3.597  -2.281  -0.524  1.00  0.00    -0.268 OA
ATOM     15  N   UNL     1      -5.342  -2.040  -2.035  1.00  0.00    -0.256 N 
ATOM     16  N   UNL     1      -7.530  -2.440  -1.122  1.00  0.00    -0.186 NA
ATOM     17  C   UNL     1      -6.724  -1.785  -2.026  1.00  0.00     0.351 C 
ATOM     18  O   UNL     1      -7.222  -1.007  -2.836  1.00  0.00    -0.246 OA
BRANCH  15  19
ATOM     19  C   UNL     1      -4.606  -1.736  -3.263  1.00  0.00     0.163 C 
BRANCH  19  20
ATOM     20  C   UNL     1      -3.121  -1.326  -3.217  1.00  0.00     0.138 C 
ATOM     21  C   UNL     1      -2.101  -2.419  -2.916  1.00  0.00     0.036 C 
ATOM     22  O   UNL     1      -2.774  -0.895  -4.562  1.00  0.00    -0.376 OA
ATOM     23  C   UNL     1      -1.864  -3.068  -4.251  1.00  0.00     0.031 C 
ATOM     24  C   UNL     1      -1.963  -1.897  -5.196  1.00  0.00     0.160 C 
ENDBRANCH  19  20
ENDBRANCH  15  19
ENDBRANCH   4   7
ENDBRANCH   2   3
ENDBRANCH   1   2
BRANCH   1  25
ATOM     25  C   UNL     1      -7.042  -1.808   5.188  1.00  0.00     0.118 C 
BRANCH  25  26
ATOM     26  N   UNL     1      -5.922  -1.026   5.700  1.00  0.00    -0.352 N 
ATOM     27  C   UNL     1      -5.939   0.135   6.434  1.00  0.00     0.251 C 
ATOM     28  H   UNL     1      -5.028  -1.379   5.489  1.00  0.00     0.163 HD
ATOM     29  O   UNL     1      -4.898   0.760   6.615  1.00  0.00    -0.269 OA
BRANCH  27  30
ATOM     30  C   UNL     1      -7.216   0.629   6.985  1.00  0.00     0.039 A 
ATOM     31  C   UNL     1      -7.540   1.982   6.855  1.00  0.00     0.014 A 
ATOM     32  C   UNL     1      -8.098  -0.252   7.614  1.00  0.00     0.014 A 
ATOM     33  C   UNL     1      -8.784   2.438   7.296  1.00  0.00     0.010 A 
ATOM     34  C   UNL     1      -9.364   0.187   7.981  1.00  0.00     0.010 A 
ATOM     35  C   UNL     1      -9.717   1.536   7.829  1.00  0.00    -0.014 A 
BRANCH  35  36
ATOM     36  C   UNL     1     -11.069   1.964   8.264  1.00  0.00     0.031 A 
ATOM     37  C   UNL     1     -11.460   1.811   9.708  1.00  0.00     0.074 A 
ATOM     38  C   UNL     1     -11.970   2.379   7.353  1.00  0.00     0.049 A 
ATOM     39  N   UNL     1     -12.637   1.929  10.264  1.00  0.00    -0.248 NA
ATOM     40  C   UNL     1     -10.387   1.434  10.644  1.00  0.00     0.031 C 
ATOM     41  C   UNL     1     -11.720   2.531   5.918  1.00  0.00     0.029 A 
ATOM     42  N   UNL     1     -13.290   2.724   7.497  1.00  0.00    -0.354 N 
ATOM     43  C   UNL     1     -12.456   1.601  11.602  1.00  0.00     0.074 A 
ATOM     44  C   UNL     1     -11.062   1.248  11.768  1.00  0.00     0.031 C 
ATOM     45  C   UNL     1     -12.846   2.946   5.316  1.00  0.00     0.029 A 
ATOM     46  C   UNL     1     -13.908   3.050   6.313  1.00  0.00     0.049 A 
ATOM     47  H   UNL     1     -13.751   2.737   8.367  1.00  0.00     0.167 HD
ATOM     48  C   UNL     1     -13.366   1.607  12.603  1.00  0.00     0.037 A 
ATOM     49  C   UNL     1     -15.189   3.377   6.059  1.00  0.00     0.037 A 
ATOM     50  C   UNL     1     -14.737   2.009  12.439  1.00  0.00     0.049 A 
ATOM     51  C   UNL     1     -16.173   3.422   7.196  1.00  0.00     0.074 A 
ATOM     52  C   UNL     1     -15.729   2.102  13.399  1.00  0.00     0.029 A 
ATOM     53  N   UNL     1     -15.305   2.401  11.235  1.00  0.00    -0.354 N 
ATOM     54  N   UNL     1     -15.981   3.134   8.461  1.00  0.00    -0.248 NA
ATOM     55  C   UNL     1     -17.544   3.839   6.874  1.00  0.00     0.031 C 
ATOM     56  C   UNL     1     -16.903   2.535  12.771  1.00  0.00     0.029 A 
ATOM     57  C   UNL     1     -16.633   2.740  11.428  1.00  0.00     0.049 A 
ATOM     58  H   UNL     1     -14.833   2.433  10.372  1.00  0.00     0.167 HD
ATOM     59  C   UNL     1     -17.198   3.362   9.091  1.00  0.00     0.074 A 
ATOM     60  C   UNL     1     -18.120   3.814   8.069  1.00  0.00     0.031 C 
ATOM     61  C   UNL     1     -17.524   3.212  10.398  1.00  0.00     0.037 A 
BRANCH  48  62
ATOM     62  C   UNL     1     -12.902   1.170  13.963  1.00  0.00     0.058 A 
ATOM     63  C   UNL     1     -12.055   1.971  14.744  1.00  0.00     0.135 A 
ATOM     64  C   UNL     1     -13.317  -0.060  14.498  1.00  0.00     0.135 A 
ATOM     65  F   UNL     1     -11.613   3.148  14.272  1.00  0.00    -0.206 F 
ATOM     66  C   UNL     1     -11.607   1.554  15.993  1.00  0.00     0.059 A 
ATOM     67  C   UNL     1     -12.902  -0.486  15.756  1.00  0.00     0.059 A 
ATOM     68  F   UNL     1     -14.126  -0.866  13.792  1.00  0.00    -0.206 F 
ATOM     69  C   UNL     1     -12.032   0.321  16.488  1.00  0.00     0.060 A 
BRANCH  69  70
ATOM     70  S   UNL     1     -11.438  -0.215  18.107  1.00  0.00     0.124 S 
ATOM     71  O   UNL     1     -10.086  -0.661  17.785  1.00  0.00    -0.237 OA
ATOM     72  O   UNL     1     -11.528   1.009  18.897  1.00  0.00    -0.237 OA
ATOM     73  O   UNL     1     -12.375  -1.269  18.480  1.00  0.00    -0.744 OA
ENDBRANCH  69  70
ENDBRANCH  48  62
BRANCH  49  74
ATOM     74  C   UNL     1     -15.608   3.713   4.674  1.00  0.00     0.058 A 
ATOM     75  C   UNL     1     -15.873   5.041   4.309  1.00  0.00     0.135 A 
ATOM     76  C   UNL     1     -15.731   2.725   3.685  1.00  0.00     0.135 A 
ATOM     77  F   UNL     1     -15.771   6.019   5.223  1.00  0.00    -0.206 F 
ATOM     78  C   UNL     1     -16.261   5.379   3.018  1.00  0.00     0.059 A 
ATOM     79  C   UNL     1     -16.098   3.040   2.381  1.00  0.00     0.059 A 
ATOM     80  F   UNL     1     -15.470   1.442   3.981  1.00  0.00    -0.206 F 
ATOM     81  C   UNL     1     -16.371   4.370   2.059  1.00  0.00     0.060 A 
BRANCH  81  82
ATOM     82  S   UNL     1     -16.830   4.824   0.372  1.00  0.00     0.124 S 
ATOM     83  O   UNL     1     -18.264   5.050   0.510  1.00  0.00    -0.237 OA
ATOM     84  O   UNL     1     -16.016   6.013   0.140  1.00  0.00    -0.237 OA
ATOM     85  O   UNL     1     -16.446   3.650  -0.405  1.00  0.00    -0.744 OA
ENDBRANCH  81  82
ENDBRANCH  49  74
BRANCH  61  86
ATOM     86  C   UNL     1     -18.916   3.588  10.812  1.00  0.00     0.058 A 
ATOM     87  C   UNL     1     -20.010   2.747  10.563  1.00  0.00     0.135 A 
ATOM     88  C   UNL     1     -19.143   4.772  11.531  1.00  0.00     0.135 A 
ATOM     89  F   UNL     1     -19.843   1.607   9.873  1.00  0.00    -0.206 F 
ATOM     90  C   UNL     1     -21.287   3.070  11.007  1.00  0.00     0.059 A 
ATOM     91  C   UNL     1     -20.408   5.106  12.002  1.00  0.00     0.059 A 
ATOM     92  F   UNL     1     -18.125   5.605  11.800  1.00  0.00    -0.206 F 
ATOM     93  C   UNL     1     -21.476   4.251  11.729  1.00  0.00     0.060 A 
BRANCH  93  94
ATOM     94  S   UNL     1     -23.127   4.636  12.351  1.00  0.00     0.124 S 
ATOM     95  O   UNL     1     -23.788   5.126  11.146  1.00  0.00    -0.237 OA
ATOM     96  O   UNL     1     -23.587   3.341  12.845  1.00  0.00    -0.237 OA
ATOM     97  O   UNL     1     -22.874   5.638  13.382  1.00  0.00    -0.744 OA
ENDBRANCH  93  94
ENDBRANCH  61  86
ENDBRANCH  35  36
ENDBRANCH  27  30
ENDBRANCH  25  26
ENDBRANCH   1  25
TORSDOF 15
