REMARK SMILES O=C(Cc1cccn1-c1ccccc1F)NCCCNC(=O)c1ccc(-c2c3nc(c(-c4c(F)cc(S(=O)(=O)[O-])cc4F)c4ccc([nH]4)c(-c4c(F)cc(S(=O)(=O)[O-])cc4F)c4nc(c(-c5c(F)cc(S(=O)(=O)[O-])cc5F)c5ccc2[nH]5)C=C4)C=C3)cc1
REMARK SMILES IDX 18 1 17 2 16 3 1 4 2 5 3 7 4 8 5 9 8 10 6 11 7 12 9 13 10 14
REMARK SMILES IDX 14 15 11 16 13 17 15 18 12 19 19 20 20 21 21 22 22 24 23 25
REMARK SMILES IDX 24 26 88 27 25 28 87 29 26 30 27 31 28 32 81 33 29 34 86 35
REMARK SMILES IDX 80 36 82 37 30 38 85 39 79 40 78 41 31 43 65 44 44 45 64 46
REMARK SMILES IDX 45 47 48 48 63 49 83 50 46 51 47 52 62 54 84 55 49 56 32 57
REMARK SMILES IDX 33 58 42 59 34 60 35 61 41 62 43 63 36 64 37 65 38 66 39 67
REMARK SMILES IDX 40 68 66 69 67 70 76 71 68 72 69 73 75 74 77 75 70 76 71 77
REMARK SMILES IDX 72 78 73 79 74 80 50 81 51 82 60 83 52 84 53 85 59 86 61 87
REMARK SMILES IDX 54 88 55 89 56 90 57 91 58 92
REMARK H PARENT 16 6 20 23 82 42 48 53
REMARK Flexibility Score: inf
ROOT
ATOM      1  C   UNL     1       2.216  -3.759   0.096  1.00  0.00     0.042 C 
ENDROOT
BRANCH   1   2
ATOM      2  C   UNL     1       2.060  -2.419   0.821  1.00  0.00     0.117 C 
BRANCH   2   3
ATOM      3  N   UNL     1       2.709  -1.322   0.125  1.00  0.00    -0.356 N 
ATOM      4  O   UNL     1       1.173   0.276   0.719  1.00  0.00    -0.275 OA
ATOM      5  C   UNL     1       2.231  -0.027   0.171  1.00  0.00     0.225 C 
ATOM      6  H   UNL     1       3.521  -1.509  -0.401  1.00  0.00     0.163 HD
BRANCH   5   7
ATOM      7  C   UNL     1       3.147   1.001  -0.493  1.00  0.00     0.154 C 
BRANCH   7   8
ATOM      8  C   UNL     1       3.795   1.875   0.542  1.00  0.00     0.032 A 
ATOM      9  C   UNL     1       3.625   3.237   0.739  1.00  0.00     0.024 A 
ATOM     10  N   UNL     1       4.642   1.418   1.539  1.00  0.00    -0.318 N 
ATOM     11  C   UNL     1       4.311   3.599   1.917  1.00  0.00     0.020 A 
ATOM     12  C   UNL     1       4.875   2.453   2.422  1.00  0.00     0.091 A 
BRANCH  10  13
ATOM     13  C   UNL     1       5.272   0.165   1.661  1.00  0.00     0.081 A 
ATOM     14  C   UNL     1       5.198  -0.528   2.877  1.00  0.00     0.030 A 
ATOM     15  C   UNL     1       6.100  -0.290   0.639  1.00  0.00     0.147 A 
ATOM     16  C   UNL     1       5.958  -1.681   3.058  1.00  0.00     0.002 A 
ATOM     17  C   UNL     1       6.905  -1.401   0.847  1.00  0.00     0.041 A 
ATOM     18  F   UNL     1       6.199   0.365  -0.524  1.00  0.00    -0.205 F 
ATOM     19  C   UNL     1       6.837  -2.093   2.059  1.00  0.00     0.003 A 
ENDBRANCH  10  13
ENDBRANCH   7   8
ENDBRANCH   5   7
ENDBRANCH   2   3
ENDBRANCH   1   2
BRANCH   1  20
ATOM     20  C   UNL     1       3.651  -4.292   0.114  1.00  0.00     0.118 C 
BRANCH  20  21
ATOM     21  N   UNL     1       4.003  -4.920   1.376  1.00  0.00    -0.352 N 
ATOM     22  C   UNL     1       5.130  -5.596   1.782  1.00  0.00     0.251 C 
ATOM     23  H   UNL     1       3.307  -4.849   2.068  1.00  0.00     0.163 HD
ATOM     24  O   UNL     1       5.058  -6.204   2.853  1.00  0.00    -0.269 OA
BRANCH  22  25
ATOM     25  C   UNL     1       6.414  -5.633   1.022  1.00  0.00     0.039 A 
ATOM     26  C   UNL     1       7.324  -6.661   1.326  1.00  0.00     0.014 A 
ATOM     27  C   UNL     1       6.808  -4.664   0.100  1.00  0.00     0.014 A 
ATOM     28  C   UNL     1       8.558  -6.747   0.672  1.00  0.00     0.010 A 
ATOM     29  C   UNL     1       8.067  -4.696  -0.500  1.00  0.00     0.010 A 
ATOM     30  C   UNL     1       8.918  -5.777  -0.268  1.00  0.00    -0.014 A 
BRANCH  30  31
ATOM     31  C   UNL     1      10.046  -6.019  -1.204  1.00  0.00     0.031 A 
ATOM     32  C   UNL     1       9.584  -6.710  -2.503  1.00  0.00     0.074 A 
ATOM     33  C   UNL     1      11.300  -5.640  -0.820  1.00  0.00     0.049 A 
ATOM     34  N   UNL     1      10.244  -7.479  -3.317  1.00  0.00    -0.248 NA
ATOM     35  C   UNL     1       8.154  -6.607  -2.911  1.00  0.00     0.031 C 
ATOM     36  C   UNL     1      11.612  -4.970   0.455  1.00  0.00     0.029 A 
ATOM     37  N   UNL     1      12.552  -5.731  -1.401  1.00  0.00    -0.354 N 
ATOM     38  C   UNL     1       9.378  -7.811  -4.381  1.00  0.00     0.074 A 
ATOM     39  C   UNL     1       8.082  -7.324  -4.031  1.00  0.00     0.031 C 
ATOM     40  C   UNL     1      12.943  -4.787   0.584  1.00  0.00     0.029 A 
ATOM     41  C   UNL     1      13.631  -5.291  -0.591  1.00  0.00     0.049 A 
ATOM     42  H   UNL     1      12.685  -6.076  -2.314  1.00  0.00     0.167 HD
ATOM     43  C   UNL     1       9.781  -8.391  -5.545  1.00  0.00     0.037 A 
ATOM     44  C   UNL     1      14.981  -5.371  -0.822  1.00  0.00     0.037 A 
ATOM     45  C   UNL     1      11.182  -8.633  -5.529  1.00  0.00     0.049 A 
ATOM     46  C   UNL     1      15.130  -5.941  -2.176  1.00  0.00     0.074 A 
ATOM     47  C   UNL     1      11.965  -9.570  -4.911  1.00  0.00     0.029 A 
ATOM     48  N   UNL     1      11.985  -7.638  -6.025  1.00  0.00    -0.354 N 
ATOM     49  N   UNL     1      14.908  -5.316  -3.295  1.00  0.00    -0.248 NA
ATOM     50  C   UNL     1      15.509  -7.358  -2.288  1.00  0.00     0.031 C 
ATOM     51  C   UNL     1      13.203  -8.921  -4.716  1.00  0.00     0.029 A 
ATOM     52  C   UNL     1      13.145  -7.645  -5.287  1.00  0.00     0.049 A 
ATOM     53  H   UNL     1      11.771  -7.031  -6.771  1.00  0.00     0.167 HD
ATOM     54  C   UNL     1      14.836  -6.344  -4.207  1.00  0.00     0.074 A 
ATOM     55  C   UNL     1      15.498  -7.480  -3.611  1.00  0.00     0.031 C 
ATOM     56  C   UNL     1      13.829  -6.383  -5.112  1.00  0.00     0.037 A 
BRANCH  43  57
ATOM     57  C   UNL     1       9.057  -8.612  -6.843  1.00  0.00     0.058 A 
ATOM     58  C   UNL     1       8.200  -7.667  -7.426  1.00  0.00     0.135 A 
ATOM     59  C   UNL     1       9.501  -9.660  -7.683  1.00  0.00     0.135 A 
ATOM     60  F   UNL     1       7.725  -6.635  -6.715  1.00  0.00    -0.206 F 
ATOM     61  C   UNL     1       7.873  -7.710  -8.784  1.00  0.00     0.059 A 
ATOM     62  C   UNL     1       9.220  -9.700  -9.045  1.00  0.00     0.059 A 
ATOM     63  F   UNL     1      10.283 -10.640  -7.200  1.00  0.00    -0.206 F 
ATOM     64  C   UNL     1       8.422  -8.705  -9.593  1.00  0.00     0.060 A 
BRANCH  64  65
ATOM     65  S   UNL     1       8.195  -8.623 -11.384  1.00  0.00     0.124 S 
ATOM     66  O   UNL     1       6.842  -9.150 -11.532  1.00  0.00    -0.237 OA
ATOM     67  O   UNL     1       8.357  -7.200 -11.658  1.00  0.00    -0.237 OA
ATOM     68  O   UNL     1       9.261  -9.479 -11.898  1.00  0.00    -0.744 OA
ENDBRANCH  64  65
ENDBRANCH  43  57
BRANCH  44  69
ATOM     69  C   UNL     1      16.266  -5.195  -0.021  1.00  0.00     0.058 A 
ATOM     70  C   UNL     1      17.499  -5.692  -0.539  1.00  0.00     0.135 A 
ATOM     71  C   UNL     1      16.378  -4.671   1.275  1.00  0.00     0.135 A 
ATOM     72  F   UNL     1      17.637  -6.041  -1.825  1.00  0.00    -0.206 F 
ATOM     73  C   UNL     1      18.649  -5.883   0.224  1.00  0.00     0.059 A 
ATOM     74  C   UNL     1      17.544  -4.807   2.054  1.00  0.00     0.059 A 
ATOM     75  F   UNL     1      15.375  -3.992   1.840  1.00  0.00    -0.206 F 
ATOM     76  C   UNL     1      18.646  -5.487   1.545  1.00  0.00     0.060 A 
BRANCH  76  77
ATOM     77  S   UNL     1      20.083  -5.872   2.564  1.00  0.00     0.124 S 
ATOM     78  O   UNL     1      19.812  -7.259   2.930  1.00  0.00    -0.237 OA
ATOM     79  O   UNL     1      21.199  -5.670   1.645  1.00  0.00    -0.237 OA
ATOM     80  O   UNL     1      19.989  -4.904   3.652  1.00  0.00    -0.744 OA
ENDBRANCH  76  77
ENDBRANCH  44  69
BRANCH  56  81
ATOM     81  C   UNL     1      13.278  -5.036  -5.505  1.00  0.00     0.058 A 
ATOM     82  C   UNL     1      12.087  -4.502  -4.985  1.00  0.00     0.135 A 
ATOM     83  C   UNL     1      13.992  -4.227  -6.400  1.00  0.00     0.135 A 
ATOM     84  F   UNL     1      11.374  -5.186  -4.086  1.00  0.00    -0.206 F 
ATOM     85  C   UNL     1      11.598  -3.253  -5.366  1.00  0.00     0.059 A 
ATOM     86  C   UNL     1      13.534  -2.966  -6.787  1.00  0.00     0.059 A 
ATOM     87  F   UNL     1      15.149  -4.668  -6.921  1.00  0.00    -0.206 F 
ATOM     88  C   UNL     1      12.329  -2.489  -6.270  1.00  0.00     0.060 A 
BRANCH  88  89
ATOM     89  S   UNL     1      11.674  -0.883  -6.779  1.00  0.00     0.124 S 
ATOM     90  O   UNL     1      10.333  -1.234  -7.249  1.00  0.00    -0.237 OA
ATOM     91  O   UNL     1      11.714  -0.125  -5.528  1.00  0.00    -0.237 OA
ATOM     92  O   UNL     1      12.600  -0.441  -7.807  1.00  0.00    -0.744 OA
ENDBRANCH  88  89
ENDBRANCH  56  81
ENDBRANCH  30  31
ENDBRANCH  22  25
ENDBRANCH  20  21
ENDBRANCH   1  20
TORSDOF 15
