REMARK SMILES COc1ccc(S(=O)(=O)N2CCC[C@H](C(=O)N3CCC[C@H](C(=O)NCCCNC(=O)c4ccc(-c5c6nc(c(-c7c(F)cc(S(=O)(=O)[O-])cc7F)c7ccc([nH]7)c(-c7c(F)cc(S(=O)(=O)[O-])cc7F)c7nc(c(-c8c(F)cc(S(=O)(=O)[O-])cc8F)c8ccc5[nH]8)C=C7)C=C6)cc4)C3)C2)cc1
REMARK SMILES IDX 25 1 24 2 22 3 23 4 21 6 17 7 18 8 97 9 19 10 20 11 15 12
REMARK SMILES IDX 16 13 14 14 10 15 11 16 98 17 12 18 13 19 7 20 8 21 9 22
REMARK SMILES IDX 6 23 3 24 4 25 100 26 5 27 99 28 2 29 1 30 26 31 27 32 28 33
REMARK SMILES IDX 29 34 30 36 31 37 32 38 96 39 33 40 95 41 34 42 35 43 36 44
REMARK SMILES IDX 89 45 37 46 94 47 88 48 90 49 38 50 93 51 87 52 86 53 39 55
REMARK SMILES IDX 73 56 52 57 72 58 53 59 56 60 71 61 91 62 54 63 55 64 70 66
REMARK SMILES IDX 92 67 57 68 40 69 41 70 50 71 42 72 43 73 49 74 51 75 44 76
REMARK SMILES IDX 45 77 46 78 47 79 48 80 74 81 75 82 84 83 76 84 77 85 83 86
REMARK SMILES IDX 85 87 78 88 79 89 80 90 81 91 82 92 58 93 59 94 68 95 60 96
REMARK SMILES IDX 61 97 67 98 69 99 62 100 63 101 64 102 65 103 66 104
REMARK H PARENT 24 5 28 35 90 54 56 65
REMARK Flexibility Score: inf
ROOT
ATOM      1  C   UNL     1       7.479 -10.687  -2.294  1.00  0.00     0.117 C 
ENDROOT
BRANCH   1   2
ATOM      2  N   UNL     1       7.986 -10.600  -3.640  1.00  0.00    -0.356 N 
ATOM      3  C   UNL     1       7.422 -10.021  -4.732  1.00  0.00     0.224 C 
ATOM      4  O   UNL     1       8.146  -9.891  -5.727  1.00  0.00    -0.275 OA
ATOM      5  H   UNL     1       8.864 -11.018  -3.789  1.00  0.00     0.163 HD
BRANCH   3   6
ATOM      6  C   UNL     1       5.968  -9.530  -4.789  1.00  0.00     0.098 C 
ATOM      7  N   UNL     1       4.964  -8.558  -2.685  1.00  0.00    -0.342 N 
ATOM      8  C   UNL     1       3.836  -9.483  -2.745  1.00  0.00     0.119 C 
ATOM      9  C   UNL     1       5.662  -8.292  -3.937  1.00  0.00     0.133 C 
ATOM     10  C   UNL     1       4.186 -10.806  -3.412  1.00  0.00     0.022 C 
ATOM     11  C   UNL     1       4.904 -10.631  -4.746  1.00  0.00     0.017 C 
BRANCH   7  12
ATOM     12  C   UNL     1       5.439  -8.185  -1.441  1.00  0.00     0.227 C 
ATOM     13  O   UNL     1       5.532  -9.009  -0.524  1.00  0.00    -0.275 OA
BRANCH  12  14
ATOM     14  C   UNL     1       5.615  -6.711  -1.094  1.00  0.00     0.094 C 
ATOM     15  N   UNL     1       3.259  -6.127  -1.488  1.00  0.00    -0.197 NA
ATOM     16  C   UNL     1       3.546  -5.449  -2.762  1.00  0.00     0.102 C 
ATOM     17  C   UNL     1       4.307  -6.259  -0.462  1.00  0.00     0.116 C 
ATOM     18  C   UNL     1       5.014  -5.161  -3.064  1.00  0.00     0.018 C 
ATOM     19  C   UNL     1       6.076  -5.678  -2.102  1.00  0.00     0.016 C 
BRANCH  15  20
ATOM     20  S   UNL     1       1.638  -6.200  -0.994  1.00  0.00     0.243 S 
ATOM     21  O   UNL     1       1.534  -7.093   0.132  1.00  0.00    -0.207 OA
ATOM     22  O   UNL     1       0.837  -6.381  -2.192  1.00  0.00    -0.207 OA
BRANCH  20  23
ATOM     23  C   UNL     1       1.249  -4.571  -0.389  1.00  0.00     0.082 A 
ATOM     24  C   UNL     1       0.498  -2.006   0.410  1.00  0.00     0.118 A 
ATOM     25  C   UNL     1      -0.450  -3.030   0.365  1.00  0.00     0.048 A 
ATOM     26  C   UNL     1       1.831  -2.280   0.113  1.00  0.00     0.048 A 
ATOM     27  C   UNL     1      -0.080  -4.313  -0.043  1.00  0.00     0.025 A 
ATOM     28  C   UNL     1       2.206  -3.558  -0.296  1.00  0.00     0.025 A 
BRANCH  24  29
ATOM     29  O   UNL     1       0.037  -0.770   0.774  1.00  0.00    -0.497 OA
ATOM     30  C   UNL     1       0.688   0.309   0.108  1.00  0.00     0.278 C 
ENDBRANCH  24  29
ENDBRANCH  20  23
ENDBRANCH  15  20
ENDBRANCH  12  14
ENDBRANCH   7  12
ENDBRANCH   3   6
ENDBRANCH   1   2
BRANCH   1  31
ATOM     31  C   UNL     1       7.249 -12.099  -1.796  1.00  0.00     0.042 C 
BRANCH  31  32
ATOM     32  C   UNL     1       8.380 -12.605  -0.924  1.00  0.00     0.118 C 
BRANCH  32  33
ATOM     33  N   UNL     1       8.472 -11.909   0.359  1.00  0.00    -0.352 N 
ATOM     34  C   UNL     1       8.452 -12.401   1.644  1.00  0.00     0.251 C 
ATOM     35  H   UNL     1       8.562 -10.931   0.293  1.00  0.00     0.163 HD
ATOM     36  O   UNL     1       8.461 -11.627   2.597  1.00  0.00    -0.269 OA
BRANCH  34  37
ATOM     37  C   UNL     1       8.376 -13.860   1.876  1.00  0.00     0.039 A 
ATOM     38  C   UNL     1       7.516 -14.349   2.863  1.00  0.00     0.014 A 
ATOM     39  C   UNL     1       9.111 -14.745   1.089  1.00  0.00     0.014 A 
ATOM     40  C   UNL     1       7.324 -15.727   2.991  1.00  0.00     0.010 A 
ATOM     41  C   UNL     1       8.821 -16.101   1.129  1.00  0.00     0.010 A 
ATOM     42  C   UNL     1       7.934 -16.612   2.087  1.00  0.00    -0.014 A 
BRANCH  42  43
ATOM     43  C   UNL     1       7.696 -18.078   2.131  1.00  0.00     0.031 A 
ATOM     44  C   UNL     1       8.866 -19.012   2.302  1.00  0.00     0.074 A 
ATOM     45  C   UNL     1       6.458 -18.569   1.920  1.00  0.00     0.049 A 
ATOM     46  N   UNL     1       8.904 -20.316   2.209  1.00  0.00    -0.248 NA
ATOM     47  C   UNL     1      10.178 -18.393   2.557  1.00  0.00     0.031 C 
ATOM     48  C   UNL     1       5.255 -17.770   1.672  1.00  0.00     0.029 A 
ATOM     49  N   UNL     1       6.008 -19.864   1.865  1.00  0.00    -0.354 N 
ATOM     50  C   UNL     1      10.243 -20.663   2.347  1.00  0.00     0.074 A 
ATOM     51  C   UNL     1      10.992 -19.433   2.471  1.00  0.00     0.031 C 
ATOM     52  C   UNL     1       4.202 -18.591   1.526  1.00  0.00     0.029 A 
ATOM     53  C   UNL     1       4.658 -19.972   1.629  1.00  0.00     0.049 A 
ATOM     54  H   UNL     1       6.598 -20.644   1.984  1.00  0.00     0.167 HD
ATOM     55  C   UNL     1      10.797 -21.897   2.401  1.00  0.00     0.037 A 
ATOM     56  C   UNL     1       3.878 -21.064   1.506  1.00  0.00     0.037 A 
ATOM     57  C   UNL     1      10.036 -23.116   2.358  1.00  0.00     0.049 A 
ATOM     58  C   UNL     1       4.505 -22.425   1.637  1.00  0.00     0.074 A 
ATOM     59  C   UNL     1      10.485 -24.417   2.496  1.00  0.00     0.029 A 
ATOM     60  N   UNL     1       8.662 -23.180   2.183  1.00  0.00    -0.354 N 
ATOM     61  N   UNL     1       5.766 -22.736   1.824  1.00  0.00    -0.248 NA
ATOM     62  C   UNL     1       3.606 -23.584   1.544  1.00  0.00     0.031 C 
ATOM     63  C   UNL     1       9.383 -25.271   2.381  1.00  0.00     0.029 A 
ATOM     64  C   UNL     1       8.245 -24.499   2.204  1.00  0.00     0.049 A 
ATOM     65  H   UNL     1       8.070 -22.403   2.062  1.00  0.00     0.167 HD
ATOM     66  C   UNL     1       5.809 -24.123   1.891  1.00  0.00     0.074 A 
ATOM     67  C   UNL     1       4.447 -24.592   1.737  1.00  0.00     0.031 C 
ATOM     68  C   UNL     1       6.880 -24.938   2.061  1.00  0.00     0.037 A 
BRANCH  55  69
ATOM     69  C   UNL     1      12.292 -21.981   2.538  1.00  0.00     0.058 A 
ATOM     70  C   UNL     1      12.944 -21.611   3.726  1.00  0.00     0.135 A 
ATOM     71  C   UNL     1      13.083 -22.442   1.474  1.00  0.00     0.135 A 
ATOM     72  F   UNL     1      12.237 -21.146   4.768  1.00  0.00    -0.206 F 
ATOM     73  C   UNL     1      14.329 -21.655   3.840  1.00  0.00     0.059 A 
ATOM     74  C   UNL     1      14.470 -22.523   1.577  1.00  0.00     0.059 A 
ATOM     75  F   UNL     1      12.513 -22.809   0.316  1.00  0.00    -0.206 F 
ATOM     76  C   UNL     1      15.084 -22.108   2.758  1.00  0.00     0.060 A 
BRANCH  76  77
ATOM     77  S   UNL     1      16.881 -22.154   2.918  1.00  0.00     0.124 S 
ATOM     78  O   UNL     1      17.222 -20.742   2.766  1.00  0.00    -0.237 OA
ATOM     79  O   UNL     1      17.065 -22.709   4.255  1.00  0.00    -0.237 OA
ATOM     80  O   UNL     1      17.297 -23.022   1.820  1.00  0.00    -0.744 OA
ENDBRANCH  76  77
ENDBRANCH  55  69
BRANCH  56  81
ATOM     81  C   UNL     1       2.415 -20.913   1.285  1.00  0.00     0.058 A 
ATOM     82  C   UNL     1       1.504 -21.189   2.315  1.00  0.00     0.135 A 
ATOM     83  C   UNL     1       1.900 -20.476   0.056  1.00  0.00     0.135 A 
ATOM     84  F   UNL     1       1.949 -21.614   3.507  1.00  0.00    -0.206 F 
ATOM     85  C   UNL     1       0.132 -21.053   2.132  1.00  0.00     0.059 A 
ATOM     86  C   UNL     1       0.532 -20.312  -0.146  1.00  0.00     0.059 A 
ATOM     87  F   UNL     1       2.731 -20.182  -0.956  1.00  0.00    -0.206 F 
ATOM     88  C   UNL     1      -0.345 -20.613   0.896  1.00  0.00     0.060 A 
BRANCH  88  89
ATOM     89  S   UNL     1      -2.126 -20.395   0.681  1.00  0.00     0.124 S 
ATOM     90  O   UNL     1      -2.576 -21.776   0.549  1.00  0.00    -0.237 OA
ATOM     91  O   UNL     1      -2.505 -19.715   1.916  1.00  0.00    -0.237 OA
ATOM     92  O   UNL     1      -2.219 -19.581  -0.527  1.00  0.00    -0.744 OA
ENDBRANCH  88  89
ENDBRANCH  56  81
BRANCH  68  93
ATOM     93  C   UNL     1       6.621 -26.415   2.118  1.00  0.00     0.058 A 
ATOM     94  C   UNL     1       6.351 -27.154   0.957  1.00  0.00     0.135 A 
ATOM     95  C   UNL     1       6.715 -27.107   3.336  1.00  0.00     0.135 A 
ATOM     96  F   UNL     1       6.245 -26.536  -0.229  1.00  0.00    -0.206 F 
ATOM     97  C   UNL     1       6.172 -28.532   1.003  1.00  0.00     0.059 A 
ATOM     98  C   UNL     1       6.562 -28.487   3.401  1.00  0.00     0.059 A 
ATOM     99  F   UNL     1       6.981 -26.442   4.472  1.00  0.00    -0.206 F 
ATOM    100  C   UNL     1       6.283 -29.190   2.230  1.00  0.00     0.060 A 
BRANCH 100 101
ATOM    101  S   UNL     1       6.102 -30.986   2.269  1.00  0.00     0.124 S 
ATOM    102  O   UNL     1       4.656 -31.138   2.151  1.00  0.00    -0.237 OA
ATOM    103  O   UNL     1       6.881 -31.406   1.109  1.00  0.00    -0.237 OA
ATOM    104  O   UNL     1       6.669 -31.355   3.563  1.00  0.00    -0.744 OA
ENDBRANCH 100 101
ENDBRANCH  68  93
ENDBRANCH  42  43
ENDBRANCH  34  37
ENDBRANCH  32  33
ENDBRANCH  31  32
ENDBRANCH   1  31
TORSDOF 18
