REMARK SMILES O=C(C[N@@H+]1CCO[C@@H](CCc2ccccc2)C1)NCCCNC(=O)c1ccc(-c2c3nc(c(-c4c(F)cc(S(=O)(=O)[O-])cc4F)c4ccc([nH]4)c(-c4c(F)cc(S(=O)(=O)[O-])cc4F)c4nc(c(-c5c(F)cc(S(=O)(=O)[O-])cc5F)c5ccc2[nH]5)C=C4)C=C3)cc1
REMARK SMILES IDX 19 1 18 2 1 3 2 4 3 6 4 7 5 8 17 9 6 11 8 12 7 13 9 14 10 15
REMARK SMILES IDX 11 16 12 17 16 18 13 19 15 20 14 21 20 22 21 23 22 24 23 25
REMARK SMILES IDX 24 27 25 28 26 29 90 30 27 31 89 32 28 33 29 34 30 35 83 36
REMARK SMILES IDX 31 37 88 38 82 39 84 40 32 41 87 42 81 43 80 44 33 46 67 47
REMARK SMILES IDX 46 48 66 49 47 50 50 51 65 52 85 53 48 54 49 55 64 57 86 58
REMARK SMILES IDX 51 59 34 60 35 61 44 62 36 63 37 64 43 65 45 66 38 67 39 68
REMARK SMILES IDX 40 69 41 70 42 71 68 72 69 73 78 74 70 75 71 76 77 77 79 78
REMARK SMILES IDX 72 79 73 80 74 81 75 82 76 83 52 84 53 85 62 86 54 87 55 88
REMARK SMILES IDX 61 89 63 90 56 91 57 92 58 93 59 94 60 95
REMARK H PARENT 18 5 4 10 22 26 84 45 50 56
REMARK Flexibility Score: inf
ROOT
ATOM      1  C   UNL     1       2.175   1.851  -1.800  1.00  0.00     0.118 C 
ENDROOT
BRANCH   1   2
ATOM      2  N   UNL     1       2.767   0.862  -0.926  1.00  0.00    -0.351 N 
ATOM      3  O   UNL     1       0.828   0.340   0.188  1.00  0.00    -0.269 OA
ATOM      4  C   UNL     1       2.028   0.160  -0.003  1.00  0.00     0.275 C 
ATOM      5  H   UNL     1       3.733   0.685  -0.995  1.00  0.00     0.163 HD
BRANCH   4   6
ATOM      6  C   UNL     1       2.830  -0.850   0.818  1.00  0.00     0.363 C 
BRANCH   6   7
ATOM      7  N   UNL     1       3.776  -1.651  -0.005  1.00  0.00    -0.323 N 
ATOM      8  C   UNL     1       3.103  -2.425  -1.077  1.00  0.00     0.291 C 
ATOM      9  C   UNL     1       4.482  -2.630   0.867  1.00  0.00     0.295 C 
ATOM     10  H   UNL     1       4.415  -0.985  -0.439  1.00  0.00     0.348 HD
ATOM     11  C   UNL     1       2.256  -3.609  -0.582  1.00  0.00     0.222 C 
ATOM     12  C   UNL     1       3.571  -3.781   1.372  1.00  0.00     0.173 C 
ATOM     13  O   UNL     1       3.029  -4.494   0.242  1.00  0.00    -0.366 OA
BRANCH  12  14
ATOM     14  C   UNL     1       4.303  -4.799   2.256  1.00  0.00     0.043 C 
BRANCH  14  15
ATOM     15  C   UNL     1       4.881  -4.229   3.557  1.00  0.00     0.038 C 
BRANCH  15  16
ATOM     16  C   UNL     1       3.869  -3.508   4.415  1.00  0.00    -0.048 A 
ATOM     17  C   UNL     1       3.904  -2.111   4.534  1.00  0.00     0.004 A 
ATOM     18  C   UNL     1       2.862  -4.218   5.083  1.00  0.00     0.004 A 
ATOM     19  C   UNL     1       2.943  -1.438   5.288  1.00  0.00     0.000 A 
ATOM     20  C   UNL     1       1.907  -3.543   5.845  1.00  0.00     0.000 A 
ATOM     21  C   UNL     1       1.944  -2.153   5.944  1.00  0.00     0.000 A 
ENDBRANCH  15  16
ENDBRANCH  14  15
ENDBRANCH  12  14
ENDBRANCH   6   7
ENDBRANCH   4   6
ENDBRANCH   1   2
BRANCH   1  22
ATOM     22  C   UNL     1       2.449   3.279  -1.342  1.00  0.00     0.042 C 
BRANCH  22  23
ATOM     23  C   UNL     1       3.924   3.670  -1.349  1.00  0.00     0.118 C 
BRANCH  23  24
ATOM     24  N   UNL     1       4.526   3.583  -2.672  1.00  0.00    -0.352 N 
ATOM     25  C   UNL     1       5.197   4.519  -3.414  1.00  0.00     0.251 C 
ATOM     26  H   UNL     1       4.435   2.705  -3.107  1.00  0.00     0.163 HD
ATOM     27  O   UNL     1       5.470   4.257  -4.588  1.00  0.00    -0.269 OA
BRANCH  25  28
ATOM     28  C   UNL     1       5.589   5.829  -2.846  1.00  0.00     0.039 A 
ATOM     29  C   UNL     1       5.541   6.956  -3.674  1.00  0.00     0.014 A 
ATOM     30  C   UNL     1       6.068   5.955  -1.539  1.00  0.00     0.014 A 
ATOM     31  C   UNL     1       5.935   8.204  -3.185  1.00  0.00     0.010 A 
ATOM     32  C   UNL     1       6.391   7.213  -1.028  1.00  0.00     0.010 A 
ATOM     33  C   UNL     1       6.346   8.348  -1.851  1.00  0.00    -0.014 A 
BRANCH  33  34
ATOM     34  C   UNL     1       6.769   9.671  -1.319  1.00  0.00     0.031 A 
ATOM     35  C   UNL     1       8.193   9.892  -0.880  1.00  0.00     0.074 A 
ATOM     36  C   UNL     1       5.866  10.664  -1.198  1.00  0.00     0.049 A 
ATOM     37  N   UNL     1       8.742  10.961  -0.362  1.00  0.00    -0.248 NA
ATOM     38  C   UNL     1       9.115   8.753  -1.018  1.00  0.00     0.031 C 
ATOM     39  C   UNL     1       4.446  10.564  -1.543  1.00  0.00     0.029 A 
ATOM     40  N   UNL     1       6.007  11.953  -0.748  1.00  0.00    -0.354 N 
ATOM     41  C   UNL     1      10.064  10.620  -0.098  1.00  0.00     0.074 A 
ATOM     42  C   UNL     1      10.221   9.229  -0.465  1.00  0.00     0.031 C 
ATOM     43  C   UNL     1       3.853  11.748  -1.315  1.00  0.00     0.029 A 
ATOM     44  C   UNL     1       4.841  12.681  -0.782  1.00  0.00     0.049 A 
ATOM     45  H   UNL     1       6.863  12.322  -0.430  1.00  0.00     0.167 HD
ATOM     46  C   UNL     1      11.064  11.399   0.381  1.00  0.00     0.037 A 
ATOM     47  C   UNL     1       4.596  13.958  -0.427  1.00  0.00     0.037 A 
ATOM     48  C   UNL     1      10.914  12.792   0.713  1.00  0.00     0.049 A 
ATOM     49  C   UNL     1       5.728  14.812   0.076  1.00  0.00     0.074 A 
ATOM     50  C   UNL     1      11.877  13.680   1.159  1.00  0.00     0.029 A 
ATOM     51  N   UNL     1       9.726  13.503   0.627  1.00  0.00    -0.354 N 
ATOM     52  N   UNL     1       6.984  14.487   0.268  1.00  0.00    -0.248 NA
ATOM     53  C   UNL     1       5.413  16.212   0.396  1.00  0.00     0.031 C 
ATOM     54  C   UNL     1      11.265  14.920   1.373  1.00  0.00     0.029 A 
ATOM     55  C   UNL     1       9.930  14.816   1.019  1.00  0.00     0.049 A 
ATOM     56  H   UNL     1       8.864  13.129   0.332  1.00  0.00     0.167 HD
ATOM     57  C   UNL     1       7.616  15.649   0.698  1.00  0.00     0.074 A 
ATOM     58  C   UNL     1       6.605  16.686   0.732  1.00  0.00     0.031 C 
ATOM     59  C   UNL     1       8.916  15.841   1.032  1.00  0.00     0.037 A 
BRANCH  46  60
ATOM     60  C   UNL     1      12.413  10.761   0.568  1.00  0.00     0.058 A 
ATOM     61  C   UNL     1      13.211  10.393  -0.528  1.00  0.00     0.135 A 
ATOM     62  C   UNL     1      12.927  10.536   1.855  1.00  0.00     0.135 A 
ATOM     63  F   UNL     1      12.763  10.571  -1.781  1.00  0.00    -0.206 F 
ATOM     64  C   UNL     1      14.454   9.793  -0.355  1.00  0.00     0.059 A 
ATOM     65  C   UNL     1      14.181   9.963   2.052  1.00  0.00     0.059 A 
ATOM     66  F   UNL     1      12.208  10.870   2.938  1.00  0.00    -0.206 F 
ATOM     67  C   UNL     1      14.929   9.578   0.940  1.00  0.00     0.060 A 
BRANCH  67  68
ATOM     68  S   UNL     1      16.541   8.793   1.151  1.00  0.00     0.124 S 
ATOM     69  O   UNL     1      16.230   7.403   0.830  1.00  0.00    -0.237 OA
ATOM     70  O   UNL     1      17.364   9.499   0.172  1.00  0.00    -0.237 OA
ATOM     71  O   UNL     1      16.868   9.058   2.547  1.00  0.00    -0.744 OA
ENDBRANCH  67  68
ENDBRANCH  46  60
BRANCH  47  72
ATOM     72  C   UNL     1       3.227  14.518  -0.573  1.00  0.00     0.058 A 
ATOM     73  C   UNL     1       2.936  15.458  -1.573  1.00  0.00     0.135 A 
ATOM     74  C   UNL     1       2.181  14.119   0.274  1.00  0.00     0.135 A 
ATOM     75  F   UNL     1       3.904  15.874  -2.403  1.00  0.00    -0.206 F 
ATOM     76  C   UNL     1       1.663  15.998  -1.718  1.00  0.00     0.059 A 
ATOM     77  C   UNL     1       0.893  14.627   0.133  1.00  0.00     0.059 A 
ATOM     78  F   UNL     1       2.404  13.209   1.234  1.00  0.00    -0.206 F 
ATOM     79  C   UNL     1       0.647  15.575  -0.860  1.00  0.00     0.060 A 
BRANCH  79  80
ATOM     80  S   UNL     1      -1.015  16.247  -1.084  1.00  0.00     0.124 S 
ATOM     81  O   UNL     1      -0.864  17.590  -0.535  1.00  0.00    -0.237 OA
ATOM     82  O   UNL     1      -1.187  16.165  -2.531  1.00  0.00    -0.237 OA
ATOM     83  O   UNL     1      -1.851  15.337  -0.309  1.00  0.00    -0.744 OA
ENDBRANCH  79  80
ENDBRANCH  47  72
BRANCH  59  84
ATOM     84  C   UNL     1       9.333  17.233   1.415  1.00  0.00     0.058 A 
ATOM     85  C   UNL     1       8.976  17.801   2.648  1.00  0.00     0.135 A 
ATOM     86  C   UNL     1      10.136  17.994   0.550  1.00  0.00     0.135 A 
ATOM     87  F   UNL     1       8.207  17.116   3.509  1.00  0.00    -0.206 F 
ATOM     88  C   UNL     1       9.376  19.087   2.998  1.00  0.00     0.059 A 
ATOM     89  C   UNL     1      10.568  19.272   0.890  1.00  0.00     0.059 A 
ATOM     90  F   UNL     1      10.515  17.493  -0.637  1.00  0.00    -0.206 F 
ATOM     91  C   UNL     1      10.171  19.816   2.110  1.00  0.00     0.060 A 
BRANCH  91  92
ATOM     92  S   UNL     1      10.702  21.475   2.583  1.00  0.00     0.124 S 
ATOM     93  O   UNL     1       9.484  22.247   2.363  1.00  0.00    -0.237 OA
ATOM     94  O   UNL     1      11.096  21.295   3.977  1.00  0.00    -0.237 OA
ATOM     95  O   UNL     1      11.799  21.755   1.660  1.00  0.00    -0.744 OA
ENDBRANCH  91  92
ENDBRANCH  59  84
ENDBRANCH  33  34
ENDBRANCH  25  28
ENDBRANCH  23  24
ENDBRANCH  22  23
ENDBRANCH   1  22
TORSDOF 17
