REMARK SMILES C=CCN1C[C@]2(C(=O)NCCCNC(=O)c3ccc(-c4c5nc(c(-c6c(F)cc(S(=O)(=O)[O-])cc6F)c6ccc([nH]6)c(-c6c(F)cc(S(=O)(=O)[O-])cc6F)c6nc(c(-c7c(F)cc(S(=O)(=O)[O-])cc7F)c7ccc4[nH]7)C=C6)C=C5)cc3)CN(C(=O)c3cccc(C#N)c3)C[C@H]2C1=O
REMARK SMILES IDX 11 1 10 2 9 3 7 4 8 5 6 7 4 8 5 9 96 10 95 11 97 12 82 13
REMARK SMILES IDX 94 14 83 15 3 16 2 17 1 18 84 19 85 20 86 21 87 22 93 23
REMARK SMILES IDX 88 24 90 25 89 26 91 27 92 28 12 29 13 30 14 31 15 33 16 34
REMARK SMILES IDX 17 35 81 36 18 37 80 38 19 39 20 40 21 41 74 42 22 43 79 44
REMARK SMILES IDX 73 45 75 46 23 47 78 48 72 49 71 50 24 52 58 53 37 54 57 55
REMARK SMILES IDX 38 56 41 57 56 58 76 59 39 60 40 61 55 63 77 64 42 65 25 66
REMARK SMILES IDX 26 67 35 68 27 69 28 70 34 71 36 72 29 73 30 74 31 75 32 76
REMARK SMILES IDX 33 77 59 78 60 79 69 80 61 81 62 82 68 83 70 84 63 85 64 86
REMARK SMILES IDX 65 87 66 88 67 89 43 90 44 91 53 92 45 93 46 94 52 95 54 96
REMARK SMILES IDX 47 97 48 98 49 99 50 100 51 101
REMARK H PARENT 9 6 13 32 75 51 41 62
REMARK Flexibility Score: inf
ROOT
ATOM      1  C   UNL     1      -1.242  -7.551   2.712  1.00  0.00     0.042 C 
ENDROOT
BRANCH   1   2
ATOM      2  C   UNL     1      -1.007  -6.079   2.356  1.00  0.00     0.117 C 
BRANCH   2   3
ATOM      3  N   UNL     1      -0.166  -5.971   1.170  1.00  0.00    -0.355 N 
ATOM      4  C   UNL     1      -0.526  -5.585  -0.103  1.00  0.00     0.230 C 
ATOM      5  O   UNL     1       0.265  -5.791  -1.024  1.00  0.00    -0.274 OA
ATOM      6  H   UNL     1       0.782  -6.205   1.294  1.00  0.00     0.163 HD
BRANCH   4   7
ATOM      7  C   UNL     1      -1.888  -4.843  -0.256  1.00  0.00     0.097 C 
ATOM      8  N   UNL     1      -1.784  -2.389  -0.262  1.00  0.00    -0.337 N 
ATOM      9  C   UNL     1      -0.939  -3.548  -0.439  1.00  0.00     0.139 C 
ATOM     10  C   UNL     1      -3.051  -2.697  -0.679  1.00  0.00     0.229 C 
ATOM     11  C   UNL     1      -2.935  -4.098  -1.191  1.00  0.00     0.117 C 
ATOM     12  O   UNL     1      -4.035  -1.984  -0.661  1.00  0.00    -0.274 OA
ATOM     13  C   UNL     1      -2.390  -6.220  -0.945  1.00  0.00     0.139 C 
ATOM     14  C   UNL     1      -4.260  -4.798  -1.060  1.00  0.00     0.134 C 
ATOM     15  N   UNL     1      -3.857  -6.166  -0.968  1.00  0.00    -0.337 N 
BRANCH   8  16
ATOM     16  C   UNL     1      -1.452  -1.138   0.395  1.00  0.00     0.146 C 
BRANCH  16  17
ATOM     17  C   UNL     1       0.019  -0.898   0.504  1.00  0.00    -0.014 C 
ATOM     18  C   UNL     1       0.685   0.077  -0.127  1.00  0.00     0.006 C 
ENDBRANCH  16  17
ENDBRANCH   8  16
BRANCH  15  19
ATOM     19  C   UNL     1      -4.830  -7.151  -1.037  1.00  0.00     0.253 C 
ATOM     20  O   UNL     1      -6.018  -6.893  -1.216  1.00  0.00    -0.269 OA
BRANCH  19  21
ATOM     21  C   UNL     1      -4.469  -8.569  -0.862  1.00  0.00     0.041 A 
ATOM     22  C   UNL     1      -4.859  -9.513  -1.820  1.00  0.00     0.014 A 
ATOM     23  C   UNL     1      -3.785  -8.977   0.274  1.00  0.00     0.033 A 
ATOM     24  C   UNL     1      -4.552 -10.866  -1.645  1.00  0.00     0.002 A 
ATOM     25  C   UNL     1      -3.364 -10.305   0.359  1.00  0.00     0.053 A 
ATOM     26  C   UNL     1      -3.798 -11.267  -0.551  1.00  0.00     0.019 A 
BRANCH  25  27
ATOM     27  C   UNL     1      -2.230 -10.597   1.146  1.00  0.00     0.099 C 
ATOM     28  N   UNL     1      -1.157 -10.693   1.585  1.00  0.00    -0.192 NA
ENDBRANCH  25  27
ENDBRANCH  19  21
ENDBRANCH  15  19
ENDBRANCH   4   7
ENDBRANCH   2   3
ENDBRANCH   1   2
BRANCH   1  29
ATOM     29  C   UNL     1      -0.097  -8.220   3.490  1.00  0.00     0.118 C 
BRANCH  29  30
ATOM     30  N   UNL     1      -0.484  -8.550   4.857  1.00  0.00    -0.352 N 
ATOM     31  C   UNL     1      -0.970  -9.686   5.464  1.00  0.00     0.251 C 
ATOM     32  H   UNL     1      -0.373  -7.796   5.481  1.00  0.00     0.163 HD
ATOM     33  O   UNL     1      -1.388  -9.561   6.617  1.00  0.00    -0.269 OA
BRANCH  31  34
ATOM     34  C   UNL     1      -1.057 -11.031   4.825  1.00  0.00     0.039 A 
ATOM     35  C   UNL     1      -2.163 -11.839   5.136  1.00  0.00     0.014 A 
ATOM     36  C   UNL     1      -0.063 -11.573   4.017  1.00  0.00     0.014 A 
ATOM     37  C   UNL     1      -2.307 -13.131   4.590  1.00  0.00     0.010 A 
ATOM     38  C   UNL     1      -0.256 -12.830   3.400  1.00  0.00     0.010 A 
ATOM     39  C   UNL     1      -1.377 -13.638   3.672  1.00  0.00    -0.014 A 
BRANCH  39  40
ATOM     40  C   UNL     1      -1.533 -15.002   3.041  1.00  0.00     0.031 A 
ATOM     41  C   UNL     1      -0.405 -16.015   3.122  1.00  0.00     0.074 A 
ATOM     42  C   UNL     1      -2.648 -15.363   2.362  1.00  0.00     0.049 A 
ATOM     43  N   UNL     1      -0.302 -17.198   2.562  1.00  0.00    -0.248 NA
ATOM     44  C   UNL     1       0.774 -15.634   3.915  1.00  0.00     0.031 C 
ATOM     45  C   UNL     1      -3.834 -14.531   2.153  1.00  0.00     0.029 A 
ATOM     46  N   UNL     1      -2.966 -16.541   1.712  1.00  0.00    -0.354 N 
ATOM     47  C   UNL     1       0.961 -17.676   2.903  1.00  0.00     0.074 A 
ATOM     48  C   UNL     1       1.609 -16.630   3.664  1.00  0.00     0.031 C 
ATOM     49  C   UNL     1      -4.750 -15.225   1.454  1.00  0.00     0.029 A 
ATOM     50  C   UNL     1      -4.212 -16.543   1.122  1.00  0.00     0.049 A 
ATOM     51  H   UNL     1      -2.355 -17.312   1.673  1.00  0.00     0.167 HD
ATOM     52  C   UNL     1       1.531 -18.881   2.650  1.00  0.00     0.037 A 
ATOM     53  C   UNL     1      -4.856 -17.482   0.394  1.00  0.00     0.037 A 
ATOM     54  C   UNL     1       0.890 -19.970   1.961  1.00  0.00     0.049 A 
ATOM     55  C   UNL     1      -4.209 -18.820   0.123  1.00  0.00     0.074 A 
ATOM     56  C   UNL     1       1.380 -21.245   1.728  1.00  0.00     0.029 A 
ATOM     57  N   UNL     1      -0.378 -19.925   1.407  1.00  0.00    -0.354 N 
ATOM     58  N   UNL     1      -3.032 -19.258   0.497  1.00  0.00    -0.248 NA
ATOM     59  C   UNL     1      -4.983 -19.794  -0.666  1.00  0.00     0.031 C 
ATOM     60  C   UNL     1       0.422 -21.961   1.004  1.00  0.00     0.029 A 
ATOM     61  C   UNL     1      -0.682 -21.146   0.824  1.00  0.00     0.049 A 
ATOM     62  H   UNL     1      -0.975 -19.143   1.424  1.00  0.00     0.167 HD
ATOM     63  C   UNL     1      -2.945 -20.567   0.028  1.00  0.00     0.074 A 
ATOM     64  C   UNL     1      -4.184 -20.853  -0.659  1.00  0.00     0.031 C 
ATOM     65  C   UNL     1      -1.926 -21.451   0.164  1.00  0.00     0.037 A 
BRANCH  52  66
ATOM     66  C   UNL     1       2.936 -19.098   3.146  1.00  0.00     0.058 A 
ATOM     67  C   UNL     1       3.222 -19.229   4.514  1.00  0.00     0.135 A 
ATOM     68  C   UNL     1       4.005 -19.197   2.241  1.00  0.00     0.135 A 
ATOM     69  F   UNL     1       2.238 -19.132   5.423  1.00  0.00    -0.206 F 
ATOM     70  C   UNL     1       4.523 -19.404   4.972  1.00  0.00     0.059 A 
ATOM     71  C   UNL     1       5.311 -19.405   2.675  1.00  0.00     0.059 A 
ATOM     72  F   UNL     1       3.787 -19.090   0.921  1.00  0.00    -0.206 F 
ATOM     73  C   UNL     1       5.562 -19.484   4.044  1.00  0.00     0.060 A 
BRANCH  73  74
ATOM     74  S   UNL     1       7.248 -19.693   4.654  1.00  0.00     0.124 S 
ATOM     75  O   UNL     1       7.543 -18.353   5.152  1.00  0.00    -0.237 OA
ATOM     76  O   UNL     1       7.088 -20.726   5.672  1.00  0.00    -0.237 OA
ATOM     77  O   UNL     1       7.992 -20.098   3.466  1.00  0.00    -0.744 OA
ENDBRANCH  73  74
ENDBRANCH  52  66
BRANCH  53  78
ATOM     78  C   UNL     1      -6.225 -17.212  -0.135  1.00  0.00     0.058 A 
ATOM     79  C   UNL     1      -7.345 -17.881   0.385  1.00  0.00     0.135 A 
ATOM     80  C   UNL     1      -6.435 -16.312  -1.190  1.00  0.00     0.135 A 
ATOM     81  F   UNL     1      -7.194 -18.766   1.382  1.00  0.00    -0.206 F 
ATOM     82  C   UNL     1      -8.621 -17.681  -0.133  1.00  0.00     0.059 A 
ATOM     83  C   UNL     1      -7.705 -16.078  -1.710  1.00  0.00     0.059 A 
ATOM     84  F   UNL     1      -5.400 -15.639  -1.718  1.00  0.00    -0.206 F 
ATOM     85  C   UNL     1      -8.791 -16.776  -1.182  1.00  0.00     0.060 A 
BRANCH  85  86
ATOM     86  S   UNL     1     -10.457 -16.494  -1.822  1.00  0.00     0.124 S 
ATOM     87  O   UNL     1     -10.702 -17.729  -2.559  1.00  0.00    -0.237 OA
ATOM     88  O   UNL     1     -11.229 -16.317  -0.596  1.00  0.00    -0.237 OA
ATOM     89  O   UNL     1     -10.302 -15.292  -2.636  1.00  0.00    -0.744 OA
ENDBRANCH  85  86
ENDBRANCH  53  78
BRANCH  65  90
ATOM     90  C   UNL     1      -2.109 -22.843  -0.382  1.00  0.00     0.058 A 
ATOM     91  C   UNL     1      -2.072 -23.114  -1.758  1.00  0.00     0.135 A 
ATOM     92  C   UNL     1      -2.246 -23.934   0.494  1.00  0.00     0.135 A 
ATOM     93  F   UNL     1      -1.948 -22.111  -2.641  1.00  0.00    -0.206 F 
ATOM     94  C   UNL     1      -2.178 -24.414  -2.248  1.00  0.00     0.059 A 
ATOM     95  C   UNL     1      -2.329 -25.243   0.029  1.00  0.00     0.059 A 
ATOM     96  F   UNL     1      -2.278 -23.734   1.822  1.00  0.00    -0.206 F 
ATOM     97  C   UNL     1      -2.301 -25.473  -1.346  1.00  0.00     0.060 A 
BRANCH  97  98
ATOM     98  S   UNL     1      -2.384 -27.159  -1.991  1.00  0.00     0.124 S 
ATOM     99  O   UNL     1      -3.742 -27.205  -2.522  1.00  0.00    -0.237 OA
ATOM    100  O   UNL     1      -1.314 -27.168  -2.984  1.00  0.00    -0.237 OA
ATOM    101  O   UNL     1      -2.142 -27.986  -0.812  1.00  0.00    -0.744 OA
ENDBRANCH  97  98
ENDBRANCH  65  90
ENDBRANCH  39  40
ENDBRANCH  31  34
ENDBRANCH  29  30
ENDBRANCH   1  29
TORSDOF 18
