REMARK SMILES CC(=O)N1CCN(C(=O)c2ccc(=O)n(CCC(=O)NCCCNC(=O)c3ccc(-c4c5nc(c(-c6c(F)cc(S(=O)(=O)[O-])cc6F)c6ccc([nH]6)c(-c6c(F)cc(S(=O)(=O)[O-])cc6F)c6nc(c(-c7c(F)cc(S(=O)(=O)[O-])cc7F)c7ccc4[nH]7)C=C6)C=C5)cc3)n2)CC1
REMARK SMILES IDX 22 1 21 2 20 3 18 4 19 5 17 7 16 8 15 9 10 10 11 11 93 12
REMARK SMILES IDX 12 13 13 14 14 15 8 16 1 17 2 18 3 19 4 20 5 21 95 22 6 23
REMARK SMILES IDX 94 24 7 25 9 26 23 27 24 28 25 29 26 31 27 32 28 33 92 34
REMARK SMILES IDX 29 35 91 36 30 37 31 38 32 39 85 40 33 41 90 42 84 43 86 44
REMARK SMILES IDX 34 45 89 46 83 47 82 48 35 50 69 51 48 52 68 53 49 54 52 55
REMARK SMILES IDX 67 56 87 57 50 58 51 59 66 61 88 62 53 63 36 64 37 65 46 66
REMARK SMILES IDX 38 67 39 68 45 69 47 70 40 71 41 72 42 73 43 74 44 75 70 76
REMARK SMILES IDX 71 77 80 78 72 79 73 80 79 81 81 82 74 83 75 84 76 85 77 86
REMARK SMILES IDX 78 87 54 88 55 89 64 90 56 91 57 92 63 93 65 94 58 95 59 96
REMARK SMILES IDX 60 97 61 98 62 99
REMARK H PARENT 20 6 24 30 86 49 52 60
REMARK Flexibility Score: inf
ROOT
ATOM      1  C   UNL     1       7.144  -0.488  -9.575  1.00  0.00     0.042 C 
ENDROOT
BRANCH   1   2
ATOM      2  C   UNL     1       6.910  -1.994  -9.436  1.00  0.00     0.117 C 
BRANCH   2   3
ATOM      3  N   UNL     1       7.897  -2.609  -8.564  1.00  0.00    -0.356 N 
ATOM      4  C   UNL     1       7.751  -3.461  -7.515  1.00  0.00     0.221 C 
ATOM      5  O   UNL     1       8.769  -3.883  -6.960  1.00  0.00    -0.275 OA
ATOM      6  H   UNL     1       8.830  -2.367  -8.767  1.00  0.00     0.163 HD
BRANCH   4   7
ATOM      7  C   UNL     1       6.386  -3.889  -7.035  1.00  0.00     0.124 C 
BRANCH   7   8
ATOM      8  C   UNL     1       6.059  -3.208  -5.708  1.00  0.00     0.158 C 
BRANCH   8   9
ATOM      9  N   UNL     1       4.910  -2.313  -5.826  1.00  0.00    -0.229 N 
ATOM     10  C   UNL     1       2.638  -2.107  -5.708  1.00  0.00     0.149 A 
ATOM     11  C   UNL     1       2.657  -0.737  -6.247  1.00  0.00     0.042 A 
ATOM     12  N   UNL     1       3.677  -2.864  -5.532  1.00  0.00    -0.164 NA
ATOM     13  C   UNL     1       3.864  -0.199  -6.417  1.00  0.00     0.076 A 
ATOM     14  C   UNL     1       5.094  -0.986  -6.188  1.00  0.00     0.266 A 
ATOM     15  O   UNL     1       6.185  -0.449  -6.361  1.00  0.00    -0.268 OA
BRANCH  10  16
ATOM     16  C   UNL     1       1.283  -2.631  -5.274  1.00  0.00     0.274 C 
ATOM     17  C   UNL     1       0.300  -0.688   0.771  1.00  0.00     0.114 C 
ATOM     18  C   UNL     1      -0.275  -1.854   0.007  1.00  0.00     0.219 C 
ATOM     19  O   UNL     1      -1.157  -2.555   0.504  1.00  0.00    -0.275 OA
ATOM     20  N   UNL     1       0.248  -2.105  -1.251  1.00  0.00    -0.339 N 
ATOM     21  C   UNL     1      -0.392  -3.114  -2.103  1.00  0.00     0.141 C 
ATOM     22  C   UNL     1       1.523  -1.581  -1.747  1.00  0.00     0.141 C 
ATOM     23  C   UNL     1      -0.495  -2.641  -3.561  1.00  0.00     0.141 C 
ATOM     24  C   UNL     1       1.441  -1.146  -3.215  1.00  0.00     0.141 C 
ATOM     25  N   UNL     1       0.799  -2.166  -4.058  1.00  0.00    -0.334 N 
ATOM     26  O   UNL     1       0.710  -3.419  -6.016  1.00  0.00    -0.267 OA
ENDBRANCH  10  16
ENDBRANCH   8   9
ENDBRANCH   7   8
ENDBRANCH   4   7
ENDBRANCH   2   3
ENDBRANCH   1   2
BRANCH   1  27
ATOM     27  C   UNL     1       6.380   0.147 -10.740  1.00  0.00     0.118 C 
BRANCH  27  28
ATOM     28  N   UNL     1       4.978  -0.225 -10.792  1.00  0.00    -0.352 N 
ATOM     29  C   UNL     1       3.827   0.495 -10.615  1.00  0.00     0.251 C 
ATOM     30  H   UNL     1       4.826  -1.177 -10.992  1.00  0.00     0.163 HD
ATOM     31  O   UNL     1       2.767  -0.033 -10.952  1.00  0.00    -0.269 OA
BRANCH  29  32
ATOM     32  C   UNL     1       3.790   1.858 -10.027  1.00  0.00     0.039 A 
ATOM     33  C   UNL     1       4.628   2.261  -8.985  1.00  0.00     0.014 A 
ATOM     34  C   UNL     1       2.752   2.712 -10.432  1.00  0.00     0.014 A 
ATOM     35  C   UNL     1       4.412   3.482  -8.335  1.00  0.00     0.010 A 
ATOM     36  C   UNL     1       2.540   3.938  -9.793  1.00  0.00     0.010 A 
ATOM     37  C   UNL     1       3.352   4.316  -8.718  1.00  0.00    -0.014 A 
BRANCH  37  38
ATOM     38  C   UNL     1       3.076   5.557  -7.957  1.00  0.00     0.031 A 
ATOM     39  C   UNL     1       2.081   5.552  -6.832  1.00  0.00     0.074 A 
ATOM     40  C   UNL     1       3.740   6.687  -8.254  1.00  0.00     0.049 A 
ATOM     41  N   UNL     1       1.811   6.498  -5.969  1.00  0.00    -0.248 NA
ATOM     42  C   UNL     1       1.292   4.324  -6.650  1.00  0.00     0.031 C 
ATOM     43  C   UNL     1       4.718   6.833  -9.330  1.00  0.00     0.029 A 
ATOM     44  N   UNL     1       3.699   7.923  -7.661  1.00  0.00    -0.354 N 
ATOM     45  C   UNL     1       0.841   5.976  -5.125  1.00  0.00     0.074 A 
ATOM     46  C   UNL     1       0.545   4.639  -5.600  1.00  0.00     0.031 C 
ATOM     47  C   UNL     1       5.205   8.085  -9.306  1.00  0.00     0.029 A 
ATOM     48  C   UNL     1       4.576   8.822  -8.211  1.00  0.00     0.049 A 
ATOM     49  H   UNL     1       3.098   8.143  -6.912  1.00  0.00     0.167 HD
ATOM     50  C   UNL     1       0.262   6.549  -4.044  1.00  0.00     0.037 A 
ATOM     51  C   UNL     1       4.859  10.091  -7.861  1.00  0.00     0.037 A 
ATOM     52  C   UNL     1       0.532   7.879  -3.570  1.00  0.00     0.049 A 
ATOM     53  C   UNL     1       4.169  10.722  -6.688  1.00  0.00     0.074 A 
ATOM     54  C   UNL     1       0.018   8.521  -2.455  1.00  0.00     0.029 A 
ATOM     55  N   UNL     1       1.379   8.780  -4.193  1.00  0.00    -0.354 N 
ATOM     56  N   UNL     1       3.298  10.193  -5.865  1.00  0.00    -0.248 NA
ATOM     57  C   UNL     1       4.505  12.123  -6.396  1.00  0.00     0.031 C 
ATOM     58  C   UNL     1       0.545   9.819  -2.414  1.00  0.00     0.029 A 
ATOM     59  C   UNL     1       1.392   9.977  -3.498  1.00  0.00     0.049 A 
ATOM     60  H   UNL     1       1.897   8.595  -5.010  1.00  0.00     0.167 HD
ATOM     61  C   UNL     1       2.992  11.191  -4.947  1.00  0.00     0.074 A 
ATOM     62  C   UNL     1       3.764  12.358  -5.321  1.00  0.00     0.031 C 
ATOM     63  C   UNL     1       2.154  11.136  -3.884  1.00  0.00     0.037 A 
BRANCH  50  64
ATOM     64  C   UNL     1      -0.715   5.709  -3.282  1.00  0.00     0.058 A 
ATOM     65  C   UNL     1      -0.267   4.804  -2.308  1.00  0.00     0.135 A 
ATOM     66  C   UNL     1      -2.092   5.799  -3.526  1.00  0.00     0.135 A 
ATOM     67  F   UNL     1       1.045   4.671  -2.058  1.00  0.00    -0.206 F 
ATOM     68  C   UNL     1      -1.156   3.994  -1.614  1.00  0.00     0.059 A 
ATOM     69  C   UNL     1      -3.001   5.000  -2.840  1.00  0.00     0.059 A 
ATOM     70  F   UNL     1      -2.561   6.644  -4.457  1.00  0.00    -0.206 F 
ATOM     71  C   UNL     1      -2.519   4.088  -1.899  1.00  0.00     0.060 A 
BRANCH  71  72
ATOM     72  S   UNL     1      -3.663   2.988  -1.040  1.00  0.00     0.124 S 
ATOM     73  O   UNL     1      -3.563   1.787  -1.863  1.00  0.00    -0.237 OA
ATOM     74  O   UNL     1      -3.072   2.894   0.291  1.00  0.00    -0.237 OA
ATOM     75  O   UNL     1      -4.931   3.705  -1.114  1.00  0.00    -0.744 OA
ENDBRANCH  71  72
ENDBRANCH  50  64
BRANCH  51  76
ATOM     76  C   UNL     1       5.890  10.832  -8.619  1.00  0.00     0.058 A 
ATOM     77  C   UNL     1       7.224  10.831  -8.191  1.00  0.00     0.135 A 
ATOM     78  C   UNL     1       5.571  11.502  -9.807  1.00  0.00     0.135 A 
ATOM     79  F   UNL     1       7.565  10.197  -7.059  1.00  0.00    -0.206 F 
ATOM     80  C   UNL     1       8.219  11.463  -8.926  1.00  0.00     0.059 A 
ATOM     81  C   UNL     1       6.550  12.139 -10.561  1.00  0.00     0.059 A 
ATOM     82  F   UNL     1       4.305  11.518 -10.250  1.00  0.00    -0.206 F 
ATOM     83  C   UNL     1       7.872  12.112 -10.113  1.00  0.00     0.060 A 
BRANCH  83  84
ATOM     84  S   UNL     1       9.170  12.852 -11.127  1.00  0.00     0.124 S 
ATOM     85  O   UNL     1       9.233  14.203 -10.581  1.00  0.00    -0.237 OA
ATOM     86  O   UNL     1      10.320  11.997 -10.848  1.00  0.00    -0.237 OA
ATOM     87  O   UNL     1       8.630  12.735 -12.478  1.00  0.00    -0.744 OA
ENDBRANCH  83  84
ENDBRANCH  51  76
BRANCH  63  88
ATOM     88  C   UNL     1       2.030  12.372  -3.047  1.00  0.00     0.058 A 
ATOM     89  C   UNL     1       1.112  13.379  -3.376  1.00  0.00     0.135 A 
ATOM     90  C   UNL     1       2.808  12.536  -1.891  1.00  0.00     0.135 A 
ATOM     91  F   UNL     1       0.350  13.264  -4.476  1.00  0.00    -0.206 F 
ATOM     92  C   UNL     1       0.973  14.518  -2.589  1.00  0.00     0.059 A 
ATOM     93  C   UNL     1       2.683  13.664  -1.088  1.00  0.00     0.059 A 
ATOM     94  F   UNL     1       3.699  11.596  -1.537  1.00  0.00    -0.206 F 
ATOM     95  C   UNL     1       1.768  14.655  -1.450  1.00  0.00     0.060 A 
BRANCH  95  96
ATOM     96  S   UNL     1       1.576  16.116  -0.406  1.00  0.00     0.124 S 
ATOM     97  O   UNL     1       2.505  17.048  -1.035  1.00  0.00    -0.237 OA
ATOM     98  O   UNL     1       0.159  16.438  -0.554  1.00  0.00    -0.237 OA
ATOM     99  O   UNL     1       1.964  15.631   0.915  1.00  0.00    -0.744 OA
ENDBRANCH  95  96
ENDBRANCH  63  88
ENDBRANCH  37  38
ENDBRANCH  29  32
ENDBRANCH  27  28
ENDBRANCH   1  27
TORSDOF 16
