REMARK SMILES C[C@@H](C(=O)NCCCNC(=O)c1ccc(-c2c3nc(c(-c4c(F)cc(S(=O)(=O)[O-])cc4F)c4ccc([nH]4)c(-c4c(F)cc(S(=O)(=O)[O-])cc4F)c4nc(c(-c5c(F)cc(S(=O)(=O)[O-])cc5F)c5ccc2[nH]5)C=C4)C=C3)cc1)[C@@H](C)C(=O)c1cccc(Cl)c1
REMARK SMILES IDX 7 1 6 2 5 3 3 4 4 5 2 7 1 8 78 9 79 10 80 11 81 12 82 13
REMARK SMILES IDX 83 14 88 15 84 16 86 17 85 18 87 19 8 20 9 21 10 22 11 24
REMARK SMILES IDX 12 25 13 26 77 27 14 28 76 29 15 30 16 31 17 32 70 33 18 34
REMARK SMILES IDX 75 35 69 36 71 37 19 38 74 39 68 40 67 41 20 43 54 44 33 45
REMARK SMILES IDX 53 46 34 47 37 48 52 49 72 50 35 51 36 52 51 54 73 55 38 56
REMARK SMILES IDX 21 57 22 58 31 59 23 60 24 61 30 62 32 63 25 64 26 65 27 66
REMARK SMILES IDX 28 67 29 68 55 69 56 70 65 71 57 72 58 73 64 74 66 75 59 76
REMARK SMILES IDX 60 77 61 78 62 79 63 80 39 81 40 82 49 83 41 84 42 85 48 86
REMARK SMILES IDX 50 87 43 88 44 89 45 90 46 91 47 92
REMARK H PARENT 5 6 9 23 71 42 37 53
REMARK Flexibility Score: inf
ROOT
ATOM      1  C   UNL     1       4.269   1.168   0.328  1.00  0.00     0.042 C 
ENDROOT
BRANCH   1   2
ATOM      2  C   UNL     1       3.361   0.979   1.539  1.00  0.00     0.117 C 
BRANCH   2   3
ATOM      3  N   UNL     1       2.280   1.948   1.560  1.00  0.00    -0.356 N 
ATOM      4  C   UNL     1       0.958   1.809   1.272  1.00  0.00     0.223 C 
ATOM      5  O   UNL     1       0.267   2.825   1.266  1.00  0.00    -0.275 OA
ATOM      6  H   UNL     1       2.549   2.857   1.827  1.00  0.00     0.163 HD
BRANCH   4   7
ATOM      7  C   UNL     1       0.378   0.425   0.988  1.00  0.00     0.086 C 
ATOM      8  C   UNL     1       0.666   0.054  -0.471  1.00  0.00     0.019 C 
BRANCH   7   9
ATOM      9  C   UNL     1      -1.135   0.387   1.301  1.00  0.00     0.070 C 
ATOM     10  C   UNL     1      -1.728  -1.022   1.202  1.00  0.00     0.017 C 
BRANCH   9  11
ATOM     11  C   UNL     1      -1.613   1.016   2.623  1.00  0.00     0.166 C 
ATOM     12  O   UNL     1      -2.539   1.833   2.616  1.00  0.00    -0.294 OA
BRANCH  11  13
ATOM     13  C   UNL     1      -1.160   0.525   3.962  1.00  0.00     0.019 A 
ATOM     14  C   UNL     1      -2.131   0.459   4.975  1.00  0.00     0.012 A 
ATOM     15  C   UNL     1       0.154   0.170   4.269  1.00  0.00     0.032 A 
ATOM     16  C   UNL     1      -1.803   0.020   6.260  1.00  0.00     0.002 A 
ATOM     17  C   UNL     1       0.476  -0.275   5.554  1.00  0.00     0.041 A 
ATOM     18  C   UNL     1      -0.494  -0.356   6.549  1.00  0.00     0.020 A 
ATOM     19  Cl  UNL     1       2.101  -0.718   5.913  1.00  0.00    -0.084 Cl
ENDBRANCH  11  13
ENDBRANCH   9  11
ENDBRANCH   7   9
ENDBRANCH   4   7
ENDBRANCH   2   3
ENDBRANCH   1   2
BRANCH   1  20
ATOM     20  C   UNL     1       4.991   2.511   0.292  1.00  0.00     0.118 C 
BRANCH  20  21
ATOM     21  N   UNL     1       5.954   2.660   1.373  1.00  0.00    -0.352 N 
ATOM     22  C   UNL     1       7.314   2.838   1.320  1.00  0.00     0.251 C 
ATOM     23  H   UNL     1       5.572   2.629   2.280  1.00  0.00     0.163 HD
ATOM     24  O   UNL     1       7.974   2.748   2.355  1.00  0.00    -0.269 OA
BRANCH  22  25
ATOM     25  C   UNL     1       7.990   3.111   0.033  1.00  0.00     0.039 A 
ATOM     26  C   UNL     1       9.197   2.465  -0.247  1.00  0.00     0.014 A 
ATOM     27  C   UNL     1       7.450   4.008  -0.892  1.00  0.00     0.014 A 
ATOM     28  C   UNL     1       9.824   2.666  -1.480  1.00  0.00     0.010 A 
ATOM     29  C   UNL     1       8.031   4.143  -2.151  1.00  0.00     0.010 A 
ATOM     30  C   UNL     1       9.226   3.476  -2.459  1.00  0.00    -0.014 A 
BRANCH  30  31
ATOM     31  C   UNL     1       9.829   3.630  -3.810  1.00  0.00     0.031 A 
ATOM     32  C   UNL     1      10.281   4.983  -4.289  1.00  0.00     0.074 A 
ATOM     33  C   UNL     1       9.903   2.563  -4.631  1.00  0.00     0.049 A 
ATOM     34  N   UNL     1      10.756   5.328  -5.459  1.00  0.00    -0.248 NA
ATOM     35  C   UNL     1      10.160   6.099  -3.338  1.00  0.00     0.031 C 
ATOM     36  C   UNL     1       9.452   1.209  -4.302  1.00  0.00     0.029 A 
ATOM     37  N   UNL     1      10.369   2.451  -5.918  1.00  0.00    -0.354 N 
ATOM     38  C   UNL     1      10.976   6.699  -5.389  1.00  0.00     0.074 A 
ATOM     39  C   UNL     1      10.531   7.131  -4.082  1.00  0.00     0.031 C 
ATOM     40  C   UNL     1       9.677   0.402  -5.350  1.00  0.00     0.029 A 
ATOM     41  C   UNL     1      10.245   1.186  -6.443  1.00  0.00     0.049 A 
ATOM     42  H   UNL     1      10.755   3.206  -6.418  1.00  0.00     0.167 HD
ATOM     43  C   UNL     1      11.520   7.519  -6.321  1.00  0.00     0.037 A 
ATOM     44  C   UNL     1      10.538   0.711  -7.670  1.00  0.00     0.037 A 
ATOM     45  C   UNL     1      11.973   7.078  -7.615  1.00  0.00     0.049 A 
ATOM     46  C   UNL     1      11.129   1.642  -8.694  1.00  0.00     0.074 A 
ATOM     47  C   UNL     1      12.591   7.819  -8.608  1.00  0.00     0.029 A 
ATOM     48  N   UNL     1      11.851   5.784  -8.101  1.00  0.00    -0.354 N 
ATOM     49  N   UNL     1      11.398   2.922  -8.586  1.00  0.00    -0.248 NA
ATOM     50  C   UNL     1      11.464   1.066 -10.003  1.00  0.00     0.031 C 
ATOM     51  C   UNL     1      12.791   6.987  -9.714  1.00  0.00     0.029 A 
ATOM     52  C   UNL     1      12.356   5.712  -9.390  1.00  0.00     0.049 A 
ATOM     53  H   UNL     1      11.462   5.029  -7.604  1.00  0.00     0.167 HD
ATOM     54  C   UNL     1      11.957   3.298  -9.802  1.00  0.00     0.074 A 
ATOM     55  C   UNL     1      12.000   2.107 -10.626  1.00  0.00     0.031 C 
ATOM     56  C   UNL     1      12.398   4.518 -10.199  1.00  0.00     0.037 A 
BRANCH  43  57
ATOM     57  C   UNL     1      11.649   8.980  -5.976  1.00  0.00     0.058 A 
ATOM     58  C   UNL     1      12.544   9.432  -4.992  1.00  0.00     0.135 A 
ATOM     59  C   UNL     1      10.889   9.945  -6.658  1.00  0.00     0.135 A 
ATOM     60  F   UNL     1      13.288   8.554  -4.300  1.00  0.00    -0.206 F 
ATOM     61  C   UNL     1      12.653  10.780  -4.670  1.00  0.00     0.059 A 
ATOM     62  C   UNL     1      11.006  11.303  -6.375  1.00  0.00     0.059 A 
ATOM     63  F   UNL     1      10.020   9.572  -7.610  1.00  0.00    -0.206 F 
ATOM     64  C   UNL     1      11.878  11.709  -5.366  1.00  0.00     0.060 A 
BRANCH  64  65
ATOM     65  S   UNL     1      12.027  13.454  -4.930  1.00  0.00     0.124 S 
ATOM     66  O   UNL     1      11.364  13.486  -3.630  1.00  0.00    -0.237 OA
ATOM     67  O   UNL     1      13.474  13.647  -4.908  1.00  0.00    -0.237 OA
ATOM     68  O   UNL     1      11.323  14.137  -6.010  1.00  0.00    -0.744 OA
ENDBRANCH  64  65
ENDBRANCH  43  57
BRANCH  44  69
ATOM     69  C   UNL     1      10.282  -0.719  -7.990  1.00  0.00     0.058 A 
ATOM     70  C   UNL     1      11.339  -1.620  -8.183  1.00  0.00     0.135 A 
ATOM     71  C   UNL     1       8.973  -1.219  -8.088  1.00  0.00     0.135 A 
ATOM     72  F   UNL     1      12.608  -1.191  -8.107  1.00  0.00    -0.206 F 
ATOM     73  C   UNL     1      11.111  -2.962  -8.474  1.00  0.00     0.059 A 
ATOM     74  C   UNL     1       8.719  -2.561  -8.350  1.00  0.00     0.059 A 
ATOM     75  F   UNL     1       7.925  -0.403  -7.896  1.00  0.00    -0.206 F 
ATOM     76  C   UNL     1       9.796  -3.424  -8.550  1.00  0.00     0.060 A 
BRANCH  76  77
ATOM     77  S   UNL     1       9.511  -5.178  -8.871  1.00  0.00     0.124 S 
ATOM     78  O   UNL     1       9.890  -5.286 -10.275  1.00  0.00    -0.237 OA
ATOM     79  O   UNL     1      10.413  -5.813  -7.915  1.00  0.00    -0.237 OA
ATOM     80  O   UNL     1       8.089  -5.345  -8.586  1.00  0.00    -0.744 OA
ENDBRANCH  76  77
ENDBRANCH  44  69
BRANCH  56  81
ATOM     81  C   UNL     1      13.000   4.628 -11.574  1.00  0.00     0.058 A 
ATOM     82  C   UNL     1      12.216   4.553 -12.735  1.00  0.00     0.135 A 
ATOM     83  C   UNL     1      14.375   4.875 -11.727  1.00  0.00     0.135 A 
ATOM     84  F   UNL     1      10.898   4.311 -12.647  1.00  0.00    -0.206 F 
ATOM     85  C   UNL     1      12.776   4.699 -14.001  1.00  0.00     0.059 A 
ATOM     86  C   UNL     1      14.951   5.055 -12.981  1.00  0.00     0.059 A 
ATOM     87  F   UNL     1      15.170   4.965 -10.649  1.00  0.00    -0.206 F 
ATOM     88  C   UNL     1      14.144   4.955 -14.113  1.00  0.00     0.060 A 
BRANCH  88  89
ATOM     89  S   UNL     1      14.849   5.186 -15.759  1.00  0.00     0.124 S 
ATOM     90  O   UNL     1      14.814   3.826 -16.287  1.00  0.00    -0.237 OA
ATOM     91  O   UNL     1      13.915   6.127 -16.369  1.00  0.00    -0.237 OA
ATOM     92  O   UNL     1      16.180   5.720 -15.488  1.00  0.00    -0.744 OA
ENDBRANCH  88  89
ENDBRANCH  56  81
ENDBRANCH  30  31
ENDBRANCH  22  25
ENDBRANCH  20  21
ENDBRANCH   1  20
TORSDOF 16
