REMARK SMILES NS(=O)(=O)c1ccc(-n2nc(C(=O)NCCCNC(=O)c3ccc(-c4c5nc(c(-c6c(F)cc(S(=O)(=O)[O-])cc6F)c6ccc([nH]6)c(-c6c(F)cc(S(=O)(=O)[O-])cc6F)c6nc(c(-c7c(F)cc(S(=O)(=O)[O-])cc7F)c7ccc4[nH]7)C=C6)C=C5)cc3)cc2-c2ccc(Cl)s2)cc1
REMARK SMILES IDX 16 1 15 2 14 3 12 4 13 5 11 7 9 8 10 9 88 10 87 11 8 12 5 13
REMARK SMILES IDX 6 14 96 15 7 16 95 17 2 18 3 19 4 20 1 21 89 24 90 25 94 26
REMARK SMILES IDX 91 27 92 28 93 29 17 30 18 31 19 32 20 34 21 35 22 36 86 37
REMARK SMILES IDX 23 38 85 39 24 40 25 41 26 42 79 43 27 44 84 45 78 46 80 47
REMARK SMILES IDX 28 48 83 49 77 50 76 51 29 53 63 54 42 55 62 56 43 57 46 58
REMARK SMILES IDX 61 59 81 60 44 61 45 62 60 64 82 65 47 66 30 67 31 68 40 69
REMARK SMILES IDX 32 70 33 71 39 72 41 73 34 74 35 75 36 76 37 77 38 78 64 79
REMARK SMILES IDX 65 80 74 81 66 82 67 83 73 84 75 85 68 86 69 87 70 88 71 89
REMARK SMILES IDX 72 90 48 91 49 92 58 93 50 94 51 95 57 96 59 97 52 98 53 99
REMARK SMILES IDX 54 100 55 101 56 102
REMARK H PARENT 14 6 1 22 1 23 18 33 80 52 46 63
REMARK Flexibility Score: inf
ROOT
ATOM      1  C   UNL     1       2.577  10.755  -5.702  1.00  0.00     0.042 C 
ENDROOT
BRANCH   1   2
ATOM      2  C   UNL     1       3.658  10.377  -4.683  1.00  0.00     0.118 C 
BRANCH   2   3
ATOM      3  N   UNL     1       3.135  10.255  -3.335  1.00  0.00    -0.351 N 
ATOM      4  C   UNL     1       2.602   9.193  -2.633  1.00  0.00     0.271 C 
ATOM      5  O   UNL     1       2.338   9.413  -1.449  1.00  0.00    -0.267 OA
ATOM      6  H   UNL     1       3.167  11.094  -2.820  1.00  0.00     0.163 HD
BRANCH   4   7
ATOM      7  C   UNL     1       2.390   7.865  -3.255  1.00  0.00     0.151 A 
ATOM      8  N   UNL     1       1.992   5.744  -3.324  1.00  0.00    -0.231 N 
ATOM      9  N   UNL     1       1.964   6.822  -2.509  1.00  0.00    -0.162 NA
ATOM     10  C   UNL     1       2.298   6.093  -4.625  1.00  0.00     0.085 A 
ATOM     11  C   UNL     1       2.528   7.449  -4.600  1.00  0.00     0.066 A 
BRANCH   8  12
ATOM     12  C   UNL     1       1.709   4.452  -2.818  1.00  0.00     0.065 A 
ATOM     13  C   UNL     1       0.960   1.887  -2.060  1.00  0.00     0.082 A 
ATOM     14  C   UNL     1       2.110   2.067  -2.836  1.00  0.00     0.024 A 
ATOM     15  C   UNL     1       0.205   2.983  -1.629  1.00  0.00     0.024 A 
ATOM     16  C   UNL     1       2.480   3.353  -3.223  1.00  0.00     0.030 A 
ATOM     17  C   UNL     1       0.600   4.276  -1.980  1.00  0.00     0.030 A 
BRANCH  13  18
ATOM     18  S   UNL     1       0.418   0.242  -1.702  1.00  0.00     0.238 S 
ATOM     19  O   UNL     1       1.095  -0.686  -2.566  1.00  0.00    -0.207 OA
ATOM     20  O   UNL     1      -1.025   0.239  -1.544  1.00  0.00    -0.207 OA
BRANCH  18  21
ATOM     21  N   UNL     1       1.052  -0.010  -0.171  1.00  0.00    -0.225 NA
ATOM     22  H   UNL     1       0.801  -0.945   0.152  1.00  0.00     0.137 HD
ATOM     23  H   UNL     1       0.672   0.685   0.473  1.00  0.00     0.137 HD
ENDBRANCH  18  21
ENDBRANCH  13  18
ENDBRANCH   8  12
BRANCH  10  24
ATOM     24  C   UNL     1       2.271   5.253  -5.784  1.00  0.00     0.054 A 
ATOM     25  C   UNL     1       3.295   5.087  -6.698  1.00  0.00     0.024 A 
ATOM     26  S   UNL     1       0.858   4.405  -6.258  1.00  0.00    -0.122 S 
ATOM     27  C   UNL     1       2.917   4.241  -7.782  1.00  0.00     0.033 A 
ATOM     28  C   UNL     1       1.621   3.816  -7.647  1.00  0.00     0.094 A 
ATOM     29  Cl  UNL     1       0.758   2.801  -8.729  1.00  0.00    -0.072 Cl
ENDBRANCH  10  24
ENDBRANCH   4   7
ENDBRANCH   2   3
ENDBRANCH   1   2
BRANCH   1  30
ATOM     30  C   UNL     1       2.390  12.265  -5.811  1.00  0.00     0.118 C 
BRANCH  30  31
ATOM     31  N   UNL     1       3.557  12.905  -6.418  1.00  0.00    -0.352 N 
ATOM     32  C   UNL     1       3.889  14.241  -6.488  1.00  0.00     0.251 C 
ATOM     33  H   UNL     1       4.201  12.291  -6.840  1.00  0.00     0.163 HD
ATOM     34  O   UNL     1       4.731  14.617  -7.296  1.00  0.00    -0.269 OA
BRANCH  32  35
ATOM     35  C   UNL     1       3.206  15.208  -5.612  1.00  0.00     0.039 A 
ATOM     36  C   UNL     1       2.774  16.433  -6.127  1.00  0.00     0.014 A 
ATOM     37  C   UNL     1       2.962  14.871  -4.283  1.00  0.00     0.014 A 
ATOM     38  C   UNL     1       2.003  17.270  -5.325  1.00  0.00     0.010 A 
ATOM     39  C   UNL     1       2.103  15.643  -3.531  1.00  0.00     0.010 A 
ATOM     40  C   UNL     1       1.635  16.856  -4.035  1.00  0.00    -0.014 A 
BRANCH  40  41
ATOM     41  C   UNL     1       0.634  17.619  -3.283  1.00  0.00     0.031 A 
ATOM     42  C   UNL     1      -0.645  17.848  -4.015  1.00  0.00     0.074 A 
ATOM     43  C   UNL     1       0.726  17.894  -1.963  1.00  0.00     0.049 A 
ATOM     44  N   UNL     1      -1.137  18.968  -4.431  1.00  0.00    -0.248 NA
ATOM     45  C   UNL     1      -1.413  16.669  -4.452  1.00  0.00     0.031 C 
ATOM     46  C   UNL     1       1.763  17.430  -1.034  1.00  0.00     0.029 A 
ATOM     47  N   UNL     1      -0.149  18.545  -1.140  1.00  0.00    -0.354 N 
ATOM     48  C   UNL     1      -2.391  18.660  -4.957  1.00  0.00     0.074 A 
ATOM     49  C   UNL     1      -2.412  17.234  -5.133  1.00  0.00     0.031 C 
ATOM     50  C   UNL     1       1.341  17.600   0.236  1.00  0.00     0.029 A 
ATOM     51  C   UNL     1       0.101  18.355   0.215  1.00  0.00     0.049 A 
ATOM     52  H   UNL     1      -0.890  19.100  -1.475  1.00  0.00     0.167 HD
ATOM     53  C   UNL     1      -3.404  19.573  -4.932  1.00  0.00     0.037 A 
ATOM     54  C   UNL     1      -0.635  18.785   1.266  1.00  0.00     0.037 A 
ATOM     55  C   UNL     1      -2.904  20.880  -4.591  1.00  0.00     0.049 A 
ATOM     56  C   UNL     1      -1.450  19.933   0.809  1.00  0.00     0.074 A 
ATOM     57  C   UNL     1      -2.223  21.896  -5.222  1.00  0.00     0.029 A 
ATOM     58  N   UNL     1      -2.827  21.108  -3.243  1.00  0.00    -0.354 N 
ATOM     59  N   UNL     1      -0.938  21.070   0.426  1.00  0.00    -0.248 NA
ATOM     60  C   UNL     1      -2.853  19.733   0.463  1.00  0.00     0.031 C 
ATOM     61  C   UNL     1      -1.585  22.649  -4.191  1.00  0.00     0.029 A 
ATOM     62  C   UNL     1      -1.914  22.089  -2.959  1.00  0.00     0.049 A 
ATOM     63  H   UNL     1      -3.358  20.630  -2.566  1.00  0.00     0.167 HD
ATOM     64  C   UNL     1      -1.798  21.517  -0.555  1.00  0.00     0.074 A 
ATOM     65  C   UNL     1      -3.031  20.769  -0.360  1.00  0.00     0.031 C 
ATOM     66  C   UNL     1      -1.329  22.197  -1.640  1.00  0.00     0.037 A 
BRANCH  53  67
ATOM     67  C   UNL     1      -4.880  19.255  -4.750  1.00  0.00     0.058 A 
ATOM     68  C   UNL     1      -5.822  20.306  -4.833  1.00  0.00     0.135 A 
ATOM     69  C   UNL     1      -5.373  18.051  -4.201  1.00  0.00     0.135 A 
ATOM     70  F   UNL     1      -5.474  21.499  -5.342  1.00  0.00    -0.206 F 
ATOM     71  C   UNL     1      -7.123  20.195  -4.334  1.00  0.00     0.059 A 
ATOM     72  C   UNL     1      -6.681  17.902  -3.747  1.00  0.00     0.059 A 
ATOM     73  F   UNL     1      -4.591  16.988  -3.985  1.00  0.00    -0.206 F 
ATOM     74  C   UNL     1      -7.536  18.991  -3.775  1.00  0.00     0.060 A 
BRANCH  74  75
ATOM     75  S   UNL     1      -9.176  18.868  -3.037  1.00  0.00     0.124 S 
ATOM     76  O   UNL     1      -9.021  19.691  -1.844  1.00  0.00    -0.237 OA
ATOM     77  O   UNL     1     -10.026  19.416  -4.089  1.00  0.00    -0.237 OA
ATOM     78  O   UNL     1      -9.329  17.435  -2.801  1.00  0.00    -0.744 OA
ENDBRANCH  74  75
ENDBRANCH  53  67
BRANCH  54  79
ATOM     79  C   UNL     1      -0.795  18.175   2.607  1.00  0.00     0.058 A 
ATOM     80  C   UNL     1      -1.262  18.923   3.700  1.00  0.00     0.135 A 
ATOM     81  C   UNL     1      -0.753  16.776   2.775  1.00  0.00     0.135 A 
ATOM     82  F   UNL     1      -1.344  20.259   3.619  1.00  0.00    -0.206 F 
ATOM     83  C   UNL     1      -1.719  18.317   4.873  1.00  0.00     0.059 A 
ATOM     84  C   UNL     1      -1.196  16.149   3.939  1.00  0.00     0.059 A 
ATOM     85  F   UNL     1      -0.366  15.974   1.771  1.00  0.00    -0.206 F 
ATOM     86  C   UNL     1      -1.705  16.926   4.973  1.00  0.00     0.060 A 
BRANCH  86  87
ATOM     87  S   UNL     1      -2.478  16.139   6.406  1.00  0.00     0.124 S 
ATOM     88  O   UNL     1      -1.545  16.477   7.476  1.00  0.00    -0.237 OA
ATOM     89  O   UNL     1      -3.776  16.803   6.459  1.00  0.00    -0.237 OA
ATOM     90  O   UNL     1      -2.519  14.727   6.036  1.00  0.00    -0.744 OA
ENDBRANCH  86  87
ENDBRANCH  54  79
BRANCH  66  91
ATOM     91  C   UNL     1      -0.049  22.960  -1.484  1.00  0.00     0.058 A 
ATOM     92  C   UNL     1       1.218  22.383  -1.298  1.00  0.00     0.135 A 
ATOM     93  C   UNL     1      -0.111  24.357  -1.600  1.00  0.00     0.135 A 
ATOM     94  F   UNL     1       1.370  21.052  -1.254  1.00  0.00    -0.206 F 
ATOM     95  C   UNL     1       2.369  23.167  -1.197  1.00  0.00     0.059 A 
ATOM     96  C   UNL     1       1.025  25.155  -1.533  1.00  0.00     0.059 A 
ATOM     97  F   UNL     1      -1.290  24.962  -1.822  1.00  0.00    -0.206 F 
ATOM     98  C   UNL     1       2.262  24.553  -1.317  1.00  0.00     0.060 A 
BRANCH  98  99
ATOM     99  S   UNL     1       3.757  25.563  -1.259  1.00  0.00     0.124 S 
ATOM    100  O   UNL     1       4.110  25.509   0.156  1.00  0.00    -0.237 OA
ATOM    101  O   UNL     1       4.656  24.853  -2.165  1.00  0.00    -0.237 OA
ATOM    102  O   UNL     1       3.307  26.867  -1.740  1.00  0.00    -0.744 OA
ENDBRANCH  98  99
ENDBRANCH  66  91
ENDBRANCH  40  41
ENDBRANCH  32  35
ENDBRANCH  30  31
ENDBRANCH   1  30
TORSDOF 17
