REMARK SMILES Cc1cc(O[C@@H]2C[C@H](C)C[C@H](C)C2)cc(C(=O)NCCCNC(=O)c2ccc(-c3c4nc(c(-c5c(F)cc(S(=O)(=O)[O-])cc5F)c5ccc([nH]5)c(-c5c(F)cc(S(=O)(=O)[O-])cc5F)c5nc(c(-c6c(F)cc(S(=O)(=O)[O-])cc6F)c6ccc3[nH]6)C=C5)C=C4)cc2)c1N
REMARK SMILES IDX 20 1 19 2 18 3 16 4 17 5 15 7 1 8 2 9 3 10 91 11 4 12 14 13
REMARK SMILES IDX 92 14 5 17 6 18 13 19 7 20 11 21 8 22 12 23 10 24 9 25 21 26
REMARK SMILES IDX 22 27 23 28 24 30 25 31 26 32 90 33 27 34 89 35 28 36 29 37
REMARK SMILES IDX 30 38 83 39 31 40 88 41 82 42 84 43 32 44 87 45 81 46 80 47
REMARK SMILES IDX 33 49 67 50 46 51 66 52 47 53 50 54 65 55 85 56 48 57 49 58
REMARK SMILES IDX 64 60 86 61 51 62 34 63 35 64 44 65 36 66 37 67 43 68 45 69
REMARK SMILES IDX 38 70 39 71 40 72 41 73 42 74 68 75 69 76 78 77 70 78 71 79
REMARK SMILES IDX 77 80 79 81 72 82 73 83 74 84 75 85 76 86 52 87 53 88 62 89
REMARK SMILES IDX 54 90 55 91 61 92 63 93 56 94 57 95 58 96 59 97 60 98
REMARK H PARENT 18 6 92 15 92 16 22 29 84 48 50 59
REMARK Flexibility Score: inf
ROOT
ATOM      1  C   UNL     1      -4.108  -3.514  -0.660  1.00  0.00     0.042 C 
ENDROOT
BRANCH   1   2
ATOM      2  C   UNL     1      -3.260  -3.412   0.604  1.00  0.00     0.118 C 
BRANCH   2   3
ATOM      3  N   UNL     1      -1.880  -3.713   0.288  1.00  0.00    -0.352 N 
ATOM      4  C   UNL     1      -0.738  -2.973   0.181  1.00  0.00     0.253 C 
ATOM      5  O   UNL     1       0.259  -3.613  -0.170  1.00  0.00    -0.269 OA
ATOM      6  H   UNL     1      -1.731  -4.670   0.109  1.00  0.00     0.163 HD
BRANCH   4   7
ATOM      7  C   UNL     1      -0.627  -1.519   0.541  1.00  0.00     0.066 A 
ATOM      8  C   UNL     1       2.095   1.087   1.143  1.00  0.00     0.047 C 
ATOM      9  C   UNL     1       0.783   0.346   1.218  1.00  0.00    -0.024 A 
ATOM     10  C   UNL     1      -0.366   1.059   1.583  1.00  0.00     0.052 A 
ATOM     11  C   UNL     1       0.668  -0.973   0.739  1.00  0.00     0.048 A 
ATOM     12  C   UNL     1      -1.567   0.679   1.016  1.00  0.00     0.120 A 
ATOM     13  C   UNL     1      -1.722  -0.641   0.584  1.00  0.00     0.062 A 
BRANCH  11  14
ATOM     14  N   UNL     1       1.813  -1.624   0.272  1.00  0.00    -0.398 N 
ATOM     15  H   UNL     1       2.701  -1.226   0.420  1.00  0.00     0.156 HD
ATOM     16  H   UNL     1       1.731  -2.481  -0.206  1.00  0.00     0.156 HD
ENDBRANCH  11  14
BRANCH  12  17
ATOM     17  O   UNL     1      -2.567   1.561   0.677  1.00  0.00    -0.490 OA
BRANCH  17  18
ATOM     18  C   UNL     1      -2.222   2.895   0.183  1.00  0.00     0.173 C 
ATOM     19  C   UNL     1      -0.821   3.130  -0.373  1.00  0.00     0.048 C 
ATOM     20  C   UNL     1      -3.247   3.344  -0.917  1.00  0.00     0.048 C 
ATOM     21  C   UNL     1      -0.607   2.522  -1.761  1.00  0.00    -0.010 C 
ATOM     22  C   UNL     1      -2.711   3.796  -2.341  1.00  0.00    -0.010 C 
ATOM     23  C   UNL     1      -1.197   1.145  -2.091  1.00  0.00     0.008 C 
ATOM     24  C   UNL     1      -1.224   3.547  -2.683  1.00  0.00     0.007 C 
ATOM     25  C   UNL     1      -3.589   3.244  -3.477  1.00  0.00     0.008 C 
ENDBRANCH  17  18
ENDBRANCH  12  17
ENDBRANCH   4   7
ENDBRANCH   2   3
ENDBRANCH   1   2
BRANCH   1  26
ATOM     26  C   UNL     1      -4.365  -4.967  -1.054  1.00  0.00     0.118 C 
BRANCH  26  27
ATOM     27  N   UNL     1      -5.127  -5.666  -0.022  1.00  0.00    -0.352 N 
ATOM     28  C   UNL     1      -6.402  -6.156  -0.070  1.00  0.00     0.251 C 
ATOM     29  H   UNL     1      -4.655  -5.803   0.831  1.00  0.00     0.163 HD
ATOM     30  O   UNL     1      -7.007  -6.400   0.979  1.00  0.00    -0.269 OA
BRANCH  28  31
ATOM     31  C   UNL     1      -7.035  -6.407  -1.374  1.00  0.00     0.039 A 
ATOM     32  C   UNL     1      -8.386  -6.106  -1.556  1.00  0.00     0.014 A 
ATOM     33  C   UNL     1      -6.283  -6.962  -2.413  1.00  0.00     0.014 A 
ATOM     34  C   UNL     1      -8.969  -6.316  -2.804  1.00  0.00     0.010 A 
ATOM     35  C   UNL     1      -6.839  -7.080  -3.677  1.00  0.00     0.010 A 
ATOM     36  C   UNL     1      -8.191  -6.774  -3.881  1.00  0.00    -0.014 A 
BRANCH  36  37
ATOM     37  C   UNL     1      -8.768  -6.959  -5.232  1.00  0.00     0.031 A 
ATOM     38  C   UNL     1      -8.772  -8.327  -5.859  1.00  0.00     0.074 A 
ATOM     39  C   UNL     1      -9.203  -5.885  -5.918  1.00  0.00     0.049 A 
ATOM     40  N   UNL     1      -9.129  -8.680  -7.065  1.00  0.00    -0.248 NA
ATOM     41  C   UNL     1      -8.275  -9.440  -5.031  1.00  0.00     0.031 C 
ATOM     42  C   UNL     1      -9.191  -4.505  -5.426  1.00  0.00     0.029 A 
ATOM     43  N   UNL     1      -9.725  -5.781  -7.182  1.00  0.00    -0.354 N 
ATOM     44  C   UNL     1      -8.880 -10.045  -7.148  1.00  0.00     0.074 A 
ATOM     45  C   UNL     1      -8.287 -10.446  -5.892  1.00  0.00     0.031 C 
ATOM     46  C   UNL     1      -9.703  -3.697  -6.368  1.00  0.00     0.029 A 
ATOM     47  C   UNL     1     -10.035  -4.492  -7.545  1.00  0.00     0.049 A 
ATOM     48  H   UNL     1      -9.865  -6.556  -7.772  1.00  0.00     0.167 HD
ATOM     49  C   UNL     1      -9.148 -10.890  -8.171  1.00  0.00     0.037 A 
ATOM     50  C   UNL     1     -10.519  -4.006  -8.704  1.00  0.00     0.037 A 
ATOM     51  C   UNL     1      -9.768 -10.478  -9.402  1.00  0.00     0.049 A 
ATOM     52  C   UNL     1     -10.815  -4.966  -9.824  1.00  0.00     0.074 A 
ATOM     53  C   UNL     1     -10.146 -11.261 -10.478  1.00  0.00     0.029 A 
ATOM     54  N   UNL     1     -10.099  -9.168  -9.722  1.00  0.00    -0.354 N 
ATOM     55  N   UNL     1     -10.639  -6.266  -9.862  1.00  0.00    -0.248 NA
ATOM     56  C   UNL     1     -11.379  -4.398 -11.055  1.00  0.00     0.031 C 
ATOM     57  C   UNL     1     -10.658 -10.418 -11.469  1.00  0.00     0.029 A 
ATOM     58  C   UNL     1     -10.655  -9.118 -10.988  1.00  0.00     0.049 A 
ATOM     59  H   UNL     1      -9.959  -8.391  -9.135  1.00  0.00     0.167 HD
ATOM     60  C   UNL     1     -11.097  -6.675 -11.109  1.00  0.00     0.074 A 
ATOM     61  C   UNL     1     -11.569  -5.486 -11.789  1.00  0.00     0.031 C 
ATOM     62  C   UNL     1     -11.127  -7.922 -11.642  1.00  0.00     0.037 A 
BRANCH  49  63
ATOM     63  C   UNL     1      -8.780 -12.339  -8.000  1.00  0.00     0.058 A 
ATOM     64  C   UNL     1      -9.451 -13.171  -7.089  1.00  0.00     0.135 A 
ATOM     65  C   UNL     1      -7.767 -12.915  -8.784  1.00  0.00     0.135 A 
ATOM     66  F   UNL     1     -10.416 -12.670  -6.299  1.00  0.00    -0.206 F 
ATOM     67  C   UNL     1      -9.116 -14.512  -6.943  1.00  0.00     0.059 A 
ATOM     68  C   UNL     1      -7.436 -14.263  -8.678  1.00  0.00     0.059 A 
ATOM     69  F   UNL     1      -7.089 -12.167  -9.669  1.00  0.00    -0.206 F 
ATOM     70  C   UNL     1      -8.108 -15.050  -7.745  1.00  0.00     0.060 A 
BRANCH  70  71
ATOM     71  S   UNL     1      -7.699 -16.798  -7.555  1.00  0.00     0.124 S 
ATOM     72  O   UNL     1      -7.030 -16.801  -6.257  1.00  0.00    -0.237 OA
ATOM     73  O   UNL     1      -9.014 -17.431  -7.590  1.00  0.00    -0.237 OA
ATOM     74  O   UNL     1      -6.842 -17.075  -8.703  1.00  0.00    -0.744 OA
ENDBRANCH  70  71
ENDBRANCH  49  63
BRANCH  50  75
ATOM     75  C   UNL     1     -10.770  -2.547  -8.850  1.00  0.00     0.058 A 
ATOM     76  C   UNL     1     -12.076  -2.043  -8.927  1.00  0.00     0.135 A 
ATOM     77  C   UNL     1      -9.711  -1.626  -8.891  1.00  0.00     0.135 A 
ATOM     78  F   UNL     1     -13.122  -2.882  -8.894  1.00  0.00    -0.206 F 
ATOM     79  C   UNL     1     -12.326  -0.680  -9.057  1.00  0.00     0.059 A 
ATOM     80  C   UNL     1      -9.936  -0.256  -8.992  1.00  0.00     0.059 A 
ATOM     81  F   UNL     1      -8.443  -2.054  -8.800  1.00  0.00    -0.206 F 
ATOM     82  C   UNL     1     -11.248   0.206  -9.086  1.00  0.00     0.060 A 
BRANCH  82  83
ATOM     83  S   UNL     1     -11.586   1.976  -9.208  1.00  0.00     0.124 S 
ATOM     84  O   UNL     1     -12.040   2.093 -10.589  1.00  0.00    -0.237 OA
ATOM     85  O   UNL     1     -12.606   2.164  -8.181  1.00  0.00    -0.237 OA
ATOM     86  O   UNL     1     -10.292   2.586  -8.914  1.00  0.00    -0.744 OA
ENDBRANCH  82  83
ENDBRANCH  50  75
BRANCH  62  87
ATOM     87  C   UNL     1     -11.723  -8.075 -13.014  1.00  0.00     0.058 A 
ATOM     88  C   UNL     1     -11.055  -7.628 -14.164  1.00  0.00     0.135 A 
ATOM     89  C   UNL     1     -12.947  -8.743 -13.183  1.00  0.00     0.135 A 
ATOM     90  F   UNL     1      -9.885  -6.978 -14.057  1.00  0.00    -0.206 F 
ATOM     91  C   UNL     1     -11.588  -7.822 -15.434  1.00  0.00     0.059 A 
ATOM     92  C   UNL     1     -13.484  -8.975 -14.444  1.00  0.00     0.059 A 
ATOM     93  F   UNL     1     -13.621  -9.199 -12.115  1.00  0.00    -0.206 F 
ATOM     94  C   UNL     1     -12.801  -8.502 -15.563  1.00  0.00     0.060 A 
BRANCH  94  95
ATOM     95  S   UNL     1     -13.457  -8.788 -17.220  1.00  0.00     0.124 S 
ATOM     96  O   UNL     1     -13.895  -7.449 -17.599  1.00  0.00    -0.237 OA
ATOM     97  O   UNL     1     -12.290  -9.299 -17.933  1.00  0.00    -0.237 OA
ATOM     98  O   UNL     1     -14.525  -9.759 -17.001  1.00  0.00    -0.744 OA
ENDBRANCH  94  95
ENDBRANCH  62  87
ENDBRANCH  36  37
ENDBRANCH  28  31
ENDBRANCH  26  27
ENDBRANCH   1  26
TORSDOF 16
