REMARK SMILES Cc1cccc(C[C@H](C(=O)NCCCNC(=O)c2ccc(-c3c4nc(c(-c5c(F)cc(S(=O)(=O)[O-])cc5F)c5ccc([nH]5)c(-c5c(F)cc(S(=O)(=O)[O-])cc5F)c5nc(c(-c6c(F)cc(S(=O)(=O)[O-])cc6F)c6ccc3[nH]6)C=C5)C=C4)cc2)[C@@H]2CCCC[C@@H]2O)c1
REMARK SMILES IDX 13 1 12 2 11 3 9 4 10 5 8 7 7 8 6 9 1 10 2 11 3 12 91 13
REMARK SMILES IDX 4 14 5 15 84 16 85 17 89 18 86 19 88 20 87 21 90 22 14 24
REMARK SMILES IDX 15 25 16 26 17 28 18 29 19 30 83 31 20 32 82 33 21 34 22 35
REMARK SMILES IDX 23 36 76 37 24 38 81 39 75 40 77 41 25 42 80 43 74 44 73 45
REMARK SMILES IDX 26 47 60 48 39 49 59 50 40 51 43 52 58 53 78 54 41 55 42 56
REMARK SMILES IDX 57 58 79 59 44 60 27 61 28 62 37 63 29 64 30 65 36 66 38 67
REMARK SMILES IDX 31 68 32 69 33 70 34 71 35 72 61 73 62 74 71 75 63 76 64 77
REMARK SMILES IDX 70 78 72 79 65 80 66 81 67 82 68 83 69 84 45 85 46 86 55 87
REMARK SMILES IDX 47 88 48 89 54 90 56 91 49 92 50 93 51 94 52 95 53 96
REMARK H PARENT 11 6 90 23 15 27 77 46 43 57
REMARK Flexibility Score: inf
ROOT
ATOM      1  C   UNL     1      -1.705   1.336  -1.064  1.00  0.00     0.042 C 
ENDROOT
BRANCH   1   2
ATOM      2  C   UNL     1      -2.969   1.275  -0.201  1.00  0.00     0.117 C 
BRANCH   2   3
ATOM      3  N   UNL     1      -3.024   2.246   0.888  1.00  0.00    -0.356 N 
ATOM      4  C   UNL     1      -3.697   3.434   0.993  1.00  0.00     0.223 C 
ATOM      5  O   UNL     1      -3.682   3.996   2.092  1.00  0.00    -0.275 OA
ATOM      6  H   UNL     1      -2.489   2.006   1.679  1.00  0.00     0.163 HD
BRANCH   4   7
ATOM      7  C   UNL     1      -4.415   4.071  -0.232  1.00  0.00     0.088 C 
BRANCH   7   8
ATOM      8  C   UNL     1      -5.356   5.191   0.322  1.00  0.00     0.049 C 
BRANCH   8   9
ATOM      9  C   UNL     1      -6.407   5.844  -0.555  1.00  0.00    -0.047 A 
ATOM     10  C   UNL     1      -8.737   8.885  -0.364  1.00  0.00     0.044 C 
ATOM     11  C   UNL     1      -8.007   7.679  -0.877  1.00  0.00    -0.051 A 
ATOM     12  C   UNL     1      -8.279   7.209  -2.163  1.00  0.00     0.003 A 
ATOM     13  C   UNL     1      -7.053   7.009  -0.093  1.00  0.00     0.007 A 
ATOM     14  C   UNL     1      -7.687   6.034  -2.612  1.00  0.00     0.001 A 
ATOM     15  C   UNL     1      -6.801   5.335  -1.788  1.00  0.00     0.004 A 
ENDBRANCH   8   9
ENDBRANCH   7   8
BRANCH   7  16
ATOM     16  C   UNL     1      -3.305   4.498  -1.258  1.00  0.00     0.030 C 
ATOM     17  C   UNL     1      -2.732   5.918  -1.153  1.00  0.00     0.007 C 
ATOM     18  C   UNL     1      -3.440   4.035  -2.731  1.00  0.00     0.118 C 
ATOM     19  C   UNL     1      -3.360   6.925  -2.101  1.00  0.00     0.001 C 
ATOM     20  C   UNL     1      -3.966   5.069  -3.722  1.00  0.00     0.032 C 
ATOM     21  C   UNL     1      -3.339   6.443  -3.545  1.00  0.00     0.003 C 
BRANCH  18  22
ATOM     22  O   UNL     1      -4.151   2.812  -2.872  1.00  0.00    -0.393 OA
ATOM     23  H   UNL     1      -5.080   2.948  -2.627  1.00  0.00     0.210 HD
ENDBRANCH  18  22
ENDBRANCH   7  16
ENDBRANCH   4   7
ENDBRANCH   2   3
ENDBRANCH   1   2
BRANCH   1  24
ATOM     24  C   UNL     1      -0.519   0.543  -0.525  1.00  0.00     0.118 C 
BRANCH  24  25
ATOM     25  N   UNL     1       0.219  -0.090  -1.625  1.00  0.00    -0.352 N 
ATOM     26  C   UNL     1       1.520  -0.554  -1.655  1.00  0.00     0.251 C 
ATOM     27  H   UNL     1      -0.286  -0.201  -2.463  1.00  0.00     0.163 HD
ATOM     28  O   UNL     1       2.040  -1.016  -2.653  1.00  0.00    -0.269 OA
BRANCH  26  29
ATOM     29  C   UNL     1       2.241  -0.521  -0.374  1.00  0.00     0.039 A 
ATOM     30  C   UNL     1       2.305  -1.714   0.353  1.00  0.00     0.014 A 
ATOM     31  C   UNL     1       2.489   0.717   0.208  1.00  0.00     0.014 A 
ATOM     32  C   UNL     1       2.429  -1.650   1.736  1.00  0.00     0.010 A 
ATOM     33  C   UNL     1       2.531   0.778   1.586  1.00  0.00     0.010 A 
ATOM     34  C   UNL     1       2.441  -0.399   2.350  1.00  0.00    -0.014 A 
BRANCH  34  35
ATOM     35  C   UNL     1       2.279  -0.209   3.787  1.00  0.00     0.031 A 
ATOM     36  C   UNL     1       3.432   0.243   4.595  1.00  0.00     0.074 A 
ATOM     37  C   UNL     1       1.065  -0.351   4.361  1.00  0.00     0.049 A 
ATOM     38  N   UNL     1       3.489   0.220   5.883  1.00  0.00    -0.248 NA
ATOM     39  C   UNL     1       4.663   0.714   3.977  1.00  0.00     0.031 C 
ATOM     40  C   UNL     1       0.655   0.118   5.681  1.00  0.00     0.029 A 
ATOM     41  N   UNL     1       0.004  -1.154   3.933  1.00  0.00    -0.354 N 
ATOM     42  C   UNL     1       4.624   0.896   6.274  1.00  0.00     0.074 A 
ATOM     43  C   UNL     1       5.348   1.123   5.046  1.00  0.00     0.031 C 
ATOM     44  C   UNL     1      -0.416  -0.584   6.078  1.00  0.00     0.029 A 
ATOM     45  C   UNL     1      -0.644  -1.628   5.095  1.00  0.00     0.049 A 
ATOM     46  H   UNL     1      -0.243  -1.352   3.001  1.00  0.00     0.167 HD
ATOM     47  C   UNL     1       4.752   1.274   7.581  1.00  0.00     0.037 A 
ATOM     48  C   UNL     1      -0.667  -2.967   5.372  1.00  0.00     0.037 A 
ATOM     49  C   UNL     1       3.718   0.642   8.409  1.00  0.00     0.049 A 
ATOM     50  C   UNL     1       0.126  -3.370   6.600  1.00  0.00     0.074 A 
ATOM     51  C   UNL     1       2.495   1.045   8.921  1.00  0.00     0.029 A 
ATOM     52  N   UNL     1       3.763  -0.732   8.574  1.00  0.00    -0.354 N 
ATOM     53  N   UNL     1       0.770  -2.539   7.372  1.00  0.00    -0.248 NA
ATOM     54  C   UNL     1       0.313  -4.764   7.012  1.00  0.00     0.031 C 
ATOM     55  C   UNL     1       1.776  -0.122   9.320  1.00  0.00     0.029 A 
ATOM     56  C   UNL     1       2.568  -1.226   9.064  1.00  0.00     0.049 A 
ATOM     57  H   UNL     1       4.548  -1.288   8.368  1.00  0.00     0.167 HD
ATOM     58  C   UNL     1       1.504  -3.245   8.287  1.00  0.00     0.074 A 
ATOM     59  C   UNL     1       1.160  -4.634   8.047  1.00  0.00     0.031 C 
ATOM     60  C   UNL     1       2.385  -2.666   9.150  1.00  0.00     0.037 A 
BRANCH  47  61
ATOM     61  C   UNL     1       5.665   2.385   8.075  1.00  0.00     0.058 A 
ATOM     62  C   UNL     1       5.364   3.077   9.271  1.00  0.00     0.135 A 
ATOM     63  C   UNL     1       6.798   2.880   7.397  1.00  0.00     0.135 A 
ATOM     64  F   UNL     1       4.376   2.675  10.082  1.00  0.00    -0.206 F 
ATOM     65  C   UNL     1       6.052   4.221   9.689  1.00  0.00     0.059 A 
ATOM     66  C   UNL     1       7.468   4.051   7.763  1.00  0.00     0.059 A 
ATOM     67  F   UNL     1       7.360   2.222   6.381  1.00  0.00    -0.206 F 
ATOM     68  C   UNL     1       7.080   4.726   8.906  1.00  0.00     0.060 A 
BRANCH  68  69
ATOM     69  S   UNL     1       7.909   6.245   9.404  1.00  0.00     0.124 S 
ATOM     70  O   UNL     1       6.798   7.189   9.479  1.00  0.00    -0.237 OA
ATOM     71  O   UNL     1       8.508   5.863  10.678  1.00  0.00    -0.237 OA
ATOM     72  O   UNL     1       8.855   6.489   8.318  1.00  0.00    -0.744 OA
ENDBRANCH  68  69
ENDBRANCH  47  61
BRANCH  48  73
ATOM     73  C   UNL     1      -0.862  -3.790   4.147  1.00  0.00     0.058 A 
ATOM     74  C   UNL     1      -2.098  -3.668   3.480  1.00  0.00     0.135 A 
ATOM     75  C   UNL     1       0.227  -4.279   3.415  1.00  0.00     0.135 A 
ATOM     76  F   UNL     1      -3.178  -3.222   4.143  1.00  0.00    -0.206 F 
ATOM     77  C   UNL     1      -2.205  -3.845   2.107  1.00  0.00     0.059 A 
ATOM     78  C   UNL     1       0.139  -4.473   2.035  1.00  0.00     0.059 A 
ATOM     79  F   UNL     1       1.426  -4.423   4.000  1.00  0.00    -0.206 F 
ATOM     80  C   UNL     1      -1.061  -4.179   1.385  1.00  0.00     0.060 A 
BRANCH  80  81
ATOM     81  S   UNL     1      -1.130  -4.016  -0.415  1.00  0.00     0.124 S 
ATOM     82  O   UNL     1      -2.116  -5.029  -0.773  1.00  0.00    -0.237 OA
ATOM     83  O   UNL     1      -1.567  -2.629  -0.571  1.00  0.00    -0.237 OA
ATOM     84  O   UNL     1       0.240  -4.291  -0.828  1.00  0.00    -0.744 OA
ENDBRANCH  80  81
ENDBRANCH  48  73
BRANCH  60  85
ATOM     85  C   UNL     1       3.152  -3.461  10.158  1.00  0.00     0.058 A 
ATOM     86  C   UNL     1       2.497  -4.264  11.105  1.00  0.00     0.135 A 
ATOM     87  C   UNL     1       4.548  -3.335  10.287  1.00  0.00     0.135 A 
ATOM     88  F   UNL     1       1.164  -4.421  11.059  1.00  0.00    -0.206 F 
ATOM     89  C   UNL     1       3.191  -4.914  12.124  1.00  0.00     0.059 A 
ATOM     90  C   UNL     1       5.257  -3.943  11.320  1.00  0.00     0.059 A 
ATOM     91  F   UNL     1       5.262  -2.628   9.397  1.00  0.00    -0.206 F 
ATOM     92  C   UNL     1       4.570  -4.742  12.228  1.00  0.00     0.060 A 
BRANCH  92  93
ATOM     93  S   UNL     1       5.468  -5.535  13.577  1.00  0.00     0.124 S 
ATOM     94  O   UNL     1       4.484  -5.551  14.656  1.00  0.00    -0.237 OA
ATOM     95  O   UNL     1       5.781  -6.835  12.991  1.00  0.00    -0.237 OA
ATOM     96  O   UNL     1       6.606  -4.647  13.789  1.00  0.00    -0.744 OA
ENDBRANCH  92  93
ENDBRANCH  60  85
ENDBRANCH  34  35
ENDBRANCH  26  29
ENDBRANCH  24  25
ENDBRANCH   1  24
TORSDOF 17
