REMARK SMILES Cc1ccc(NC(=O)CN2C(=O)S/C(=C\c3cc(Cl)c(OCC(=O)NCCCNC(=O)c4ccc(-c5c6nc(c(-c7c(F)cc(S(=O)(=O)[O-])cc7F)c7ccc([nH]7)c(-c7c(F)cc(S(=O)(=O)[O-])cc7F)c7nc(c(-c8c(F)cc(S(=O)(=O)[O-])cc8F)c8ccc5[nH]8)C=C7)C=C6)cc4)c(Cl)c3)C2=O)cc1
REMARK SMILES IDX 23 1 24 2 25 3 22 5 21 6 20 7 16 8 17 9 100 10 18 11 98 12
REMARK SMILES IDX 19 13 99 14 15 15 10 16 11 17 101 18 12 19 13 20 14 21
REMARK SMILES IDX 102 22 9 23 7 24 6 25 8 27 5 28 1 29 2 30 3 31 104 32 4 33
REMARK SMILES IDX 103 34 26 35 27 36 28 37 29 38 30 39 31 41 32 42 33 43 97 44
REMARK SMILES IDX 34 45 96 46 35 47 36 48 37 49 90 50 38 51 95 52 89 53 91 54
REMARK SMILES IDX 39 55 94 56 88 57 87 58 40 60 74 61 53 62 73 63 54 64 57 65
REMARK SMILES IDX 72 66 92 67 55 68 56 69 71 71 93 72 58 73 41 74 42 75 51 76
REMARK SMILES IDX 43 77 44 78 50 79 52 80 45 81 46 82 47 83 48 84 49 85 75 86
REMARK SMILES IDX 76 87 85 88 77 89 78 90 84 91 86 92 79 93 80 94 81 95 82 96
REMARK SMILES IDX 83 97 59 98 60 99 69 100 61 101 62 102 68 103 70 104 63 105
REMARK SMILES IDX 64 106 65 107 66 108 67 109
REMARK H PARENT 25 4 6 26 29 40 91 59 57 70
REMARK Flexibility Score: inf
ROOT
ATOM      1  C   UNL     1      -7.527  -3.249 -10.758  1.00  0.00     0.257 C 
ATOM      2  O   UNL     1      -8.311  -3.296  -9.810  1.00  0.00    -0.271 OA
ATOM      3  N   UNL     1      -7.534  -4.296 -11.632  1.00  0.00    -0.353 N 
ATOM      4  H   UNL     1      -8.079  -5.068 -11.355  1.00  0.00     0.163 HD
ENDROOT
BRANCH   1   5
ATOM      5  C   UNL     1      -6.603  -2.037 -10.996  1.00  0.00     0.329 C 
BRANCH   5   6
ATOM      6  O   UNL     1      -5.209  -2.172 -10.787  1.00  0.00    -0.481 OA
BRANCH   6   7
ATOM      7  C   UNL     1      -4.640  -2.327  -9.551  1.00  0.00     0.157 A 
ATOM      8  C   UNL     1      -3.119  -2.771  -7.156  1.00  0.00    -0.021 A 
ATOM      9  C   UNL     1      -2.504  -2.863  -8.398  1.00  0.00     0.032 A 
ATOM     10  C   UNL     1      -4.491  -2.490  -7.135  1.00  0.00     0.032 A 
ATOM     11  C   UNL     1      -3.259  -2.655  -9.573  1.00  0.00     0.085 A 
ATOM     12  C   UNL     1      -5.225  -2.188  -8.292  1.00  0.00     0.085 A 
ATOM     13  Cl  UNL     1      -2.402  -2.788 -11.079  1.00  0.00    -0.080 Cl
ATOM     14  Cl  UNL     1      -6.777  -1.513  -7.951  1.00  0.00    -0.080 Cl
BRANCH   8  15
ATOM     15  C   UNL     1      -2.414  -3.014  -5.877  1.00  0.00     0.029 C 
ATOM     16  N   UNL     1      -3.135  -2.094  -2.514  1.00  0.00    -0.259 N 
ATOM     17  C   UNL     1      -3.966  -1.157  -3.075  1.00  0.00     0.294 C 
ATOM     18  C   UNL     1      -2.290  -2.746  -3.393  1.00  0.00     0.268 C 
ATOM     19  O   UNL     1      -4.987  -0.680  -2.618  1.00  0.00    -0.261 OA
ATOM     20  S   UNL     1      -3.374  -0.734  -4.663  1.00  0.00    -0.022 SA
ATOM     21  C   UNL     1      -2.550  -2.244  -4.780  1.00  0.00     0.083 C 
ATOM     22  O   UNL     1      -1.527  -3.663  -3.131  1.00  0.00    -0.268 OA
BRANCH  16  23
ATOM     23  C   UNL     1      -3.440  -2.635  -1.196  1.00  0.00     0.230 C 
BRANCH  23  24
ATOM     24  C   UNL     1      -3.803  -1.538  -0.187  1.00  0.00     0.244 C 
ATOM     25  N   UNL     1      -2.982  -0.468   0.031  1.00  0.00    -0.325 N 
ATOM     26  H   UNL     1      -3.453   0.354   0.299  1.00  0.00     0.169 HD
ATOM     27  O   UNL     1      -4.884  -1.562   0.411  1.00  0.00    -0.273 OA
BRANCH  25  28
ATOM     28  C   UNL     1      -1.592  -0.332  -0.058  1.00  0.00     0.041 A 
ATOM     29  C   UNL     1       2.676   0.295  -0.028  1.00  0.00     0.044 C 
ATOM     30  C   UNL     1       1.191   0.097  -0.036  1.00  0.00    -0.051 A 
ATOM     31  C   UNL     1       0.666  -1.197   0.028  1.00  0.00     0.005 A 
ATOM     32  C   UNL     1       0.311   1.180  -0.102  1.00  0.00     0.005 A 
ATOM     33  C   UNL     1      -0.715  -1.410   0.020  1.00  0.00     0.026 A 
ATOM     34  C   UNL     1      -1.071   0.966  -0.098  1.00  0.00     0.026 A 
ENDBRANCH  25  28
ENDBRANCH  23  24
ENDBRANCH  16  23
ENDBRANCH   8  15
ENDBRANCH   6   7
ENDBRANCH   5   6
ENDBRANCH   1   5
BRANCH   3  35
ATOM     35  C   UNL     1      -6.859  -4.445 -12.909  1.00  0.00     0.117 C 
BRANCH  35  36
ATOM     36  C   UNL     1      -5.502  -5.109 -12.778  1.00  0.00     0.042 C 
BRANCH  36  37
ATOM     37  C   UNL     1      -5.581  -6.589 -12.428  1.00  0.00     0.118 C 
BRANCH  37  38
ATOM     38  N   UNL     1      -5.573  -7.481 -13.585  1.00  0.00    -0.352 N 
ATOM     39  C   UNL     1      -5.099  -8.786 -13.651  1.00  0.00     0.251 C 
ATOM     40  H   UNL     1      -5.949  -7.114 -14.418  1.00  0.00     0.163 HD
ATOM     41  O   UNL     1      -4.729  -9.300 -14.700  1.00  0.00    -0.269 OA
BRANCH  39  42
ATOM     42  C   UNL     1      -5.248  -9.610 -12.433  1.00  0.00     0.039 A 
ATOM     43  C   UNL     1      -6.193 -10.646 -12.474  1.00  0.00     0.014 A 
ATOM     44  C   UNL     1      -4.789  -9.108 -11.226  1.00  0.00     0.014 A 
ATOM     45  C   UNL     1      -6.876 -10.988 -11.316  1.00  0.00     0.010 A 
ATOM     46  C   UNL     1      -5.577  -9.308 -10.127  1.00  0.00     0.010 A 
ATOM     47  C   UNL     1      -6.643 -10.218 -10.188  1.00  0.00    -0.014 A 
BRANCH  47  48
ATOM     48  C   UNL     1      -7.365 -10.315  -8.940  1.00  0.00     0.031 A 
ATOM     49  C   UNL     1      -6.665 -11.003  -7.840  1.00  0.00     0.074 A 
ATOM     50  C   UNL     1      -8.435  -9.509  -8.770  1.00  0.00     0.049 A 
ATOM     51  N   UNL     1      -7.155 -11.196  -6.673  1.00  0.00    -0.248 NA
ATOM     52  C   UNL     1      -5.320 -11.564  -7.991  1.00  0.00     0.031 C 
ATOM     53  C   UNL     1      -9.009  -9.019  -7.522  1.00  0.00     0.029 A 
ATOM     54  N   UNL     1      -9.355  -9.114  -9.748  1.00  0.00    -0.354 N 
ATOM     55  C   UNL     1      -6.129 -11.610  -5.850  1.00  0.00     0.074 A 
ATOM     56  C   UNL     1      -5.044 -11.930  -6.737  1.00  0.00     0.031 C 
ATOM     57  C   UNL     1     -10.281  -8.643  -7.745  1.00  0.00     0.029 A 
ATOM     58  C   UNL     1     -10.608  -9.049  -9.103  1.00  0.00     0.049 A 
ATOM     59  H   UNL     1      -9.166  -8.920 -10.694  1.00  0.00     0.167 HD
ATOM     60  C   UNL     1      -6.315 -11.486  -4.507  1.00  0.00     0.037 A 
ATOM     61  C   UNL     1     -11.573  -9.970  -9.409  1.00  0.00     0.037 A 
ATOM     62  C   UNL     1      -7.728 -11.197  -4.250  1.00  0.00     0.049 A 
ATOM     63  C   UNL     1     -11.893 -10.880  -8.243  1.00  0.00     0.074 A 
ATOM     64  C   UNL     1      -8.418 -10.027  -3.989  1.00  0.00     0.029 A 
ATOM     65  N   UNL     1      -8.677 -12.143  -4.630  1.00  0.00    -0.354 N 
ATOM     66  N   UNL     1     -11.059 -11.156  -7.274  1.00  0.00    -0.248 NA
ATOM     67  C   UNL     1     -13.206 -11.482  -8.037  1.00  0.00     0.031 C 
ATOM     68  C   UNL     1      -9.781 -10.249  -4.335  1.00  0.00     0.029 A 
ATOM     69  C   UNL     1      -9.922 -11.560  -4.763  1.00  0.00     0.049 A 
ATOM     70  H   UNL     1      -8.487 -13.097  -4.782  1.00  0.00     0.167 HD
ATOM     71  C   UNL     1     -11.689 -11.928  -6.331  1.00  0.00     0.074 A 
ATOM     72  C   UNL     1     -13.033 -12.098  -6.855  1.00  0.00     0.031 C 
ATOM     73  C   UNL     1     -11.072 -12.352  -5.184  1.00  0.00     0.037 A 
BRANCH  60  74
ATOM     74  C   UNL     1      -5.239 -11.406  -3.439  1.00  0.00     0.058 A 
ATOM     75  C   UNL     1      -5.604 -11.095  -2.108  1.00  0.00     0.135 A 
ATOM     76  C   UNL     1      -3.845 -11.500  -3.646  1.00  0.00     0.135 A 
ATOM     77  F   UNL     1      -6.891 -10.981  -1.748  1.00  0.00    -0.206 F 
ATOM     78  C   UNL     1      -4.675 -10.860  -1.091  1.00  0.00     0.059 A 
ATOM     79  C   UNL     1      -2.897 -11.290  -2.639  1.00  0.00     0.059 A 
ATOM     80  F   UNL     1      -3.309 -11.768  -4.839  1.00  0.00    -0.206 F 
ATOM     81  C   UNL     1      -3.319 -10.951  -1.366  1.00  0.00     0.060 A 
BRANCH  81  82
ATOM     82  S   UNL     1      -2.128 -10.619  -0.057  1.00  0.00     0.124 S 
ATOM     83  O   UNL     1      -2.360  -9.202   0.209  1.00  0.00    -0.237 OA
ATOM     84  O   UNL     1      -2.554 -11.542   0.989  1.00  0.00    -0.237 OA
ATOM     85  O   UNL     1      -0.843 -10.932  -0.676  1.00  0.00    -0.744 OA
ENDBRANCH  81  82
ENDBRANCH  60  74
BRANCH  61  86
ATOM     86  C   UNL     1     -11.559 -10.335 -10.861  1.00  0.00     0.058 A 
ATOM     87  C   UNL     1     -11.902  -9.310 -11.769  1.00  0.00     0.135 A 
ATOM     88  C   UNL     1     -10.748 -11.373 -11.346  1.00  0.00     0.135 A 
ATOM     89  F   UNL     1     -12.709  -8.310 -11.374  1.00  0.00    -0.206 F 
ATOM     90  C   UNL     1     -11.291  -9.196 -13.014  1.00  0.00     0.059 A 
ATOM     91  C   UNL     1     -10.141 -11.288 -12.605  1.00  0.00     0.059 A 
ATOM     92  F   UNL     1     -10.403 -12.391 -10.545  1.00  0.00    -0.206 F 
ATOM     93  C   UNL     1     -10.347 -10.149 -13.385  1.00  0.00     0.060 A 
BRANCH  93  94
ATOM     94  S   UNL     1      -9.272  -9.765 -14.793  1.00  0.00     0.124 S 
ATOM     95  O   UNL     1     -10.236  -9.578 -15.871  1.00  0.00    -0.237 OA
ATOM     96  O   UNL     1      -8.597  -8.549 -14.334  1.00  0.00    -0.237 OA
ATOM     97  O   UNL     1      -8.431 -10.950 -14.904  1.00  0.00    -0.744 OA
ENDBRANCH  93  94
ENDBRANCH  61  86
BRANCH  73  98
ATOM     98  C   UNL     1     -11.549 -13.484  -4.291  1.00  0.00     0.058 A 
ATOM     99  C   UNL     1     -12.438 -14.492  -4.703  1.00  0.00     0.135 A 
ATOM    100  C   UNL     1     -10.994 -13.671  -2.998  1.00  0.00     0.135 A 
ATOM    101  F   UNL     1     -12.925 -14.539  -5.950  1.00  0.00    -0.206 F 
ATOM    102  C   UNL     1     -12.832 -15.536  -3.865  1.00  0.00     0.059 A 
ATOM    103  C   UNL     1     -11.313 -14.748  -2.176  1.00  0.00     0.059 A 
ATOM    104  F   UNL     1     -10.096 -12.819  -2.481  1.00  0.00    -0.206 F 
ATOM    105  C   UNL     1     -12.269 -15.653  -2.600  1.00  0.00     0.060 A 
BRANCH 105 106
ATOM    106  S   UNL     1     -12.767 -17.012  -1.533  1.00  0.00     0.124 S 
ATOM    107  O   UNL     1     -13.998 -16.484  -0.952  1.00  0.00    -0.237 OA
ATOM    108  O   UNL     1     -12.937 -18.113  -2.476  1.00  0.00    -0.237 OA
ATOM    109  O   UNL     1     -11.643 -17.151  -0.614  1.00  0.00    -0.744 OA
ENDBRANCH 105 106
ENDBRANCH  73  98
ENDBRANCH  47  48
ENDBRANCH  39  42
ENDBRANCH  37  38
ENDBRANCH  36  37
ENDBRANCH  35  36
ENDBRANCH   3  35
TORSDOF 19
