REMARK SMILES O=C(NCCCNC(=O)c1ccc(N2C(=O)C[C@H](c3c[nH]c4ccccc34)C2=O)cc1O)c1ccc(-c2c3nc(c(-c4c(F)cc(S(=O)(=O)[O-])cc4F)c4ccc([nH]4)c(-c4c(F)cc(S(=O)(=O)[O-])cc4F)c4nc(c(-c5c(F)cc(S(=O)(=O)[O-])cc5F)c5ccc2[nH]5)C=C4)C=C3)cc1
REMARK SMILES IDX 4 1 3 2 1 3 2 4 33 6 34 7 98 8 35 9 97 10 36 11 37 12 38 13
REMARK SMILES IDX 91 14 39 15 96 16 90 17 92 18 40 19 95 20 89 21 88 22 41 24
REMARK SMILES IDX 75 25 54 26 74 27 55 28 58 29 73 30 93 31 56 32 57 33 72 35
REMARK SMILES IDX 94 36 59 37 42 38 43 39 52 40 44 41 45 42 51 43 53 44 46 45
REMARK SMILES IDX 47 46 48 47 49 48 50 49 76 50 77 51 86 52 78 53 79 54 85 55
REMARK SMILES IDX 87 56 80 57 81 58 82 59 83 60 84 61 60 62 61 63 70 64 62 65
REMARK SMILES IDX 63 66 69 67 71 68 64 69 65 70 66 71 67 72 68 73 5 74 6 75
REMARK SMILES IDX 7 76 8 77 9 79 10 80 11 81 31 82 12 83 30 84 13 85 32 86
REMARK SMILES IDX 14 88 15 89 28 90 16 91 17 92 18 93 29 94 19 95 20 96 27 97
REMARK SMILES IDX 21 98 22 99 26 100 23 102 25 103 24 104
REMARK H PARENT 3 5 92 23 58 34 7 78 32 87 21 101
REMARK Flexibility Score: inf
ROOT
ATOM      1  C   UNL     1       4.626  -0.442  -1.346  1.00  0.00     0.118 C 
ENDROOT
BRANCH   1   2
ATOM      2  N   UNL     1       3.195  -0.239  -1.160  1.00  0.00    -0.352 N 
ATOM      3  O   UNL     1       1.246  -0.011  -0.059  1.00  0.00    -0.269 OA
ATOM      4  C   UNL     1       2.474   0.038  -0.023  1.00  0.00     0.251 C 
ATOM      5  H   UNL     1       2.658  -0.311  -1.982  1.00  0.00     0.163 HD
BRANCH   4   6
ATOM      6  C   UNL     1       3.164   0.367   1.243  1.00  0.00     0.039 A 
ATOM      7  C   UNL     1       4.287   1.194   1.252  1.00  0.00     0.014 A 
ATOM      8  C   UNL     1       2.669  -0.145   2.447  1.00  0.00     0.014 A 
ATOM      9  C   UNL     1       5.016   1.359   2.423  1.00  0.00     0.010 A 
ATOM     10  C   UNL     1       3.344   0.114   3.645  1.00  0.00     0.010 A 
ATOM     11  C   UNL     1       4.546   0.836   3.638  1.00  0.00    -0.014 A 
BRANCH  11  12
ATOM     12  C   UNL     1       5.308   1.112   4.884  1.00  0.00     0.031 A 
ATOM     13  C   UNL     1       5.933  -0.001   5.681  1.00  0.00     0.074 A 
ATOM     14  C   UNL     1       5.474   2.394   5.265  1.00  0.00     0.049 A 
ATOM     15  N   UNL     1       6.665   0.075   6.764  1.00  0.00    -0.248 NA
ATOM     16  C   UNL     1       5.703  -1.376   5.211  1.00  0.00     0.031 C 
ATOM     17  C   UNL     1       4.902   3.557   4.579  1.00  0.00     0.029 A 
ATOM     18  N   UNL     1       6.191   2.941   6.298  1.00  0.00    -0.354 N 
ATOM     19  C   UNL     1       6.963  -1.236   7.118  1.00  0.00     0.074 A 
ATOM     20  C   UNL     1       6.313  -2.090   6.147  1.00  0.00     0.031 C 
ATOM     21  C   UNL     1       5.342   4.678   5.169  1.00  0.00     0.029 A 
ATOM     22  C   UNL     1       6.170   4.316   6.312  1.00  0.00     0.049 A 
ATOM     23  H   UNL     1       6.674   2.402   6.965  1.00  0.00     0.167 HD
ATOM     24  C   UNL     1       7.716  -1.683   8.153  1.00  0.00     0.037 A 
ATOM     25  C   UNL     1       6.746   5.192   7.156  1.00  0.00     0.037 A 
ATOM     26  C   UNL     1       8.378  -0.824   9.102  1.00  0.00     0.049 A 
ATOM     27  C   UNL     1       7.571   4.670   8.295  1.00  0.00     0.074 A 
ATOM     28  C   UNL     1       9.188  -1.179  10.168  1.00  0.00     0.029 A 
ATOM     29  N   UNL     1       8.307   0.562   9.102  1.00  0.00    -0.354 N 
ATOM     30  N   UNL     1       7.856   3.427   8.601  1.00  0.00    -0.248 NA
ATOM     31  C   UNL     1       8.145   5.667   9.207  1.00  0.00     0.031 C 
ATOM     32  C   UNL     1       9.577  -0.010  10.832  1.00  0.00     0.029 A 
ATOM     33  C   UNL     1       9.044   1.076  10.158  1.00  0.00     0.049 A 
ATOM     34  H   UNL     1       7.807   1.102   8.448  1.00  0.00     0.167 HD
ATOM     35  C   UNL     1       8.654   3.492   9.736  1.00  0.00     0.074 A 
ATOM     36  C   UNL     1       8.821   4.897  10.049  1.00  0.00     0.031 C 
ATOM     37  C   UNL     1       9.196   2.478  10.456  1.00  0.00     0.037 A 
BRANCH  24  38
ATOM     38  C   UNL     1       7.851  -3.172   8.326  1.00  0.00     0.058 A 
ATOM     39  C   UNL     1       8.637  -3.950   7.461  1.00  0.00     0.135 A 
ATOM     40  C   UNL     1       7.211  -3.826   9.392  1.00  0.00     0.135 A 
ATOM     41  F   UNL     1       9.260  -3.379   6.417  1.00  0.00    -0.206 F 
ATOM     42  C   UNL     1       8.760  -5.326   7.628  1.00  0.00     0.059 A 
ATOM     43  C   UNL     1       7.338  -5.199   9.591  1.00  0.00     0.059 A 
ATOM     44  F   UNL     1       6.449  -3.131  10.251  1.00  0.00    -0.206 F 
ATOM     45  C   UNL     1       8.102  -5.943   8.693  1.00  0.00     0.060 A 
BRANCH  45  46
ATOM     46  S   UNL     1       8.259  -7.731   8.890  1.00  0.00     0.124 S 
ATOM     47  O   UNL     1       7.392  -8.217   7.820  1.00  0.00    -0.237 OA
ATOM     48  O   UNL     1       9.689  -7.945   8.691  1.00  0.00    -0.237 OA
ATOM     49  O   UNL     1       7.775  -7.969  10.246  1.00  0.00    -0.744 OA
ENDBRANCH  45  46
ENDBRANCH  24  38
BRANCH  25  50
ATOM     50  C   UNL     1       6.556   6.650   6.944  1.00  0.00     0.058 A 
ATOM     51  C   UNL     1       7.612   7.460   6.504  1.00  0.00     0.135 A 
ATOM     52  C   UNL     1       5.304   7.255   7.142  1.00  0.00     0.135 A 
ATOM     53  F   UNL     1       8.827   6.927   6.304  1.00  0.00    -0.206 F 
ATOM     54  C   UNL     1       7.438   8.820   6.274  1.00  0.00     0.059 A 
ATOM     55  C   UNL     1       5.099   8.607   6.894  1.00  0.00     0.059 A 
ATOM     56  F   UNL     1       4.257   6.518   7.545  1.00  0.00    -0.206 F 
ATOM     57  C   UNL     1       6.176   9.384   6.468  1.00  0.00     0.060 A 
BRANCH  57  58
ATOM     58  S   UNL     1       5.941  11.139   6.111  1.00  0.00     0.124 S 
ATOM     59  O   UNL     1       6.555  11.759   7.279  1.00  0.00    -0.237 OA
ATOM     60  O   UNL     1       6.661  11.296   4.851  1.00  0.00    -0.237 OA
ATOM     61  O   UNL     1       4.490  11.268   6.014  1.00  0.00    -0.744 OA
ENDBRANCH  57  58
ENDBRANCH  25  50
BRANCH  37  62
ATOM     62  C   UNL     1      10.038   2.861  11.640  1.00  0.00     0.058 A 
ATOM     63  C   UNL     1       9.461   3.339  12.826  1.00  0.00     0.135 A 
ATOM     64  C   UNL     1      11.434   2.725  11.594  1.00  0.00     0.135 A 
ATOM     65  F   UNL     1       8.131   3.496  12.916  1.00  0.00    -0.206 F 
ATOM     66  C   UNL     1      10.244   3.697  13.919  1.00  0.00     0.059 A 
ATOM     67  C   UNL     1      12.234   3.054  12.683  1.00  0.00     0.059 A 
ATOM     68  F   UNL     1      12.033   2.264  10.484  1.00  0.00    -0.206 F 
ATOM     69  C   UNL     1      11.630   3.553  13.837  1.00  0.00     0.060 A 
BRANCH  69  70
ATOM     70  S   UNL     1      12.636   4.002  15.267  1.00  0.00     0.124 S 
ATOM     71  O   UNL     1      12.641   5.458  15.177  1.00  0.00    -0.237 OA
ATOM     72  O   UNL     1      11.875   3.437  16.377  1.00  0.00    -0.237 OA
ATOM     73  O   UNL     1      13.915   3.350  14.998  1.00  0.00    -0.744 OA
ENDBRANCH  69  70
ENDBRANCH  37  62
ENDBRANCH  11  12
ENDBRANCH   4   6
ENDBRANCH   1   2
BRANCH   1  74
ATOM     74  C   UNL     1       4.975  -1.874  -1.724  1.00  0.00     0.042 C 
BRANCH  74  75
ATOM     75  C   UNL     1       4.422  -2.302  -3.075  1.00  0.00     0.118 C 
BRANCH  75  76
ATOM     76  N   UNL     1       4.961  -1.503  -4.165  1.00  0.00    -0.352 N 
ATOM     77  C   UNL     1       5.774  -1.897  -5.196  1.00  0.00     0.255 C 
ATOM     78  H   UNL     1       4.708  -0.552  -4.161  1.00  0.00     0.163 HD
ATOM     79  O   UNL     1       6.240  -1.072  -5.977  1.00  0.00    -0.269 OA
BRANCH  77  80
ATOM     80  C   UNL     1       6.143  -3.316  -5.332  1.00  0.00     0.081 A 
ATOM     81  C   UNL     1       7.494  -3.651  -5.245  1.00  0.00     0.020 A 
ATOM     82  C   UNL     1       5.194  -4.314  -5.557  1.00  0.00     0.130 A 
ATOM     83  C   UNL     1       7.889  -4.990  -5.339  1.00  0.00     0.028 A 
ATOM     84  C   UNL     1       5.594  -5.646  -5.665  1.00  0.00     0.073 A 
ATOM     85  C   UNL     1       6.948  -6.009  -5.556  1.00  0.00     0.055 A 
BRANCH  82  86
ATOM     86  O   UNL     1       3.866  -3.999  -5.655  1.00  0.00    -0.507 OA
ATOM     87  H   UNL     1       3.589  -3.107  -5.584  1.00  0.00     0.293 HD
ENDBRANCH  82  86
BRANCH  85  88
ATOM     88  N   UNL     1       7.349  -7.369  -5.695  1.00  0.00    -0.250 N 
ATOM     89  C   UNL     1       6.657  -8.297  -6.438  1.00  0.00     0.234 C 
ATOM     90  C   UNL     1       8.491  -7.911  -5.141  1.00  0.00     0.241 C 
ATOM     91  O   UNL     1       5.603  -8.166  -7.049  1.00  0.00    -0.274 OA
ATOM     92  C   UNL     1       7.468  -9.547  -6.537  1.00  0.00     0.119 C 
ATOM     93  C   UNL     1       8.545  -9.382  -5.482  1.00  0.00     0.121 C 
ATOM     94  O   UNL     1       9.332  -7.352  -4.447  1.00  0.00    -0.273 OA
BRANCH  93  95
ATOM     95  C   UNL     1       8.330 -10.313  -4.323  1.00  0.00    -0.010 A 
ATOM     96  C   UNL     1       7.903 -10.028  -3.040  1.00  0.00     0.088 A 
ATOM     97  C   UNL     1       8.513 -11.736  -4.385  1.00  0.00     0.003 A 
ATOM     98  N   UNL     1       7.826 -11.204  -2.336  1.00  0.00    -0.361 N 
ATOM     99  C   UNL     1       8.170 -12.264  -3.142  1.00  0.00     0.046 A 
ATOM    100  C   UNL     1       8.925 -12.621  -5.403  1.00  0.00     0.010 A 
ATOM    101  H   UNL     1       7.561 -11.278  -1.391  1.00  0.00     0.166 HD
ATOM    102  C   UNL     1       8.209 -13.636  -2.868  1.00  0.00     0.026 A 
ATOM    103  C   UNL     1       8.968 -13.995  -5.148  1.00  0.00     0.001 A 
ATOM    104  C   UNL     1       8.612 -14.493  -3.898  1.00  0.00     0.002 A 
ENDBRANCH  93  95
ENDBRANCH  85  88
ENDBRANCH  77  80
ENDBRANCH  75  76
ENDBRANCH  74  75
ENDBRANCH   1  74
TORSDOF 16
