REMARK SMILES O=C(C[C@@H]([NH2+]Cc1cccnc1)C(=O)NCCCNC(=O)c1ccc(-c2c3nc(c(-c4c(F)cc(S(=O)(=O)[O-])cc4F)c4ccc([nH]4)c(-c4c(F)cc(S(=O)(=O)[O-])cc4F)c4nc(c(-c5c(F)cc(S(=O)(=O)[O-])cc5F)c5ccc2[nH]5)C=C4)C=C3)cc1)Nc1ccc2ccccc2c1
REMARK SMILES IDX 17 1 16 2 15 3 13 4 14 5 4 7 3 8 2 9 1 10 88 11 89 13 90 14
REMARK SMILES IDX 98 15 91 16 97 17 92 18 96 19 93 20 95 21 94 22 5 23 6 26
REMARK SMILES IDX 7 27 8 28 12 29 9 30 11 31 10 32 18 33 19 34 20 35 21 37
REMARK SMILES IDX 22 38 23 39 87 40 24 41 86 42 25 43 26 44 27 45 80 46 28 47
REMARK SMILES IDX 85 48 79 49 81 50 29 51 84 52 78 53 77 54 30 56 64 57 43 58
REMARK SMILES IDX 63 59 44 60 47 61 62 62 82 63 45 64 46 65 61 67 83 68 48 69
REMARK SMILES IDX 31 70 32 71 41 72 33 73 34 74 40 75 42 76 35 77 36 78 37 79
REMARK SMILES IDX 38 80 39 81 65 82 66 83 75 84 67 85 68 86 74 87 76 88 69 89
REMARK SMILES IDX 70 90 71 91 72 92 73 93 49 94 50 95 59 96 51 97 52 98 58 99
REMARK SMILES IDX 60 100 53 101 54 102 55 103 56 104 57 105
REMARK H PARENT 15 6 88 12 5 24 5 25 19 36 81 55 47 66
REMARK Flexibility Score: inf
ROOT
ATOM      1  C   UNL     1       5.491   1.875  -2.905  1.00  0.00     0.042 C 
ENDROOT
BRANCH   1   2
ATOM      2  C   UNL     1       5.891   1.713  -1.444  1.00  0.00     0.118 C 
BRANCH   2   3
ATOM      3  N   UNL     1       5.402   2.817  -0.638  1.00  0.00    -0.351 N 
ATOM      4  C   UNL     1       4.413   2.854   0.299  1.00  0.00     0.278 C 
ATOM      5  O   UNL     1       4.202   3.931   0.863  1.00  0.00    -0.268 OA
ATOM      6  H   UNL     1       5.856   3.676  -0.793  1.00  0.00     0.163 HD
BRANCH   4   7
ATOM      7  C   UNL     1       3.635   1.586   0.702  1.00  0.00     0.282 C 
BRANCH   7   8
ATOM      8  C   UNL     1       2.771   1.100  -0.480  1.00  0.00     0.175 C 
BRANCH   8   9
ATOM      9  C   UNL     1       1.926  -0.116  -0.161  1.00  0.00     0.230 C 
ATOM     10  O   UNL     1       0.703  -0.058  -0.096  1.00  0.00    -0.274 OA
ATOM     11  N   UNL     1       2.698  -1.239   0.088  1.00  0.00    -0.326 N 
ATOM     12  H   UNL     1       3.658  -1.206  -0.125  1.00  0.00     0.169 HD
BRANCH  11  13
ATOM     13  C   UNL     1       2.174  -2.419   0.630  1.00  0.00     0.041 A 
ATOM     14  C   UNL     1       2.698  -2.864   1.842  1.00  0.00     0.027 A 
ATOM     15  C   UNL     1       1.194  -3.160  -0.028  1.00  0.00     0.034 A 
ATOM     16  C   UNL     1       2.162  -3.990   2.461  1.00  0.00     0.011 A 
ATOM     17  C   UNL     1       0.752  -4.380   0.518  1.00  0.00    -0.016 A 
ATOM     18  C   UNL     1       1.196  -4.764   1.806  1.00  0.00    -0.018 A 
ATOM     19  C   UNL     1      -0.093  -5.249  -0.191  1.00  0.00     0.009 A 
ATOM     20  C   UNL     1       0.697  -5.934   2.394  1.00  0.00     0.009 A 
ATOM     21  C   UNL     1      -0.510  -6.457   0.373  1.00  0.00     0.001 A 
ATOM     22  C   UNL     1      -0.144  -6.783   1.676  1.00  0.00     0.001 A 
ENDBRANCH  11  13
ENDBRANCH   8   9
ENDBRANCH   7   8
BRANCH   7  23
ATOM     23  N   UNL     1       4.552   0.538   1.258  1.00  0.00    -0.332 N 
ATOM     24  H   UNL     1       5.119   0.169   0.495  1.00  0.00     0.347 HD
ATOM     25  H   UNL     1       3.963  -0.175   1.688  1.00  0.00     0.347 HD
BRANCH  23  26
ATOM     26  C   UNL     1       5.459   1.038   2.312  1.00  0.00     0.299 C 
BRANCH  26  27
ATOM     27  C   UNL     1       4.739   1.328   3.599  1.00  0.00     0.024 A 
ATOM     28  C   UNL     1       4.165   0.300   4.355  1.00  0.00     0.013 A 
ATOM     29  C   UNL     1       4.565   2.632   4.052  1.00  0.00     0.120 A 
ATOM     30  C   UNL     1       3.419   0.609   5.486  1.00  0.00     0.021 A 
ATOM     31  N   UNL     1       3.868   2.956   5.164  1.00  0.00    -0.264 NA
ATOM     32  C   UNL     1       3.296   1.940   5.844  1.00  0.00     0.111 A 
ENDBRANCH  26  27
ENDBRANCH  23  26
ENDBRANCH   7  23
ENDBRANCH   4   7
ENDBRANCH   2   3
ENDBRANCH   1   2
BRANCH   1  33
ATOM     33  C   UNL     1       6.172   3.053  -3.591  1.00  0.00     0.118 C 
BRANCH  33  34
ATOM     34  N   UNL     1       7.612   2.869  -3.703  1.00  0.00    -0.352 N 
ATOM     35  C   UNL     1       8.401   2.776  -4.824  1.00  0.00     0.251 C 
ATOM     36  H   UNL     1       8.093   2.802  -2.847  1.00  0.00     0.163 HD
ATOM     37  O   UNL     1       9.563   2.402  -4.715  1.00  0.00    -0.269 OA
BRANCH  35  38
ATOM     38  C   UNL     1       7.842   3.105  -6.153  1.00  0.00     0.039 A 
ATOM     39  C   UNL     1       8.146   2.280  -7.238  1.00  0.00     0.014 A 
ATOM     40  C   UNL     1       7.024   4.224  -6.332  1.00  0.00     0.014 A 
ATOM     41  C   UNL     1       7.572   2.537  -8.485  1.00  0.00     0.010 A 
ATOM     42  C   UNL     1       6.387   4.429  -7.551  1.00  0.00     0.010 A 
ATOM     43  C   UNL     1       6.654   3.588  -8.642  1.00  0.00    -0.014 A 
BRANCH  43  44
ATOM     44  C   UNL     1       5.952   3.817  -9.931  1.00  0.00     0.031 A 
ATOM     45  C   UNL     1       6.146   5.107 -10.681  1.00  0.00     0.074 A 
ATOM     46  C   UNL     1       5.086   2.892 -10.389  1.00  0.00     0.049 A 
ATOM     47  N   UNL     1       5.562   5.521 -11.776  1.00  0.00    -0.248 NA
ATOM     48  C   UNL     1       7.104   6.070 -10.113  1.00  0.00     0.031 C 
ATOM     49  C   UNL     1       4.779   1.620  -9.729  1.00  0.00     0.029 A 
ATOM     50  N   UNL     1       4.294   2.879 -11.510  1.00  0.00    -0.354 N 
ATOM     51  C   UNL     1       6.071   6.792 -12.021  1.00  0.00     0.074 A 
ATOM     52  C   UNL     1       6.969   7.104 -10.930  1.00  0.00     0.031 C 
ATOM     53  C   UNL     1       3.884   0.945 -10.467  1.00  0.00     0.029 A 
ATOM     54  C   UNL     1       3.516   1.751 -11.626  1.00  0.00     0.049 A 
ATOM     55  H   UNL     1       4.283   3.610 -12.170  1.00  0.00     0.167 HD
ATOM     56  C   UNL     1       5.829   7.613 -13.070  1.00  0.00     0.037 A 
ATOM     57  C   UNL     1       2.600   1.409 -12.553  1.00  0.00     0.037 A 
ATOM     58  C   UNL     1       4.945   7.287 -14.159  1.00  0.00     0.049 A 
ATOM     59  C   UNL     1       2.330   2.349 -13.697  1.00  0.00     0.074 A 
ATOM     60  C   UNL     1       4.673   8.028 -15.297  1.00  0.00     0.029 A 
ATOM     61  N   UNL     1       4.183   6.131 -14.245  1.00  0.00    -0.354 N 
ATOM     62  N   UNL     1       2.870   3.518 -13.948  1.00  0.00    -0.248 NA
ATOM     63  C   UNL     1       1.330   1.924 -14.685  1.00  0.00     0.031 C 
ATOM     64  C   UNL     1       3.706   7.346 -16.042  1.00  0.00     0.029 A 
ATOM     65  C   UNL     1       3.420   6.151 -15.402  1.00  0.00     0.049 A 
ATOM     66  H   UNL     1       4.184   5.403 -13.582  1.00  0.00     0.167 HD
ATOM     67  C   UNL     1       2.297   3.954 -15.137  1.00  0.00     0.074 A 
ATOM     68  C   UNL     1       1.379   2.918 -15.562  1.00  0.00     0.031 C 
ATOM     69  C   UNL     1       2.514   5.107 -15.817  1.00  0.00     0.037 A 
BRANCH  56  70
ATOM     70  C   UNL     1       6.529   8.946 -13.094  1.00  0.00     0.058 A 
ATOM     71  C   UNL     1       7.917   9.048 -13.290  1.00  0.00     0.135 A 
ATOM     72  C   UNL     1       5.800  10.139 -12.960  1.00  0.00     0.135 A 
ATOM     73  F   UNL     1       8.667   7.941 -13.409  1.00  0.00    -0.206 F 
ATOM     74  C   UNL     1       8.559  10.281 -13.323  1.00  0.00     0.059 A 
ATOM     75  C   UNL     1       6.417  11.385 -13.022  1.00  0.00     0.059 A 
ATOM     76  F   UNL     1       4.472  10.102 -12.771  1.00  0.00    -0.206 F 
ATOM     77  C   UNL     1       7.800  11.445 -13.189  1.00  0.00     0.060 A 
BRANCH  77  78
ATOM     78  S   UNL     1       8.650  13.037 -13.242  1.00  0.00     0.124 S 
ATOM     79  O   UNL     1       9.360  13.029 -11.966  1.00  0.00    -0.237 OA
ATOM     80  O   UNL     1       9.484  12.904 -14.432  1.00  0.00    -0.237 OA
ATOM     81  O   UNL     1       7.561  14.002 -13.347  1.00  0.00    -0.744 OA
ENDBRANCH  77  78
ENDBRANCH  56  70
BRANCH  57  82
ATOM     82  C   UNL     1       1.880   0.111 -12.444  1.00  0.00     0.058 A 
ATOM     83  C   UNL     1       2.113  -0.924 -13.361  1.00  0.00     0.135 A 
ATOM     84  C   UNL     1       0.954  -0.127 -11.415  1.00  0.00     0.135 A 
ATOM     85  F   UNL     1       2.983  -0.745 -14.367  1.00  0.00    -0.206 F 
ATOM     86  C   UNL     1       1.444  -2.141 -13.276  1.00  0.00     0.059 A 
ATOM     87  C   UNL     1       0.293  -1.345 -11.291  1.00  0.00     0.059 A 
ATOM     88  F   UNL     1       0.706   0.823 -10.500  1.00  0.00    -0.206 F 
ATOM     89  C   UNL     1       0.538  -2.343 -12.233  1.00  0.00     0.060 A 
BRANCH  89  90
ATOM     90  S   UNL     1      -0.289  -3.943 -12.104  1.00  0.00     0.124 S 
ATOM     91  O   UNL     1      -1.210  -3.890 -13.233  1.00  0.00    -0.237 OA
ATOM     92  O   UNL     1       0.828  -4.874 -12.233  1.00  0.00    -0.237 OA
ATOM     93  O   UNL     1      -0.906  -3.897 -10.782  1.00  0.00    -0.744 OA
ENDBRANCH  89  90
ENDBRANCH  57  82
BRANCH  69  94
ATOM     94  C   UNL     1       1.774   5.302 -17.113  1.00  0.00     0.058 A 
ATOM     95  C   UNL     1       0.395   5.559 -17.148  1.00  0.00     0.135 A 
ATOM     96  C   UNL     1       2.470   5.292 -18.334  1.00  0.00     0.135 A 
ATOM     97  F   UNL     1      -0.319   5.572 -16.011  1.00  0.00    -0.206 F 
ATOM     98  C   UNL     1      -0.272   5.782 -18.348  1.00  0.00     0.059 A 
ATOM     99  C   UNL     1       1.829   5.543 -19.543  1.00  0.00     0.059 A 
ATOM    100  F   UNL     1       3.792   5.059 -18.358  1.00  0.00    -0.206 F 
ATOM    101  C   UNL     1       0.455   5.777 -19.540  1.00  0.00     0.060 A 
BRANCH 101 102
ATOM    102  S   UNL     1      -0.417   6.113 -21.085  1.00  0.00     0.124 S 
ATOM    103  O   UNL     1      -1.186   4.886 -21.262  1.00  0.00    -0.237 OA
ATOM    104  O   UNL     1      -1.191   7.304 -20.753  1.00  0.00    -0.237 OA
ATOM    105  O   UNL     1       0.661   6.321 -22.047  1.00  0.00    -0.744 OA
ENDBRANCH 101 102
ENDBRANCH  69  94
ENDBRANCH  43  44
ENDBRANCH  35  38
ENDBRANCH  33  34
ENDBRANCH   1  33
TORSDOF 19
