REMARK SMILES CC[C@H](C)[C@H](C(=O)NCCCNC(=O)c1ccc(-c2c3nc(c(-c4c(F)cc(S(=O)(=O)[O-])cc4F)c4ccc([nH]4)c(-c4c(F)cc(S(=O)(=O)[O-])cc4F)c4nc(c(-c5c(F)cc(S(=O)(=O)[O-])cc5F)c5ccc2[nH]5)C=C4)C=C3)cc1)[NH+]1CC2(CC2)C1
REMARK SMILES IDX 10 1 9 2 8 3 6 4 7 5 5 7 3 8 4 9 2 10 1 11 81 12 82 13 86 14
REMARK SMILES IDX 83 16 84 17 85 18 11 19 12 20 13 21 14 23 15 24 16 25 80 26
REMARK SMILES IDX 17 27 79 28 18 29 19 30 20 31 73 32 21 33 78 34 72 35 74 36
REMARK SMILES IDX 22 37 77 38 71 39 70 40 23 42 57 43 36 44 56 45 37 46 40 47
REMARK SMILES IDX 55 48 75 49 38 50 39 51 54 53 76 54 41 55 24 56 25 57 34 58
REMARK SMILES IDX 26 59 27 60 33 61 35 62 28 63 29 64 30 65 31 66 32 67 58 68
REMARK SMILES IDX 59 69 68 70 60 71 61 72 67 73 69 74 62 75 63 76 64 77 65 78
REMARK SMILES IDX 66 79 42 80 43 81 52 82 44 83 45 84 51 85 53 86 46 87 47 88
REMARK SMILES IDX 48 89 49 90 50 91
REMARK H PARENT 8 6 81 15 12 22 74 41 40 52
REMARK Flexibility Score: inf
ROOT
ATOM      1  C   UNL     1      -0.768  -1.963  -0.778  1.00  0.00     0.042 C 
ENDROOT
BRANCH   1   2
ATOM      2  C   UNL     1       0.188  -2.397   0.318  1.00  0.00     0.118 C 
BRANCH   2   3
ATOM      3  N   UNL     1       0.814  -1.309   1.050  1.00  0.00    -0.351 N 
ATOM      4  C   UNL     1       1.300  -1.300   2.336  1.00  0.00     0.278 C 
ATOM      5  O   UNL     1       2.064  -0.379   2.631  1.00  0.00    -0.268 OA
ATOM      6  H   UNL     1       0.903  -0.462   0.557  1.00  0.00     0.163 HD
BRANCH   4   7
ATOM      7  C   UNL     1       0.815  -2.381   3.347  1.00  0.00     0.277 C 
BRANCH   7   8
ATOM      8  C   UNL     1       1.704  -3.675   3.373  1.00  0.00     0.054 C 
ATOM      9  C   UNL     1       2.213  -4.151   2.007  1.00  0.00     0.014 C 
BRANCH   8  10
ATOM     10  C   UNL     1       2.885  -3.671   4.374  1.00  0.00     0.006 C 
ATOM     11  C   UNL     1       3.913  -2.570   4.180  1.00  0.00     0.004 C 
ENDBRANCH   8  10
ENDBRANCH   7   8
BRANCH   7  12
ATOM     12  N   UNL     1       0.718  -1.828   4.730  1.00  0.00    -0.323 N 
ATOM     13  C   UNL     1       0.025  -0.538   4.817  1.00  0.00     0.275 C 
ATOM     14  C   UNL     1      -0.328  -2.506   5.510  1.00  0.00     0.275 C 
ATOM     15  H   UNL     1       1.694  -1.870   5.024  1.00  0.00     0.348 HD
ATOM     16  C   UNL     1      -1.028  -1.212   5.599  1.00  0.00     0.068 C 
ATOM     17  C   UNL     1      -2.498  -0.954   5.485  1.00  0.00     0.020 C 
ATOM     18  C   UNL     1      -1.777  -0.677   6.778  1.00  0.00     0.020 C 
ENDBRANCH   7  12
ENDBRANCH   4   7
ENDBRANCH   2   3
ENDBRANCH   1   2
BRANCH   1  19
ATOM     19  C   UNL     1      -0.155  -1.056  -1.837  1.00  0.00     0.118 C 
BRANCH  19  20
ATOM     20  N   UNL     1       0.990  -1.636  -2.531  1.00  0.00    -0.352 N 
ATOM     21  C   UNL     1       1.152  -2.025  -3.846  1.00  0.00     0.251 C 
ATOM     22  H   UNL     1       1.783  -1.773  -1.964  1.00  0.00     0.163 HD
ATOM     23  O   UNL     1       2.178  -2.587  -4.189  1.00  0.00    -0.269 OA
BRANCH  21  24
ATOM     24  C   UNL     1       0.061  -1.804  -4.823  1.00  0.00     0.039 A 
ATOM     25  C   UNL     1      -0.286  -2.836  -5.700  1.00  0.00     0.014 A 
ATOM     26  C   UNL     1      -0.644  -0.603  -4.849  1.00  0.00     0.014 A 
ATOM     27  C   UNL     1      -1.418  -2.704  -6.510  1.00  0.00     0.010 A 
ATOM     28  C   UNL     1      -1.831  -0.519  -5.564  1.00  0.00     0.010 A 
ATOM     29  C   UNL     1      -2.241  -1.573  -6.396  1.00  0.00    -0.014 A 
BRANCH  29  30
ATOM     30  C   UNL     1      -3.537  -1.452  -7.117  1.00  0.00     0.031 A 
ATOM     31  C   UNL     1      -3.779  -0.273  -8.022  1.00  0.00     0.074 A 
ATOM     32  C   UNL     1      -4.534  -2.326  -6.866  1.00  0.00     0.049 A 
ATOM     33  N   UNL     1      -4.894   0.135  -8.571  1.00  0.00    -0.248 NA
ATOM     34  C   UNL     1      -2.620   0.590  -8.306  1.00  0.00     0.031 C 
ATOM     35  C   UNL     1      -4.450  -3.481  -5.968  1.00  0.00     0.029 A 
ATOM     36  N   UNL     1      -5.827  -2.365  -7.329  1.00  0.00    -0.354 N 
ATOM     37  C   UNL     1      -4.580   1.321  -9.226  1.00  0.00     0.074 A 
ATOM     38  C   UNL     1      -3.184   1.592  -8.963  1.00  0.00     0.031 C 
ATOM     39  C   UNL     1      -5.628  -4.127  -5.966  1.00  0.00     0.029 A 
ATOM     40  C   UNL     1      -6.567  -3.408  -6.820  1.00  0.00     0.049 A 
ATOM     41  H   UNL     1      -6.190  -1.708  -7.965  1.00  0.00     0.167 HD
ATOM     42  C   UNL     1      -5.375   2.100  -9.996  1.00  0.00     0.037 A 
ATOM     43  C   UNL     1      -7.859  -3.739  -7.008  1.00  0.00     0.037 A 
ATOM     44  C   UNL     1      -6.745   1.791 -10.307  1.00  0.00     0.049 A 
ATOM     45  C   UNL     1      -8.712  -2.883  -7.904  1.00  0.00     0.074 A 
ATOM     46  C   UNL     1      -7.618   2.480 -11.129  1.00  0.00     0.029 A 
ATOM     47  N   UNL     1      -7.435   0.689  -9.823  1.00  0.00    -0.354 N 
ATOM     48  N   UNL     1      -8.389  -1.782  -8.540  1.00  0.00    -0.248 NA
ATOM     49  C   UNL     1     -10.103  -3.311  -8.108  1.00  0.00     0.031 C 
ATOM     50  C   UNL     1      -8.844   1.806 -11.127  1.00  0.00     0.029 A 
ATOM     51  C   UNL     1      -8.723   0.679 -10.329  1.00  0.00     0.049 A 
ATOM     52  H   UNL     1      -7.063   0.015  -9.209  1.00  0.00     0.167 HD
ATOM     53  C   UNL     1      -9.527  -1.403  -9.243  1.00  0.00     0.074 A 
ATOM     54  C   UNL     1     -10.545  -2.393  -8.959  1.00  0.00     0.031 C 
ATOM     55  C   UNL     1      -9.712  -0.331 -10.052  1.00  0.00     0.037 A 
BRANCH  42  56
ATOM     56  C   UNL     1      -4.772   3.351 -10.572  1.00  0.00     0.058 A 
ATOM     57  C   UNL     1      -3.803   3.300 -11.587  1.00  0.00     0.135 A 
ATOM     58  C   UNL     1      -5.173   4.616 -10.113  1.00  0.00     0.135 A 
ATOM     59  F   UNL     1      -3.371   2.116 -12.050  1.00  0.00    -0.206 F 
ATOM     60  C   UNL     1      -3.225   4.455 -12.100  1.00  0.00     0.059 A 
ATOM     61  C   UNL     1      -4.629   5.787 -10.633  1.00  0.00     0.059 A 
ATOM     62  F   UNL     1      -6.096   4.724  -9.145  1.00  0.00    -0.206 F 
ATOM     63  C   UNL     1      -3.641   5.695 -11.613  1.00  0.00     0.060 A 
BRANCH  63  64
ATOM     64  S   UNL     1      -2.876   7.186 -12.282  1.00  0.00     0.124 S 
ATOM     65  O   UNL     1      -1.580   7.172 -11.610  1.00  0.00    -0.237 OA
ATOM     66  O   UNL     1      -2.849   6.910 -13.715  1.00  0.00    -0.237 OA
ATOM     67  O   UNL     1      -3.786   8.250 -11.869  1.00  0.00    -0.744 OA
ENDBRANCH  63  64
ENDBRANCH  42  56
BRANCH  43  68
ATOM     68  C   UNL     1      -8.421  -4.954  -6.359  1.00  0.00     0.058 A 
ATOM     69  C   UNL     1      -8.718  -6.096  -7.116  1.00  0.00     0.135 A 
ATOM     70  C   UNL     1      -8.662  -5.004  -4.978  1.00  0.00     0.135 A 
ATOM     71  F   UNL     1      -8.508  -6.094  -8.442  1.00  0.00    -0.206 F 
ATOM     72  C   UNL     1      -9.252  -7.240  -6.533  1.00  0.00     0.059 A 
ATOM     73  C   UNL     1      -9.175  -6.144  -4.367  1.00  0.00     0.059 A 
ATOM     74  F   UNL     1      -8.377  -3.944  -4.206  1.00  0.00    -0.206 F 
ATOM     75  C   UNL     1      -9.477  -7.255  -5.155  1.00  0.00     0.060 A 
BRANCH  75  76
ATOM     76  S   UNL     1     -10.128  -8.760  -4.399  1.00  0.00     0.124 S 
ATOM     77  O   UNL     1     -11.531  -8.703  -4.793  1.00  0.00    -0.237 OA
ATOM     78  O   UNL     1      -9.326  -9.799  -5.038  1.00  0.00    -0.237 OA
ATOM     79  O   UNL     1      -9.861  -8.561  -2.977  1.00  0.00    -0.744 OA
ENDBRANCH  75  76
ENDBRANCH  43  68
BRANCH  55  80
ATOM     80  C   UNL     1     -11.046  -0.194 -10.727  1.00  0.00     0.058 A 
ATOM     81  C   UNL     1     -12.180   0.252 -10.033  1.00  0.00     0.135 A 
ATOM     82  C   UNL     1     -11.169  -0.440 -12.104  1.00  0.00     0.135 A 
ATOM     83  F   UNL     1     -12.113   0.493  -8.714  1.00  0.00    -0.206 F 
ATOM     84  C   UNL     1     -13.396   0.442 -10.680  1.00  0.00     0.059 A 
ATOM     85  C   UNL     1     -12.370  -0.236 -12.775  1.00  0.00     0.059 A 
ATOM     86  F   UNL     1     -10.110  -0.861 -12.813  1.00  0.00    -0.206 F 
ATOM     87  C   UNL     1     -13.480   0.199 -12.053  1.00  0.00     0.060 A 
BRANCH  87  88
ATOM     88  S   UNL     1     -15.049   0.506 -12.893  1.00  0.00     0.124 S 
ATOM     89  O   UNL     1     -15.833  -0.654 -12.481  1.00  0.00    -0.237 OA
ATOM     90  O   UNL     1     -15.464   1.785 -12.326  1.00  0.00    -0.237 OA
ATOM     91  O   UNL     1     -14.675   0.544 -14.303  1.00  0.00    -0.744 OA
ENDBRANCH  87  88
ENDBRANCH  55  80
ENDBRANCH  29  30
ENDBRANCH  21  24
ENDBRANCH  19  20
ENDBRANCH   1  19
TORSDOF 16
