REMARK SMILES COc1ccc(N2C(=O)S[C@@H](CC(=O)Nc3nc(CC(=O)NCCCNC(=O)c4ccc(-c5c6nc(c(-c7c(F)cc(S(=O)(=O)[O-])cc7F)c7ccc([nH]7)c(-c7c(F)cc(S(=O)(=O)[O-])cc7F)c7nc(c(-c8c(F)cc(S(=O)(=O)[O-])cc8F)c8ccc5[nH]8)C=C7)C=C6)cc4)cs3)C2=O)cc1
REMARK SMILES IDX 20 1 21 2 22 3 19 5 18 6 16 7 17 8 96 9 95 10 15 11 13 12
REMARK SMILES IDX 14 13 12 15 11 16 7 17 8 18 97 19 9 20 10 21 98 22 6 23 3 24
REMARK SMILES IDX 4 25 100 26 5 27 99 28 2 29 1 30 23 31 24 32 25 33 26 34
REMARK SMILES IDX 27 35 28 37 29 38 30 39 94 40 31 41 93 42 32 43 33 44 34 45
REMARK SMILES IDX 87 46 35 47 92 48 86 49 88 50 36 51 91 52 85 53 84 54 37 56
REMARK SMILES IDX 71 57 50 58 70 59 51 60 54 61 69 62 89 63 52 64 53 65 68 67
REMARK SMILES IDX 90 68 55 69 38 70 39 71 48 72 40 73 41 74 47 75 49 76 42 77
REMARK SMILES IDX 43 78 44 79 45 80 46 81 72 82 73 83 82 84 74 85 75 86 81 87
REMARK SMILES IDX 83 88 76 89 77 90 78 91 79 92 80 93 56 94 57 95 66 96 58 97
REMARK SMILES IDX 59 98 65 99 67 100 60 101 61 102 62 103 63 104 64 105
REMARK H PARENT 22 4 15 14 26 36 88 55 54 66
REMARK Flexibility Score: inf
ROOT
ATOM      1  C   UNL     1       1.179   0.533  -4.614  1.00  0.00     0.226 C 
ATOM      2  O   UNL     1       0.747   1.276  -3.731  1.00  0.00    -0.275 OA
ATOM      3  N   UNL     1       2.298   0.920  -5.293  1.00  0.00    -0.356 N 
ATOM      4  H   UNL     1       2.768   1.702  -4.923  1.00  0.00     0.163 HD
ENDROOT
BRANCH   1   5
ATOM      5  C   UNL     1       0.562  -0.818  -4.879  1.00  0.00     0.157 C 
BRANCH   5   6
ATOM      6  C   UNL     1      -0.193  -0.939  -6.157  1.00  0.00     0.063 A 
ATOM      7  C   UNL     1      -0.560  -1.917  -8.108  1.00  0.00     0.189 A 
ATOM      8  N   UNL     1       0.200  -1.933  -7.047  1.00  0.00    -0.224 NA
ATOM      9  S   UNL     1      -1.762  -0.710  -8.149  1.00  0.00    -0.105 S 
ATOM     10  C   UNL     1      -1.292  -0.209  -6.571  1.00  0.00     0.093 A 
BRANCH   7  11
ATOM     11  N   UNL     1      -0.440  -2.666  -9.241  1.00  0.00    -0.302 N 
ATOM     12  C   UNL     1       0.307  -3.791  -9.414  1.00  0.00     0.227 C 
ATOM     13  O   UNL     1       0.701  -4.056 -10.554  1.00  0.00    -0.275 OA
ATOM     14  H   UNL     1      -0.952  -2.357 -10.023  1.00  0.00     0.172 HD
BRANCH  12  15
ATOM     15  C   UNL     1       0.489  -4.827  -8.310  1.00  0.00     0.125 C 
BRANCH  15  16
ATOM     16  C   UNL     1       1.420  -4.439  -7.179  1.00  0.00     0.156 C 
ATOM     17  N   UNL     1       1.694  -4.457  -4.812  1.00  0.00    -0.240 N 
ATOM     18  C   UNL     1       2.895  -5.022  -5.187  1.00  0.00     0.293 C 
ATOM     19  C   UNL     1       0.732  -4.446  -5.816  1.00  0.00     0.248 C 
ATOM     20  O   UNL     1       3.897  -5.217  -4.520  1.00  0.00    -0.261 OA
ATOM     21  S   UNL     1       2.828  -5.545  -6.873  1.00  0.00    -0.050 SA
ATOM     22  O   UNL     1      -0.486  -4.421  -5.675  1.00  0.00    -0.273 OA
BRANCH  17  23
ATOM     23  C   UNL     1       1.453  -3.909  -3.510  1.00  0.00     0.053 A 
ATOM     24  C   UNL     1       0.950  -2.405  -1.169  1.00  0.00     0.119 A 
ATOM     25  C   UNL     1      -0.090  -3.068  -1.808  1.00  0.00     0.048 A 
ATOM     26  C   UNL     1       2.251  -2.556  -1.634  1.00  0.00     0.048 A 
ATOM     27  C   UNL     1       0.158  -3.800  -2.975  1.00  0.00     0.031 A 
ATOM     28  C   UNL     1       2.501  -3.311  -2.788  1.00  0.00     0.031 A 
BRANCH  24  29
ATOM     29  O   UNL     1       0.639  -1.664  -0.064  1.00  0.00    -0.497 OA
ATOM     30  C   UNL     1       1.052  -0.301  -0.198  1.00  0.00     0.278 C 
ENDBRANCH  24  29
ENDBRANCH  17  23
ENDBRANCH  15  16
ENDBRANCH  12  15
ENDBRANCH   7  11
ENDBRANCH   5   6
ENDBRANCH   1   5
BRANCH   3  31
ATOM     31  C   UNL     1       2.891   0.341  -6.486  1.00  0.00     0.117 C 
BRANCH  31  32
ATOM     32  C   UNL     1       2.337   0.977  -7.758  1.00  0.00     0.042 C 
BRANCH  32  33
ATOM     33  C   UNL     1       2.506   2.490  -7.822  1.00  0.00     0.118 C 
BRANCH  33  34
ATOM     34  N   UNL     1       3.898   2.898  -7.927  1.00  0.00    -0.352 N 
ATOM     35  C   UNL     1       4.483   3.748  -8.834  1.00  0.00     0.251 C 
ATOM     36  H   UNL     1       4.505   2.511  -7.255  1.00  0.00     0.163 HD
ATOM     37  O   UNL     1       5.705   3.850  -8.872  1.00  0.00    -0.269 OA
BRANCH  35  38
ATOM     38  C   UNL     1       3.639   4.516  -9.776  1.00  0.00     0.039 A 
ATOM     39  C   UNL     1       4.001   4.558 -11.125  1.00  0.00     0.014 A 
ATOM     40  C   UNL     1       2.497   5.189  -9.333  1.00  0.00     0.014 A 
ATOM     41  C   UNL     1       3.183   5.226 -12.040  1.00  0.00     0.010 A 
ATOM     42  C   UNL     1       1.648   5.795 -10.255  1.00  0.00     0.010 A 
ATOM     43  C   UNL     1       1.985   5.823 -11.617  1.00  0.00    -0.014 A 
BRANCH  43  44
ATOM     44  C   UNL     1       1.072   6.487 -12.582  1.00  0.00     0.031 A 
ATOM     45  C   UNL     1       0.827   7.968 -12.491  1.00  0.00     0.074 A 
ATOM     46  C   UNL     1       0.416   5.748 -13.497  1.00  0.00     0.049 A 
ATOM     47  N   UNL     1       0.019   8.718 -13.196  1.00  0.00    -0.248 NA
ATOM     48  C   UNL     1       1.568   8.697 -11.450  1.00  0.00     0.031 C 
ATOM     49  C   UNL     1       0.542   4.299 -13.663  1.00  0.00     0.029 A 
ATOM     50  N   UNL     1      -0.492   6.114 -14.459  1.00  0.00    -0.354 N 
ATOM     51  C   UNL     1       0.141  10.000 -12.674  1.00  0.00     0.074 A 
ATOM     52  C   UNL     1       1.061   9.916 -11.561  1.00  0.00     0.031 C 
ATOM     53  C   UNL     1      -0.232   3.905 -14.687  1.00  0.00     0.029 A 
ATOM     54  C   UNL     1      -0.937   5.064 -15.225  1.00  0.00     0.049 A 
ATOM     55  H   UNL     1      -0.796   7.042 -14.587  1.00  0.00     0.167 HD
ATOM     56  C   UNL     1      -0.444  11.148 -13.097  1.00  0.00     0.037 A 
ATOM     57  C   UNL     1      -1.815   5.039 -16.247  1.00  0.00     0.037 A 
ATOM     58  C   UNL     1      -1.339  11.229 -14.221  1.00  0.00     0.049 A 
ATOM     59  C   UNL     1      -2.462   6.321 -16.692  1.00  0.00     0.074 A 
ATOM     60  C   UNL     1      -1.936  12.351 -14.768  1.00  0.00     0.029 A 
ATOM     61  N   UNL     1      -1.771  10.142 -14.968  1.00  0.00    -0.354 N 
ATOM     62  N   UNL     1      -2.295   7.534 -16.223  1.00  0.00    -0.248 NA
ATOM     63  C   UNL     1      -3.420   6.229 -17.802  1.00  0.00     0.031 C 
ATOM     64  C   UNL     1      -2.758  11.938 -15.824  1.00  0.00     0.029 A 
ATOM     65  C   UNL     1      -2.643  10.563 -15.958  1.00  0.00     0.049 A 
ATOM     66  H   UNL     1      -1.497   9.209 -14.816  1.00  0.00     0.167 HD
ATOM     67  C   UNL     1      -3.104   8.356 -16.998  1.00  0.00     0.074 A 
ATOM     68  C   UNL     1      -3.758   7.501 -17.969  1.00  0.00     0.031 C 
ATOM     69  C   UNL     1      -3.285   9.698 -16.917  1.00  0.00     0.037 A 
BRANCH  56  70
ATOM     70  C   UNL     1      -0.131  12.400 -12.325  1.00  0.00     0.058 A 
ATOM     71  C   UNL     1       1.141  12.996 -12.370  1.00  0.00     0.135 A 
ATOM     72  C   UNL     1      -1.106  13.002 -11.514  1.00  0.00     0.135 A 
ATOM     73  F   UNL     1       2.115  12.454 -13.120  1.00  0.00    -0.206 F 
ATOM     74  C   UNL     1       1.451  14.110 -11.597  1.00  0.00     0.059 A 
ATOM     75  C   UNL     1      -0.826  14.134 -10.754  1.00  0.00     0.059 A 
ATOM     76  F   UNL     1      -2.339  12.478 -11.437  1.00  0.00    -0.206 F 
ATOM     77  C   UNL     1       0.464  14.664 -10.782  1.00  0.00     0.060 A 
BRANCH  77  78
ATOM     78  S   UNL     1       0.890  16.079  -9.745  1.00  0.00     0.124 S 
ATOM     79  O   UNL     1       1.628  15.432  -8.664  1.00  0.00    -0.237 OA
ATOM     80  O   UNL     1       1.685  16.904 -10.648  1.00  0.00    -0.237 OA
ATOM     81  O   UNL     1      -0.409  16.632  -9.376  1.00  0.00    -0.744 OA
ENDBRANCH  77  78
ENDBRANCH  56  70
BRANCH  57  82
ATOM     82  C   UNL     1      -2.090   3.759 -16.949  1.00  0.00     0.058 A 
ATOM     83  C   UNL     1      -1.575   3.526 -18.233  1.00  0.00     0.135 A 
ATOM     84  C   UNL     1      -2.833   2.733 -16.345  1.00  0.00     0.135 A 
ATOM     85  F   UNL     1      -0.864   4.481 -18.852  1.00  0.00    -0.206 F 
ATOM     86  C   UNL     1      -1.786   2.322 -18.895  1.00  0.00     0.059 A 
ATOM     87  C   UNL     1      -3.042   1.513 -16.980  1.00  0.00     0.059 A 
ATOM     88  F   UNL     1      -3.334   2.903 -15.111  1.00  0.00    -0.206 F 
ATOM     89  C   UNL     1      -2.517   1.319 -18.257  1.00  0.00     0.060 A 
BRANCH  89  90
ATOM     90  S   UNL     1      -2.722  -0.268 -19.096  1.00  0.00     0.124 S 
ATOM     91  O   UNL     1      -3.701   0.069 -20.124  1.00  0.00    -0.237 OA
ATOM     92  O   UNL     1      -1.369  -0.542 -19.568  1.00  0.00    -0.237 OA
ATOM     93  O   UNL     1      -3.198  -1.148 -18.034  1.00  0.00    -0.744 OA
ENDBRANCH  89  90
ENDBRANCH  57  82
BRANCH  69  94
ATOM     94  C   UNL     1      -4.207  10.330 -17.921  1.00  0.00     0.058 A 
ATOM     95  C   UNL     1      -5.601  10.200 -17.823  1.00  0.00     0.135 A 
ATOM     96  C   UNL     1      -3.691  11.117 -18.963  1.00  0.00     0.135 A 
ATOM     97  F   UNL     1      -6.143   9.451 -16.851  1.00  0.00    -0.206 F 
ATOM     98  C   UNL     1      -6.452  10.816 -18.735  1.00  0.00     0.059 A 
ATOM     99  C   UNL     1      -4.524  11.761 -19.872  1.00  0.00     0.059 A 
ATOM    100  F   UNL     1      -2.365  11.279 -19.094  1.00  0.00    -0.206 F 
ATOM    101  C   UNL     1      -5.904  11.596 -19.756  1.00  0.00     0.060 A 
BRANCH 101 102
ATOM    102  S   UNL     1      -7.019  12.424 -20.909  1.00  0.00     0.124 S 
ATOM    103  O   UNL     1      -7.432  11.316 -21.764  1.00  0.00    -0.237 OA
ATOM    104  O   UNL     1      -8.049  12.958 -20.022  1.00  0.00    -0.237 OA
ATOM    105  O   UNL     1      -6.168  13.425 -21.544  1.00  0.00    -0.744 OA
ENDBRANCH 101 102
ENDBRANCH  69  94
ENDBRANCH  43  44
ENDBRANCH  35  38
ENDBRANCH  33  34
ENDBRANCH  32  33
ENDBRANCH  31  32
ENDBRANCH   3  31
TORSDOF 19
