REMARK SMILES CC(C)[C@@H](CO)NC(=O)CC(C)(C)CC(=O)NCCCNC(=O)c1ccc(-c2c3nc(c(-c4c(F)cc(S(=O)(=O)[O-])cc4F)c4ccc([nH]4)c(-c4c(F)cc(S(=O)(=O)[O-])cc4F)c4nc(c(-c5c(F)cc(S(=O)(=O)[O-])cc5F)c5ccc2[nH]5)C=C4)C=C3)cc1
REMARK SMILES IDX 15 1 16 2 17 3 14 5 11 6 12 7 13 8 10 9 8 10 7 11 9 13 4 14
REMARK SMILES IDX 2 15 1 16 3 17 5 18 6 19 18 21 19 22 20 23 21 24 22 25 23 27
REMARK SMILES IDX 24 28 25 29 89 30 26 31 88 32 27 33 28 34 29 35 82 36 30 37
REMARK SMILES IDX 87 38 81 39 83 40 31 41 86 42 80 43 79 44 32 46 66 47 45 48
REMARK SMILES IDX 65 49 46 50 49 51 64 52 84 53 47 54 48 55 63 57 85 58 50 59
REMARK SMILES IDX 33 60 34 61 43 62 35 63 36 64 42 65 44 66 37 67 38 68 39 69
REMARK SMILES IDX 40 70 41 71 67 72 68 73 77 74 69 75 70 76 76 77 78 78 71 79
REMARK SMILES IDX 72 80 73 81 74 82 75 83 51 84 52 85 61 86 53 87 54 88 60 89
REMARK SMILES IDX 62 90 55 91 56 92 57 93 58 94 59 95
REMARK H PARENT 17 4 7 12 6 20 21 26 83 45 49 56
REMARK Flexibility Score: inf
ROOT
ATOM      1  C   UNL     1      -1.812  -5.106  -2.756  1.00  0.00     0.220 C 
ATOM      2  O   UNL     1      -2.411  -4.866  -3.803  1.00  0.00    -0.275 OA
ATOM      3  N   UNL     1      -1.938  -6.352  -2.221  1.00  0.00    -0.356 N 
ATOM      4  H   UNL     1      -2.458  -6.979  -2.774  1.00  0.00     0.163 HD
ENDROOT
BRANCH   1   5
ATOM      5  C   UNL     1      -0.932  -4.074  -2.085  1.00  0.00     0.107 C 
BRANCH   5   6
ATOM      6  C   UNL     1      -1.628  -3.072  -1.129  1.00  0.00    -0.018 C 
ATOM      7  C   UNL     1      -0.541  -2.541  -0.180  1.00  0.00     0.012 C 
ATOM      8  C   UNL     1      -2.656  -3.733  -0.195  1.00  0.00     0.012 C 
BRANCH   6   9
ATOM      9  C   UNL     1      -2.401  -1.950  -1.877  1.00  0.00     0.107 C 
BRANCH   9  10
ATOM     10  C   UNL     1      -1.751  -1.218  -3.041  1.00  0.00     0.220 C 
ATOM     11  N   UNL     1      -1.019  -0.092  -2.831  1.00  0.00    -0.351 N 
ATOM     12  H   UNL     1      -0.773   0.400  -3.647  1.00  0.00     0.163 HD
ATOM     13  O   UNL     1      -1.911  -1.588  -4.204  1.00  0.00    -0.275 OA
BRANCH  11  14
ATOM     14  C   UNL     1      -0.542   0.502  -1.590  1.00  0.00     0.110 C 
BRANCH  14  15
ATOM     15  C   UNL     1       1.006   0.684  -1.623  1.00  0.00     0.007 C 
ATOM     16  C   UNL     1       1.560   0.772  -0.196  1.00  0.00     0.009 C 
ATOM     17  C   UNL     1       1.776  -0.408  -2.388  1.00  0.00     0.009 C 
ENDBRANCH  14  15
BRANCH  14  18
ATOM     18  C   UNL     1      -1.305   1.811  -1.289  1.00  0.00     0.181 C 
BRANCH  18  19
ATOM     19  O   UNL     1      -0.957   2.852  -2.197  1.00  0.00    -0.394 OA
ATOM     20  H   UNL     1      -0.010   3.046  -2.118  1.00  0.00     0.210 HD
ENDBRANCH  18  19
ENDBRANCH  14  18
ENDBRANCH  11  14
ENDBRANCH   9  10
ENDBRANCH   6   9
ENDBRANCH   5   6
ENDBRANCH   1   5
BRANCH   3  21
ATOM     21  C   UNL     1      -1.440  -6.920  -0.977  1.00  0.00     0.117 C 
BRANCH  21  22
ATOM     22  C   UNL     1      -2.553  -7.149   0.043  1.00  0.00     0.042 C 
BRANCH  22  23
ATOM     23  C   UNL     1      -3.647  -8.092  -0.434  1.00  0.00     0.118 C 
BRANCH  23  24
ATOM     24  N   UNL     1      -3.367  -9.461  -0.051  1.00  0.00    -0.352 N 
ATOM     25  C   UNL     1      -3.874 -10.187   0.998  1.00  0.00     0.251 C 
ATOM     26  H   UNL     1      -2.722  -9.937  -0.623  1.00  0.00     0.163 HD
ATOM     27  O   UNL     1      -3.295 -11.216   1.345  1.00  0.00    -0.269 OA
BRANCH  25  28
ATOM     28  C   UNL     1      -5.093  -9.744   1.720  1.00  0.00     0.039 A 
ATOM     29  C   UNL     1      -5.172  -9.955   3.100  1.00  0.00     0.014 A 
ATOM     30  C   UNL     1      -6.187  -9.191   1.047  1.00  0.00     0.014 A 
ATOM     31  C   UNL     1      -6.329  -9.595   3.800  1.00  0.00     0.010 A 
ATOM     32  C   UNL     1      -7.302  -8.747   1.759  1.00  0.00     0.010 A 
ATOM     33  C   UNL     1      -7.402  -8.976   3.138  1.00  0.00    -0.014 A 
BRANCH  33  34
ATOM     34  C   UNL     1      -8.656  -8.626   3.857  1.00  0.00     0.031 A 
ATOM     35  C   UNL     1      -9.958  -9.281   3.462  1.00  0.00     0.074 A 
ATOM     36  C   UNL     1      -8.642  -7.691   4.828  1.00  0.00     0.049 A 
ATOM     37  N   UNL     1     -11.165  -9.066   3.921  1.00  0.00    -0.248 NA
ATOM     38  C   UNL     1      -9.902 -10.288   2.388  1.00  0.00     0.031 C 
ATOM     39  C   UNL     1      -7.463  -6.938   5.263  1.00  0.00     0.029 A 
ATOM     40  N   UNL     1      -9.655  -7.202   5.617  1.00  0.00    -0.354 N 
ATOM     41  C   UNL     1     -12.008  -9.879   3.171  1.00  0.00     0.074 A 
ATOM     42  C   UNL     1     -11.185 -10.564   2.202  1.00  0.00     0.031 C 
ATOM     43  C   UNL     1      -7.818  -6.093   6.246  1.00  0.00     0.029 A 
ATOM     44  C   UNL     1      -9.251  -6.221   6.493  1.00  0.00     0.049 A 
ATOM     45  H   UNL     1     -10.583  -7.524   5.561  1.00  0.00     0.167 HD
ATOM     46  C   UNL     1     -13.345 -10.057   3.295  1.00  0.00     0.037 A 
ATOM     47  C   UNL     1      -9.956  -5.501   7.388  1.00  0.00     0.037 A 
ATOM     48  C   UNL     1     -14.152  -9.429   4.307  1.00  0.00     0.049 A 
ATOM     49  C   UNL     1     -11.429  -5.765   7.547  1.00  0.00     0.074 A 
ATOM     50  C   UNL     1     -15.494  -9.627   4.580  1.00  0.00     0.029 A 
ATOM     51  N   UNL     1     -13.692  -8.488   5.215  1.00  0.00    -0.354 N 
ATOM     52  N   UNL     1     -12.192  -6.603   6.886  1.00  0.00    -0.248 NA
ATOM     53  C   UNL     1     -12.137  -4.996   8.581  1.00  0.00     0.031 C 
ATOM     54  C   UNL     1     -15.855  -8.778   5.631  1.00  0.00     0.029 A 
ATOM     55  C   UNL     1     -14.729  -8.083   6.038  1.00  0.00     0.049 A 
ATOM     56  H   UNL     1     -12.767  -8.157   5.266  1.00  0.00     0.167 HD
ATOM     57  C   UNL     1     -13.462  -6.478   7.439  1.00  0.00     0.074 A 
ATOM     58  C   UNL     1     -13.362  -5.496   8.499  1.00  0.00     0.031 C 
ATOM     59  C   UNL     1     -14.608  -7.115   7.098  1.00  0.00     0.037 A 
BRANCH  46  60
ATOM     60  C   UNL     1     -14.029 -10.984   2.328  1.00  0.00     0.058 A 
ATOM     61  C   UNL     1     -13.875 -12.377   2.407  1.00  0.00     0.135 A 
ATOM     62  C   UNL     1     -14.909 -10.476   1.359  1.00  0.00     0.135 A 
ATOM     63  F   UNL     1     -13.034 -12.915   3.304  1.00  0.00    -0.206 F 
ATOM     64  C   UNL     1     -14.561 -13.233   1.552  1.00  0.00     0.059 A 
ATOM     65  C   UNL     1     -15.624 -11.315   0.509  1.00  0.00     0.059 A 
ATOM     66  F   UNL     1     -15.090  -9.151   1.240  1.00  0.00    -0.206 F 
ATOM     67  C   UNL     1     -15.437 -12.693   0.609  1.00  0.00     0.060 A 
BRANCH  67  68
ATOM     68  S   UNL     1     -16.354 -13.819  -0.465  1.00  0.00     0.124 S 
ATOM     69  O   UNL     1     -15.309 -14.255  -1.387  1.00  0.00    -0.237 OA
ATOM     70  O   UNL     1     -16.826 -14.832   0.477  1.00  0.00    -0.237 OA
ATOM     71  O   UNL     1     -17.389 -12.973  -1.042  1.00  0.00    -0.744 OA
ENDBRANCH  67  68
ENDBRANCH  46  60
BRANCH  47  72
ATOM     72  C   UNL     1      -9.279  -4.465   8.212  1.00  0.00     0.058 A 
ATOM     73  C   UNL     1      -9.079  -4.647   9.589  1.00  0.00     0.135 A 
ATOM     74  C   UNL     1      -8.831  -3.264   7.641  1.00  0.00     0.135 A 
ATOM     75  F   UNL     1      -9.495  -5.777  10.182  1.00  0.00    -0.206 F 
ATOM     76  C   UNL     1      -8.484  -3.667  10.376  1.00  0.00     0.059 A 
ATOM     77  C   UNL     1      -8.210  -2.279   8.402  1.00  0.00     0.059 A 
ATOM     78  F   UNL     1      -8.980  -3.048   6.325  1.00  0.00    -0.206 F 
ATOM     79  C   UNL     1      -8.056  -2.483   9.773  1.00  0.00     0.060 A 
BRANCH  79  80
ATOM     80  S   UNL     1      -7.257  -1.224  10.793  1.00  0.00     0.124 S 
ATOM     81  O   UNL     1      -8.402  -0.625  11.468  1.00  0.00    -0.237 OA
ATOM     82  O   UNL     1      -6.367  -2.023  11.631  1.00  0.00    -0.237 OA
ATOM     83  O   UNL     1      -6.585  -0.378   9.812  1.00  0.00    -0.744 OA
ENDBRANCH  79  80
ENDBRANCH  47  72
BRANCH  59  84
ATOM     84  C   UNL     1     -15.841  -6.801   7.898  1.00  0.00     0.058 A 
ATOM     85  C   UNL     1     -16.531  -5.590   7.737  1.00  0.00     0.135 A 
ATOM     86  C   UNL     1     -16.366  -7.745   8.795  1.00  0.00     0.135 A 
ATOM     87  F   UNL     1     -16.067  -4.654   6.895  1.00  0.00    -0.206 F 
ATOM     88  C   UNL     1     -17.690  -5.316   8.456  1.00  0.00     0.059 A 
ATOM     89  C   UNL     1     -17.537  -7.502   9.505  1.00  0.00     0.059 A 
ATOM     90  F   UNL     1     -15.748  -8.923   8.975  1.00  0.00    -0.206 F 
ATOM     91  C   UNL     1     -18.185  -6.279   9.338  1.00  0.00     0.060 A 
BRANCH  91  92
ATOM     92  S   UNL     1     -19.706  -5.925  10.243  1.00  0.00     0.124 S 
ATOM     93  O   UNL     1     -19.229  -5.009  11.273  1.00  0.00    -0.237 OA
ATOM     94  O   UNL     1     -20.556  -5.335   9.213  1.00  0.00    -0.237 OA
ATOM     95  O   UNL     1     -20.131  -7.239  10.718  1.00  0.00    -0.744 OA
ENDBRANCH  91  92
ENDBRANCH  59  84
ENDBRANCH  33  34
ENDBRANCH  25  28
ENDBRANCH  23  24
ENDBRANCH  22  23
ENDBRANCH  21  22
ENDBRANCH   3  21
TORSDOF 20
