REMARK SMILES Cc1ccc(-n2nc(C(=O)NCCCNC(=O)c3ccc(-c4c5nc(c(-c6c(F)cc(S(=O)(=O)[O-])cc6F)c6ccc([nH]6)c(-c6c(F)cc(S(=O)(=O)[O-])cc6F)c6nc(c(-c7c(F)cc(S(=O)(=O)[O-])cc7F)c7ccc4[nH]7)C=C6)C=C5)cc3)c(C)c(C#N)c2=O)cc1Cl
REMARK SMILES IDX 14 1 13 2 12 3 11 4 9 5 10 6 8 8 6 9 7 10 89 11 86 12 90 13
REMARK SMILES IDX 84 14 85 15 5 16 1 17 2 18 3 19 92 20 4 21 91 22 93 23 87 24
REMARK SMILES IDX 88 25 15 26 16 27 17 29 18 30 19 31 83 32 20 33 82 34 21 35
REMARK SMILES IDX 22 36 23 37 76 38 24 39 81 40 75 41 77 42 25 43 80 44 74 45
REMARK SMILES IDX 73 46 26 48 60 49 39 50 59 51 40 52 43 53 58 54 78 55 41 56
REMARK SMILES IDX 42 57 57 59 79 60 44 61 27 62 28 63 37 64 29 65 30 66 36 67
REMARK SMILES IDX 38 68 31 69 32 70 33 71 34 72 35 73 61 74 62 75 71 76 63 77
REMARK SMILES IDX 64 78 70 79 72 80 65 81 66 82 67 83 68 84 69 85 45 86 46 87
REMARK SMILES IDX 55 88 47 89 48 90 54 91 56 92 49 93 50 94 51 95 52 96 53 97
REMARK H PARENT 11 7 15 28 77 47 43 58
REMARK Flexibility Score: inf
ROOT
ATOM      1  C   UNL     1      -4.750  -9.635   1.833  1.00  0.00     0.118 C 
ENDROOT
BRANCH   1   2
ATOM      2  C   UNL     1      -4.753  -8.303   1.108  1.00  0.00     0.042 C 
BRANCH   2   3
ATOM      3  C   UNL     1      -5.000  -7.116   2.037  1.00  0.00     0.118 C 
BRANCH   3   4
ATOM      4  N   UNL     1      -3.779  -6.401   2.301  1.00  0.00    -0.351 N 
ATOM      5  C   UNL     1      -3.091  -5.342   1.789  1.00  0.00     0.272 C 
ATOM      6  O   UNL     1      -2.054  -5.099   2.423  1.00  0.00    -0.267 OA
ATOM      7  H   UNL     1      -3.306  -6.787   3.073  1.00  0.00     0.163 HD
BRANCH   5   8
ATOM      8  C   UNL     1      -3.423  -4.381   0.614  1.00  0.00     0.153 A 
ATOM      9  N   UNL     1      -2.769  -2.321  -0.220  1.00  0.00    -0.195 N 
ATOM     10  N   UNL     1      -2.648  -3.330   0.674  1.00  0.00    -0.159 NA
ATOM     11  C   UNL     1      -3.667  -2.316  -1.270  1.00  0.00     0.289 A 
ATOM     12  C   UNL     1      -4.496  -3.528  -1.386  1.00  0.00     0.124 A 
ATOM     13  O   UNL     1      -3.786  -1.417  -2.102  1.00  0.00    -0.266 OA
ATOM     14  C   UNL     1      -4.426  -4.543  -0.498  1.00  0.00     0.006 A 
ATOM     15  C   UNL     1      -5.260  -5.754  -0.725  1.00  0.00     0.048 C 
BRANCH   9  16
ATOM     16  C   UNL     1      -1.914  -1.215   0.008  1.00  0.00     0.070 A 
ATOM     17  C   UNL     1       0.663   2.236   0.084  1.00  0.00     0.046 C 
ATOM     18  C   UNL     1      -0.215   1.020   0.137  1.00  0.00    -0.032 A 
ATOM     19  C   UNL     1      -1.598   1.188   0.011  1.00  0.00     0.007 A 
ATOM     20  C   UNL     1       0.302  -0.283   0.254  1.00  0.00     0.046 A 
ATOM     21  C   UNL     1      -2.434   0.080  -0.067  1.00  0.00     0.029 A 
ATOM     22  C   UNL     1      -0.545  -1.397   0.227  1.00  0.00     0.049 A 
ATOM     23  Cl  UNL     1       2.005  -0.559   0.369  1.00  0.00    -0.084 Cl
ENDBRANCH   9  16
BRANCH  12  24
ATOM     24  C   UNL     1      -5.373  -3.546  -2.516  1.00  0.00     0.105 C 
ATOM     25  N   UNL     1      -6.107  -3.610  -3.408  1.00  0.00    -0.192 NA
ENDBRANCH  12  24
ENDBRANCH   5   8
ENDBRANCH   3   4
ENDBRANCH   2   3
ENDBRANCH   1   2
BRANCH   1  26
ATOM     26  N   UNL     1      -6.074  -9.941   2.356  1.00  0.00    -0.352 N 
ATOM     27  C   UNL     1      -6.864 -11.041   2.146  1.00  0.00     0.251 C 
ATOM     28  H   UNL     1      -6.459  -9.256   2.949  1.00  0.00     0.163 HD
ATOM     29  O   UNL     1      -8.048 -11.001   2.466  1.00  0.00    -0.269 OA
BRANCH  27  30
ATOM     30  C   UNL     1      -6.292 -12.252   1.522  1.00  0.00     0.039 A 
ATOM     31  C   UNL     1      -7.072 -12.982   0.623  1.00  0.00     0.014 A 
ATOM     32  C   UNL     1      -4.992 -12.665   1.825  1.00  0.00     0.014 A 
ATOM     33  C   UNL     1      -6.524 -14.094  -0.015  1.00  0.00     0.010 A 
ATOM     34  C   UNL     1      -4.415 -13.707   1.115  1.00  0.00     0.010 A 
ATOM     35  C   UNL     1      -5.180 -14.441   0.199  1.00  0.00    -0.014 A 
BRANCH  35  36
ATOM     36  C   UNL     1      -4.551 -15.578  -0.511  1.00  0.00     0.031 A 
ATOM     37  C   UNL     1      -4.028 -16.748   0.276  1.00  0.00     0.074 A 
ATOM     38  C   UNL     1      -4.400 -15.521  -1.849  1.00  0.00     0.049 A 
ATOM     39  N   UNL     1      -3.362 -17.790  -0.145  1.00  0.00    -0.248 NA
ATOM     40  C   UNL     1      -4.261 -16.735   1.732  1.00  0.00     0.031 C 
ATOM     41  C   UNL     1      -4.843 -14.417  -2.705  1.00  0.00     0.029 A 
ATOM     42  N   UNL     1      -3.826 -16.406  -2.724  1.00  0.00    -0.354 N 
ATOM     43  C   UNL     1      -3.098 -18.552   0.987  1.00  0.00     0.074 A 
ATOM     44  C   UNL     1      -3.617 -17.825   2.123  1.00  0.00     0.031 C 
ATOM     45  C   UNL     1      -4.550 -14.704  -3.982  1.00  0.00     0.029 A 
ATOM     46  C   UNL     1      -3.852 -15.984  -4.033  1.00  0.00     0.049 A 
ATOM     47  H   UNL     1      -3.432 -17.263  -2.443  1.00  0.00     0.167 HD
ATOM     48  C   UNL     1      -2.502 -19.764   1.064  1.00  0.00     0.037 A 
ATOM     49  C   UNL     1      -3.356 -16.559  -5.146  1.00  0.00     0.037 A 
ATOM     50  C   UNL     1      -2.009 -20.485  -0.080  1.00  0.00     0.049 A 
ATOM     51  C   UNL     1      -2.664 -17.891  -5.022  1.00  0.00     0.074 A 
ATOM     52  C   UNL     1      -1.415 -21.733  -0.114  1.00  0.00     0.029 A 
ATOM     53  N   UNL     1      -2.056 -20.027  -1.388  1.00  0.00    -0.354 N 
ATOM     54  N   UNL     1      -2.452 -18.614  -3.947  1.00  0.00    -0.248 NA
ATOM     55  C   UNL     1      -2.151 -18.491  -6.261  1.00  0.00     0.031 C 
ATOM     56  C   UNL     1      -1.050 -22.006  -1.434  1.00  0.00     0.029 A 
ATOM     57  C   UNL     1      -1.485 -20.961  -2.234  1.00  0.00     0.049 A 
ATOM     58  H   UNL     1      -2.439 -19.166  -1.673  1.00  0.00     0.167 HD
ATOM     59  C   UNL     1      -1.821 -19.772  -4.387  1.00  0.00     0.074 A 
ATOM     60  C   UNL     1      -1.694 -19.657  -5.825  1.00  0.00     0.031 C 
ATOM     61  C   UNL     1      -1.388 -20.837  -3.667  1.00  0.00     0.037 A 
BRANCH  48  62
ATOM     62  C   UNL     1      -2.365 -20.408   2.415  1.00  0.00     0.058 A 
ATOM     63  C   UNL     1      -3.479 -20.917   3.102  1.00  0.00     0.135 A 
ATOM     64  C   UNL     1      -1.096 -20.616   2.981  1.00  0.00     0.135 A 
ATOM     65  F   UNL     1      -4.717 -20.725   2.619  1.00  0.00    -0.206 F 
ATOM     66  C   UNL     1      -3.340 -21.616   4.296  1.00  0.00     0.059 A 
ATOM     67  C   UNL     1      -0.931 -21.338   4.159  1.00  0.00     0.059 A 
ATOM     68  F   UNL     1       0.002 -20.140   2.372  1.00  0.00    -0.206 F 
ATOM     69  C   UNL     1      -2.060 -21.835   4.808  1.00  0.00     0.060 A 
BRANCH  69  70
ATOM     70  S   UNL     1      -1.898 -22.805   6.322  1.00  0.00     0.124 S 
ATOM     71  O   UNL     1      -2.533 -21.927   7.301  1.00  0.00    -0.237 OA
ATOM     72  O   UNL     1      -2.635 -24.019   5.988  1.00  0.00    -0.237 OA
ATOM     73  O   UNL     1      -0.456 -22.968   6.471  1.00  0.00    -0.744 OA
ENDBRANCH  69  70
ENDBRANCH  48  62
BRANCH  49  74
ATOM     74  C   UNL     1      -3.509 -15.893  -6.468  1.00  0.00     0.058 A 
ATOM     75  C   UNL     1      -4.307 -16.459  -7.475  1.00  0.00     0.135 A 
ATOM     76  C   UNL     1      -2.857 -14.684  -6.758  1.00  0.00     0.135 A 
ATOM     77  F   UNL     1      -4.951 -17.614  -7.250  1.00  0.00    -0.206 F 
ATOM     78  C   UNL     1      -4.426 -15.870  -8.729  1.00  0.00     0.059 A 
ATOM     79  C   UNL     1      -2.989 -14.057  -7.993  1.00  0.00     0.059 A 
ATOM     80  F   UNL     1      -2.099 -14.087  -5.825  1.00  0.00    -0.206 F 
ATOM     81  C   UNL     1      -3.763 -14.668  -8.978  1.00  0.00     0.060 A 
BRANCH  81  82
ATOM     82  S   UNL     1      -3.936 -13.908 -10.607  1.00  0.00     0.124 S 
ATOM     83  O   UNL     1      -3.221 -14.857 -11.451  1.00  0.00    -0.237 OA
ATOM     84  O   UNL     1      -5.386 -13.871 -10.770  1.00  0.00    -0.237 OA
ATOM     85  O   UNL     1      -3.297 -12.606 -10.440  1.00  0.00    -0.744 OA
ENDBRANCH  81  82
ENDBRANCH  49  74
BRANCH  61  86
ATOM     86  C   UNL     1      -0.793 -21.995  -4.422  1.00  0.00     0.058 A 
ATOM     87  C   UNL     1       0.455 -21.909  -5.056  1.00  0.00     0.135 A 
ATOM     88  C   UNL     1      -1.463 -23.230  -4.457  1.00  0.00     0.135 A 
ATOM     89  F   UNL     1       1.137 -20.753  -5.054  1.00  0.00    -0.206 F 
ATOM     90  C   UNL     1       1.003 -22.997  -5.728  1.00  0.00     0.059 A 
ATOM     91  C   UNL     1      -0.916 -24.341  -5.089  1.00  0.00     0.059 A 
ATOM     92  F   UNL     1      -2.654 -23.372  -3.852  1.00  0.00    -0.206 F 
ATOM     93  C   UNL     1       0.311 -24.209  -5.735  1.00  0.00     0.060 A 
BRANCH  93  94
ATOM     94  S   UNL     1       1.045 -25.615  -6.596  1.00  0.00     0.124 S 
ATOM     95  O   UNL     1       0.951 -25.188  -7.989  1.00  0.00    -0.237 OA
ATOM     96  O   UNL     1       2.392 -25.652  -6.034  1.00  0.00    -0.237 OA
ATOM     97  O   UNL     1       0.184 -26.733  -6.224  1.00  0.00    -0.744 OA
ENDBRANCH  93  94
ENDBRANCH  61  86
ENDBRANCH  35  36
ENDBRANCH  27  30
ENDBRANCH   1  26
TORSDOF 15
