REMARK SMILES CC(=O)O[C@@H]1CC[C@@]23C(=O)O[C@]4(CC[C@]2(O)C1)[C@H]3CC[C@]1(C)[C@H](C(=O)NCCCNC(=O)c2ccc(-c3c5nc(c(-c6c(F)cc(S(=O)(=O)[O-])cc6F)c6ccc([nH]6)c(-c6c(F)cc(S(=O)(=O)[O-])cc6F)c6nc(c(-c7c(F)cc(S(=O)(=O)[O-])cc7F)c7ccc3[nH]7)C=C6)C=C5)cc2)CC[C@@H]14
REMARK SMILES IDX 28 1 27 2 26 3 24 4 25 5 23 7 5 8 6 9 17 10 7 11 15 12 8 13
REMARK SMILES IDX 14 14 9 15 18 16 13 17 10 18 11 19 12 20 19 21 101 22 20 23
REMARK SMILES IDX 21 24 100 25 22 26 99 27 4 28 2 29 1 30 3 31 16 32 29 34
REMARK SMILES IDX 30 35 31 36 32 38 33 39 34 40 98 41 35 42 97 43 36 44 37 45
REMARK SMILES IDX 38 46 91 47 39 48 96 49 90 50 92 51 40 52 95 53 89 54 88 55
REMARK SMILES IDX 41 57 75 58 54 59 74 60 55 61 58 62 73 63 93 64 56 65 57 66
REMARK SMILES IDX 72 68 94 69 59 70 42 71 43 72 52 73 44 74 45 75 51 76 53 77
REMARK SMILES IDX 46 78 47 79 48 80 49 81 50 82 76 83 77 84 86 85 78 86 79 87
REMARK SMILES IDX 85 88 87 89 80 90 81 91 82 92 83 93 84 94 60 95 61 96 70 97
REMARK SMILES IDX 62 98 63 99 69 100 71 101 64 102 65 103 66 104 67 105 68 106
REMARK H PARENT 26 6 16 33 30 37 92 56 58 67
REMARK Flexibility Score: inf
ROOT
ATOM      1  C   UNL     1       2.110  -8.281   7.998  1.00  0.00     0.042 C 
ENDROOT
BRANCH   1   2
ATOM      2  C   UNL     1       3.269  -7.275   7.957  1.00  0.00     0.117 C 
BRANCH   2   3
ATOM      3  N   UNL     1       4.541  -7.964   7.789  1.00  0.00    -0.356 N 
ATOM      4  C   UNL     1       5.340  -8.274   6.744  1.00  0.00     0.223 C 
ATOM      5  O   UNL     1       6.268  -9.050   7.024  1.00  0.00    -0.275 OA
ATOM      6  H   UNL     1       4.908  -8.282   8.646  1.00  0.00     0.163 HD
BRANCH   4   7
ATOM      7  C   UNL     1       5.275  -7.723   5.311  1.00  0.00     0.085 C 
ATOM      8  C   UNL     1      -0.362  -2.462   2.683  1.00  0.00     0.179 C 
ATOM      9  C   UNL     1       0.646  -2.547   3.812  1.00  0.00     0.047 C 
ATOM     10  C   UNL     1      -0.946  -3.846   2.392  1.00  0.00     0.081 C 
ATOM     11  C   UNL     1       1.646  -3.652   3.507  1.00  0.00     0.026 C 
ATOM     12  C   UNL     1       0.015  -5.060   2.363  1.00  0.00     0.085 C 
ATOM     13  C   UNL     1       0.913  -5.225   3.533  1.00  0.00     0.103 C 
ATOM     14  C   UNL     1       1.129  -5.063   1.193  1.00  0.00     0.041 C 
ATOM     15  C   UNL     1       1.472  -5.411   4.847  1.00  0.00     0.316 C 
ATOM     16  C   UNL     1       1.609  -6.761   3.138  1.00  0.00     0.054 C 
ATOM     17  C   UNL     1       2.724  -5.420   1.679  1.00  0.00     0.052 C 
ATOM     18  O   UNL     1       1.035  -5.234   5.978  1.00  0.00    -0.251 OA
ATOM     19  O   UNL     1       2.818  -5.565   4.467  1.00  0.00    -0.458 OA
ATOM     20  C   UNL     1       2.933  -6.164   3.110  1.00  0.00     0.120 C 
ATOM     21  C   UNL     1       1.527  -8.035   4.004  1.00  0.00     0.009 C 
ATOM     22  C   UNL     1       4.220  -6.974   3.186  1.00  0.00     0.040 C 
ATOM     23  C   UNL     1       2.786  -8.377   4.816  1.00  0.00     0.008 C 
ATOM     24  C   UNL     1       4.193  -8.134   4.238  1.00  0.00    -0.014 C 
ATOM     25  C   UNL     1       5.352  -6.024   3.666  1.00  0.00     0.009 C 
ATOM     26  C   UNL     1       4.690  -9.431   3.562  1.00  0.00     0.012 C 
ATOM     27  C   UNL     1       5.455  -6.220   5.182  1.00  0.00     0.014 C 
BRANCH   8  28
ATOM     28  O   UNL     1       0.267  -1.960   1.482  1.00  0.00    -0.462 OA
BRANCH  28  29
ATOM     29  C   UNL     1       0.394  -0.606   1.383  1.00  0.00     0.302 C 
ATOM     30  C   UNL     1       1.066  -0.234   0.095  1.00  0.00     0.139 C 
ATOM     31  O   UNL     1       0.053   0.206   2.231  1.00  0.00    -0.253 OA
ENDBRANCH  28  29
ENDBRANCH   8  28
BRANCH  12  32
ATOM     32  O   UNL     1      -0.824  -6.211   2.226  1.00  0.00    -0.389 OA
ATOM     33  H   UNL     1      -0.275  -7.010   2.202  1.00  0.00     0.211 HD
ENDBRANCH  12  32
ENDBRANCH   4   7
ENDBRANCH   2   3
ENDBRANCH   1   2
BRANCH   1  34
ATOM     34  C   UNL     1       2.000  -9.064   9.296  1.00  0.00     0.118 C 
BRANCH  34  35
ATOM     35  N   UNL     1       1.311  -8.316  10.331  1.00  0.00    -0.352 N 
ATOM     36  C   UNL     1       0.088  -8.546  10.916  1.00  0.00     0.251 C 
ATOM     37  H   UNL     1       1.792  -7.525  10.665  1.00  0.00     0.163 HD
ATOM     38  O   UNL     1      -0.410  -7.669  11.618  1.00  0.00    -0.269 OA
BRANCH  36  39
ATOM     39  C   UNL     1      -0.640  -9.821  10.702  1.00  0.00     0.039 A 
ATOM     40  C   UNL     1      -2.034  -9.788  10.588  1.00  0.00     0.014 A 
ATOM     41  C   UNL     1       0.023 -11.050  10.664  1.00  0.00     0.014 A 
ATOM     42  C   UNL     1      -2.750 -10.974  10.398  1.00  0.00     0.010 A 
ATOM     43  C   UNL     1      -0.680 -12.219  10.377  1.00  0.00     0.010 A 
ATOM     44  C   UNL     1      -2.078 -12.200  10.267  1.00  0.00    -0.014 A 
BRANCH  44  45
ATOM     45  C   UNL     1      -2.818 -13.474  10.065  1.00  0.00     0.031 A 
ATOM     46  C   UNL     1      -2.727 -14.571  11.095  1.00  0.00     0.074 A 
ATOM     47  C   UNL     1      -3.531 -13.669   8.937  1.00  0.00     0.049 A 
ATOM     48  N   UNL     1      -3.244 -15.773  11.076  1.00  0.00    -0.248 NA
ATOM     49  C   UNL     1      -1.919 -14.288  12.293  1.00  0.00     0.031 C 
ATOM     50  C   UNL     1      -3.665 -12.704   7.844  1.00  0.00     0.029 A 
ATOM     51  N   UNL     1      -4.273 -14.746   8.521  1.00  0.00    -0.354 N 
ATOM     52  C   UNL     1      -2.808 -16.393  12.242  1.00  0.00     0.074 A 
ATOM     53  C   UNL     1      -1.934 -15.457  12.914  1.00  0.00     0.031 C 
ATOM     54  C   UNL     1      -4.467 -13.219   6.899  1.00  0.00     0.029 A 
ATOM     55  C   UNL     1      -4.872 -14.564   7.296  1.00  0.00     0.049 A 
ATOM     56  H   UNL     1      -4.367 -15.572   9.049  1.00  0.00     0.167 HD
ATOM     57  C   UNL     1      -3.126 -17.619  12.724  1.00  0.00     0.037 A 
ATOM     58  C   UNL     1      -5.657 -15.388   6.575  1.00  0.00     0.037 A 
ATOM     59  C   UNL     1      -4.020 -18.534  12.064  1.00  0.00     0.049 A 
ATOM     60  C   UNL     1      -6.000 -16.745   7.126  1.00  0.00     0.074 A 
ATOM     61  C   UNL     1      -4.456 -19.774  12.495  1.00  0.00     0.029 A 
ATOM     62  N   UNL     1      -4.614 -18.307  10.831  1.00  0.00    -0.354 N 
ATOM     63  N   UNL     1      -5.624 -17.293   8.258  1.00  0.00    -0.248 NA
ATOM     64  C   UNL     1      -6.875 -17.593   6.307  1.00  0.00     0.031 C 
ATOM     65  C   UNL     1      -5.280 -20.316  11.502  1.00  0.00     0.029 A 
ATOM     66  C   UNL     1      -5.396 -19.393  10.474  1.00  0.00     0.049 A 
ATOM     67  H   UNL     1      -4.497 -17.494  10.288  1.00  0.00     0.167 HD
ATOM     68  C   UNL     1      -6.238 -18.540   8.299  1.00  0.00     0.074 A 
ATOM     69  C   UNL     1      -7.016 -18.661   7.082  1.00  0.00     0.031 C 
ATOM     70  C   UNL     1      -6.166 -19.497   9.258  1.00  0.00     0.037 A 
BRANCH  57  71
ATOM     71  C   UNL     1      -2.495 -18.034  14.028  1.00  0.00     0.058 A 
ATOM     72  C   UNL     1      -2.829 -17.412  15.242  1.00  0.00     0.135 A 
ATOM     73  C   UNL     1      -1.540 -19.063  14.064  1.00  0.00     0.135 A 
ATOM     74  F   UNL     1      -3.727 -16.414  15.267  1.00  0.00    -0.206 F 
ATOM     75  C   UNL     1      -2.202 -17.758  16.436  1.00  0.00     0.059 A 
ATOM     76  C   UNL     1      -0.923 -19.448  15.252  1.00  0.00     0.059 A 
ATOM     77  F   UNL     1      -1.185 -19.697  12.936  1.00  0.00    -0.206 F 
ATOM     78  C   UNL     1      -1.244 -18.772  16.428  1.00  0.00     0.060 A 
BRANCH  78  79
ATOM     79  S   UNL     1      -0.416 -19.189  17.978  1.00  0.00     0.124 S 
ATOM     80  O   UNL     1       0.489 -18.054  18.137  1.00  0.00    -0.237 OA
ATOM     81  O   UNL     1      -1.528 -19.248  18.922  1.00  0.00    -0.237 OA
ATOM     82  O   UNL     1       0.225 -20.467  17.688  1.00  0.00    -0.744 OA
ENDBRANCH  78  79
ENDBRANCH  57  71
BRANCH  58  83
ATOM     83  C   UNL     1      -6.204 -14.927   5.270  1.00  0.00     0.058 A 
ATOM     84  C   UNL     1      -7.562 -14.604   5.135  1.00  0.00     0.135 A 
ATOM     85  C   UNL     1      -5.377 -14.758   4.149  1.00  0.00     0.135 A 
ATOM     86  F   UNL     1      -8.395 -14.758   6.176  1.00  0.00    -0.206 F 
ATOM     87  C   UNL     1      -8.084 -14.131   3.935  1.00  0.00     0.059 A 
ATOM     88  C   UNL     1      -5.870 -14.264   2.945  1.00  0.00     0.059 A 
ATOM     89  F   UNL     1      -4.067 -15.039   4.230  1.00  0.00    -0.206 F 
ATOM     90  C   UNL     1      -7.227 -13.956   2.846  1.00  0.00     0.060 A 
BRANCH  90  91
ATOM     91  S   UNL     1      -7.899 -13.267   1.318  1.00  0.00     0.124 S 
ATOM     92  O   UNL     1      -8.682 -14.387   0.808  1.00  0.00    -0.237 OA
ATOM     93  O   UNL     1      -8.662 -12.123   1.807  1.00  0.00    -0.237 OA
ATOM     94  O   UNL     1      -6.705 -12.929   0.548  1.00  0.00    -0.744 OA
ENDBRANCH  90  91
ENDBRANCH  58  83
BRANCH  70  95
ATOM     95  C   UNL     1      -6.970 -20.750   9.046  1.00  0.00     0.058 A 
ATOM     96  C   UNL     1      -6.596 -21.717   8.101  1.00  0.00     0.135 A 
ATOM     97  C   UNL     1      -8.100 -21.010   9.840  1.00  0.00     0.135 A 
ATOM     98  F   UNL     1      -5.529 -21.514   7.312  1.00  0.00    -0.206 F 
ATOM     99  C   UNL     1      -7.327 -22.889   7.933  1.00  0.00     0.059 A 
ATOM    100  C   UNL     1      -8.829 -22.188   9.708  1.00  0.00     0.059 A 
ATOM    101  F   UNL     1      -8.494 -20.123  10.767  1.00  0.00    -0.206 F 
ATOM    102  C   UNL     1      -8.441 -23.116   8.744  1.00  0.00     0.060 A 
BRANCH 102 103
ATOM    103  S   UNL     1      -9.359 -24.657   8.540  1.00  0.00     0.124 S 
ATOM    104  O   UNL     1     -10.069 -24.413   7.289  1.00  0.00    -0.237 OA
ATOM    105  O   UNL     1      -8.293 -25.652   8.480  1.00  0.00    -0.237 OA
ATOM    106  O   UNL     1     -10.195 -24.715   9.736  1.00  0.00    -0.744 OA
ENDBRANCH 102 103
ENDBRANCH  70  95
ENDBRANCH  44  45
ENDBRANCH  36  39
ENDBRANCH  34  35
ENDBRANCH   1  34
TORSDOF 16
