REMARK SMILES CCC(CC)Oc1cc(C(=O)NCCCNC(=O)c2ccc(-c3c4nc(c(-c5c(F)cc(S(=O)(=O)[O-])cc5F)c5ccc([nH]5)c(-c5c(F)cc(S(=O)(=O)[O-])cc5F)c5nc(c(-c6c(F)cc(S(=O)(=O)[O-])cc6F)c6ccc3[nH]6)C=C5)C=C4)cc2)c(N)cc1OC
REMARK SMILES IDX 14 1 13 2 12 3 10 4 11 5 9 7 7 8 8 9 88 10 87 11 85 12 6 13
REMARK SMILES IDX 3 14 2 15 1 16 4 17 5 18 89 19 90 20 86 21 15 24 16 25 17 26
REMARK SMILES IDX 18 28 19 29 20 30 84 31 21 32 83 33 22 34 23 35 24 36 77 37
REMARK SMILES IDX 25 38 82 39 76 40 78 41 26 42 81 43 75 44 74 45 27 47 61 48
REMARK SMILES IDX 40 49 60 50 41 51 44 52 59 53 79 54 42 55 43 56 58 58 80 59
REMARK SMILES IDX 45 60 28 61 29 62 38 63 30 64 31 65 37 66 39 67 32 68 33 69
REMARK SMILES IDX 34 70 35 71 36 72 62 73 63 74 72 75 64 76 65 77 71 78 73 79
REMARK SMILES IDX 66 80 67 81 68 82 69 83 70 84 46 85 47 86 56 87 48 88 49 89
REMARK SMILES IDX 55 90 57 91 50 92 51 93 52 94 53 95 54 96
REMARK H PARENT 12 6 86 22 86 23 16 27 78 46 44 57
REMARK Flexibility Score: inf
ROOT
ATOM      1  C   UNL     1      -7.176  -0.005  -2.898  1.00  0.00     0.042 C 
ENDROOT
BRANCH   1   2
ATOM      2  C   UNL     1      -6.117   0.906  -3.499  1.00  0.00     0.118 C 
BRANCH   2   3
ATOM      3  N   UNL     1      -5.359   1.688  -2.535  1.00  0.00    -0.352 N 
ATOM      4  C   UNL     1      -4.049   2.107  -2.554  1.00  0.00     0.253 C 
ATOM      5  O   UNL     1      -3.657   2.814  -1.624  1.00  0.00    -0.269 OA
ATOM      6  H   UNL     1      -5.867   1.962  -1.738  1.00  0.00     0.163 HD
BRANCH   4   7
ATOM      7  C   UNL     1      -3.073   1.665  -3.589  1.00  0.00     0.066 A 
ATOM      8  C   UNL     1      -0.798   0.798  -3.925  1.00  0.00     0.162 A 
ATOM      9  C   UNL     1      -1.791   1.336  -3.101  1.00  0.00     0.066 A 
ATOM     10  C   UNL     1      -1.096   0.600  -5.279  1.00  0.00     0.162 A 
ATOM     11  C   UNL     1      -2.352   0.991  -5.772  1.00  0.00     0.076 A 
ATOM     12  C   UNL     1      -3.318   1.605  -4.965  1.00  0.00     0.048 A 
BRANCH   8  13
ATOM     13  O   UNL     1       0.469   0.597  -3.469  1.00  0.00    -0.487 OA
BRANCH  13  14
ATOM     14  C   UNL     1       0.752  -0.230  -2.323  1.00  0.00     0.173 C 
BRANCH  14  15
ATOM     15  C   UNL     1       0.480   0.449  -0.970  1.00  0.00     0.042 C 
ATOM     16  C   UNL     1       1.244  -0.180   0.188  1.00  0.00     0.008 C 
ENDBRANCH  14  15
BRANCH  14  17
ATOM     17  C   UNL     1       0.296  -1.694  -2.459  1.00  0.00     0.042 C 
ATOM     18  C   UNL     1      -1.187  -1.969  -2.262  1.00  0.00     0.008 C 
ENDBRANCH  14  17
ENDBRANCH  13  14
ENDBRANCH   8  13
BRANCH  10  19
ATOM     19  O   UNL     1      -0.311   0.052  -6.258  1.00  0.00    -0.493 OA
ATOM     20  C   UNL     1       1.085  -0.051  -6.035  1.00  0.00     0.278 C 
ENDBRANCH  10  19
BRANCH  12  21
ATOM     21  N   UNL     1      -4.458   2.108  -5.577  1.00  0.00    -0.398 N 
ATOM     22  H   UNL     1      -5.154   2.545  -5.035  1.00  0.00     0.156 HD
ATOM     23  H   UNL     1      -4.569   2.029  -6.551  1.00  0.00     0.156 HD
ENDBRANCH  12  21
ENDBRANCH   4   7
ENDBRANCH   2   3
ENDBRANCH   1   2
BRANCH   1  24
ATOM     24  C   UNL     1      -8.173   0.669  -1.966  1.00  0.00     0.118 C 
BRANCH  24  25
ATOM     25  N   UNL     1      -8.964   1.722  -2.591  1.00  0.00    -0.352 N 
ATOM     26  C   UNL     1     -10.269   1.759  -3.025  1.00  0.00     0.251 C 
ATOM     27  H   UNL     1      -8.472   2.563  -2.729  1.00  0.00     0.163 HD
ATOM     28  O   UNL     1     -10.665   2.759  -3.623  1.00  0.00    -0.269 OA
BRANCH  26  29
ATOM     29  C   UNL     1     -11.187   0.612  -2.831  1.00  0.00     0.039 A 
ATOM     30  C   UNL     1     -12.089   0.287  -3.850  1.00  0.00     0.014 A 
ATOM     31  C   UNL     1     -11.185  -0.140  -1.658  1.00  0.00     0.014 A 
ATOM     32  C   UNL     1     -12.906  -0.844  -3.731  1.00  0.00     0.010 A 
ATOM     33  C   UNL     1     -11.904  -1.329  -1.591  1.00  0.00     0.010 A 
ATOM     34  C   UNL     1     -12.779  -1.697  -2.623  1.00  0.00    -0.014 A 
BRANCH  34  35
ATOM     35  C   UNL     1     -13.548  -2.966  -2.510  1.00  0.00     0.031 A 
ATOM     36  C   UNL     1     -14.451  -3.201  -1.326  1.00  0.00     0.074 A 
ATOM     37  C   UNL     1     -13.365  -3.947  -3.417  1.00  0.00     0.049 A 
ATOM     38  N   UNL     1     -15.099  -4.283  -0.979  1.00  0.00    -0.248 NA
ATOM     39  C   UNL     1     -14.612  -2.081  -0.384  1.00  0.00     0.031 C 
ATOM     40  C   UNL     1     -12.477  -3.874  -4.580  1.00  0.00     0.029 A 
ATOM     41  N   UNL     1     -13.908  -5.206  -3.497  1.00  0.00    -0.354 N 
ATOM     42  C   UNL     1     -15.712  -3.987   0.234  1.00  0.00     0.074 A 
ATOM     43  C   UNL     1     -15.308  -2.645   0.592  1.00  0.00     0.031 C 
ATOM     44  C   UNL     1     -12.563  -5.019  -5.274  1.00  0.00     0.029 A 
ATOM     45  C   UNL     1     -13.475  -5.927  -4.586  1.00  0.00     0.049 A 
ATOM     46  H   UNL     1     -14.547  -5.559  -2.837  1.00  0.00     0.167 HD
ATOM     47  C   UNL     1     -16.557  -4.748   0.970  1.00  0.00     0.037 A 
ATOM     48  C   UNL     1     -13.774  -7.179  -4.984  1.00  0.00     0.037 A 
ATOM     49  C   UNL     1     -16.994  -6.065   0.587  1.00  0.00     0.049 A 
ATOM     50  C   UNL     1     -14.732  -8.000  -4.167  1.00  0.00     0.074 A 
ATOM     51  C   UNL     1     -17.902  -6.891   1.224  1.00  0.00     0.029 A 
ATOM     52  N   UNL     1     -16.558  -6.745  -0.542  1.00  0.00    -0.354 N 
ATOM     53  N   UNL     1     -15.344  -7.683  -3.050  1.00  0.00    -0.248 NA
ATOM     54  C   UNL     1     -15.046  -9.346  -4.664  1.00  0.00     0.031 C 
ATOM     55  C   UNL     1     -17.989  -8.085   0.500  1.00  0.00     0.029 A 
ATOM     56  C   UNL     1     -17.168  -7.986  -0.612  1.00  0.00     0.049 A 
ATOM     57  H   UNL     1     -15.910  -6.396  -1.196  1.00  0.00     0.167 HD
ATOM     58  C   UNL     1     -16.134  -8.780  -2.725  1.00  0.00     0.074 A 
ATOM     59  C   UNL     1     -15.928  -9.765  -3.767  1.00  0.00     0.031 C 
ATOM     60  C   UNL     1     -16.956  -8.954  -1.661  1.00  0.00     0.037 A 
BRANCH  47  61
ATOM     61  C   UNL     1     -17.063  -4.164   2.262  1.00  0.00     0.058 A 
ATOM     62  C   UNL     1     -17.948  -3.073   2.282  1.00  0.00     0.135 A 
ATOM     63  C   UNL     1     -16.651  -4.691   3.497  1.00  0.00     0.135 A 
ATOM     64  F   UNL     1     -18.366  -2.520   1.131  1.00  0.00    -0.206 F 
ATOM     65  C   UNL     1     -18.361  -2.491   3.475  1.00  0.00     0.059 A 
ATOM     66  C   UNL     1     -17.077  -4.144   4.704  1.00  0.00     0.059 A 
ATOM     67  F   UNL     1     -15.811  -5.737   3.539  1.00  0.00    -0.206 F 
ATOM     68  C   UNL     1     -17.912  -3.028   4.682  1.00  0.00     0.060 A 
BRANCH  68  69
ATOM     69  S   UNL     1     -18.426  -2.240   6.223  1.00  0.00     0.124 S 
ATOM     70  O   UNL     1     -17.578  -1.052   6.236  1.00  0.00    -0.237 OA
ATOM     71  O   UNL     1     -19.847  -2.001   5.995  1.00  0.00    -0.237 OA
ATOM     72  O   UNL     1     -18.117  -3.243   7.237  1.00  0.00    -0.744 OA
ENDBRANCH  68  69
ENDBRANCH  47  61
BRANCH  48  73
ATOM     73  C   UNL     1     -13.192  -7.710  -6.245  1.00  0.00     0.058 A 
ATOM     74  C   UNL     1     -13.986  -7.850  -7.393  1.00  0.00     0.135 A 
ATOM     75  C   UNL     1     -11.833  -8.045  -6.345  1.00  0.00     0.135 A 
ATOM     76  F   UNL     1     -15.293  -7.549  -7.345  1.00  0.00    -0.206 F 
ATOM     77  C   UNL     1     -13.456  -8.306  -8.595  1.00  0.00     0.059 A 
ATOM     78  C   UNL     1     -11.274  -8.482  -7.542  1.00  0.00     0.059 A 
ATOM     79  F   UNL     1     -11.028  -7.912  -5.279  1.00  0.00    -0.206 F 
ATOM     80  C   UNL     1     -12.096  -8.613  -8.662  1.00  0.00     0.060 A 
BRANCH  80  81
ATOM     81  S   UNL     1     -11.404  -9.131 -10.248  1.00  0.00     0.124 S 
ATOM     82  O   UNL     1     -11.931 -10.485 -10.371  1.00  0.00    -0.237 OA
ATOM     83  O   UNL     1     -11.963  -8.141 -11.163  1.00  0.00    -0.237 OA
ATOM     84  O   UNL     1      -9.963  -9.031 -10.033  1.00  0.00    -0.744 OA
ENDBRANCH  80  81
ENDBRANCH  48  73
BRANCH  60  85
ATOM     85  C   UNL     1     -17.724 -10.243  -1.584  1.00  0.00     0.058 A 
ATOM     86  C   UNL     1     -17.102 -11.452  -1.234  1.00  0.00     0.135 A 
ATOM     87  C   UNL     1     -19.110 -10.258  -1.809  1.00  0.00     0.135 A 
ATOM     88  F   UNL     1     -15.778 -11.492  -1.016  1.00  0.00    -0.206 F 
ATOM     89  C   UNL     1     -17.825 -12.636  -1.129  1.00  0.00     0.059 A 
ATOM     90  C   UNL     1     -19.857 -11.426  -1.685  1.00  0.00     0.059 A 
ATOM     91  F   UNL     1     -19.754  -9.127  -2.137  1.00  0.00    -0.206 F 
ATOM     92  C   UNL     1     -19.203 -12.612  -1.354  1.00  0.00     0.060 A 
BRANCH  92  93
ATOM     93  S   UNL     1     -20.137 -14.147  -1.176  1.00  0.00     0.124 S 
ATOM     94  O   UNL     1     -19.771 -14.856  -2.397  1.00  0.00    -0.237 OA
ATOM     95  O   UNL     1     -19.599 -14.699   0.063  1.00  0.00    -0.237 OA
ATOM     96  O   UNL     1     -21.523 -13.694  -1.103  1.00  0.00    -0.744 OA
ENDBRANCH  92  93
ENDBRANCH  60  85
ENDBRANCH  34  35
ENDBRANCH  26  29
ENDBRANCH  24  25
ENDBRANCH   1  24
TORSDOF 19
