REMARK SMILES CCNC(=O)c1ccc(NC(=O)CC2(C(=O)NCCCNC(=O)c3ccc(-c4c5nc(c(-c6c(F)cc(S(=O)(=O)[O-])cc6F)c6ccc([nH]6)c(-c6c(F)cc(S(=O)(=O)[O-])cc6F)c6nc(c(-c7c(F)cc(S(=O)(=O)[O-])cc7F)c7ccc4[nH]7)C=C6)C=C5)cc3)CCCC2)cc1
REMARK SMILES IDX 18 1 17 2 15 3 16 4 14 6 90 7 93 8 91 9 92 10 13 11 11 12
REMARK SMILES IDX 10 13 12 15 9 16 6 17 7 18 95 19 8 20 94 21 4 22 3 23 5 25
REMARK SMILES IDX 2 26 1 27 19 28 20 29 21 30 22 31 23 33 24 34 25 35 89 36
REMARK SMILES IDX 26 37 88 38 27 39 28 40 29 41 82 42 30 43 87 44 81 45 83 46
REMARK SMILES IDX 31 47 86 48 80 49 79 50 32 52 66 53 45 54 65 55 46 56 49 57
REMARK SMILES IDX 64 58 84 59 47 60 48 61 63 63 85 64 50 65 33 66 34 67 43 68
REMARK SMILES IDX 35 69 36 70 42 71 44 72 37 73 38 74 39 75 40 76 41 77 67 78
REMARK SMILES IDX 68 79 77 80 69 81 70 82 76 83 78 84 71 85 72 86 73 87 74 88
REMARK SMILES IDX 75 89 51 90 52 91 61 92 53 93 54 94 60 95 62 96 55 97 56 98
REMARK SMILES IDX 57 99 58 100 59 101
REMARK H PARENT 17 5 10 14 3 24 21 32 83 51 49 62
REMARK Flexibility Score: inf
ROOT
ATOM      1  C   UNL     1      -3.077  -1.818  -7.290  1.00  0.00     0.117 C 
ENDROOT
BRANCH   1   2
ATOM      2  N   UNL     1      -3.099  -2.280  -5.921  1.00  0.00    -0.356 N 
ATOM      3  C   UNL     1      -4.124  -2.692  -5.135  1.00  0.00     0.226 C 
ATOM      4  O   UNL     1      -3.826  -3.588  -4.332  1.00  0.00    -0.274 OA
ATOM      5  H   UNL     1      -2.217  -2.300  -5.483  1.00  0.00     0.163 HD
BRANCH   3   6
ATOM      6  C   UNL     1      -5.586  -2.164  -5.199  1.00  0.00     0.058 C 
ATOM      7  C   UNL     1      -6.406  -3.140  -6.084  1.00  0.00     0.017 C 
ATOM      8  C   UNL     1      -5.820  -0.794  -5.862  1.00  0.00     0.017 C 
ATOM      9  C   UNL     1      -6.490  -2.526  -7.471  1.00  0.00     0.001 C 
ATOM     10  C   UNL     1      -6.392  -1.024  -7.263  1.00  0.00     0.001 C 
BRANCH   6  11
ATOM     11  C   UNL     1      -6.144  -2.219  -3.722  1.00  0.00     0.117 C 
BRANCH  11  12
ATOM     12  C   UNL     1      -6.413  -0.902  -3.003  1.00  0.00     0.225 C 
ATOM     13  N   UNL     1      -5.444   0.005  -2.700  1.00  0.00    -0.326 N 
ATOM     14  H   UNL     1      -5.797   0.878  -2.412  1.00  0.00     0.169 HD
ATOM     15  O   UNL     1      -7.581  -0.587  -2.739  1.00  0.00    -0.275 OA
BRANCH  13  16
ATOM     16  C   UNL     1      -4.047  -0.059  -2.716  1.00  0.00     0.041 A 
ATOM     17  C   UNL     1      -1.265  -0.067  -2.959  1.00  0.00     0.039 A 
ATOM     18  C   UNL     1      -1.939  -1.248  -2.665  1.00  0.00     0.016 A 
ATOM     19  C   UNL     1      -1.962   1.137  -3.072  1.00  0.00     0.016 A 
ATOM     20  C   UNL     1      -3.327  -1.232  -2.513  1.00  0.00     0.027 A 
ATOM     21  C   UNL     1      -3.353   1.140  -2.929  1.00  0.00     0.027 A 
BRANCH  17  22
ATOM     22  C   UNL     1       0.180  -0.122  -3.222  1.00  0.00     0.251 C 
ATOM     23  N   UNL     1       1.052   0.446  -2.338  1.00  0.00    -0.352 N 
ATOM     24  H   UNL     1       1.989   0.497  -2.635  1.00  0.00     0.163 HD
ATOM     25  O   UNL     1       0.580  -0.692  -4.237  1.00  0.00    -0.269 OA
BRANCH  23  26
ATOM     26  C   UNL     1       0.777   0.985  -1.020  1.00  0.00     0.112 C 
ATOM     27  C   UNL     1       1.250   0.027   0.058  1.00  0.00     0.027 C 
ENDBRANCH  23  26
ENDBRANCH  17  22
ENDBRANCH  13  16
ENDBRANCH  11  12
ENDBRANCH   6  11
ENDBRANCH   3   6
ENDBRANCH   1   2
BRANCH   1  28
ATOM     28  C   UNL     1      -2.470  -0.440  -7.478  1.00  0.00     0.042 C 
BRANCH  28  29
ATOM     29  C   UNL     1      -0.953  -0.425  -7.369  1.00  0.00     0.118 C 
BRANCH  29  30
ATOM     30  N   UNL     1      -0.308  -1.286  -8.355  1.00  0.00    -0.352 N 
ATOM     31  C   UNL     1       0.424  -0.989  -9.477  1.00  0.00     0.251 C 
ATOM     32  H   UNL     1      -0.416  -2.250  -8.185  1.00  0.00     0.163 HD
ATOM     33  O   UNL     1       0.687  -1.881 -10.278  1.00  0.00    -0.269 OA
BRANCH  31  34
ATOM     34  C   UNL     1       0.882   0.393  -9.732  1.00  0.00     0.039 A 
ATOM     35  C   UNL     1       0.887   0.878 -11.044  1.00  0.00     0.014 A 
ATOM     36  C   UNL     1       1.341   1.200  -8.691  1.00  0.00     0.014 A 
ATOM     37  C   UNL     1       1.286   2.193 -11.295  1.00  0.00     0.010 A 
ATOM     38  C   UNL     1       1.632   2.538  -8.926  1.00  0.00     0.010 A 
ATOM     39  C   UNL     1       1.623   3.046 -10.233  1.00  0.00    -0.014 A 
BRANCH  39  40
ATOM     40  C   UNL     1       1.999   4.465 -10.458  1.00  0.00     0.031 A 
ATOM     41  C   UNL     1       3.361   4.953 -10.040  1.00  0.00     0.074 A 
ATOM     42  C   UNL     1       1.093   5.325 -10.964  1.00  0.00     0.049 A 
ATOM     43  N   UNL     1       3.842   6.169 -10.048  1.00  0.00    -0.248 NA
ATOM     44  C   UNL     1       4.294   3.945  -9.508  1.00  0.00     0.031 C 
ATOM     45  C   UNL     1      -0.275   4.980 -11.360  1.00  0.00     0.029 A 
ATOM     46  N   UNL     1       1.180   6.671 -11.218  1.00  0.00    -0.354 N 
ATOM     47  C   UNL     1       5.119   6.075  -9.505  1.00  0.00     0.074 A 
ATOM     48  C   UNL     1       5.314   4.695  -9.119  1.00  0.00     0.031 C 
ATOM     49  C   UNL     1      -0.888   6.077 -11.832  1.00  0.00     0.029 A 
ATOM     50  C   UNL     1       0.023   7.213 -11.728  1.00  0.00     0.049 A 
ATOM     51  H   UNL     1       1.994   7.199 -11.052  1.00  0.00     0.167 HD
ATOM     52  C   UNL     1       6.054   7.044  -9.366  1.00  0.00     0.037 A 
ATOM     53  C   UNL     1      -0.274   8.484 -12.063  1.00  0.00     0.037 A 
ATOM     54  C   UNL     1       5.860   8.408  -9.784  1.00  0.00     0.049 A 
ATOM     55  C   UNL     1       0.781   9.544 -11.899  1.00  0.00     0.074 A 
ATOM     56  C   UNL     1       6.762   9.456  -9.744  1.00  0.00     0.029 A 
ATOM     57  N   UNL     1       4.684   8.912 -10.321  1.00  0.00    -0.354 N 
ATOM     58  N   UNL     1       2.004   9.427 -11.437  1.00  0.00    -0.248 NA
ATOM     59  C   UNL     1       0.421  10.909 -12.307  1.00  0.00     0.031 C 
ATOM     60  C   UNL     1       6.115  10.605 -10.210  1.00  0.00     0.029 A 
ATOM     61  C   UNL     1       4.829  10.261 -10.596  1.00  0.00     0.049 A 
ATOM     62  H   UNL     1       3.867   8.387 -10.483  1.00  0.00     0.167 HD
ATOM     63  C   UNL     1       2.569  10.694 -11.528  1.00  0.00     0.074 A 
ATOM     64  C   UNL     1       1.557  11.560 -12.099  1.00  0.00     0.031 C 
ATOM     65  C   UNL     1       3.812  11.105 -11.174  1.00  0.00     0.037 A 
BRANCH  52  66
ATOM     66  C   UNL     1       7.369   6.662  -8.741  1.00  0.00     0.058 A 
ATOM     67  C   UNL     1       8.281   5.816  -9.393  1.00  0.00     0.135 A 
ATOM     68  C   UNL     1       7.736   7.170  -7.484  1.00  0.00     0.135 A 
ATOM     69  F   UNL     1       7.977   5.287 -10.589  1.00  0.00    -0.206 F 
ATOM     70  C   UNL     1       9.491   5.459  -8.808  1.00  0.00     0.059 A 
ATOM     71  C   UNL     1       8.957   6.853  -6.894  1.00  0.00     0.059 A 
ATOM     72  F   UNL     1       6.904   7.983  -6.813  1.00  0.00    -0.206 F 
ATOM     73  C   UNL     1       9.821   5.984  -7.558  1.00  0.00     0.060 A 
BRANCH  73  74
ATOM     74  S   UNL     1      11.397   5.514  -6.815  1.00  0.00     0.124 S 
ATOM     75  O   UNL     1      11.142   4.125  -6.444  1.00  0.00    -0.237 OA
ATOM     76  O   UNL     1      12.333   5.714  -7.917  1.00  0.00    -0.237 OA
ATOM     77  O   UNL     1      11.539   6.444  -5.699  1.00  0.00    -0.744 OA
ENDBRANCH  73  74
ENDBRANCH  52  66
BRANCH  53  78
ATOM     78  C   UNL     1      -1.618   8.816 -12.606  1.00  0.00     0.058 A 
ATOM     79  C   UNL     1      -1.781   9.188 -13.949  1.00  0.00     0.135 A 
ATOM     80  C   UNL     1      -2.767   8.755 -11.803  1.00  0.00     0.135 A 
ATOM     81  F   UNL     1      -0.713   9.267 -14.757  1.00  0.00    -0.206 F 
ATOM     82  C   UNL     1      -3.031   9.505 -14.472  1.00  0.00     0.059 A 
ATOM     83  C   UNL     1      -4.032   9.040 -12.310  1.00  0.00     0.059 A 
ATOM     84  F   UNL     1      -2.670   8.387 -10.515  1.00  0.00    -0.206 F 
ATOM     85  C   UNL     1      -4.151   9.425 -13.644  1.00  0.00     0.060 A 
BRANCH  85  86
ATOM     86  S   UNL     1      -5.774   9.795 -14.346  1.00  0.00     0.124 S 
ATOM     87  O   UNL     1      -5.698  11.241 -14.515  1.00  0.00    -0.237 OA
ATOM     88  O   UNL     1      -5.763   9.006 -15.573  1.00  0.00    -0.237 OA
ATOM     89  O   UNL     1      -6.699   9.327 -13.317  1.00  0.00    -0.744 OA
ENDBRANCH  85  86
ENDBRANCH  53  78
BRANCH  65  90
ATOM     90  C   UNL     1       4.166  12.544 -11.429  1.00  0.00     0.058 A 
ATOM     91  C   UNL     1       3.624  13.587 -10.662  1.00  0.00     0.135 A 
ATOM     92  C   UNL     1       5.107  12.876 -12.417  1.00  0.00     0.135 A 
ATOM     93  F   UNL     1       2.716  13.324  -9.709  1.00  0.00    -0.206 F 
ATOM     94  C   UNL     1       3.985  14.912 -10.882  1.00  0.00     0.059 A 
ATOM     95  C   UNL     1       5.506  14.191 -12.634  1.00  0.00     0.059 A 
ATOM     96  F   UNL     1       5.665  11.915 -13.171  1.00  0.00    -0.206 F 
ATOM     97  C   UNL     1       4.930  15.204 -11.868  1.00  0.00     0.060 A 
BRANCH  97  98
ATOM     98  S   UNL     1       5.417  16.924 -12.116  1.00  0.00     0.124 S 
ATOM     99  O   UNL     1       4.232  17.474 -12.766  1.00  0.00    -0.237 OA
ATOM    100  O   UNL     1       5.660  17.379 -10.751  1.00  0.00    -0.237 OA
ATOM    101  O   UNL     1       6.606  16.823 -12.958  1.00  0.00    -0.744 OA
ENDBRANCH  97  98
ENDBRANCH  65  90
ENDBRANCH  39  40
ENDBRANCH  31  34
ENDBRANCH  29  30
ENDBRANCH  28  29
ENDBRANCH   1  28
TORSDOF 18
