REMARK SMILES Cc1ccc(Nc2cccc(F)c2C#N)cc1C(=O)NCCCNC(=O)c1ccc(-c2c3nc(c(-c4c(F)cc(S(=O)(=O)[O-])cc4F)c4ccc([nH]4)c(-c4c(F)cc(S(=O)(=O)[O-])cc4F)c4nc(c(-c5c(F)cc(S(=O)(=O)[O-])cc5F)c5ccc2[nH]5)C=C4)C=C3)cc1
REMARK SMILES IDX 22 1 21 2 20 3 18 4 19 5 17 7 1 8 2 9 3 10 4 11 16 12 5 13
REMARK SMILES IDX 6 14 7 16 8 17 13 18 9 19 11 20 10 21 12 22 14 23 15 24
REMARK SMILES IDX 23 25 24 26 25 27 26 29 27 30 28 31 92 32 29 33 91 34 30 35
REMARK SMILES IDX 31 36 32 37 85 38 33 39 90 40 84 41 86 42 34 43 89 44 83 45
REMARK SMILES IDX 82 46 35 48 69 49 48 50 68 51 49 52 52 53 67 54 87 55 50 56
REMARK SMILES IDX 51 57 66 59 88 60 53 61 36 62 37 63 46 64 38 65 39 66 45 67
REMARK SMILES IDX 47 68 40 69 41 70 42 71 43 72 44 73 70 74 71 75 80 76 72 77
REMARK SMILES IDX 73 78 79 79 81 80 74 81 75 82 76 83 77 84 78 85 54 86 55 87
REMARK SMILES IDX 64 88 56 89 57 90 63 91 65 92 58 93 59 94 60 95 61 96 62 97
REMARK H PARENT 20 6 6 15 24 28 86 47 52 58
REMARK Flexibility Score: inf
ROOT
ATOM      1  C   UNL     1       4.152   0.040   0.403  1.00  0.00     0.042 C 
ENDROOT
BRANCH   1   2
ATOM      2  C   UNL     1       2.883   0.730   1.160  1.00  0.00     0.118 C 
BRANCH   2   3
ATOM      3  N   UNL     1       2.143   1.778   0.437  1.00  0.00    -0.352 N 
ATOM      4  C   UNL     1       0.904   1.790  -0.166  1.00  0.00     0.251 C 
ATOM      5  O   UNL     1       0.428   2.853  -0.571  1.00  0.00    -0.269 OA
ATOM      6  H   UNL     1       2.626   2.633   0.372  1.00  0.00     0.163 HD
BRANCH   4   7
ATOM      7  C   UNL     1       0.040   0.577  -0.224  1.00  0.00     0.044 A 
ATOM      8  C   UNL     1       1.774  -1.117  -1.141  1.00  0.00     0.045 C 
ATOM      9  C   UNL     1       0.471  -0.724  -0.538  1.00  0.00    -0.038 A 
ATOM     10  C   UNL     1      -0.389  -1.796  -0.339  1.00  0.00     0.006 A 
ATOM     11  C   UNL     1      -1.720  -1.568  -0.088  1.00  0.00     0.026 A 
ATOM     12  C   UNL     1      -1.335   0.795   0.027  1.00  0.00     0.040 A 
ATOM     13  C   UNL     1      -2.234  -0.271   0.035  1.00  0.00     0.039 A 
BRANCH  13  14
ATOM     14  N   UNL     1      -3.624  -0.068   0.229  1.00  0.00    -0.354 N 
ATOM     15  H   UNL     1      -3.963   0.851   0.327  1.00  0.00     0.167 HD
BRANCH  14  16
ATOM     16  C   UNL     1      -4.539  -1.151   0.287  1.00  0.00     0.059 A 
ATOM     17  C   UNL     1      -5.259  -1.463  -0.881  1.00  0.00     0.027 A 
ATOM     18  C   UNL     1      -4.472  -2.103   1.327  1.00  0.00     0.111 A 
ATOM     19  C   UNL     1      -5.845  -2.720  -1.039  1.00  0.00     0.005 A 
ATOM     20  C   UNL     1      -5.056  -3.354   1.148  1.00  0.00     0.143 A 
ATOM     21  C   UNL     1      -5.727  -3.673  -0.029  1.00  0.00     0.041 A 
ATOM     22  F   UNL     1      -4.912  -4.311   2.078  1.00  0.00    -0.205 F 
BRANCH  18  23
ATOM     23  C   UNL     1      -3.697  -1.866   2.526  1.00  0.00     0.104 C 
ATOM     24  N   UNL     1      -3.075  -1.712   3.477  1.00  0.00    -0.192 NA
ENDBRANCH  18  23
ENDBRANCH  14  16
ENDBRANCH  13  14
ENDBRANCH   4   7
ENDBRANCH   2   3
ENDBRANCH   1   2
BRANCH   1  25
ATOM     25  C   UNL     1       5.453   0.846   0.622  1.00  0.00     0.118 C 
BRANCH  25  26
ATOM     26  N   UNL     1       7.102   0.636   0.283  1.00  0.00    -0.352 N 
ATOM     27  C   UNL     1       8.495   1.199  -0.231  1.00  0.00     0.251 C 
ATOM     28  H   UNL     1       7.287  -0.300   0.526  1.00  0.00     0.163 HD
ATOM     29  O   UNL     1       9.401   0.735   0.502  1.00  0.00    -0.269 OA
BRANCH  27  30
ATOM     30  C   UNL     1       9.182   2.334  -1.389  1.00  0.00     0.039 A 
ATOM     31  C   UNL     1      10.120   3.366  -1.021  1.00  0.00     0.014 A 
ATOM     32  C   UNL     1       8.747   2.625  -2.676  1.00  0.00     0.014 A 
ATOM     33  C   UNL     1       9.894   4.772  -1.452  1.00  0.00     0.010 A 
ATOM     34  C   UNL     1       8.431   3.972  -3.034  1.00  0.00     0.010 A 
ATOM     35  C   UNL     1       8.760   5.058  -2.236  1.00  0.00    -0.014 A 
BRANCH  35  36
ATOM     36  C   UNL     1       7.785   6.256  -2.192  1.00  0.00     0.031 A 
ATOM     37  C   UNL     1       7.979   7.208  -3.272  1.00  0.00     0.074 A 
ATOM     38  C   UNL     1       6.661   6.532  -1.438  1.00  0.00     0.049 A 
ATOM     39  N   UNL     1       8.395   8.423  -3.161  1.00  0.00    -0.248 NA
ATOM     40  C   UNL     1       7.814   6.740  -4.642  1.00  0.00     0.031 C 
ATOM     41  C   UNL     1       5.702   7.665  -1.384  1.00  0.00     0.029 A 
ATOM     42  N   UNL     1       6.128   5.813  -0.386  1.00  0.00    -0.354 N 
ATOM     43  C   UNL     1       8.170   8.957  -4.414  1.00  0.00     0.074 A 
ATOM     44  C   UNL     1       8.204   7.824  -5.303  1.00  0.00     0.031 C 
ATOM     45  C   UNL     1       5.139   7.736  -0.147  1.00  0.00     0.029 A 
ATOM     46  C   UNL     1       5.715   6.673   0.640  1.00  0.00     0.049 A 
ATOM     47  H   UNL     1       6.050   4.832  -0.360  1.00  0.00     0.167 HD
ATOM     48  C   UNL     1       7.511  10.148  -4.561  1.00  0.00     0.037 A 
ATOM     49  C   UNL     1       6.488   6.745   1.774  1.00  0.00     0.037 A 
ATOM     50  C   UNL     1       7.008  10.627  -3.255  1.00  0.00     0.049 A 
ATOM     51  C   UNL     1       7.289   8.018   1.812  1.00  0.00     0.074 A 
ATOM     52  C   UNL     1       5.749  10.803  -2.696  1.00  0.00     0.029 A 
ATOM     53  N   UNL     1       7.882  10.695  -2.183  1.00  0.00    -0.354 N 
ATOM     54  N   UNL     1       7.176   8.915   0.879  1.00  0.00    -0.248 NA
ATOM     55  C   UNL     1       8.299   8.381   2.804  1.00  0.00     0.031 C 
ATOM     56  C   UNL     1       5.899  10.961  -1.278  1.00  0.00     0.029 A 
ATOM     57  C   UNL     1       7.247  10.909  -0.977  1.00  0.00     0.049 A 
ATOM     58  H   UNL     1       8.858  10.600  -2.273  1.00  0.00     0.167 HD
ATOM     59  C   UNL     1       8.048   9.932   1.080  1.00  0.00     0.074 A 
ATOM     60  C   UNL     1       8.759   9.539   2.290  1.00  0.00     0.031 C 
ATOM     61  C   UNL     1       8.078  10.995   0.223  1.00  0.00     0.037 A 
BRANCH  48  62
ATOM     62  C   UNL     1       7.075  10.721  -5.908  1.00  0.00     0.058 A 
ATOM     63  C   UNL     1       6.219  11.840  -5.972  1.00  0.00     0.135 A 
ATOM     64  C   UNL     1       7.521  10.277  -7.177  1.00  0.00     0.135 A 
ATOM     65  F   UNL     1       5.790  12.455  -4.862  1.00  0.00    -0.206 F 
ATOM     66  C   UNL     1       5.799  12.418  -7.177  1.00  0.00     0.059 A 
ATOM     67  C   UNL     1       7.067  10.793  -8.393  1.00  0.00     0.059 A 
ATOM     68  F   UNL     1       8.505   9.385  -7.321  1.00  0.00    -0.206 F 
ATOM     69  C   UNL     1       6.216  11.880  -8.386  1.00  0.00     0.060 A 
BRANCH  69  70
ATOM     70  S   UNL     1       5.727  12.667  -9.928  1.00  0.00     0.124 S 
ATOM     71  O   UNL     1       4.271  12.585  -9.867  1.00  0.00    -0.237 OA
ATOM     72  O   UNL     1       6.296  14.003  -9.782  1.00  0.00    -0.237 OA
ATOM     73  O   UNL     1       6.353  11.836 -10.954  1.00  0.00    -0.744 OA
ENDBRANCH  69  70
ENDBRANCH  48  62
BRANCH  49  74
ATOM     74  C   UNL     1       7.003   5.388   2.220  1.00  0.00     0.058 A 
ATOM     75  C   UNL     1       5.984   4.462   2.399  1.00  0.00     0.135 A 
ATOM     76  C   UNL     1       8.018   4.880   1.439  1.00  0.00     0.135 A 
ATOM     77  F   UNL     1       5.407   4.338   3.601  1.00  0.00    -0.206 F 
ATOM     78  C   UNL     1       5.726   3.451   1.446  1.00  0.00     0.059 A 
ATOM     79  C   UNL     1       7.654   3.959   0.429  1.00  0.00     0.059 A 
ATOM     80  F   UNL     1       9.184   5.537   1.333  1.00  0.00    -0.206 F 
ATOM     81  C   UNL     1       6.441   3.347   0.252  1.00  0.00     0.060 A 
BRANCH  81  82
ATOM     82  S   UNL     1       5.771   2.607  -1.667  1.00  0.00     0.124 S 
ATOM     83  O   UNL     1       4.400   2.142  -1.504  1.00  0.00    -0.237 OA
ATOM     84  O   UNL     1       5.817   3.786  -2.511  1.00  0.00    -0.237 OA
ATOM     85  O   UNL     1       6.634   1.494  -2.052  1.00  0.00    -0.744 OA
ENDBRANCH  81  82
ENDBRANCH  49  74
BRANCH  61  86
ATOM     86  C   UNL     1       8.951  12.200   0.415  1.00  0.00     0.058 A 
ATOM     87  C   UNL     1       9.318  12.678   1.680  1.00  0.00     0.135 A 
ATOM     88  C   UNL     1       9.388  12.982  -0.681  1.00  0.00     0.135 A 
ATOM     89  F   UNL     1       8.789  12.166   2.801  1.00  0.00    -0.206 F 
ATOM     90  C   UNL     1      10.203  13.739   1.838  1.00  0.00     0.059 A 
ATOM     91  C   UNL     1      10.228  14.071  -0.546  1.00  0.00     0.059 A 
ATOM     92  F   UNL     1       9.019  12.740  -1.944  1.00  0.00    -0.206 F 
ATOM     93  C   UNL     1      10.669  14.414   0.715  1.00  0.00     0.060 A 
BRANCH  93  94
ATOM     94  S   UNL     1      11.806  15.784   0.919  1.00  0.00     0.124 S 
ATOM     95  O   UNL     1      11.171  16.549   1.987  1.00  0.00    -0.237 OA
ATOM     96  O   UNL     1      13.036  15.087   1.281  1.00  0.00    -0.237 OA
ATOM     97  O   UNL     1      11.808  16.427  -0.391  1.00  0.00    -0.744 OA
ENDBRANCH  93  94
ENDBRANCH  61  86
ENDBRANCH  35  36
ENDBRANCH  27  30
ENDBRANCH  25  26
ENDBRANCH   1  25
TORSDOF 16
