REMARK SMILES O=C(CN1C(=O)/C(=C\c2c(F)cccc2Cl)Oc2ccccc21)NCCCNC(=O)c1ccc(-c2c3nc(c(-c4c(F)cc(S(=O)(=O)[O-])cc4F)c4ccc([nH]4)c(-c4c(F)cc(S(=O)(=O)[O-])cc4F)c4nc(c(-c5c(F)cc(S(=O)(=O)[O-])cc5F)c5ccc2[nH]5)C=C4)C=C3)cc1
REMARK SMILES IDX 26 1 25 2 24 3 1 4 2 5 3 7 4 8 5 9 23 10 6 11 7 12 18 13
REMARK SMILES IDX 22 14 8 15 17 16 19 17 21 18 20 19 9 20 10 21 15 22 11 23
REMARK SMILES IDX 12 24 14 25 16 26 13 27 27 28 28 29 29 30 30 32 31 33 32 34
REMARK SMILES IDX 96 35 33 36 95 37 34 38 35 39 36 40 89 41 37 42 94 43 88 44
REMARK SMILES IDX 90 45 38 46 93 47 87 48 86 49 39 51 73 52 52 53 72 54 53 55
REMARK SMILES IDX 56 56 71 57 91 58 54 59 55 60 70 62 92 63 57 64 40 65 41 66
REMARK SMILES IDX 50 67 42 68 43 69 49 70 51 71 44 72 45 73 46 74 47 75 48 76
REMARK SMILES IDX 74 77 75 78 84 79 76 80 77 81 83 82 85 83 78 84 79 85 80 86
REMARK SMILES IDX 81 87 82 88 58 89 59 90 68 91 60 92 61 93 67 94 69 95 62 96
REMARK SMILES IDX 63 97 64 98 65 99 66 100
REMARK H PARENT 24 6 28 31 90 50 56 61
REMARK Flexibility Score: inf
ROOT
ATOM      1  C   UNL     1       2.081   3.439  -0.537  1.00  0.00     0.042 C 
ENDROOT
BRANCH   1   2
ATOM      2  C   UNL     1       1.891   2.196  -1.410  1.00  0.00     0.117 C 
BRANCH   2   3
ATOM      3  N   UNL     1       2.603   1.026  -0.934  1.00  0.00    -0.354 N 
ATOM      4  O   UNL     1       1.266   0.700   0.882  1.00  0.00    -0.273 OA
ATOM      5  C   UNL     1       2.234   0.350   0.209  1.00  0.00     0.240 C 
ATOM      6  H   UNL     1       3.379   0.703  -1.446  1.00  0.00     0.163 HD
BRANCH   5   7
ATOM      7  C   UNL     1       3.237  -0.683   0.746  1.00  0.00     0.226 C 
BRANCH   7   8
ATOM      8  N   UNL     1       4.063  -1.426  -0.206  1.00  0.00    -0.293 N 
ATOM      9  C   UNL     1       3.674  -2.732  -0.485  1.00  0.00     0.294 C 
ATOM     10  C   UNL     1       5.245  -0.888  -0.786  1.00  0.00     0.088 A 
ATOM     11  O   UNL     1       2.591  -3.202  -0.154  1.00  0.00    -0.265 OA
ATOM     12  C   UNL     1       4.717  -3.561  -1.180  1.00  0.00     0.193 C 
ATOM     13  C   UNL     1       5.937  -1.644  -1.744  1.00  0.00     0.151 A 
ATOM     14  C   UNL     1       5.720   0.395  -0.488  1.00  0.00     0.030 A 
ATOM     15  C   UNL     1       4.879  -4.868  -0.906  1.00  0.00     0.065 C 
ATOM     16  O   UNL     1       5.601  -2.940  -2.050  1.00  0.00    -0.449 OA
ATOM     17  C   UNL     1       7.033  -1.115  -2.428  1.00  0.00     0.049 A 
ATOM     18  C   UNL     1       6.818   0.927  -1.170  1.00  0.00     0.002 A 
ATOM     19  C   UNL     1       7.468   0.177  -2.146  1.00  0.00     0.004 A 
BRANCH  15  20
ATOM     20  C   UNL     1       4.157  -5.601   0.145  1.00  0.00     0.033 A 
ATOM     21  C   UNL     1       3.005  -6.323  -0.180  1.00  0.00     0.132 A 
ATOM     22  C   UNL     1       4.548  -5.552   1.495  1.00  0.00     0.051 A 
ATOM     23  F   UNL     1       2.604  -6.412  -1.458  1.00  0.00    -0.206 F 
ATOM     24  C   UNL     1       2.241  -6.956   0.800  1.00  0.00     0.040 A 
ATOM     25  C   UNL     1       3.790  -6.193   2.483  1.00  0.00     0.021 A 
ATOM     26  Cl  UNL     1       5.971  -4.706   2.001  1.00  0.00    -0.084 Cl
ATOM     27  C   UNL     1       2.631  -6.887   2.136  1.00  0.00     0.005 A 
ENDBRANCH  15  20
ENDBRANCH   7   8
ENDBRANCH   5   7
ENDBRANCH   2   3
ENDBRANCH   1   2
BRANCH   1  28
ATOM     28  C   UNL     1       3.526   3.875  -0.305  1.00  0.00     0.118 C 
BRANCH  28  29
ATOM     29  N   UNL     1       4.241   4.232  -1.521  1.00  0.00    -0.352 N 
ATOM     30  C   UNL     1       5.071   5.299  -1.780  1.00  0.00     0.251 C 
ATOM     31  H   UNL     1       4.111   3.614  -2.276  1.00  0.00     0.163 HD
ATOM     32  O   UNL     1       5.506   5.457  -2.918  1.00  0.00    -0.269 OA
BRANCH  30  33
ATOM     33  C   UNL     1       5.420   6.273  -0.717  1.00  0.00     0.039 A 
ATOM     34  C   UNL     1       5.767   5.859   0.571  1.00  0.00     0.014 A 
ATOM     35  C   UNL     1       5.420   7.639  -1.027  1.00  0.00     0.014 A 
ATOM     36  C   UNL     1       5.964   6.805   1.576  1.00  0.00     0.010 A 
ATOM     37  C   UNL     1       5.679   8.587  -0.030  1.00  0.00     0.010 A 
ATOM     38  C   UNL     1       5.904   8.180   1.293  1.00  0.00    -0.014 A 
BRANCH  38  39
ATOM     39  C   UNL     1       6.044   9.161   2.404  1.00  0.00     0.031 A 
ATOM     40  C   UNL     1       4.867   9.991   2.847  1.00  0.00     0.074 A 
ATOM     41  C   UNL     1       7.211   9.250   3.072  1.00  0.00     0.049 A 
ATOM     42  N   UNL     1       4.774  10.813   3.863  1.00  0.00    -0.248 NA
ATOM     43  C   UNL     1       3.635   9.889   2.049  1.00  0.00     0.031 C 
ATOM     44  C   UNL     1       8.430   8.510   2.739  1.00  0.00     0.029 A 
ATOM     45  N   UNL     1       7.555   9.973   4.187  1.00  0.00    -0.354 N 
ATOM     46  C   UNL     1       3.483  11.326   3.824  1.00  0.00     0.074 A 
ATOM     47  C   UNL     1       2.838  10.753   2.663  1.00  0.00     0.031 C 
ATOM     48  C   UNL     1       9.367   8.770   3.665  1.00  0.00     0.029 A 
ATOM     49  C   UNL     1       8.829   9.719   4.637  1.00  0.00     0.049 A 
ATOM     50  H   UNL     1       6.946  10.612   4.624  1.00  0.00     0.167 HD
ATOM     51  C   UNL     1       2.881  12.180   4.686  1.00  0.00     0.037 A 
ATOM     52  C   UNL     1       9.489  10.185   5.715  1.00  0.00     0.037 A 
ATOM     53  C   UNL     1       3.508  12.736   5.856  1.00  0.00     0.049 A 
ATOM     54  C   UNL     1       8.806  11.144   6.648  1.00  0.00     0.074 A 
ATOM     55  C   UNL     1       2.962  13.585   6.804  1.00  0.00     0.029 A 
ATOM     56  N   UNL     1       4.818  12.497   6.242  1.00  0.00    -0.354 N 
ATOM     57  N   UNL     1       7.577  11.597   6.605  1.00  0.00    -0.248 NA
ATOM     58  C   UNL     1       9.601  11.662   7.770  1.00  0.00     0.031 C 
ATOM     59  C   UNL     1       3.952  13.883   7.747  1.00  0.00     0.029 A 
ATOM     60  C   UNL     1       5.104  13.196   7.403  1.00  0.00     0.049 A 
ATOM     61  H   UNL     1       5.451  11.916   5.761  1.00  0.00     0.167 HD
ATOM     62  C   UNL     1       7.449  12.451   7.694  1.00  0.00     0.074 A 
ATOM     63  C   UNL     1       8.720  12.438   8.389  1.00  0.00     0.031 C 
ATOM     64  C   UNL     1       6.376  13.182   8.079  1.00  0.00     0.037 A 
BRANCH  51  65
ATOM     65  C   UNL     1       1.457  12.566   4.401  1.00  0.00     0.058 A 
ATOM     66  C   UNL     1       0.396  11.683   4.655  1.00  0.00     0.135 A 
ATOM     67  C   UNL     1       1.146  13.846   3.916  1.00  0.00     0.135 A 
ATOM     68  F   UNL     1       0.643  10.443   5.105  1.00  0.00    -0.206 F 
ATOM     69  C   UNL     1      -0.925  12.050   4.420  1.00  0.00     0.059 A 
ATOM     70  C   UNL     1      -0.170  14.241   3.691  1.00  0.00     0.059 A 
ATOM     71  F   UNL     1       2.124  14.727   3.657  1.00  0.00    -0.206 F 
ATOM     72  C   UNL     1      -1.198  13.330   3.936  1.00  0.00     0.060 A 
BRANCH  72  73
ATOM     73  S   UNL     1      -2.918  13.793   3.641  1.00  0.00     0.124 S 
ATOM     74  O   UNL     1      -3.211  13.056   2.416  1.00  0.00    -0.237 OA
ATOM     75  O   UNL     1      -3.585  13.308   4.846  1.00  0.00    -0.237 OA
ATOM     76  O   UNL     1      -2.861  15.245   3.502  1.00  0.00    -0.744 OA
ENDBRANCH  72  73
ENDBRANCH  51  65
BRANCH  52  77
ATOM     77  C   UNL     1      10.874   9.720   5.982  1.00  0.00     0.058 A 
ATOM     78  C   UNL     1      11.137   8.804   7.010  1.00  0.00     0.135 A 
ATOM     79  C   UNL     1      11.950  10.149   5.191  1.00  0.00     0.135 A 
ATOM     80  F   UNL     1      10.140   8.373   7.797  1.00  0.00    -0.206 F 
ATOM     81  C   UNL     1      12.421   8.324   7.244  1.00  0.00     0.059 A 
ATOM     82  C   UNL     1      13.239   9.669   5.393  1.00  0.00     0.059 A 
ATOM     83  F   UNL     1      11.743  11.016   4.188  1.00  0.00    -0.206 F 
ATOM     84  C   UNL     1      13.466   8.758   6.424  1.00  0.00     0.060 A 
BRANCH  84  85
ATOM     85  S   UNL     1      15.115   8.068   6.681  1.00  0.00     0.124 S 
ATOM     86  O   UNL     1      15.556   8.793   7.866  1.00  0.00    -0.237 OA
ATOM     87  O   UNL     1      14.829   6.649   6.869  1.00  0.00    -0.237 OA
ATOM     88  O   UNL     1      15.810   8.398   5.440  1.00  0.00    -0.744 OA
ENDBRANCH  84  85
ENDBRANCH  52  77
BRANCH  64  89
ATOM     89  C   UNL     1       6.523  14.041   9.302  1.00  0.00     0.058 A 
ATOM     90  C   UNL     1       7.202  15.268   9.248  1.00  0.00     0.135 A 
ATOM     91  C   UNL     1       5.919  13.674  10.514  1.00  0.00     0.135 A 
ATOM     92  F   UNL     1       7.801  15.659   8.113  1.00  0.00    -0.206 F 
ATOM     93  C   UNL     1       7.282  16.101  10.359  1.00  0.00     0.059 A 
ATOM     94  C   UNL     1       5.972  14.499  11.633  1.00  0.00     0.059 A 
ATOM     95  F   UNL     1       5.253  12.512  10.613  1.00  0.00    -0.206 F 
ATOM     96  C   UNL     1       6.660  15.710  11.547  1.00  0.00     0.060 A 
BRANCH  96  97
ATOM     97  S   UNL     1       6.725  16.825  12.966  1.00  0.00     0.124 S 
ATOM     98  O   UNL     1       8.096  16.636  13.426  1.00  0.00    -0.237 OA
ATOM     99  O   UNL     1       6.433  18.121  12.360  1.00  0.00    -0.237 OA
ATOM    100  O   UNL     1       5.687  16.307  13.852  1.00  0.00    -0.744 OA
ENDBRANCH  96  97
ENDBRANCH  64  89
ENDBRANCH  38  39
ENDBRANCH  30  33
ENDBRANCH  28  29
ENDBRANCH   1  28
TORSDOF 15
