REMARK SMILES Cc1cc(Cl)c2c(c1)C=C(C(=O)NCCCNC(=O)c1ccc(-c3c4nc(c(-c5c(F)cc(S(=O)(=O)[O-])cc5F)c5ccc([nH]5)c(-c5c(F)cc(S(=O)(=O)[O-])cc5F)c5nc(c(-c6c(F)cc(S(=O)(=O)[O-])cc6F)c6ccc3[nH]6)C=C5)C=C4)cc1)[C@@H](C(F)(F)F)O2
REMARK SMILES IDX 16 1 15 2 14 3 13 4 11 5 12 6 10 8 1 9 2 10 3 11 8 12 4 13
REMARK SMILES IDX 7 14 5 15 6 16 9 17 91 18 86 19 87 20 88 21 89 22 90 23
REMARK SMILES IDX 17 24 18 25 19 27 20 28 21 29 85 30 22 31 84 32 23 33 24 34
REMARK SMILES IDX 25 35 78 36 26 37 83 38 77 39 79 40 27 41 82 42 76 43 75 44
REMARK SMILES IDX 28 46 62 47 41 48 61 49 42 50 45 51 60 52 80 53 43 54 44 55
REMARK SMILES IDX 59 57 81 58 46 59 29 60 30 61 39 62 31 63 32 64 38 65 40 66
REMARK SMILES IDX 33 67 34 68 35 69 36 70 37 71 63 72 64 73 73 74 65 75 66 76
REMARK SMILES IDX 72 77 74 78 67 79 68 80 69 81 70 82 71 83 47 84 48 85 57 86
REMARK SMILES IDX 49 87 50 88 56 89 58 90 51 91 52 92 53 93 54 94 55 95
REMARK H PARENT 13 7 17 26 79 45 45 56
REMARK Flexibility Score: inf
ROOT
ATOM      1  C   UNL     1      -1.190   9.771  -5.282  1.00  0.00     0.118 C 
ENDROOT
BRANCH   1   2
ATOM      2  C   UNL     1      -1.259   8.250  -5.328  1.00  0.00     0.042 C 
BRANCH   2   3
ATOM      3  C   UNL     1       0.112   7.609  -5.181  1.00  0.00     0.118 C 
BRANCH   3   4
ATOM      4  N   UNL     1       0.563   7.598  -3.798  1.00  0.00    -0.352 N 
ATOM      5  C   UNL     1       0.741   6.680  -2.821  1.00  0.00     0.251 C 
ATOM      6  O   UNL     1       1.177   7.124  -1.753  1.00  0.00    -0.270 OA
ATOM      7  H   UNL     1       0.803   8.502  -3.490  1.00  0.00     0.163 HD
BRANCH   5   8
ATOM      8  C   UNL     1       0.462   5.221  -2.954  1.00  0.00     0.067 C 
ATOM      9  C   UNL     1       0.982  -0.064   0.207  1.00  0.00     0.044 C 
ATOM     10  C   UNL     1       0.551   0.826  -0.920  1.00  0.00    -0.049 A 
ATOM     11  C   UNL     1      -0.075   0.292  -2.053  1.00  0.00     0.028 A 
ATOM     12  C   UNL     1       0.791   2.207  -0.857  1.00  0.00     0.015 A 
ATOM     13  C   UNL     1      -0.462   1.126  -3.102  1.00  0.00     0.084 A 
ATOM     14  C   UNL     1       0.411   3.045  -1.911  1.00  0.00     0.019 A 
ATOM     15  Cl  UNL     1      -1.229   0.419  -4.478  1.00  0.00    -0.080 Cl
ATOM     16  C   UNL     1      -0.212   2.499  -3.036  1.00  0.00     0.146 A 
ATOM     17  C   UNL     1       0.631   4.485  -1.840  1.00  0.00     0.025 C 
ATOM     18  O   UNL     1      -0.630   3.287  -4.073  1.00  0.00    -0.474 OA
ATOM     19  C   UNL     1       0.054   4.555  -4.237  1.00  0.00     0.314 C 
BRANCH  19  20
ATOM     20  C   UNL     1       1.237   4.380  -5.210  1.00  0.00     0.429 C 
ATOM     21  F   UNL     1       0.791   4.155  -6.470  1.00  0.00    -0.167 F 
ATOM     22  F   UNL     1       2.028   5.479  -5.274  1.00  0.00    -0.167 F 
ATOM     23  F   UNL     1       2.041   3.346  -4.871  1.00  0.00    -0.167 F 
ENDBRANCH  19  20
ENDBRANCH   5   8
ENDBRANCH   3   4
ENDBRANCH   2   3
ENDBRANCH   1   2
BRANCH   1  24
ATOM     24  N   UNL     1      -0.422  10.310  -6.403  1.00  0.00    -0.352 N 
ATOM     25  C   UNL     1      -0.849  10.950  -7.538  1.00  0.00     0.251 C 
ATOM     26  H   UNL     1       0.553  10.196  -6.331  1.00  0.00     0.163 HD
ATOM     27  O   UNL     1      -0.084  11.066  -8.495  1.00  0.00    -0.269 OA
BRANCH  25  28
ATOM     28  C   UNL     1      -2.217  11.495  -7.607  1.00  0.00     0.039 A 
ATOM     29  C   UNL     1      -2.945  11.386  -8.794  1.00  0.00     0.014 A 
ATOM     30  C   UNL     1      -2.772  12.136  -6.497  1.00  0.00     0.014 A 
ATOM     31  C   UNL     1      -4.255  11.867  -8.842  1.00  0.00     0.010 A 
ATOM     32  C   UNL     1      -4.105  12.519  -6.514  1.00  0.00     0.010 A 
ATOM     33  C   UNL     1      -4.854  12.405  -7.691  1.00  0.00    -0.014 A 
BRANCH  33  34
ATOM     34  C   UNL     1      -6.252  12.898  -7.702  1.00  0.00     0.031 A 
ATOM     35  C   UNL     1      -6.527  14.353  -7.436  1.00  0.00     0.074 A 
ATOM     36  C   UNL     1      -7.265  12.031  -7.897  1.00  0.00     0.049 A 
ATOM     37  N   UNL     1      -7.674  14.969  -7.324  1.00  0.00    -0.248 NA
ATOM     38  C   UNL     1      -5.357  15.229  -7.243  1.00  0.00     0.031 C 
ATOM     39  C   UNL     1      -7.115  10.592  -8.130  1.00  0.00     0.029 A 
ATOM     40  N   UNL     1      -8.620  12.232  -7.932  1.00  0.00    -0.354 N 
ATOM     41  C   UNL     1      -7.365  16.296  -7.049  1.00  0.00     0.074 A 
ATOM     42  C   UNL     1      -5.927  16.383  -6.933  1.00  0.00     0.031 C 
ATOM     43  C   UNL     1      -8.328  10.051  -8.329  1.00  0.00     0.029 A 
ATOM     44  C   UNL     1      -9.342  11.091  -8.193  1.00  0.00     0.049 A 
ATOM     45  H   UNL     1      -9.038  13.112  -7.785  1.00  0.00     0.167 HD
ATOM     46  C   UNL     1      -8.201  17.354  -6.944  1.00  0.00     0.037 A 
ATOM     47  C   UNL     1     -10.671  10.909  -8.310  1.00  0.00     0.037 A 
ATOM     48  C   UNL     1      -9.629  17.261  -7.087  1.00  0.00     0.049 A 
ATOM     49  C   UNL     1     -11.583  12.095  -8.146  1.00  0.00     0.074 A 
ATOM     50  C   UNL     1     -10.568  18.274  -7.023  1.00  0.00     0.029 A 
ATOM     51  N   UNL     1     -10.323  16.085  -7.334  1.00  0.00    -0.354 N 
ATOM     52  N   UNL     1     -11.272  13.349  -7.917  1.00  0.00    -0.248 NA
ATOM     53  C   UNL     1     -13.027  11.844  -8.255  1.00  0.00     0.031 C 
ATOM     54  C   UNL     1     -11.833  17.706  -7.192  1.00  0.00     0.029 A 
ATOM     55  C   UNL     1     -11.680  16.345  -7.409  1.00  0.00     0.049 A 
ATOM     56  H   UNL     1      -9.911  15.197  -7.440  1.00  0.00     0.167 HD
ATOM     57  C   UNL     1     -12.478  14.040  -7.881  1.00  0.00     0.074 A 
ATOM     58  C   UNL     1     -13.523  13.067  -8.125  1.00  0.00     0.031 C 
ATOM     59  C   UNL     1     -12.702  15.360  -7.663  1.00  0.00     0.037 A 
BRANCH  46  60
ATOM     60  C   UNL     1      -7.590  18.705  -6.693  1.00  0.00     0.058 A 
ATOM     61  C   UNL     1      -6.840  19.362  -7.682  1.00  0.00     0.135 A 
ATOM     62  C   UNL     1      -7.791  19.372  -5.474  1.00  0.00     0.135 A 
ATOM     63  F   UNL     1      -6.600  18.761  -8.859  1.00  0.00    -0.206 F 
ATOM     64  C   UNL     1      -6.295  20.622  -7.466  1.00  0.00     0.059 A 
ATOM     65  C   UNL     1      -7.279  20.646  -5.246  1.00  0.00     0.059 A 
ATOM     66  F   UNL     1      -8.495  18.788  -4.491  1.00  0.00    -0.206 F 
ATOM     67  C   UNL     1      -6.524  21.259  -6.246  1.00  0.00     0.060 A 
BRANCH  67  68
ATOM     68  S   UNL     1      -5.827  22.904  -5.995  1.00  0.00     0.124 S 
ATOM     69  O   UNL     1      -4.399  22.609  -5.925  1.00  0.00    -0.237 OA
ATOM     70  O   UNL     1      -6.269  23.613  -7.192  1.00  0.00    -0.237 OA
ATOM     71  O   UNL     1      -6.437  23.347  -4.746  1.00  0.00    -0.744 OA
ENDBRANCH  67  68
ENDBRANCH  46  60
BRANCH  47  72
ATOM     72  C   UNL     1     -11.216   9.565  -8.640  1.00  0.00     0.058 A 
ATOM     73  C   UNL     1     -11.799   9.317  -9.892  1.00  0.00     0.135 A 
ATOM     74  C   UNL     1     -11.155   8.500  -7.727  1.00  0.00     0.135 A 
ATOM     75  F   UNL     1     -11.885  10.303 -10.797  1.00  0.00    -0.206 F 
ATOM     76  C   UNL     1     -12.317   8.070 -10.222  1.00  0.00     0.059 A 
ATOM     77  C   UNL     1     -11.643   7.236  -8.043  1.00  0.00     0.059 A 
ATOM     78  F   UNL     1     -10.592   8.679  -6.521  1.00  0.00    -0.206 F 
ATOM     79  C   UNL     1     -12.232   7.033  -9.291  1.00  0.00     0.060 A 
BRANCH  79  80
ATOM     80  S   UNL     1     -12.874   5.409  -9.749  1.00  0.00     0.124 S 
ATOM     81  O   UNL     1     -14.310   5.659  -9.782  1.00  0.00    -0.237 OA
ATOM     82  O   UNL     1     -12.235   5.183 -11.041  1.00  0.00    -0.237 OA
ATOM     83  O   UNL     1     -12.408   4.546  -8.667  1.00  0.00    -0.744 OA
ENDBRANCH  79  80
ENDBRANCH  47  72
BRANCH  59  84
ATOM     84  C   UNL     1     -14.126  15.838  -7.700  1.00  0.00     0.058 A 
ATOM     85  C   UNL     1     -15.021  15.553  -6.658  1.00  0.00     0.135 A 
ATOM     86  C   UNL     1     -14.574  16.659  -8.748  1.00  0.00     0.135 A 
ATOM     87  F   UNL     1     -14.643  14.769  -5.637  1.00  0.00    -0.206 F 
ATOM     88  C   UNL     1     -16.318  16.055  -6.661  1.00  0.00     0.059 A 
ATOM     89  C   UNL     1     -15.857  17.195  -8.756  1.00  0.00     0.059 A 
ATOM     90  F   UNL     1     -13.751  16.970  -9.762  1.00  0.00    -0.206 F 
ATOM     91  C   UNL     1     -16.724  16.881  -7.711  1.00  0.00     0.060 A 
BRANCH  91  92
ATOM     92  S   UNL     1     -18.394  17.565  -7.670  1.00  0.00     0.124 S 
ATOM     93  O   UNL     1     -19.204  16.378  -7.923  1.00  0.00    -0.237 OA
ATOM     94  O   UNL     1     -18.473  18.110  -6.319  1.00  0.00    -0.237 OA
ATOM     95  O   UNL     1     -18.383  18.557  -8.741  1.00  0.00    -0.744 OA
ENDBRANCH  91  92
ENDBRANCH  59  84
ENDBRANCH  33  34
ENDBRANCH  25  28
ENDBRANCH   1  24
TORSDOF 14
