REMARK SMILES CCCCCN(C(=O)N1CCC(CC(=O)NCCCNC(=O)c2ccc(-c3c4nc(c(-c5c(F)cc(S(=O)(=O)[O-])cc5F)c5ccc([nH]5)c(-c5c(F)cc(S(=O)(=O)[O-])cc5F)c5nc(c(-c6c(F)cc(S(=O)(=O)[O-])cc6F)c6ccc3[nH]6)C=C5)C=C4)cc2)CC1)C(C)C
REMARK SMILES IDX 14 1 15 2 16 3 13 5 12 6 7 7 8 8 9 9 10 10 90 11 11 12 89 13
REMARK SMILES IDX 6 14 5 15 4 16 3 17 2 18 1 19 91 20 92 21 93 22 17 23 18 24
REMARK SMILES IDX 19 25 20 26 21 27 22 29 23 30 24 31 88 32 25 33 87 34 26 35
REMARK SMILES IDX 27 36 28 37 81 38 29 39 86 40 80 41 82 42 30 43 85 44 79 45
REMARK SMILES IDX 78 46 31 48 65 49 44 50 64 51 45 52 48 53 63 54 83 55 46 56
REMARK SMILES IDX 47 57 62 59 84 60 49 61 32 62 33 63 42 64 34 65 35 66 41 67
REMARK SMILES IDX 43 68 36 69 37 70 38 71 39 72 40 73 66 74 67 75 76 76 68 77
REMARK SMILES IDX 69 78 75 79 77 80 70 81 71 82 72 83 73 84 74 85 50 86 51 87
REMARK SMILES IDX 60 88 52 89 53 90 59 91 61 92 54 93 55 94 56 95 57 96 58 97
REMARK H PARENT 16 4 20 28 82 47 48 58
REMARK Flexibility Score: inf
ROOT
ATOM      1  C   UNL     1      -5.833   7.710  -3.603  1.00  0.00     0.220 C 
ATOM      2  O   UNL     1      -5.923   7.755  -4.832  1.00  0.00    -0.275 OA
ATOM      3  N   UNL     1      -5.686   8.883  -2.923  1.00  0.00    -0.356 N 
ATOM      4  H   UNL     1      -5.644   9.684  -3.495  1.00  0.00     0.163 HD
ENDROOT
BRANCH   1   5
ATOM      5  C   UNL     1      -5.872   6.379  -2.872  1.00  0.00     0.103 C 
BRANCH   5   6
ATOM      6  C   UNL     1      -4.506   5.666  -2.812  1.00  0.00     0.002 C 
ATOM      7  C   UNL     1      -2.147   4.553   0.215  1.00  0.00     0.320 C 
ATOM      8  O   UNL     1      -2.399   5.549   0.895  1.00  0.00    -0.248 OA
ATOM      9  N   UNL     1      -2.360   4.570  -1.153  1.00  0.00    -0.325 N 
ATOM     10  C   UNL     1      -2.142   5.816  -1.859  1.00  0.00     0.121 C 
ATOM     11  C   UNL     1      -3.290   3.651  -1.800  1.00  0.00     0.121 C 
ATOM     12  C   UNL     1      -3.456   6.533  -2.116  1.00  0.00     0.026 C 
ATOM     13  C   UNL     1      -4.643   4.317  -2.082  1.00  0.00     0.026 C 
BRANCH   7  14
ATOM     14  N   UNL     1      -1.623   3.377   0.758  1.00  0.00    -0.322 N 
BRANCH  14  15
ATOM     15  C   UNL     1      -0.904   2.375  -0.054  1.00  0.00     0.121 C 
BRANCH  15  16
ATOM     16  C   UNL     1       0.587   2.650  -0.313  1.00  0.00     0.022 C 
BRANCH  16  17
ATOM     17  C   UNL     1       1.626   1.937   0.567  1.00  0.00     0.002 C 
BRANCH  17  18
ATOM     18  C   UNL     1       1.330   0.487   0.956  1.00  0.00    -0.003 C 
ATOM     19  C   UNL     1       1.376  -0.471  -0.223  1.00  0.00     0.004 C 
ENDBRANCH  17  18
ENDBRANCH  16  17
ENDBRANCH  15  16
ENDBRANCH  14  15
BRANCH  14  20
ATOM     20  C   UNL     1      -1.626   3.273   2.235  1.00  0.00     0.080 C 
ATOM     21  C   UNL     1      -2.226   1.958   2.735  1.00  0.00     0.031 C 
ATOM     22  C   UNL     1      -0.270   3.541   2.881  1.00  0.00     0.031 C 
ENDBRANCH  14  20
ENDBRANCH   7  14
ENDBRANCH   5   6
ENDBRANCH   1   5
BRANCH   3  23
ATOM     23  C   UNL     1      -5.580   9.156  -1.494  1.00  0.00     0.117 C 
BRANCH  23  24
ATOM     24  C   UNL     1      -4.198   9.664  -1.077  1.00  0.00     0.042 C 
BRANCH  24  25
ATOM     25  C   UNL     1      -3.846  11.047  -1.606  1.00  0.00     0.118 C 
BRANCH  25  26
ATOM     26  N   UNL     1      -4.282  12.091  -0.698  1.00  0.00    -0.352 N 
ATOM     27  C   UNL     1      -3.540  12.889   0.141  1.00  0.00     0.251 C 
ATOM     28  H   UNL     1      -5.253  12.252  -0.679  1.00  0.00     0.163 HD
ATOM     29  O   UNL     1      -4.117  13.507   1.033  1.00  0.00    -0.269 OA
BRANCH  27  30
ATOM     30  C   UNL     1      -2.067  13.014  -0.009  1.00  0.00     0.039 A 
ATOM     31  C   UNL     1      -1.284  13.148   1.143  1.00  0.00     0.014 A 
ATOM     32  C   UNL     1      -1.455  13.084  -1.264  1.00  0.00     0.014 A 
ATOM     33  C   UNL     1       0.102  13.318   1.037  1.00  0.00     0.010 A 
ATOM     34  C   UNL     1      -0.065  13.174  -1.367  1.00  0.00     0.010 A 
ATOM     35  C   UNL     1       0.729  13.315  -0.219  1.00  0.00    -0.014 A 
BRANCH  35  36
ATOM     36  C   UNL     1       2.200  13.506  -0.350  1.00  0.00     0.031 A 
ATOM     37  C   UNL     1       2.744  14.715  -1.071  1.00  0.00     0.074 A 
ATOM     38  C   UNL     1       3.050  12.582   0.142  1.00  0.00     0.049 A 
ATOM     39  N   UNL     1       3.984  15.020  -1.358  1.00  0.00    -0.248 NA
ATOM     40  C   UNL     1       1.761  15.700  -1.552  1.00  0.00     0.031 C 
ATOM     41  C   UNL     1       2.656  11.348   0.826  1.00  0.00     0.029 A 
ATOM     42  N   UNL     1       4.423  12.530   0.134  1.00  0.00    -0.354 N 
ATOM     43  C   UNL     1       3.930  16.223  -2.055  1.00  0.00     0.074 A 
ATOM     44  C   UNL     1       2.531  16.562  -2.201  1.00  0.00     0.031 C 
ATOM     45  C   UNL     1       3.759  10.669   1.181  1.00  0.00     0.029 A 
ATOM     46  C   UNL     1       4.938  11.397   0.721  1.00  0.00     0.049 A 
ATOM     47  H   UNL     1       4.986  13.237  -0.257  1.00  0.00     0.167 HD
ATOM     48  C   UNL     1       4.950  16.992  -2.507  1.00  0.00     0.037 A 
ATOM     49  C   UNL     1       6.213  10.985   0.863  1.00  0.00     0.037 A 
ATOM     50  C   UNL     1       6.343  16.668  -2.341  1.00  0.00     0.049 A 
ATOM     51  C   UNL     1       7.330  11.855   0.348  1.00  0.00     0.074 A 
ATOM     52  C   UNL     1       7.451  17.394  -2.744  1.00  0.00     0.029 A 
ATOM     53  N   UNL     1       6.821  15.530  -1.710  1.00  0.00    -0.354 N 
ATOM     54  N   UNL     1       7.257  13.006  -0.278  1.00  0.00    -0.248 NA
ATOM     55  C   UNL     1       8.703  11.377   0.566  1.00  0.00     0.031 C 
ATOM     56  C   UNL     1       8.598  16.680  -2.382  1.00  0.00     0.029 A 
ATOM     57  C   UNL     1       8.206  15.531  -1.716  1.00  0.00     0.049 A 
ATOM     58  H   UNL     1       6.258  14.824  -1.315  1.00  0.00     0.167 HD
ATOM     59  C   UNL     1       8.571  13.400  -0.503  1.00  0.00     0.074 A 
ATOM     60  C   UNL     1       9.419  12.374   0.066  1.00  0.00     0.031 C 
ATOM     61  C   UNL     1       9.035  14.510  -1.129  1.00  0.00     0.037 A 
BRANCH  48  62
ATOM     62  C   UNL     1       4.598  18.278  -3.206  1.00  0.00     0.058 A 
ATOM     63  C   UNL     1       4.078  19.374  -2.499  1.00  0.00     0.135 A 
ATOM     64  C   UNL     1       4.828  18.437  -4.582  1.00  0.00     0.135 A 
ATOM     65  F   UNL     1       3.825  19.272  -1.185  1.00  0.00    -0.206 F 
ATOM     66  C   UNL     1       3.776  20.574  -3.135  1.00  0.00     0.059 A 
ATOM     67  C   UNL     1       4.557  19.638  -5.234  1.00  0.00     0.059 A 
ATOM     68  F   UNL     1       5.324  17.423  -5.307  1.00  0.00    -0.206 F 
ATOM     69  C   UNL     1       4.020  20.697  -4.503  1.00  0.00     0.060 A 
BRANCH  69  70
ATOM     70  S   UNL     1       3.636  22.267  -5.307  1.00  0.00     0.124 S 
ATOM     71  O   UNL     1       2.178  22.229  -5.340  1.00  0.00    -0.237 OA
ATOM     72  O   UNL     1       4.224  23.239  -4.392  1.00  0.00    -0.237 OA
ATOM     73  O   UNL     1       4.295  22.154  -6.606  1.00  0.00    -0.744 OA
ENDBRANCH  69  70
ENDBRANCH  48  62
BRANCH  49  74
ATOM     74  C   UNL     1       6.511   9.683   1.522  1.00  0.00     0.058 A 
ATOM     75  C   UNL     1       7.135   9.630   2.777  1.00  0.00     0.135 A 
ATOM     76  C   UNL     1       6.196   8.466   0.898  1.00  0.00     0.135 A 
ATOM     77  F   UNL     1       7.462  10.767   3.411  1.00  0.00    -0.206 F 
ATOM     78  C   UNL     1       7.465   8.419   3.377  1.00  0.00     0.059 A 
ATOM     79  C   UNL     1       6.490   7.242   1.491  1.00  0.00     0.059 A 
ATOM     80  F   UNL     1       5.583   8.460  -0.296  1.00  0.00    -0.206 F 
ATOM     81  C   UNL     1       7.142   7.229   2.723  1.00  0.00     0.060 A 
BRANCH  81  82
ATOM     82  S   UNL     1       7.561   5.660   3.513  1.00  0.00     0.124 S 
ATOM     83  O   UNL     1       8.999   5.591   3.283  1.00  0.00    -0.237 OA
ATOM     84  O   UNL     1       7.145   5.888   4.894  1.00  0.00    -0.237 OA
ATOM     85  O   UNL     1       6.755   4.689   2.777  1.00  0.00    -0.744 OA
ENDBRANCH  81  82
ENDBRANCH  49  74
BRANCH  61  86
ATOM     86  C   UNL     1      10.526  14.696  -1.195  1.00  0.00     0.058 A 
ATOM     87  C   UNL     1      11.327  13.930  -2.056  1.00  0.00     0.135 A 
ATOM     88  C   UNL     1      11.152  15.689  -0.424  1.00  0.00     0.135 A 
ATOM     89  F   UNL     1      10.778  12.965  -2.810  1.00  0.00    -0.206 F 
ATOM     90  C   UNL     1      12.702  14.126  -2.134  1.00  0.00     0.059 A 
ATOM     91  C   UNL     1      12.522  15.919  -0.505  1.00  0.00     0.059 A 
ATOM     92  F   UNL     1      10.430  16.456   0.407  1.00  0.00    -0.206 F 
ATOM     93  C   UNL     1      13.290  15.125  -1.355  1.00  0.00     0.060 A 
BRANCH  93  94
ATOM     94  S   UNL     1      15.071  15.393  -1.491  1.00  0.00     0.124 S 
ATOM     95  O   UNL     1      15.597  14.251  -0.750  1.00  0.00    -0.237 OA
ATOM     96  O   UNL     1      15.283  15.364  -2.935  1.00  0.00    -0.237 OA
ATOM     97  O   UNL     1      15.267  16.695  -0.861  1.00  0.00    -0.744 OA
ENDBRANCH  93  94
ENDBRANCH  61  86
ENDBRANCH  35  36
ENDBRANCH  27  30
ENDBRANCH  25  26
ENDBRANCH  24  25
ENDBRANCH  23  24
ENDBRANCH   3  23
TORSDOF 20
