REMARK SMILES Cc1cc(Br)cnc1Sc1nc(CC(=O)NCCCNC(=O)c2ccc(-c3c4nc(c(-c5c(F)cc(S(=O)(=O)[O-])cc5F)c5ccc([nH]5)c(-c5c(F)cc(S(=O)(=O)[O-])cc5F)c5nc(c(-c6c(F)cc(S(=O)(=O)[O-])cc6F)c6ccc3[nH]6)C=C5)C=C4)cc2)cs1
REMARK SMILES IDX 18 1 17 2 16 3 14 4 15 5 13 7 12 8 10 9 11 10 90 11 89 12
REMARK SMILES IDX 9 13 8 14 1 15 2 16 3 17 4 18 7 19 5 20 6 21 19 22 20 23
REMARK SMILES IDX 21 24 22 26 23 27 24 28 88 29 25 30 87 31 26 32 27 33 28 34
REMARK SMILES IDX 81 35 29 36 86 37 80 38 82 39 30 40 85 41 79 42 78 43 31 45
REMARK SMILES IDX 65 46 44 47 64 48 45 49 48 50 63 51 83 52 46 53 47 54 62 56
REMARK SMILES IDX 84 57 49 58 32 59 33 60 42 61 34 62 35 63 41 64 43 65 36 66
REMARK SMILES IDX 37 67 38 68 39 69 40 70 66 71 67 72 76 73 68 74 69 75 75 76
REMARK SMILES IDX 77 77 70 78 71 79 72 80 73 81 74 82 50 83 51 84 60 85 52 86
REMARK SMILES IDX 53 87 59 88 61 89 54 90 55 91 56 92 57 93 58 94
REMARK H PARENT 16 6 20 25 82 44 48 55
REMARK Flexibility Score: inf
ROOT
ATOM      1  C   UNL     1       7.834  -0.383  -3.142  1.00  0.00     0.042 C 
ENDROOT
BRANCH   1   2
ATOM      2  C   UNL     1       7.245  -1.625  -3.805  1.00  0.00     0.117 C 
BRANCH   2   3
ATOM      3  N   UNL     1       7.912  -2.846  -3.386  1.00  0.00    -0.356 N 
ATOM      4  C   UNL     1       7.529  -3.735  -2.423  1.00  0.00     0.226 C 
ATOM      5  O   UNL     1       8.274  -4.681  -2.158  1.00  0.00    -0.275 OA
ATOM      6  H   UNL     1       8.750  -3.060  -3.857  1.00  0.00     0.163 HD
BRANCH   4   7
ATOM      7  C   UNL     1       6.195  -3.568  -1.728  1.00  0.00     0.157 C 
BRANCH   7   8
ATOM      8  C   UNL     1       6.205  -2.449  -0.743  1.00  0.00     0.062 A 
ATOM      9  C   UNL     1       5.421  -0.533   0.057  1.00  0.00     0.156 A 
ATOM     10  N   UNL     1       5.329  -1.386  -0.939  1.00  0.00    -0.234 NA
ATOM     11  S   UNL     1       6.629  -0.897   1.224  1.00  0.00    -0.116 S 
ATOM     12  C   UNL     1       6.991  -2.346   0.389  1.00  0.00     0.092 A 
BRANCH   9  13
ATOM     13  S   UNL     1       4.473   0.911   0.164  1.00  0.00    -0.039 SA
BRANCH  13  14
ATOM     14  C   UNL     1       2.763   0.438   0.064  1.00  0.00     0.106 A 
ATOM     15  C   UNL     1       2.832  -2.116   0.486  1.00  0.00     0.047 C 
ATOM     16  C   UNL     1       2.141  -0.809   0.240  1.00  0.00    -0.017 A 
ATOM     17  C   UNL     1       0.731  -0.869   0.156  1.00  0.00     0.023 A 
ATOM     18  C   UNL     1      -0.019   0.278  -0.043  1.00  0.00     0.036 A 
ATOM     19  N   UNL     1       2.005   1.556  -0.141  1.00  0.00    -0.248 NA
ATOM     20  Br  UNL     1      -1.899   0.207  -0.103  1.00  0.00    -0.049 Br
ATOM     21  C   UNL     1       0.657   1.465  -0.181  1.00  0.00     0.128 A 
ENDBRANCH  13  14
ENDBRANCH   9  13
ENDBRANCH   7   8
ENDBRANCH   4   7
ENDBRANCH   2   3
ENDBRANCH   1   2
BRANCH   1  22
ATOM     22  C   UNL     1       9.277  -0.085  -3.535  1.00  0.00     0.118 C 
BRANCH  22  23
ATOM     23  N   UNL     1       9.415   0.240  -4.946  1.00  0.00    -0.352 N 
ATOM     24  C   UNL     1       9.993   1.325  -5.551  1.00  0.00     0.251 C 
ATOM     25  H   UNL     1       9.034  -0.425  -5.563  1.00  0.00     0.163 HD
ATOM     26  O   UNL     1       9.830   1.483  -6.762  1.00  0.00    -0.269 OA
BRANCH  24  27
ATOM     27  C   UNL     1      10.796   2.304  -4.783  1.00  0.00     0.039 A 
ATOM     28  C   UNL     1      10.718   3.655  -5.137  1.00  0.00     0.014 A 
ATOM     29  C   UNL     1      11.676   1.903  -3.772  1.00  0.00     0.014 A 
ATOM     30  C   UNL     1      11.498   4.601  -4.466  1.00  0.00     0.010 A 
ATOM     31  C   UNL     1      12.399   2.856  -3.055  1.00  0.00     0.010 A 
ATOM     32  C   UNL     1      12.336   4.212  -3.410  1.00  0.00    -0.014 A 
BRANCH  32  33
ATOM     33  C   UNL     1      13.196   5.200  -2.708  1.00  0.00     0.031 A 
ATOM     34  C   UNL     1      14.696   5.099  -2.814  1.00  0.00     0.074 A 
ATOM     35  C   UNL     1      12.636   6.162  -1.949  1.00  0.00     0.049 A 
ATOM     36  N   UNL     1      15.618   5.821  -2.230  1.00  0.00    -0.248 NA
ATOM     37  C   UNL     1      15.230   4.027  -3.670  1.00  0.00     0.031 C 
ATOM     38  C   UNL     1      11.198   6.345  -1.737  1.00  0.00     0.029 A 
ATOM     39  N   UNL     1      13.209   7.166  -1.209  1.00  0.00    -0.354 N 
ATOM     40  C   UNL     1      16.835   5.282  -2.633  1.00  0.00     0.074 A 
ATOM     41  C   UNL     1      16.534   4.141  -3.469  1.00  0.00     0.031 C 
ATOM     42  C   UNL     1      11.002   7.409  -0.941  1.00  0.00     0.029 A 
ATOM     43  C   UNL     1      12.297   7.965  -0.560  1.00  0.00     0.049 A 
ATOM     44  H   UNL     1      14.183   7.301  -1.149  1.00  0.00     0.167 HD
ATOM     45  C   UNL     1      18.089   5.712  -2.353  1.00  0.00     0.037 A 
ATOM     46  C   UNL     1      12.485   9.025   0.249  1.00  0.00     0.037 A 
ATOM     47  C   UNL     1      18.384   6.870  -1.550  1.00  0.00     0.049 A 
ATOM     48  C   UNL     1      13.887   9.497   0.529  1.00  0.00     0.074 A 
ATOM     49  C   UNL     1      19.619   7.410  -1.236  1.00  0.00     0.029 A 
ATOM     50  N   UNL     1      17.430   7.674  -0.943  1.00  0.00    -0.354 N 
ATOM     51  N   UNL     1      15.025   8.996   0.111  1.00  0.00    -0.248 NA
ATOM     52  C   UNL     1      14.031  10.686   1.381  1.00  0.00     0.031 C 
ATOM     53  C   UNL     1      19.413   8.526  -0.417  1.00  0.00     0.029 A 
ATOM     54  C   UNL     1      18.049   8.705  -0.255  1.00  0.00     0.049 A 
ATOM     55  H   UNL     1      16.457   7.533  -0.993  1.00  0.00     0.167 HD
ATOM     56  C   UNL     1      16.016   9.829   0.617  1.00  0.00     0.074 A 
ATOM     57  C   UNL     1      15.344  10.868   1.369  1.00  0.00     0.031 C 
ATOM     58  C   UNL     1      17.362   9.744   0.470  1.00  0.00     0.037 A 
BRANCH  45  59
ATOM     59  C   UNL     1      19.237   4.931  -2.931  1.00  0.00     0.058 A 
ATOM     60  C   UNL     1      19.525   4.957  -4.306  1.00  0.00     0.135 A 
ATOM     61  C   UNL     1      20.074   4.167  -2.103  1.00  0.00     0.135 A 
ATOM     62  F   UNL     1      18.747   5.657  -5.146  1.00  0.00    -0.206 F 
ATOM     63  C   UNL     1      20.581   4.228  -4.842  1.00  0.00     0.059 A 
ATOM     64  C   UNL     1      21.154   3.452  -2.614  1.00  0.00     0.059 A 
ATOM     65  F   UNL     1      19.846   4.107  -0.781  1.00  0.00    -0.206 F 
ATOM     66  C   UNL     1      21.389   3.476  -3.988  1.00  0.00     0.060 A 
BRANCH  66  67
ATOM     67  S   UNL     1      22.755   2.534  -4.699  1.00  0.00     0.124 S 
ATOM     68  O   UNL     1      22.047   1.418  -5.319  1.00  0.00    -0.237 OA
ATOM     69  O   UNL     1      23.353   3.494  -5.621  1.00  0.00    -0.237 OA
ATOM     70  O   UNL     1      23.572   2.192  -3.539  1.00  0.00    -0.744 OA
ENDBRANCH  66  67
ENDBRANCH  45  59
BRANCH  46  71
ATOM     71  C   UNL     1      11.315   9.740   0.825  1.00  0.00     0.058 A 
ATOM     72  C   UNL     1      10.962  11.021   0.375  1.00  0.00     0.135 A 
ATOM     73  C   UNL     1      10.527   9.160   1.830  1.00  0.00     0.135 A 
ATOM     74  F   UNL     1      11.689  11.619  -0.582  1.00  0.00    -0.206 F 
ATOM     75  C   UNL     1       9.884  11.713   0.917  1.00  0.00     0.059 A 
ATOM     76  C   UNL     1       9.429   9.822   2.371  1.00  0.00     0.059 A 
ATOM     77  F   UNL     1      10.812   7.928   2.282  1.00  0.00    -0.206 F 
ATOM     78  C   UNL     1       9.124  11.105   1.917  1.00  0.00     0.060 A 
BRANCH  78  79
ATOM     79  S   UNL     1       7.706  11.998   2.591  1.00  0.00     0.124 S 
ATOM     80  O   UNL     1       8.360  12.986   3.442  1.00  0.00    -0.237 OA
ATOM     81  O   UNL     1       7.066  12.517   1.386  1.00  0.00    -0.237 OA
ATOM     82  O   UNL     1       6.958  10.958   3.291  1.00  0.00    -0.744 OA
ENDBRANCH  78  79
ENDBRANCH  46  71
BRANCH  58  83
ATOM     83  C   UNL     1      18.195  10.832   1.086  1.00  0.00     0.058 A 
ATOM     84  C   UNL     1      18.404  10.911   2.471  1.00  0.00     0.135 A 
ATOM     85  C   UNL     1      18.828  11.784   0.269  1.00  0.00     0.135 A 
ATOM     86  F   UNL     1      17.818  10.028   3.294  1.00  0.00    -0.206 F 
ATOM     87  C   UNL     1      19.193  11.912   3.029  1.00  0.00     0.059 A 
ATOM     88  C   UNL     1      19.640  12.778   0.804  1.00  0.00     0.059 A 
ATOM     89  F   UNL     1      18.668  11.745  -1.063  1.00  0.00    -0.206 F 
ATOM     90  C   UNL     1      19.806  12.842   2.186  1.00  0.00     0.060 A 
BRANCH  90  91
ATOM     91  S   UNL     1      20.850  14.121   2.918  1.00  0.00     0.124 S 
ATOM     92  O   UNL     1      19.853  15.041   3.456  1.00  0.00    -0.237 OA
ATOM     93  O   UNL     1      21.619  13.372   3.907  1.00  0.00    -0.237 OA
ATOM     94  O   UNL     1      21.620  14.621   1.783  1.00  0.00    -0.744 OA
ENDBRANCH  90  91
ENDBRANCH  58  83
ENDBRANCH  32  33
ENDBRANCH  24  27
ENDBRANCH  22  23
ENDBRANCH   1  22
TORSDOF 16
