REMARK SMILES O=C(NCCCNC(=O)c1ccc(C[NH2+][C@H]2CCCNC2=O)nc1)c1ccc(-c2c3nc(c(-c4c(F)cc(S(=O)(=O)[O-])cc4F)c4ccc([nH]4)c(-c4c(F)cc(S(=O)(=O)[O-])cc4F)c4nc(c(-c5c(F)cc(S(=O)(=O)[O-])cc5F)c5ccc2[nH]5)C=C4)C=C3)cc1
REMARK SMILES IDX 5 1 4 2 3 3 1 4 2 5 25 7 26 8 90 9 27 10 89 11 28 12 29 13
REMARK SMILES IDX 30 14 83 15 31 16 88 17 82 18 84 19 32 20 87 21 81 22 80 23
REMARK SMILES IDX 33 25 67 26 46 27 66 28 47 29 50 30 65 31 85 32 48 33 49 34
REMARK SMILES IDX 64 36 86 37 51 38 34 39 35 40 44 41 36 42 37 43 43 44 45 45
REMARK SMILES IDX 38 46 39 47 40 48 41 49 42 50 68 51 69 52 78 53 70 54 71 55
REMARK SMILES IDX 77 56 79 57 72 58 73 59 74 60 75 61 76 62 52 63 53 64 62 65
REMARK SMILES IDX 54 66 55 67 61 68 63 69 56 70 57 71 58 72 59 73 60 74 6 75
REMARK SMILES IDX 7 76 8 77 9 79 10 80 11 81 24 82 12 83 23 84 13 85 14 86
REMARK SMILES IDX 15 87 16 90 17 91 21 92 18 93 20 94 22 95 19 96
REMARK H PARENT 3 6 84 24 50 35 7 78 15 88 15 89 20 97
REMARK Flexibility Score: inf
ROOT
ATOM      1  C   UNL     1       4.934   1.085   2.244  1.00  0.00     0.042 C 
ENDROOT
BRANCH   1   2
ATOM      2  C   UNL     1       4.539  -0.076   1.349  1.00  0.00     0.118 C 
BRANCH   2   3
ATOM      3  N   UNL     1       3.098  -0.171   1.150  1.00  0.00    -0.352 N 
ATOM      4  O   UNL     1       1.130   0.070   0.083  1.00  0.00    -0.269 OA
ATOM      5  C   UNL     1       2.353   0.008   0.008  1.00  0.00     0.251 C 
ATOM      6  H   UNL     1       2.579  -0.397   1.956  1.00  0.00     0.163 HD
BRANCH   5   7
ATOM      7  C   UNL     1       3.033   0.150  -1.297  1.00  0.00     0.039 A 
ATOM      8  C   UNL     1       4.125  -0.658  -1.614  1.00  0.00     0.014 A 
ATOM      9  C   UNL     1       2.577   1.102  -2.213  1.00  0.00     0.014 A 
ATOM     10  C   UNL     1       4.873  -0.392  -2.751  1.00  0.00     0.010 A 
ATOM     11  C   UNL     1       3.259   1.283  -3.419  1.00  0.00     0.010 A 
ATOM     12  C   UNL     1       4.433   0.560  -3.683  1.00  0.00    -0.014 A 
BRANCH  12  13
ATOM     13  C   UNL     1       5.174   0.708  -4.962  1.00  0.00     0.031 A 
ATOM     14  C   UNL     1       5.827   2.006  -5.345  1.00  0.00     0.074 A 
ATOM     15  C   UNL     1       5.268  -0.367  -5.770  1.00  0.00     0.049 A 
ATOM     16  N   UNL     1       6.508   2.294  -6.424  1.00  0.00    -0.248 NA
ATOM     17  C   UNL     1       5.691   3.129  -4.405  1.00  0.00     0.031 C 
ATOM     18  C   UNL     1       4.659  -1.675  -5.505  1.00  0.00     0.029 A 
ATOM     19  N   UNL     1       5.913  -0.542  -6.966  1.00  0.00    -0.354 N 
ATOM     20  C   UNL     1       6.866   3.632  -6.306  1.00  0.00     0.074 A 
ATOM     21  C   UNL     1       6.301   4.107  -5.061  1.00  0.00     0.031 C 
ATOM     22  C   UNL     1       4.995  -2.526  -6.483  1.00  0.00     0.029 A 
ATOM     23  C   UNL     1       5.771  -1.808  -7.484  1.00  0.00     0.049 A 
ATOM     24  H   UNL     1       6.428   0.169  -7.411  1.00  0.00     0.167 HD
ATOM     25  C   UNL     1       7.601   4.388  -7.159  1.00  0.00     0.037 A 
ATOM     26  C   UNL     1       6.189  -2.330  -8.652  1.00  0.00     0.037 A 
ATOM     27  C   UNL     1       8.160   3.894  -8.394  1.00  0.00     0.049 A 
ATOM     28  C   UNL     1       6.975  -1.464  -9.591  1.00  0.00     0.074 A 
ATOM     29  C   UNL     1       8.952   4.567  -9.308  1.00  0.00     0.029 A 
ATOM     30  N   UNL     1       7.976   2.612  -8.896  1.00  0.00    -0.354 N 
ATOM     31  N   UNL     1       7.340  -0.212  -9.443  1.00  0.00    -0.248 NA
ATOM     32  C   UNL     1       7.405  -2.075 -10.853  1.00  0.00     0.031 C 
ATOM     33  C   UNL     1       9.196   3.713 -10.389  1.00  0.00     0.029 A 
ATOM     34  C   UNL     1       8.613   2.485 -10.121  1.00  0.00     0.049 A 
ATOM     35  H   UNL     1       7.468   1.898  -8.447  1.00  0.00     0.167 HD
ATOM     36  C   UNL     1       8.059   0.110 -10.587  1.00  0.00     0.074 A 
ATOM     37  C   UNL     1       8.093  -1.086 -11.406  1.00  0.00     0.031 C 
ATOM     38  C   UNL     1       8.637   1.288 -10.927  1.00  0.00     0.037 A 
BRANCH  25  39
ATOM     39  C   UNL     1       7.821   5.836  -6.805  1.00  0.00     0.058 A 
ATOM     40  C   UNL     1       8.640   6.225  -5.733  1.00  0.00     0.135 A 
ATOM     41  C   UNL     1       7.235   6.853  -7.577  1.00  0.00     0.135 A 
ATOM     42  F   UNL     1       9.219   5.298  -4.952  1.00  0.00    -0.206 F 
ATOM     43  C   UNL     1       8.843   7.566  -5.419  1.00  0.00     0.059 A 
ATOM     44  C   UNL     1       7.447   8.201  -7.301  1.00  0.00     0.059 A 
ATOM     45  F   UNL     1       6.444   6.542  -8.617  1.00  0.00    -0.206 F 
ATOM     46  C   UNL     1       8.240   8.547  -6.208  1.00  0.00     0.060 A 
BRANCH  46  47
ATOM     47  S   UNL     1       8.506  10.281  -5.780  1.00  0.00     0.124 S 
ATOM     48  O   UNL     1       7.722  10.401  -4.554  1.00  0.00    -0.237 OA
ATOM     49  O   UNL     1       9.954  10.343  -5.614  1.00  0.00    -0.237 OA
ATOM     50  O   UNL     1       7.978  11.003  -6.934  1.00  0.00    -0.744 OA
ENDBRANCH  46  47
ENDBRANCH  25  39
BRANCH  26  51
ATOM     51  C   UNL     1       5.844  -3.736  -8.991  1.00  0.00     0.058 A 
ATOM     52  C   UNL     1       6.827  -4.733  -9.046  1.00  0.00     0.135 A 
ATOM     53  C   UNL     1       4.512  -4.115  -9.224  1.00  0.00     0.135 A 
ATOM     54  F   UNL     1       8.114  -4.420  -8.832  1.00  0.00    -0.206 F 
ATOM     55  C   UNL     1       6.505  -6.055  -9.334  1.00  0.00     0.059 A 
ATOM     56  C   UNL     1       4.161  -5.435  -9.481  1.00  0.00     0.059 A 
ATOM     57  F   UNL     1       3.531  -3.202  -9.161  1.00  0.00    -0.206 F 
ATOM     58  C   UNL     1       5.168  -6.397  -9.545  1.00  0.00     0.060 A 
BRANCH  58  59
ATOM     59  S   UNL     1       4.755  -8.125  -9.865  1.00  0.00     0.124 S 
ATOM     60  O   UNL     1       5.266  -8.302 -11.219  1.00  0.00    -0.237 OA
ATOM     61  O   UNL     1       5.490  -8.815  -8.809  1.00  0.00    -0.237 OA
ATOM     62  O   UNL     1       3.302  -8.155  -9.728  1.00  0.00    -0.744 OA
ENDBRANCH  58  59
ENDBRANCH  26  51
BRANCH  38  63
ATOM     63  C   UNL     1       9.386   1.334 -12.231  1.00  0.00     0.058 A 
ATOM     64  C   UNL     1       8.723   1.305 -13.468  1.00  0.00     0.135 A 
ATOM     65  C   UNL     1      10.786   1.452 -12.240  1.00  0.00     0.135 A 
ATOM     66  F   UNL     1       7.387   1.182 -13.516  1.00  0.00    -0.206 F 
ATOM     67  C   UNL     1       9.423   1.365 -14.668  1.00  0.00     0.059 A 
ATOM     68  C   UNL     1      11.503   1.546 -13.428  1.00  0.00     0.059 A 
ATOM     69  F   UNL     1      11.469   1.491 -11.085  1.00  0.00    -0.206 F 
ATOM     70  C   UNL     1      10.813   1.490 -14.638  1.00  0.00     0.060 A 
BRANCH  70  71
ATOM     71  S   UNL     1      11.705   1.605 -16.203  1.00  0.00     0.124 S 
ATOM     72  O   UNL     1      11.601   0.237 -16.702  1.00  0.00    -0.237 OA
ATOM     73  O   UNL     1      10.932   2.607 -16.929  1.00  0.00    -0.237 OA
ATOM     74  O   UNL     1      13.044   2.025 -15.801  1.00  0.00    -0.744 OA
ENDBRANCH  70  71
ENDBRANCH  38  63
ENDBRANCH  12  13
ENDBRANCH   5   7
ENDBRANCH   2   3
ENDBRANCH   1   2
BRANCH   1  75
ATOM     75  C   UNL     1       4.402   0.968   3.662  1.00  0.00     0.118 C 
BRANCH  75  76
ATOM     76  N   UNL     1       4.908  -0.218   4.343  1.00  0.00    -0.352 N 
ATOM     77  C   UNL     1       5.715  -0.301   5.447  1.00  0.00     0.252 C 
ATOM     78  H   UNL     1       4.630  -1.079   3.955  1.00  0.00     0.163 HD
ATOM     79  O   UNL     1       6.221  -1.372   5.773  1.00  0.00    -0.269 OA
BRANCH  77  80
ATOM     80  C   UNL     1       5.974   0.902   6.242  1.00  0.00     0.058 A 
ATOM     81  C   UNL     1       4.942   1.738   6.666  1.00  0.00     0.017 A 
ATOM     82  C   UNL     1       7.276   1.220   6.584  1.00  0.00     0.125 A 
ATOM     83  C   UNL     1       5.257   2.905   7.347  1.00  0.00     0.030 A 
ATOM     84  N   UNL     1       7.609   2.349   7.249  1.00  0.00    -0.255 NA
ATOM     85  C   UNL     1       6.597   3.183   7.610  1.00  0.00     0.094 A 
BRANCH  85  86
ATOM     86  C   UNL     1       6.969   4.457   8.340  1.00  0.00     0.318 C 
BRANCH  86  87
ATOM     87  N   UNL     1       7.264   4.199   9.756  1.00  0.00    -0.331 N 
ATOM     88  H   UNL     1       7.959   3.453   9.803  1.00  0.00     0.347 HD
ATOM     89  H   UNL     1       6.375   3.955  10.191  1.00  0.00     0.347 HD
BRANCH  87  90
ATOM     90  C   UNL     1       7.786   5.358  10.511  1.00  0.00     0.272 C 
ATOM     91  C   UNL     1       9.313   5.472  10.460  1.00  0.00     0.077 C 
ATOM     92  C   UNL     1       7.066   6.659  10.126  1.00  0.00     0.278 C 
ATOM     93  C   UNL     1       9.822   6.173   9.211  1.00  0.00     0.028 C 
ATOM     94  N   UNL     1       7.732   7.532   9.312  1.00  0.00    -0.351 N 
ATOM     95  O   UNL     1       5.887   6.867  10.415  1.00  0.00    -0.268 OA
ATOM     96  C   UNL     1       9.155   7.529   9.053  1.00  0.00     0.116 C 
ATOM     97  H   UNL     1       7.196   8.225   8.863  1.00  0.00     0.163 HD
ENDBRANCH  87  90
ENDBRANCH  86  87
ENDBRANCH  85  86
ENDBRANCH  77  80
ENDBRANCH  75  76
ENDBRANCH   1  75
TORSDOF 16
