REMARK SMILES COC(=O)CCN(C)C(=O)NCc1ccc(C(=O)NCCCNC(=O)c2ccc(-c3c4nc(c(-c5c(F)cc(S(=O)(=O)[O-])cc5F)c5ccc([nH]5)c(-c5c(F)cc(S(=O)(=O)[O-])cc5F)c5nc(c(-c6c(F)cc(S(=O)(=O)[O-])cc6F)c6ccc3[nH]6)C=C5)C=C4)cc2)o1
REMARK SMILES IDX 17 1 18 2 19 3 16 5 13 6 14 7 92 8 15 9 12 10 11 11 9 12
REMARK SMILES IDX 10 13 7 15 8 16 6 17 5 18 3 19 4 20 2 21 1 22 20 23 21 24
REMARK SMILES IDX 22 25 23 26 24 27 25 29 26 30 27 31 91 32 28 33 90 34 29 35
REMARK SMILES IDX 30 36 31 37 84 38 32 39 89 40 83 41 85 42 33 43 88 44 82 45
REMARK SMILES IDX 81 46 34 48 68 49 47 50 67 51 48 52 51 53 66 54 86 55 49 56
REMARK SMILES IDX 50 57 65 59 87 60 52 61 35 62 36 63 45 64 37 65 38 66 44 67
REMARK SMILES IDX 46 68 39 69 40 70 41 71 42 72 43 73 69 74 70 75 79 76 71 77
REMARK SMILES IDX 72 78 78 79 80 80 73 81 74 82 75 83 76 84 77 85 53 86 54 87
REMARK SMILES IDX 63 88 55 89 56 90 62 91 64 92 57 93 58 94 59 95 60 96 61 97
REMARK H PARENT 19 4 11 14 23 28 85 47 51 58
REMARK Flexibility Score: inf
ROOT
ATOM      1  C   UNL     1       0.650  -6.926   5.571  1.00  0.00     0.286 C 
ATOM      2  O   UNL     1       0.083  -7.878   5.030  1.00  0.00    -0.266 OA
ATOM      3  N   UNL     1       1.504  -7.251   6.600  1.00  0.00    -0.349 N 
ATOM      4  H   UNL     1       1.504  -8.204   6.845  1.00  0.00     0.163 HD
ENDROOT
BRANCH   1   5
ATOM      5  C   UNL     1       0.456  -5.550   5.151  1.00  0.00     0.191 A 
ATOM      6  C   UNL     1      -0.235  -4.034   3.692  1.00  0.00     0.124 A 
ATOM      7  C   UNL     1       0.309  -3.333   4.744  1.00  0.00     0.048 A 
ATOM      8  O   UNL     1      -0.167  -5.369   3.937  1.00  0.00    -0.454 OA
ATOM      9  C   UNL     1       0.739  -4.301   5.680  1.00  0.00     0.056 A 
BRANCH   6  10
ATOM     10  C   UNL     1      -0.776  -3.620   2.376  1.00  0.00     0.193 C 
BRANCH  10  11
ATOM     11  N   UNL     1       0.339  -3.045   1.655  1.00  0.00    -0.331 N 
ATOM     12  C   UNL     1       0.938  -3.188   0.471  1.00  0.00     0.317 C 
ATOM     13  O   UNL     1       1.935  -2.477   0.308  1.00  0.00    -0.249 OA
ATOM     14  H   UNL     1       0.783  -2.349   2.191  1.00  0.00     0.165 HD
BRANCH  12  15
ATOM     15  N   UNL     1       0.458  -3.983  -0.528  1.00  0.00    -0.327 N 
ATOM     16  C   UNL     1      -0.539  -5.030  -0.395  1.00  0.00     0.148 C 
BRANCH  15  17
ATOM     17  C   UNL     1       0.958  -3.712  -1.883  1.00  0.00     0.132 C 
BRANCH  17  18
ATOM     18  C   UNL     1       0.226  -2.557  -2.561  1.00  0.00     0.144 C 
BRANCH  18  19
ATOM     19  C   UNL     1       0.786  -1.224  -2.131  1.00  0.00     0.307 C 
ATOM     20  O   UNL     1       1.758  -0.694  -2.655  1.00  0.00    -0.252 OA
BRANCH  19  21
ATOM     21  O   UNL     1       0.069  -0.717  -1.091  1.00  0.00    -0.469 OA
ATOM     22  C   UNL     1       0.698   0.368  -0.405  1.00  0.00     0.282 C 
ENDBRANCH  19  21
ENDBRANCH  18  19
ENDBRANCH  17  18
ENDBRANCH  15  17
ENDBRANCH  12  15
ENDBRANCH  10  11
ENDBRANCH   6  10
ENDBRANCH   1   5
BRANCH   3  23
ATOM     23  C   UNL     1       2.402  -6.429   7.384  1.00  0.00     0.118 C 
BRANCH  23  24
ATOM     24  C   UNL     1       1.763  -5.984   8.697  1.00  0.00     0.042 C 
BRANCH  24  25
ATOM     25  C   UNL     1       1.742  -7.086   9.755  1.00  0.00     0.118 C 
BRANCH  25  26
ATOM     26  N   UNL     1       3.087  -7.460  10.172  1.00  0.00    -0.352 N 
ATOM     27  C   UNL     1       3.691  -7.386  11.401  1.00  0.00     0.251 C 
ATOM     28  H   UNL     1       3.654  -7.826   9.455  1.00  0.00     0.163 HD
ATOM     29  O   UNL     1       4.912  -7.506  11.474  1.00  0.00    -0.269 OA
BRANCH  27  30
ATOM     30  C   UNL     1       2.894  -7.165  12.626  1.00  0.00     0.039 A 
ATOM     31  C   UNL     1       3.423  -6.362  13.640  1.00  0.00     0.014 A 
ATOM     32  C   UNL     1       1.657  -7.791  12.805  1.00  0.00     0.014 A 
ATOM     33  C   UNL     1       2.690  -6.148  14.809  1.00  0.00     0.010 A 
ATOM     34  C   UNL     1       0.894  -7.515  13.936  1.00  0.00     0.010 A 
ATOM     35  C   UNL     1       1.407  -6.698  14.954  1.00  0.00    -0.014 A 
BRANCH  35  36
ATOM     36  C   UNL     1       0.588  -6.432  16.164  1.00  0.00     0.031 A 
ATOM     37  C   UNL     1       0.191  -7.561  17.076  1.00  0.00     0.074 A 
ATOM     38  C   UNL     1       0.150  -5.179  16.403  1.00  0.00     0.049 A 
ATOM     39  N   UNL     1      -0.567  -7.534  18.142  1.00  0.00    -0.248 NA
ATOM     40  C   UNL     1       0.690  -8.903  16.731  1.00  0.00     0.031 C 
ATOM     41  C   UNL     1       0.430  -4.012  15.563  1.00  0.00     0.029 A 
ATOM     42  N   UNL     1      -0.628  -4.678  17.415  1.00  0.00    -0.354 N 
ATOM     43  C   UNL     1      -0.651  -8.850  18.583  1.00  0.00     0.074 A 
ATOM     44  C   UNL     1       0.091  -9.658  17.640  1.00  0.00     0.031 C 
ATOM     45  C   UNL     1      -0.144  -2.929  16.109  1.00  0.00     0.029 A 
ATOM     46  C   UNL     1      -0.867  -3.328  17.311  1.00  0.00     0.049 A 
ATOM     47  H   UNL     1      -0.982  -5.233  18.147  1.00  0.00     0.167 HD
ATOM     48  C   UNL     1      -1.272  -9.337  19.684  1.00  0.00     0.037 A 
ATOM     49  C   UNL     1      -1.593  -2.506  18.093  1.00  0.00     0.037 A 
ATOM     50  C   UNL     1      -1.986  -8.518  20.630  1.00  0.00     0.049 A 
ATOM     51  C   UNL     1      -2.274  -3.070  19.310  1.00  0.00     0.074 A 
ATOM     52  C   UNL     1      -2.594  -8.901  21.813  1.00  0.00     0.029 A 
ATOM     53  N   UNL     1      -2.194  -7.152  20.499  1.00  0.00    -0.354 N 
ATOM     54  N   UNL     1      -2.284  -4.306  19.751  1.00  0.00    -0.248 NA
ATOM     55  C   UNL     1      -3.037  -2.129  20.141  1.00  0.00     0.031 C 
ATOM     56  C   UNL     1      -3.213  -7.778  22.370  1.00  0.00     0.029 A 
ATOM     57  C   UNL     1      -2.943  -6.682  21.565  1.00  0.00     0.049 A 
ATOM     58  H   UNL     1      -1.858  -6.599  19.757  1.00  0.00     0.167 HD
ATOM     59  C   UNL     1      -3.028  -4.285  20.926  1.00  0.00     0.074 A 
ATOM     60  C   UNL     1      -3.439  -2.911  21.132  1.00  0.00     0.031 C 
ATOM     61  C   UNL     1      -3.340  -5.309  21.759  1.00  0.00     0.037 A 
BRANCH  48  62
ATOM     62  C   UNL     1      -1.210 -10.821  19.927  1.00  0.00     0.058 A 
ATOM     63  C   UNL     1      -0.012 -11.464  20.282  1.00  0.00     0.135 A 
ATOM     64  C   UNL     1      -2.370 -11.608  19.839  1.00  0.00     0.135 A 
ATOM     65  F   UNL     1       1.131 -10.766  20.367  1.00  0.00    -0.206 F 
ATOM     66  C   UNL     1       0.039 -12.836  20.509  1.00  0.00     0.059 A 
ATOM     67  C   UNL     1      -2.349 -12.977  20.092  1.00  0.00     0.059 A 
ATOM     68  F   UNL     1      -3.543 -11.047  19.503  1.00  0.00    -0.206 F 
ATOM     69  C   UNL     1      -1.136 -13.584  20.411  1.00  0.00     0.060 A 
BRANCH  69  70
ATOM     70  S   UNL     1      -1.052 -15.362  20.713  1.00  0.00     0.124 S 
ATOM     71  O   UNL     1      -0.360 -15.828  19.515  1.00  0.00    -0.237 OA
ATOM     72  O   UNL     1      -0.287 -15.432  21.953  1.00  0.00    -0.237 OA
ATOM     73  O   UNL     1      -2.453 -15.756  20.821  1.00  0.00    -0.744 OA
ENDBRANCH  69  70
ENDBRANCH  48  62
BRANCH  49  74
ATOM     74  C   UNL     1      -1.691  -1.059  17.762  1.00  0.00     0.058 A 
ATOM     75  C   UNL     1      -1.068  -0.092  18.565  1.00  0.00     0.135 A 
ATOM     76  C   UNL     1      -2.395  -0.614  16.632  1.00  0.00     0.135 A 
ATOM     77  F   UNL     1      -0.386  -0.468  19.659  1.00  0.00    -0.206 F 
ATOM     78  C   UNL     1      -1.153   1.265  18.273  1.00  0.00     0.059 A 
ATOM     79  C   UNL     1      -2.471   0.736  16.303  1.00  0.00     0.059 A 
ATOM     80  F   UNL     1      -2.994  -1.498  15.820  1.00  0.00    -0.206 F 
ATOM     81  C   UNL     1      -1.855   1.669  17.137  1.00  0.00     0.060 A 
BRANCH  81  82
ATOM     82  S   UNL     1      -1.921   3.430  16.740  1.00  0.00     0.124 S 
ATOM     83  O   UNL     1      -2.828   3.928  17.767  1.00  0.00    -0.237 OA
ATOM     84  O   UNL     1      -0.522   3.825  16.875  1.00  0.00    -0.237 OA
ATOM     85  O   UNL     1      -2.440   3.447  15.376  1.00  0.00    -0.744 OA
ENDBRANCH  81  82
ENDBRANCH  49  74
BRANCH  61  86
ATOM     86  C   UNL     1      -4.135  -4.978  22.992  1.00  0.00     0.058 A 
ATOM     87  C   UNL     1      -5.493  -4.630  22.927  1.00  0.00     0.135 A 
ATOM     88  C   UNL     1      -3.538  -5.055  24.262  1.00  0.00     0.135 A 
ATOM     89  F   UNL     1      -6.110  -4.535  21.738  1.00  0.00    -0.206 F 
ATOM     90  C   UNL     1      -6.225  -4.342  24.074  1.00  0.00     0.059 A 
ATOM     91  C   UNL     1      -4.259  -4.802  25.424  1.00  0.00     0.059 A 
ATOM     92  F   UNL     1      -2.245  -5.394  24.382  1.00  0.00    -0.206 F 
ATOM     93  C   UNL     1      -5.599  -4.433  25.319  1.00  0.00     0.060 A 
BRANCH  93  94
ATOM     94  S   UNL     1      -6.567  -4.084  26.802  1.00  0.00     0.124 S 
ATOM     95  O   UNL     1      -6.702  -2.633  26.730  1.00  0.00    -0.237 OA
ATOM     96  O   UNL     1      -7.789  -4.846  26.563  1.00  0.00    -0.237 OA
ATOM     97  O   UNL     1      -5.725  -4.584  27.884  1.00  0.00    -0.744 OA
ENDBRANCH  93  94
ENDBRANCH  61  86
ENDBRANCH  35  36
ENDBRANCH  27  30
ENDBRANCH  25  26
ENDBRANCH  24  25
ENDBRANCH  23  24
ENDBRANCH   3  23
TORSDOF 20
