REMARK SMILES CC[C@H](NC(=O)N1CCO[C@@H](CC(=O)NCCCNC(=O)c2ccc(-c3c4nc(c(-c5c(F)cc(S(=O)(=O)[O-])cc5F)c5ccc([nH]5)c(-c5c(F)cc(S(=O)(=O)[O-])cc5F)c5nc(c(-c6c(F)cc(S(=O)(=O)[O-])cc6F)c6ccc3[nH]6)C=C5)C=C4)cc2)C1)c1cccs1
REMARK SMILES IDX 16 1 15 2 13 3 14 4 12 6 11 7 7 8 8 9 88 10 9 11 10 12 5 13
REMARK SMILES IDX 4 14 6 16 3 17 2 18 1 19 89 20 90 21 93 22 91 23 92 24 17 25
REMARK SMILES IDX 18 26 19 27 20 28 21 30 22 31 23 32 87 33 24 34 86 35 25 36
REMARK SMILES IDX 26 37 27 38 80 39 28 40 85 41 79 42 81 43 29 44 84 45 78 46
REMARK SMILES IDX 77 47 30 49 64 50 43 51 63 52 44 53 47 54 62 55 82 56 45 57
REMARK SMILES IDX 46 58 61 60 83 61 48 62 31 63 32 64 41 65 33 66 34 67 40 68
REMARK SMILES IDX 42 69 35 70 36 71 37 72 38 73 39 74 65 75 66 76 75 77 67 78
REMARK SMILES IDX 68 79 74 80 76 81 69 82 70 83 71 84 72 85 73 86 49 87 50 88
REMARK SMILES IDX 59 89 51 90 52 91 58 92 60 93 53 94 54 95 55 96 56 97 57 98
REMARK H PARENT 15 5 4 15 19 29 81 48 47 59
REMARK Flexibility Score: inf
ROOT
ATOM      1  C   UNL     1      -3.081  -6.015   0.455  1.00  0.00     0.117 C 
ENDROOT
BRANCH   1   2
ATOM      2  N   UNL     1      -1.999  -6.695   1.163  1.00  0.00    -0.356 N 
ATOM      3  C   UNL     1      -1.604  -6.625   2.470  1.00  0.00     0.222 C 
ATOM      4  O   UNL     1      -0.576  -7.216   2.804  1.00  0.00    -0.275 OA
ATOM      5  H   UNL     1      -1.465  -7.307   0.606  1.00  0.00     0.163 HD
BRANCH   3   6
ATOM      6  C   UNL     1      -2.405  -5.835   3.481  1.00  0.00     0.133 C 
BRANCH   6   7
ATOM      7  C   UNL     1      -1.863  -4.427   3.759  1.00  0.00     0.147 C 
ATOM      8  N   UNL     1      -1.330  -2.261   2.586  1.00  0.00    -0.320 N 
ATOM      9  C   UNL     1      -2.427  -1.649   3.318  1.00  0.00     0.150 C 
ATOM     10  C   UNL     1      -1.533  -3.691   2.456  1.00  0.00     0.154 C 
ATOM     11  C   UNL     1      -2.599  -2.342   4.668  1.00  0.00     0.182 C 
ATOM     12  O   UNL     1      -2.904  -3.736   4.492  1.00  0.00    -0.374 OA
BRANCH   8  13
ATOM     13  C   UNL     1      -0.908  -1.660   1.425  1.00  0.00     0.318 C 
ATOM     14  N   UNL     1       0.324  -1.103   1.407  1.00  0.00    -0.330 N 
ATOM     15  H   UNL     1       0.690  -0.996   0.499  1.00  0.00     0.166 HD
ATOM     16  O   UNL     1      -1.546  -1.748   0.377  1.00  0.00    -0.249 OA
BRANCH  14  17
ATOM     17  C   UNL     1       1.226  -0.627   2.454  1.00  0.00     0.124 C 
BRANCH  17  18
ATOM     18  C   UNL     1       1.016   0.870   2.749  1.00  0.00     0.027 C 
ATOM     19  C   UNL     1      -0.391   1.295   3.138  1.00  0.00     0.006 C 
ENDBRANCH  17  18
BRANCH  17  20
ATOM     20  C   UNL     1       1.367  -1.587   3.617  1.00  0.00     0.027 A 
ATOM     21  C   UNL     1       1.714  -2.929   3.546  1.00  0.00     0.017 A 
ATOM     22  S   UNL     1       1.197  -1.106   5.257  1.00  0.00    -0.147 S 
ATOM     23  C   UNL     1       1.751  -3.567   4.818  1.00  0.00     0.012 A 
ATOM     24  C   UNL     1       1.472  -2.687   5.837  1.00  0.00     0.065 A 
ENDBRANCH  17  20
ENDBRANCH  14  17
ENDBRANCH   8  13
ENDBRANCH   6   7
ENDBRANCH   3   6
ENDBRANCH   1   2
BRANCH   1  25
ATOM     25  C   UNL     1      -2.545  -4.942  -0.495  1.00  0.00     0.042 C 
BRANCH  25  26
ATOM     26  C   UNL     1      -2.020  -5.479  -1.815  1.00  0.00     0.118 C 
BRANCH  26  27
ATOM     27  N   UNL     1      -3.076  -5.626  -2.802  1.00  0.00    -0.352 N 
ATOM     28  C   UNL     1      -3.334  -4.878  -3.926  1.00  0.00     0.251 C 
ATOM     29  H   UNL     1      -3.699  -6.371  -2.642  1.00  0.00     0.163 HD
ATOM     30  O   UNL     1      -4.419  -5.015  -4.494  1.00  0.00    -0.269 OA
BRANCH  28  31
ATOM     31  C   UNL     1      -2.341  -3.911  -4.458  1.00  0.00     0.039 A 
ATOM     32  C   UNL     1      -2.793  -2.710  -5.016  1.00  0.00     0.014 A 
ATOM     33  C   UNL     1      -0.974  -4.200  -4.472  1.00  0.00     0.014 A 
ATOM     34  C   UNL     1      -1.878  -1.788  -5.540  1.00  0.00     0.010 A 
ATOM     35  C   UNL     1      -0.058  -3.245  -4.909  1.00  0.00     0.010 A 
ATOM     36  C   UNL     1      -0.498  -2.037  -5.469  1.00  0.00    -0.014 A 
BRANCH  36  37
ATOM     37  C   UNL     1       0.505  -1.086  -6.022  1.00  0.00     0.031 A 
ATOM     38  C   UNL     1       1.408  -1.528  -7.146  1.00  0.00     0.074 A 
ATOM     39  C   UNL     1       0.657   0.138  -5.479  1.00  0.00     0.049 A 
ATOM     40  N   UNL     1       2.437  -0.916  -7.673  1.00  0.00    -0.248 NA
ATOM     41  C   UNL     1       1.136  -2.852  -7.732  1.00  0.00     0.031 C 
ATOM     42  C   UNL     1      -0.134   0.681  -4.373  1.00  0.00     0.029 A 
ATOM     43  N   UNL     1       1.544   1.145  -5.776  1.00  0.00    -0.354 N 
ATOM     44  C   UNL     1       2.949  -1.788  -8.629  1.00  0.00     0.074 A 
ATOM     45  C   UNL     1       2.148  -2.991  -8.575  1.00  0.00     0.031 C 
ATOM     46  C   UNL     1       0.290   1.925  -4.097  1.00  0.00     0.029 A 
ATOM     47  C   UNL     1       1.413   2.253  -4.972  1.00  0.00     0.049 A 
ATOM     48  H   UNL     1       2.211   1.079  -6.497  1.00  0.00     0.167 HD
ATOM     49  C   UNL     1       3.977  -1.597  -9.490  1.00  0.00     0.037 A 
ATOM     50  C   UNL     1       2.127   3.396  -4.931  1.00  0.00     0.037 A 
ATOM     51  C   UNL     1       4.744  -0.382  -9.570  1.00  0.00     0.049 A 
ATOM     52  C   UNL     1       3.269   3.586  -5.895  1.00  0.00     0.074 A 
ATOM     53  C   UNL     1       5.775  -0.071 -10.439  1.00  0.00     0.029 A 
ATOM     54  N   UNL     1       4.559   0.726  -8.756  1.00  0.00    -0.354 N 
ATOM     55  N   UNL     1       3.717   2.764  -6.813  1.00  0.00    -0.248 NA
ATOM     56  C   UNL     1       4.003   4.858  -5.818  1.00  0.00     0.031 C 
ATOM     57  C   UNL     1       6.237   1.212 -10.128  1.00  0.00     0.029 A 
ATOM     58  C   UNL     1       5.463   1.717  -9.095  1.00  0.00     0.049 A 
ATOM     59  H   UNL     1       3.883   0.797  -8.043  1.00  0.00     0.167 HD
ATOM     60  C   UNL     1       4.761   3.432  -7.445  1.00  0.00     0.074 A 
ATOM     61  C   UNL     1       4.879   4.725  -6.806  1.00  0.00     0.031 C 
ATOM     62  C   UNL     1       5.550   3.011  -8.465  1.00  0.00     0.037 A 
BRANCH  49  63
ATOM     63  C   UNL     1       4.329  -2.725 -10.421  1.00  0.00     0.058 A 
ATOM     64  C   UNL     1       3.490  -3.090 -11.487  1.00  0.00     0.135 A 
ATOM     65  C   UNL     1       5.534  -3.429 -10.267  1.00  0.00     0.135 A 
ATOM     66  F   UNL     1       2.319  -2.460 -11.672  1.00  0.00    -0.206 F 
ATOM     67  C   UNL     1       3.818  -4.134 -12.346  1.00  0.00     0.059 A 
ATOM     68  C   UNL     1       5.896  -4.458 -11.133  1.00  0.00     0.059 A 
ATOM     69  F   UNL     1       6.375  -3.122  -9.267  1.00  0.00    -0.206 F 
ATOM     70  C   UNL     1       5.022  -4.813 -12.160  1.00  0.00     0.060 A 
BRANCH  70  71
ATOM     71  S   UNL     1       5.434  -6.165 -13.283  1.00  0.00     0.124 S 
ATOM     72  O   UNL     1       4.524  -7.211 -12.823  1.00  0.00    -0.237 OA
ATOM     73  O   UNL     1       5.125  -5.590 -14.591  1.00  0.00    -0.237 OA
ATOM     74  O   UNL     1       6.848  -6.404 -13.026  1.00  0.00    -0.744 OA
ENDBRANCH  70  71
ENDBRANCH  49  63
BRANCH  50  75
ATOM     75  C   UNL     1       1.774   4.460  -3.953  1.00  0.00     0.058 A 
ATOM     76  C   UNL     1       1.203   5.669  -4.379  1.00  0.00     0.135 A 
ATOM     77  C   UNL     1       1.992   4.290  -2.577  1.00  0.00     0.135 A 
ATOM     78  F   UNL     1       0.982   5.882  -5.685  1.00  0.00    -0.206 F 
ATOM     79  C   UNL     1       0.878   6.679  -3.479  1.00  0.00     0.059 A 
ATOM     80  C   UNL     1       1.653   5.276  -1.655  1.00  0.00     0.059 A 
ATOM     81  F   UNL     1       2.521   3.146  -2.115  1.00  0.00    -0.206 F 
ATOM     82  C   UNL     1       1.106   6.473  -2.118  1.00  0.00     0.060 A 
BRANCH  82  83
ATOM     83  S   UNL     1       0.644   7.773  -0.953  1.00  0.00     0.124 S 
ATOM     84  O   UNL     1       1.693   8.760  -1.184  1.00  0.00    -0.237 OA
ATOM     85  O   UNL     1      -0.691   8.140  -1.414  1.00  0.00    -0.237 OA
ATOM     86  O   UNL     1       0.688   7.095   0.339  1.00  0.00    -0.744 OA
ENDBRANCH  82  83
ENDBRANCH  50  75
BRANCH  62  87
ATOM     87  C   UNL     1       6.579   3.968  -8.997  1.00  0.00     0.058 A 
ATOM     88  C   UNL     1       7.766   4.237  -8.301  1.00  0.00     0.135 A 
ATOM     89  C   UNL     1       6.413   4.551 -10.264  1.00  0.00     0.135 A 
ATOM     90  F   UNL     1       7.970   3.711  -7.083  1.00  0.00    -0.206 F 
ATOM     91  C   UNL     1       8.754   5.056  -8.841  1.00  0.00     0.059 A 
ATOM     92  C   UNL     1       7.396   5.353 -10.834  1.00  0.00     0.059 A 
ATOM     93  F   UNL     1       5.297   4.318 -10.974  1.00  0.00    -0.206 F 
ATOM     94  C   UNL     1       8.563   5.602 -10.112  1.00  0.00     0.060 A 
BRANCH  94  95
ATOM     95  S   UNL     1       9.881   6.605 -10.830  1.00  0.00     0.124 S 
ATOM     96  O   UNL     1       9.761   7.841 -10.064  1.00  0.00    -0.237 OA
ATOM     97  O   UNL     1      11.069   5.802 -10.556  1.00  0.00    -0.237 OA
ATOM     98  O   UNL     1       9.508   6.701 -12.238  1.00  0.00    -0.744 OA
ENDBRANCH  94  95
ENDBRANCH  62  87
ENDBRANCH  36  37
ENDBRANCH  28  31
ENDBRANCH  26  27
ENDBRANCH  25  26
ENDBRANCH   1  25
TORSDOF 18
