REMARK SMILES O=C(NCCCNC(=O)c1cc(NC(=S)NC(=O)c2ccccc2F)ccc1Cl)c1ccc(-c2c3nc(c(-c4c(F)cc(S(=O)(=O)[O-])cc4F)c4ccc([nH]4)c(-c4c(F)cc(S(=O)(=O)[O-])cc4F)c4nc(c(-c5c(F)cc(S(=O)(=O)[O-])cc5F)c5ccc2[nH]5)C=C4)C=C3)cc1
REMARK SMILES IDX 5 1 4 2 3 3 1 4 2 5 30 7 31 8 95 9 32 10 94 11 33 12 34 13
REMARK SMILES IDX 35 14 88 15 36 16 93 17 87 18 89 19 37 20 92 21 86 22 85 23
REMARK SMILES IDX 38 25 72 26 51 27 71 28 52 29 55 30 70 31 90 32 53 33 54 34
REMARK SMILES IDX 69 36 91 37 56 38 39 39 40 40 49 41 41 42 42 43 48 44 50 45
REMARK SMILES IDX 43 46 44 47 45 48 46 49 47 50 73 51 74 52 83 53 75 54 76 55
REMARK SMILES IDX 82 56 84 57 77 58 78 59 79 60 80 61 81 62 57 63 58 64 67 65
REMARK SMILES IDX 59 66 60 67 66 68 68 69 61 70 62 71 63 72 64 73 65 74 6 75
REMARK SMILES IDX 7 76 8 77 9 79 10 80 11 81 28 82 12 83 27 84 29 85 26 86
REMARK SMILES IDX 13 87 14 89 15 90 16 91 17 92 18 94 19 95 20 96 24 97 21 98
REMARK SMILES IDX 23 99 25 100 22 101
REMARK H PARENT 3 6 89 24 55 35 7 78 13 88 16 93
REMARK Flexibility Score: inf
ROOT
ATOM      1  C   UNL     1       4.871   0.797   2.185  1.00  0.00     0.042 C 
ENDROOT
BRANCH   1   2
ATOM      2  C   UNL     1       4.565  -0.331   1.202  1.00  0.00     0.118 C 
BRANCH   2   3
ATOM      3  N   UNL     1       3.131  -0.520   1.002  1.00  0.00    -0.352 N 
ATOM      4  O   UNL     1       1.117  -0.158   0.054  1.00  0.00    -0.269 OA
ATOM      5  C   UNL     1       2.339  -0.143  -0.053  1.00  0.00     0.251 C 
ATOM      6  H   UNL     1       2.663  -0.987   1.732  1.00  0.00     0.163 HD
BRANCH   5   7
ATOM      7  C   UNL     1       2.979   0.298  -1.305  1.00  0.00     0.039 A 
ATOM      8  C   UNL     1       4.053  -0.425  -1.825  1.00  0.00     0.014 A 
ATOM      9  C   UNL     1       2.512   1.442  -1.954  1.00  0.00     0.014 A 
ATOM     10  C   UNL     1       4.771   0.087  -2.893  1.00  0.00     0.010 A 
ATOM     11  C   UNL     1       3.166   1.893  -3.102  1.00  0.00     0.010 A 
ATOM     12  C   UNL     1       4.316   1.233  -3.563  1.00  0.00    -0.014 A 
BRANCH  12  13
ATOM     13  C   UNL     1       5.004   1.660  -4.804  1.00  0.00     0.031 A 
ATOM     14  C   UNL     1       5.674   2.999  -4.902  1.00  0.00     0.074 A 
ATOM     15  C   UNL     1       5.013   0.808  -5.847  1.00  0.00     0.049 A 
ATOM     16  N   UNL     1       6.283   3.535  -5.927  1.00  0.00    -0.248 NA
ATOM     17  C   UNL     1       5.651   3.851  -3.704  1.00  0.00     0.031 C 
ATOM     18  C   UNL     1       4.388  -0.518  -5.852  1.00  0.00     0.029 A 
ATOM     19  N   UNL     1       5.569   0.914  -7.094  1.00  0.00    -0.354 N 
ATOM     20  C   UNL     1       6.692   4.796  -5.511  1.00  0.00     0.074 A 
ATOM     21  C   UNL     1       6.245   4.953  -4.143  1.00  0.00     0.031 C 
ATOM     22  C   UNL     1       4.632  -1.118  -7.023  1.00  0.00     0.029 A 
ATOM     23  C   UNL     1       5.353  -0.189  -7.884  1.00  0.00     0.049 A 
ATOM     24  H   UNL     1       6.075   1.704  -7.395  1.00  0.00     0.167 HD
ATOM     25  C   UNL     1       7.377   5.730  -6.214  1.00  0.00     0.037 A 
ATOM     26  C   UNL     1       5.665  -0.422  -9.173  1.00  0.00     0.037 A 
ATOM     27  C   UNL     1       7.822   5.540  -7.572  1.00  0.00     0.049 A 
ATOM     28  C   UNL     1       6.391   0.639  -9.940  1.00  0.00     0.074 A 
ATOM     29  C   UNL     1       8.568   6.402  -8.357  1.00  0.00     0.029 A 
ATOM     30  N   UNL     1       7.554   4.422  -8.351  1.00  0.00    -0.354 N 
ATOM     31  N   UNL     1       6.799   1.815  -9.524  1.00  0.00    -0.248 NA
ATOM     32  C   UNL     1       6.693   0.356 -11.347  1.00  0.00     0.031 C 
ATOM     33  C   UNL     1       8.693   5.835  -9.629  1.00  0.00     0.029 A 
ATOM     34  C   UNL     1       8.085   4.589  -9.620  1.00  0.00     0.049 A 
ATOM     35  H   UNL     1       7.059   3.628  -8.047  1.00  0.00     0.167 HD
ATOM     36  C   UNL     1       7.416   2.410 -10.615  1.00  0.00     0.074 A 
ATOM     37  C   UNL     1       7.338   1.459 -11.707  1.00  0.00     0.031 C 
ATOM     38  C   UNL     1       7.994   3.634 -10.699  1.00  0.00     0.037 A 
BRANCH  25  39
ATOM     39  C   UNL     1       7.660   7.051  -5.550  1.00  0.00     0.058 A 
ATOM     40  C   UNL     1       7.037   8.222  -6.012  1.00  0.00     0.135 A 
ATOM     41  C   UNL     1       8.580   7.176  -4.496  1.00  0.00     0.135 A 
ATOM     42  F   UNL     1       6.148   8.165  -7.016  1.00  0.00    -0.206 F 
ATOM     43  C   UNL     1       7.319   9.468  -5.459  1.00  0.00     0.059 A 
ATOM     44  C   UNL     1       8.856   8.409  -3.908  1.00  0.00     0.059 A 
ATOM     45  F   UNL     1       9.193   6.088  -4.001  1.00  0.00    -0.206 F 
ATOM     46  C   UNL     1       8.227   9.550  -4.404  1.00  0.00     0.060 A 
BRANCH  46  47
ATOM     47  S   UNL     1       8.533  11.165  -3.656  1.00  0.00     0.124 S 
ATOM     48  O   UNL     1       9.273  11.851  -4.708  1.00  0.00    -0.237 OA
ATOM     49  O   UNL     1       7.177  11.649  -3.409  1.00  0.00    -0.237 OA
ATOM     50  O   UNL     1       9.299  10.842  -2.455  1.00  0.00    -0.744 OA
ENDBRANCH  46  47
ENDBRANCH  25  39
BRANCH  26  51
ATOM     51  C   UNL     1       5.268  -1.718  -9.781  1.00  0.00     0.058 A 
ATOM     52  C   UNL     1       3.915  -2.035  -9.985  1.00  0.00     0.135 A 
ATOM     53  C   UNL     1       6.221  -2.710 -10.049  1.00  0.00     0.135 A 
ATOM     54  F   UNL     1       2.963  -1.125  -9.725  1.00  0.00    -0.206 F 
ATOM     55  C   UNL     1       3.517  -3.306 -10.380  1.00  0.00     0.059 A 
ATOM     56  C   UNL     1       5.849  -3.982 -10.473  1.00  0.00     0.059 A 
ATOM     57  F   UNL     1       7.526  -2.450  -9.875  1.00  0.00    -0.206 F 
ATOM     58  C   UNL     1       4.492  -4.277 -10.610  1.00  0.00     0.060 A 
BRANCH  58  59
ATOM     59  S   UNL     1       3.950  -5.940 -11.057  1.00  0.00     0.124 S 
ATOM     60  O   UNL     1       3.298  -6.376  -9.827  1.00  0.00    -0.237 OA
ATOM     61  O   UNL     1       3.066  -5.678 -12.187  1.00  0.00    -0.237 OA
ATOM     62  O   UNL     1       5.197  -6.625 -11.384  1.00  0.00    -0.744 OA
ENDBRANCH  58  59
ENDBRANCH  26  51
BRANCH  38  63
ATOM     63  C   UNL     1       8.606   4.027 -12.015  1.00  0.00     0.058 A 
ATOM     64  C   UNL     1       9.999   4.146 -12.140  1.00  0.00     0.135 A 
ATOM     65  C   UNL     1       7.812   4.394 -13.112  1.00  0.00     0.135 A 
ATOM     66  F   UNL     1      10.802   3.808 -11.119  1.00  0.00    -0.206 F 
ATOM     67  C   UNL     1      10.583   4.653 -13.295  1.00  0.00     0.059 A 
ATOM     68  C   UNL     1       8.377   4.877 -14.289  1.00  0.00     0.059 A 
ATOM     69  F   UNL     1       6.476   4.282 -13.047  1.00  0.00    -0.206 F 
ATOM     70  C   UNL     1       9.762   5.025 -14.361  1.00  0.00     0.060 A 
BRANCH  70  71
ATOM     71  S   UNL     1      10.538   5.711 -15.839  1.00  0.00     0.124 S 
ATOM     72  O   UNL     1      11.038   6.991 -15.347  1.00  0.00    -0.237 OA
ATOM     73  O   UNL     1      11.553   4.708 -16.146  1.00  0.00    -0.237 OA
ATOM     74  O   UNL     1       9.437   5.793 -16.794  1.00  0.00    -0.744 OA
ENDBRANCH  70  71
ENDBRANCH  38  63
ENDBRANCH  12  13
ENDBRANCH   5   7
ENDBRANCH   2   3
ENDBRANCH   1   2
BRANCH   1  75
ATOM     75  C   UNL     1       4.215   0.596   3.545  1.00  0.00     0.118 C 
BRANCH  75  76
ATOM     76  N   UNL     1       4.508  -0.730   4.055  1.00  0.00    -0.352 N 
ATOM     77  C   UNL     1       5.238  -1.173   5.116  1.00  0.00     0.252 C 
ATOM     78  H   UNL     1       4.097  -1.454   3.530  1.00  0.00     0.163 HD
ATOM     79  O   UNL     1       5.376  -2.389   5.232  1.00  0.00    -0.269 OA
BRANCH  77  80
ATOM     80  C   UNL     1       5.728  -0.213   6.196  1.00  0.00     0.060 A 
ATOM     81  C   UNL     1       7.498   0.326   7.005  1.00  0.00     0.041 A 
ATOM     82  C   UNL     1       4.264   0.395   7.085  1.00  0.00     0.053 A 
ATOM     83  C   UNL     1       7.627   1.154   8.490  1.00  0.00     0.041 A 
ATOM     84  C   UNL     1       4.516   1.360   8.566  1.00  0.00     0.023 A 
ATOM     85  Cl  UNL     1       2.647   0.015   6.639  1.00  0.00    -0.083 Cl
ATOM     86  C   UNL     1       6.145   1.708   9.243  1.00  0.00     0.028 A 
BRANCH  83  87
ATOM     87  N   UNL     1       8.832   0.799   9.123  1.00  0.00    -0.332 N 
ATOM     88  H   UNL     1       9.016   1.284   9.960  1.00  0.00     0.169 HD
BRANCH  87  89
ATOM     89  C   UNL     1       9.799  -0.120   8.763  1.00  0.00     0.177 C 
ATOM     90  S   UNL     1      11.170  -0.157   9.742  1.00  0.00    -0.040 S 
BRANCH  89  91
ATOM     91  N   UNL     1       9.794  -1.069   7.684  1.00  0.00    -0.299 N 
ATOM     92  C   UNL     1       9.214  -1.780   6.489  1.00  0.00     0.260 C 
ATOM     93  H   UNL     1      10.673  -1.504   7.781  1.00  0.00     0.172 HD
ATOM     94  O   UNL     1       9.912  -2.586   5.880  1.00  0.00    -0.269 OA
BRANCH  92  95
ATOM     95  C   UNL     1       7.785  -1.525   6.031  1.00  0.00     0.075 A 
ATOM     96  C   UNL     1       6.869  -1.634   7.517  1.00  0.00     0.017 A 
ATOM     97  C   UNL     1       7.684  -0.118   4.909  1.00  0.00     0.135 A 
ATOM     98  C   UNL     1       6.025  -0.184   8.078  1.00  0.00     0.001 A 
ATOM     99  C   UNL     1       6.878   1.416   5.341  1.00  0.00     0.040 A 
ATOM    100  F   UNL     1       8.585  -0.045   3.916  1.00  0.00    -0.206 F 
ATOM    101  C   UNL     1       6.059   1.506   6.957  1.00  0.00     0.003 A 
ENDBRANCH  92  95
ENDBRANCH  89  91
ENDBRANCH  87  89
ENDBRANCH  83  87
ENDBRANCH  77  80
ENDBRANCH  75  76
ENDBRANCH   1  75
TORSDOF 17
