REMARK SMILES O=Cc1ccc(-c2ccc(C(=O)NCCCNC(=O)c3ccc(-c4c5nc(c(-c6c(F)cc(S(=O)(=O)[O-])cc6F)c6ccc([nH]6)c(-c6c(F)cc(S(=O)(=O)[O-])cc6F)c6nc(c(-c7c(F)cc(S(=O)(=O)[O-])cc7F)c7ccc4[nH]7)C=C6)C=C5)cc3)cn2)cc1
REMARK SMILES IDX 15 1 14 2 13 3 11 4 12 5 10 7 7 8 8 9 87 10 9 11 86 12 6 13
REMARK SMILES IDX 3 14 4 15 89 16 5 17 88 18 2 19 1 20 16 21 17 22 18 23 19 25
REMARK SMILES IDX 20 26 21 27 85 28 22 29 84 30 23 31 24 32 25 33 78 34 26 35
REMARK SMILES IDX 83 36 77 37 79 38 27 39 82 40 76 41 75 42 28 44 62 45 41 46
REMARK SMILES IDX 61 47 42 48 45 49 60 50 80 51 43 52 44 53 59 55 81 56 46 57
REMARK SMILES IDX 29 58 30 59 39 60 31 61 32 62 38 63 40 64 33 65 34 66 35 67
REMARK SMILES IDX 36 68 37 69 63 70 64 71 73 72 65 73 66 74 72 75 74 76 67 77
REMARK SMILES IDX 68 78 69 79 70 80 71 81 47 82 48 83 57 84 49 85 50 86 56 87
REMARK SMILES IDX 58 88 51 89 52 90 53 91 54 92 55 93
REMARK H PARENT 13 6 17 24 79 43 45 54
REMARK Flexibility Score: inf
ROOT
ATOM      1  C   UNL     1       8.545   9.082   1.766  1.00  0.00     0.042 C 
ENDROOT
BRANCH   1   2
ATOM      2  C   UNL     1       7.283   9.437   0.981  1.00  0.00     0.118 C 
BRANCH   2   3
ATOM      3  N   UNL     1       7.511   9.369  -0.452  1.00  0.00    -0.352 N 
ATOM      4  C   UNL     1       7.184   8.428  -1.394  1.00  0.00     0.252 C 
ATOM      5  O   UNL     1       7.428   8.690  -2.572  1.00  0.00    -0.269 OA
ATOM      6  H   UNL     1       7.991  10.148  -0.816  1.00  0.00     0.163 HD
BRANCH   4   7
ATOM      7  C   UNL     1       6.515   7.146  -1.073  1.00  0.00     0.058 A 
ATOM      8  C   UNL     1       5.126   4.778  -0.736  1.00  0.00     0.070 A 
ATOM      9  C   UNL     1       5.909   5.264   0.307  1.00  0.00     0.030 A 
ATOM     10  N   UNL     1       5.046   5.401  -1.933  1.00  0.00    -0.255 NA
ATOM     11  C   UNL     1       6.627   6.447   0.125  1.00  0.00     0.018 A 
ATOM     12  C   UNL     1       5.740   6.562  -2.072  1.00  0.00     0.125 A 
BRANCH   8  13
ATOM     13  C   UNL     1       4.346   3.549  -0.593  1.00  0.00     0.000 A 
ATOM     14  C   UNL     1       2.899   1.170  -0.242  1.00  0.00     0.014 A 
ATOM     15  C   UNL     1       4.048   1.171  -1.035  1.00  0.00     0.012 A 
ATOM     16  C   UNL     1       2.456   2.347   0.365  1.00  0.00     0.012 A 
ATOM     17  C   UNL     1       4.761   2.360  -1.214  1.00  0.00     0.011 A 
ATOM     18  C   UNL     1       3.180   3.529   0.192  1.00  0.00     0.011 A 
BRANCH  14  19
ATOM     19  C   UNL     1       2.156  -0.091  -0.045  1.00  0.00     0.260 C 
ATOM     20  O   UNL     1       1.104  -0.139   0.581  1.00  0.00    -0.298 OA
ENDBRANCH  14  19
ENDBRANCH   8  13
ENDBRANCH   4   7
ENDBRANCH   2   3
ENDBRANCH   1   2
BRANCH   1  21
ATOM     21  C   UNL     1       9.604  10.183   1.749  1.00  0.00     0.118 C 
BRANCH  21  22
ATOM     22  N   UNL     1       9.187  11.349   2.514  1.00  0.00    -0.352 N 
ATOM     23  C   UNL     1       9.775  11.955   3.596  1.00  0.00     0.251 C 
ATOM     24  H   UNL     1       8.351  11.769   2.207  1.00  0.00     0.163 HD
ATOM     25  O   UNL     1       9.133  12.784   4.235  1.00  0.00    -0.269 OA
BRANCH  23  26
ATOM     26  C   UNL     1      11.160  11.620   4.001  1.00  0.00     0.039 A 
ATOM     27  C   UNL     1      11.460  11.542   5.365  1.00  0.00     0.014 A 
ATOM     28  C   UNL     1      12.174  11.445   3.055  1.00  0.00     0.014 A 
ATOM     29  C   UNL     1      12.761  11.243   5.778  1.00  0.00     0.010 A 
ATOM     30  C   UNL     1      13.457  11.084   3.467  1.00  0.00     0.010 A 
ATOM     31  C   UNL     1      13.766  10.986   4.832  1.00  0.00    -0.014 A 
BRANCH  31  32
ATOM     32  C   UNL     1      15.141  10.612   5.252  1.00  0.00     0.031 A 
ATOM     33  C   UNL     1      16.304  11.516   4.936  1.00  0.00     0.074 A 
ATOM     34  C   UNL     1      15.352   9.423   5.852  1.00  0.00     0.049 A 
ATOM     35  N   UNL     1      17.581  11.321   5.145  1.00  0.00    -0.248 NA
ATOM     36  C   UNL     1      15.995  12.793   4.272  1.00  0.00     0.031 C 
ATOM     37  C   UNL     1      14.314   8.436   6.159  1.00  0.00     0.029 A 
ATOM     38  N   UNL     1      16.509   8.832   6.292  1.00  0.00    -0.354 N 
ATOM     39  C   UNL     1      18.227  12.432   4.615  1.00  0.00     0.074 A 
ATOM     40  C   UNL     1      17.206  13.284   4.047  1.00  0.00     0.031 C 
ATOM     41  C   UNL     1      14.881   7.366   6.739  1.00  0.00     0.029 A 
ATOM     42  C   UNL     1      16.323   7.575   6.818  1.00  0.00     0.049 A 
ATOM     43  H   UNL     1      17.391   9.268   6.237  1.00  0.00     0.167 HD
ATOM     44  C   UNL     1      19.551  12.721   4.617  1.00  0.00     0.037 A 
ATOM     45  C   UNL     1      17.214   6.684   7.296  1.00  0.00     0.037 A 
ATOM     46  C   UNL     1      20.556  11.892   5.230  1.00  0.00     0.049 A 
ATOM     47  C   UNL     1      18.673   7.050   7.324  1.00  0.00     0.074 A 
ATOM     48  C   UNL     1      21.910  12.147   5.372  1.00  0.00     0.029 A 
ATOM     49  N   UNL     1      20.321  10.651   5.801  1.00  0.00    -0.354 N 
ATOM     50  N   UNL     1      19.255   8.145   6.897  1.00  0.00    -0.248 NA
ATOM     51  C   UNL     1      19.596   6.065   7.905  1.00  0.00     0.031 C 
ATOM     52  C   UNL     1      22.500  11.041   5.991  1.00  0.00     0.029 A 
ATOM     53  C   UNL     1      21.508  10.117   6.275  1.00  0.00     0.049 A 
ATOM     54  H   UNL     1      19.441  10.214   5.860  1.00  0.00     0.167 HD
ATOM     55  C   UNL     1      20.608   7.991   7.181  1.00  0.00     0.074 A 
ATOM     56  C   UNL     1      20.755   6.704   7.828  1.00  0.00     0.031 C 
ATOM     57  C   UNL     1      21.635   8.838   6.928  1.00  0.00     0.037 A 
BRANCH  44  58
ATOM     58  C   UNL     1      20.000  13.989   3.944  1.00  0.00     0.058 A 
ATOM     59  C   UNL     1      19.756  15.251   4.508  1.00  0.00     0.135 A 
ATOM     60  C   UNL     1      20.745  13.936   2.755  1.00  0.00     0.135 A 
ATOM     61  F   UNL     1      19.037  15.361   5.636  1.00  0.00    -0.206 F 
ATOM     62  C   UNL     1      20.223  16.417   3.909  1.00  0.00     0.059 A 
ATOM     63  C   UNL     1      21.242  15.087   2.151  1.00  0.00     0.059 A 
ATOM     64  F   UNL     1      21.005  12.754   2.173  1.00  0.00    -0.206 F 
ATOM     65  C   UNL     1      20.968  16.325   2.732  1.00  0.00     0.060 A 
BRANCH  65  66
ATOM     66  S   UNL     1      21.593  17.845   1.984  1.00  0.00     0.124 S 
ATOM     67  O   UNL     1      20.373  18.411   1.416  1.00  0.00    -0.237 OA
ATOM     68  O   UNL     1      22.145  18.555   3.133  1.00  0.00    -0.237 OA
ATOM     69  O   UNL     1      22.574  17.369   1.014  1.00  0.00    -0.744 OA
ENDBRANCH  65  66
ENDBRANCH  44  58
BRANCH  45  70
ATOM     70  C   UNL     1      16.753   5.360   7.792  1.00  0.00     0.058 A 
ATOM     71  C   UNL     1      16.787   5.046   9.158  1.00  0.00     0.135 A 
ATOM     72  C   UNL     1      16.275   4.381   6.907  1.00  0.00     0.135 A 
ATOM     73  F   UNL     1      17.239   5.949  10.042  1.00  0.00    -0.206 F 
ATOM     74  C   UNL     1      16.389   3.799   9.630  1.00  0.00     0.059 A 
ATOM     75  C   UNL     1      15.848   3.135   7.357  1.00  0.00     0.059 A 
ATOM     76  F   UNL     1      16.203   4.638   5.592  1.00  0.00    -0.206 F 
ATOM     77  C   UNL     1      15.923   2.849   8.720  1.00  0.00     0.060 A 
BRANCH  77  78
ATOM     78  S   UNL     1      15.380   1.242   9.341  1.00  0.00     0.124 S 
ATOM     79  O   UNL     1      16.654   0.587   9.611  1.00  0.00    -0.237 OA
ATOM     80  O   UNL     1      14.592   1.615  10.512  1.00  0.00    -0.237 OA
ATOM     81  O   UNL     1      14.611   0.697   8.226  1.00  0.00    -0.744 OA
ENDBRANCH  77  78
ENDBRANCH  45  70
BRANCH  57  82
ATOM     82  C   UNL     1      23.005   8.418   7.380  1.00  0.00     0.058 A 
ATOM     83  C   UNL     1      23.727   7.417   6.712  1.00  0.00     0.135 A 
ATOM     84  C   UNL     1      23.623   9.061   8.465  1.00  0.00     0.135 A 
ATOM     85  F   UNL     1      23.178   6.768   5.674  1.00  0.00    -0.206 F 
ATOM     86  C   UNL     1      25.006   7.052   7.118  1.00  0.00     0.059 A 
ATOM     87  C   UNL     1      24.911   8.730   8.872  1.00  0.00     0.059 A 
ATOM     88  F   UNL     1      22.979  10.033   9.131  1.00  0.00    -0.206 F 
ATOM     89  C   UNL     1      25.590   7.715   8.200  1.00  0.00     0.060 A 
BRANCH  89  90
ATOM     90  S   UNL     1      27.263   7.255   8.697  1.00  0.00     0.124 S 
ATOM     91  O   UNL     1      27.026   5.992   9.389  1.00  0.00    -0.237 OA
ATOM     92  O   UNL     1      27.956   7.156   7.417  1.00  0.00    -0.237 OA
ATOM     93  O   UNL     1      27.682   8.367   9.545  1.00  0.00    -0.744 OA
ENDBRANCH  89  90
ENDBRANCH  57  82
ENDBRANCH  31  32
ENDBRANCH  23  26
ENDBRANCH  21  22
ENDBRANCH   1  21
TORSDOF 15
