REMARK SMILES Cc1nc(N[C@@H](C(=O)NCCCNC(=O)c2ccc(-c3c4nc(c(-c5c(F)cc(S(=O)(=O)[O-])cc5F)c5ccc([nH]5)c(-c5c(F)cc(S(=O)(=O)[O-])cc5F)c5nc(c(-c6c(F)cc(S(=O)(=O)[O-])cc6F)c6ccc3[nH]6)C=C5)C=C4)cc2)C(C)C)c2c3c(sc2n1)CCCC3
REMARK SMILES IDX 11 1 10 2 9 3 7 4 8 5 6 7 5 8 4 10 1 11 2 12 3 13 90 14
REMARK SMILES IDX 89 15 85 16 88 17 86 18 87 19 94 20 91 21 93 22 92 23 82 24
REMARK SMILES IDX 83 25 84 26 12 27 13 28 14 29 15 31 16 32 17 33 81 34 18 35
REMARK SMILES IDX 80 36 19 37 20 38 21 39 74 40 22 41 79 42 73 43 75 44 23 45
REMARK SMILES IDX 78 46 72 47 71 48 24 50 58 51 37 52 57 53 38 54 41 55 56 56
REMARK SMILES IDX 76 57 39 58 40 59 55 61 77 62 42 63 25 64 26 65 35 66 27 67
REMARK SMILES IDX 28 68 34 69 36 70 29 71 30 72 31 73 32 74 33 75 59 76 60 77
REMARK SMILES IDX 69 78 61 79 62 80 68 81 70 82 63 83 64 84 65 85 66 86 67 87
REMARK SMILES IDX 43 88 44 89 53 90 45 91 46 92 52 93 54 94 47 95 48 96 49 97
REMARK SMILES IDX 50 98 51 99
REMARK H PARENT 9 6 5 9 13 30 75 49 41 60
REMARK Flexibility Score: inf
ROOT
ATOM      1  C   UNL     1      -3.929  -2.852   1.171  1.00  0.00     0.042 C 
ENDROOT
BRANCH   1   2
ATOM      2  C   UNL     1      -3.895  -4.092   0.271  1.00  0.00     0.117 C 
BRANCH   2   3
ATOM      3  N   UNL     1      -4.805  -3.958  -0.853  1.00  0.00    -0.354 N 
ATOM      4  C   UNL     1      -4.533  -3.822  -2.190  1.00  0.00     0.242 C 
ATOM      5  O   UNL     1      -5.486  -3.617  -2.944  1.00  0.00    -0.273 OA
ATOM      6  H   UNL     1      -5.761  -3.966  -0.620  1.00  0.00     0.163 HD
BRANCH   4   7
ATOM      7  C   UNL     1      -3.082  -4.028  -2.712  1.00  0.00     0.172 C 
BRANCH   7   8
ATOM      8  N   UNL     1      -2.203  -2.990  -2.215  1.00  0.00    -0.358 N 
ATOM      9  H   UNL     1      -2.516  -2.078  -2.411  1.00  0.00     0.162 HD
BRANCH   8  10
ATOM     10  C   UNL     1      -1.020  -3.030  -1.524  1.00  0.00     0.139 A 
ATOM     11  C   UNL     1       0.773  -0.112  -0.121  1.00  0.00     0.090 C 
ATOM     12  C   UNL     1       0.460  -1.535  -0.469  1.00  0.00     0.129 A 
ATOM     13  N   UNL     1      -0.632  -1.766  -1.209  1.00  0.00    -0.216 NA
ATOM     14  N   UNL     1       1.252  -2.470   0.040  1.00  0.00    -0.222 NA
ATOM     15  C   UNL     1       0.872  -3.716  -0.275  1.00  0.00     0.129 A 
ATOM     16  C   UNL     1      -0.214  -4.115  -1.057  1.00  0.00     0.057 A 
ATOM     17  S   UNL     1       1.790  -4.995   0.368  1.00  0.00    -0.120 S 
ATOM     18  C   UNL     1      -0.202  -5.586  -1.145  1.00  0.00    -0.021 A 
ATOM     19  C   UNL     1       0.795  -6.148  -0.360  1.00  0.00     0.011 A 
ATOM     20  C   UNL     1      -1.119  -6.506  -1.901  1.00  0.00     0.037 C 
ATOM     21  C   UNL     1       1.054  -7.615  -0.166  1.00  0.00     0.047 C 
ATOM     22  C   UNL     1      -0.631  -7.956  -1.991  1.00  0.00     0.005 C 
ATOM     23  C   UNL     1      -0.147  -8.445  -0.629  1.00  0.00     0.006 C 
ENDBRANCH   8  10
ENDBRANCH   7   8
BRANCH   7  24
ATOM     24  C   UNL     1      -3.032  -4.093  -4.265  1.00  0.00     0.015 C 
ATOM     25  C   UNL     1      -1.635  -3.859  -4.860  1.00  0.00     0.010 C 
ATOM     26  C   UNL     1      -3.557  -5.448  -4.764  1.00  0.00     0.010 C 
ENDBRANCH   7  24
ENDBRANCH   4   7
ENDBRANCH   2   3
ENDBRANCH   1   2
BRANCH   1  27
ATOM     27  C   UNL     1      -5.074  -2.883   2.192  1.00  0.00     0.118 C 
BRANCH  27  28
ATOM     28  N   UNL     1      -4.821  -3.900   3.201  1.00  0.00    -0.352 N 
ATOM     29  C   UNL     1      -4.962  -3.872   4.560  1.00  0.00     0.251 C 
ATOM     30  H   UNL     1      -4.490  -4.756   2.844  1.00  0.00     0.163 HD
ATOM     31  O   UNL     1      -4.385  -4.739   5.216  1.00  0.00    -0.269 OA
BRANCH  29  32
ATOM     32  C   UNL     1      -5.776  -2.852   5.257  1.00  0.00     0.039 A 
ATOM     33  C   UNL     1      -5.333  -2.432   6.516  1.00  0.00     0.014 A 
ATOM     34  C   UNL     1      -7.018  -2.423   4.777  1.00  0.00     0.014 A 
ATOM     35  C   UNL     1      -6.116  -1.575   7.285  1.00  0.00     0.010 A 
ATOM     36  C   UNL     1      -7.802  -1.557   5.549  1.00  0.00     0.010 A 
ATOM     37  C   UNL     1      -7.354  -1.125   6.804  1.00  0.00    -0.014 A 
BRANCH  37  38
ATOM     38  C   UNL     1      -8.089  -0.153   7.638  1.00  0.00     0.031 A 
ATOM     39  C   UNL     1      -8.639   1.039   6.922  1.00  0.00     0.074 A 
ATOM     40  C   UNL     1      -8.705  -0.549   8.772  1.00  0.00     0.049 A 
ATOM     41  N   UNL     1      -9.772   1.026   6.283  1.00  0.00    -0.248 NA
ATOM     42  C   UNL     1      -7.835   2.233   6.662  1.00  0.00     0.031 C 
ATOM     43  C   UNL     1      -9.395  -1.838   8.914  1.00  0.00     0.029 A 
ATOM     44  N   UNL     1      -9.057   0.153   9.902  1.00  0.00    -0.354 N 
ATOM     45  C   UNL     1      -9.826   2.172   5.507  1.00  0.00     0.074 A 
ATOM     46  C   UNL     1      -8.604   2.894   5.781  1.00  0.00     0.031 C 
ATOM     47  C   UNL     1     -10.215  -1.773   9.983  1.00  0.00     0.029 A 
ATOM     48  C   UNL     1     -10.004  -0.508  10.682  1.00  0.00     0.049 A 
ATOM     49  H   UNL     1      -8.679   1.032  10.135  1.00  0.00     0.167 HD
ATOM     50  C   UNL     1     -10.867   2.448   4.678  1.00  0.00     0.037 A 
ATOM     51  C   UNL     1     -10.929   0.109  11.470  1.00  0.00     0.037 A 
ATOM     52  C   UNL     1     -11.929   1.486   4.701  1.00  0.00     0.049 A 
ATOM     53  C   UNL     1     -11.874   0.635  10.420  1.00  0.00     0.074 A 
ATOM     54  C   UNL     1     -12.309   0.384   3.970  1.00  0.00     0.029 A 
ATOM     55  N   UNL     1     -12.836   1.562   5.732  1.00  0.00    -0.354 N 
ATOM     56  N   UNL     1     -12.772  -0.074   9.788  1.00  0.00    -0.248 NA
ATOM     57  C   UNL     1     -11.545   1.908   9.773  1.00  0.00     0.031 C 
ATOM     58  C   UNL     1     -13.128  -0.390   4.849  1.00  0.00     0.029 A 
ATOM     59  C   UNL     1     -13.163   0.275   6.074  1.00  0.00     0.049 A 
ATOM     60  H   UNL     1     -13.186   2.384   6.145  1.00  0.00     0.167 HD
ATOM     61  C   UNL     1     -12.884   0.510   8.526  1.00  0.00     0.074 A 
ATOM     62  C   UNL     1     -12.139   1.752   8.597  1.00  0.00     0.031 C 
ATOM     63  C   UNL     1     -13.394  -0.140   7.440  1.00  0.00     0.037 A 
BRANCH  50  64
ATOM     64  C   UNL     1     -11.048   3.676   3.872  1.00  0.00     0.058 A 
ATOM     65  C   UNL     1     -12.015   4.603   4.291  1.00  0.00     0.135 A 
ATOM     66  C   UNL     1     -10.509   3.819   2.589  1.00  0.00     0.135 A 
ATOM     67  F   UNL     1     -12.560   4.497   5.515  1.00  0.00    -0.206 F 
ATOM     68  C   UNL     1     -12.487   5.597   3.445  1.00  0.00     0.059 A 
ATOM     69  C   UNL     1     -10.960   4.817   1.723  1.00  0.00     0.059 A 
ATOM     70  F   UNL     1      -9.589   2.951   2.140  1.00  0.00    -0.206 F 
ATOM     71  C   UNL     1     -11.973   5.679   2.152  1.00  0.00     0.060 A 
BRANCH  71  72
ATOM     72  S   UNL     1     -12.704   6.891   1.028  1.00  0.00     0.124 S 
ATOM     73  O   UNL     1     -14.081   6.417   0.929  1.00  0.00    -0.237 OA
ATOM     74  O   UNL     1     -12.512   8.137   1.762  1.00  0.00    -0.237 OA
ATOM     75  O   UNL     1     -11.905   6.753  -0.186  1.00  0.00    -0.744 OA
ENDBRANCH  71  72
ENDBRANCH  50  64
BRANCH  51  76
ATOM     76  C   UNL     1     -10.355   0.916  12.592  1.00  0.00     0.058 A 
ATOM     77  C   UNL     1      -9.431   0.278  13.451  1.00  0.00     0.135 A 
ATOM     78  C   UNL     1     -10.615   2.266  12.867  1.00  0.00     0.135 A 
ATOM     79  F   UNL     1      -9.226  -1.046  13.358  1.00  0.00    -0.206 F 
ATOM     80  C   UNL     1      -8.680   0.973  14.392  1.00  0.00     0.059 A 
ATOM     81  C   UNL     1      -9.860   2.993  13.791  1.00  0.00     0.059 A 
ATOM     82  F   UNL     1     -11.590   2.929  12.230  1.00  0.00    -0.206 F 
ATOM     83  C   UNL     1      -8.861   2.345  14.514  1.00  0.00     0.060 A 
BRANCH  83  84
ATOM     84  S   UNL     1      -7.721   3.272  15.561  1.00  0.00     0.124 S 
ATOM     85  O   UNL     1      -7.953   2.670  16.872  1.00  0.00    -0.237 OA
ATOM     86  O   UNL     1      -6.434   2.960  14.940  1.00  0.00    -0.237 OA
ATOM     87  O   UNL     1      -8.164   4.649  15.413  1.00  0.00    -0.744 OA
ENDBRANCH  83  84
ENDBRANCH  51  76
BRANCH  63  88
ATOM     88  C   UNL     1     -13.994  -1.480   7.704  1.00  0.00     0.058 A 
ATOM     89  C   UNL     1     -15.243  -1.586   8.326  1.00  0.00     0.135 A 
ATOM     90  C   UNL     1     -13.369  -2.663   7.273  1.00  0.00     0.135 A 
ATOM     91  F   UNL     1     -15.884  -0.485   8.753  1.00  0.00    -0.206 F 
ATOM     92  C   UNL     1     -15.874  -2.816   8.475  1.00  0.00     0.059 A 
ATOM     93  C   UNL     1     -13.993  -3.901   7.391  1.00  0.00     0.059 A 
ATOM     94  F   UNL     1     -12.160  -2.627   6.689  1.00  0.00    -0.206 F 
ATOM     95  C   UNL     1     -15.252  -3.966   7.984  1.00  0.00     0.060 A 
BRANCH  95  96
ATOM     96  S   UNL     1     -16.150  -5.529   8.055  1.00  0.00     0.124 S 
ATOM     97  O   UNL     1     -16.160  -5.811   9.486  1.00  0.00    -0.237 OA
ATOM     98  O   UNL     1     -17.440  -5.171   7.471  1.00  0.00    -0.237 OA
ATOM     99  O   UNL     1     -15.336  -6.431   7.244  1.00  0.00    -0.744 OA
ENDBRANCH  95  96
ENDBRANCH  63  88
ENDBRANCH  37  38
ENDBRANCH  29  32
ENDBRANCH  27  28
ENDBRANCH   1  27
TORSDOF 16
