REMARK SMILES Cc1ccc(NC(=O)N[C@@H](C(=O)NCCCNC(=O)c2ccc(-c3c4nc(c(-c5c(F)cc(S(=O)(=O)[O-])cc5F)c5ccc([nH]5)c(-c5c(F)cc(S(=O)(=O)[O-])cc5F)c5nc(c(-c6c(F)cc(S(=O)(=O)[O-])cc6F)c6ccc3[nH]6)C=C5)C=C4)cc2)C(C)C)cc1
REMARK SMILES IDX 15 1 14 2 13 3 11 4 12 5 10 7 9 8 6 9 7 10 8 12 5 14 1 15
REMARK SMILES IDX 2 16 3 17 90 18 4 19 89 20 86 21 87 22 88 23 16 24 17 25
REMARK SMILES IDX 18 26 19 28 20 29 21 30 85 31 22 32 84 33 23 34 24 35 25 36
REMARK SMILES IDX 78 37 26 38 83 39 77 40 79 41 27 42 82 43 76 44 75 45 28 47
REMARK SMILES IDX 62 48 41 49 61 50 42 51 45 52 60 53 80 54 43 55 44 56 59 58
REMARK SMILES IDX 81 59 46 60 29 61 30 62 39 63 31 64 32 65 38 66 40 67 33 68
REMARK SMILES IDX 34 69 35 70 36 71 37 72 63 73 64 74 73 75 65 76 66 77 72 78
REMARK SMILES IDX 74 79 67 80 68 81 69 82 70 83 71 84 47 85 48 86 57 87 49 88
REMARK SMILES IDX 50 89 56 90 58 91 51 92 52 93 53 94 54 95 55 96
REMARK H PARENT 13 6 6 11 9 13 17 27 79 46 45 57
REMARK Flexibility Score: inf
ROOT
ATOM      1  C   UNL     1      -4.118  -1.654   2.922  1.00  0.00     0.042 C 
ENDROOT
BRANCH   1   2
ATOM      2  C   UNL     1      -2.622  -1.852   2.722  1.00  0.00     0.117 C 
BRANCH   2   3
ATOM      3  N   UNL     1      -2.258  -3.208   2.312  1.00  0.00    -0.354 N 
ATOM      4  C   UNL     1      -1.953  -3.748   1.089  1.00  0.00     0.242 C 
ATOM      5  O   UNL     1      -1.577  -4.925   1.084  1.00  0.00    -0.273 OA
ATOM      6  H   UNL     1      -2.226  -3.855   3.053  1.00  0.00     0.163 HD
BRANCH   4   7
ATOM      7  C   UNL     1      -1.928  -2.889  -0.211  1.00  0.00     0.175 C 
BRANCH   7   8
ATOM      8  N   UNL     1      -3.128  -2.074  -0.269  1.00  0.00    -0.326 N 
ATOM      9  N   UNL     1      -2.483   0.232  -0.350  1.00  0.00    -0.308 N 
ATOM     10  C   UNL     1      -3.377  -0.767  -0.331  1.00  0.00     0.319 C 
ATOM     11  H   UNL     1      -2.933   1.075  -0.582  1.00  0.00     0.171 HD
ATOM     12  O   UNL     1      -4.567  -0.450  -0.455  1.00  0.00    -0.248 OA
ATOM     13  H   UNL     1      -3.951  -2.614  -0.260  1.00  0.00     0.166 HD
BRANCH   9  14
ATOM     14  C   UNL     1      -1.109   0.469  -0.145  1.00  0.00     0.042 A 
ATOM     15  C   UNL     1       3.139   1.277  -0.145  1.00  0.00     0.044 C 
ATOM     16  C   UNL     1       1.660   1.070  -0.064  1.00  0.00    -0.051 A 
ATOM     17  C   UNL     1       1.151  -0.025   0.623  1.00  0.00     0.005 A 
ATOM     18  C   UNL     1       0.767   1.920  -0.719  1.00  0.00     0.005 A 
ATOM     19  C   UNL     1      -0.220  -0.290   0.611  1.00  0.00     0.026 A 
ATOM     20  C   UNL     1      -0.602   1.628  -0.744  1.00  0.00     0.026 A 
ENDBRANCH   9  14
ENDBRANCH   7   8
BRANCH   7  21
ATOM     21  C   UNL     1      -1.701  -3.735  -1.497  1.00  0.00     0.015 C 
ATOM     22  C   UNL     1      -2.156  -3.018  -2.776  1.00  0.00     0.010 C 
ATOM     23  C   UNL     1      -0.202  -4.059  -1.646  1.00  0.00     0.010 C 
ENDBRANCH   7  21
ENDBRANCH   4   7
ENDBRANCH   2   3
ENDBRANCH   1   2
BRANCH   1  24
ATOM     24  C   UNL     1      -4.533  -2.004   4.338  1.00  0.00     0.118 C 
BRANCH  24  25
ATOM     25  N   UNL     1      -5.058  -0.883   5.108  1.00  0.00    -0.352 N 
ATOM     26  C   UNL     1      -5.559  -0.915   6.397  1.00  0.00     0.251 C 
ATOM     27  H   UNL     1      -5.056  -0.006   4.661  1.00  0.00     0.163 HD
ATOM     28  O   UNL     1      -6.200   0.012   6.877  1.00  0.00    -0.269 OA
BRANCH  26  29
ATOM     29  C   UNL     1      -5.173  -2.074   7.228  1.00  0.00     0.039 A 
ATOM     30  C   UNL     1      -4.282  -1.835   8.281  1.00  0.00     0.014 A 
ATOM     31  C   UNL     1      -5.405  -3.362   6.758  1.00  0.00     0.014 A 
ATOM     32  C   UNL     1      -3.475  -2.873   8.739  1.00  0.00     0.010 A 
ATOM     33  C   UNL     1      -4.521  -4.356   7.124  1.00  0.00     0.010 A 
ATOM     34  C   UNL     1      -3.535  -4.105   8.090  1.00  0.00    -0.014 A 
BRANCH  34  35
ATOM     35  C   UNL     1      -2.585  -5.187   8.318  1.00  0.00     0.031 A 
ATOM     36  C   UNL     1      -3.030  -6.405   9.033  1.00  0.00     0.074 A 
ATOM     37  C   UNL     1      -1.339  -5.124   7.801  1.00  0.00     0.049 A 
ATOM     38  N   UNL     1      -2.244  -7.234   9.632  1.00  0.00    -0.248 NA
ATOM     39  C   UNL     1      -4.439  -6.763   9.159  1.00  0.00     0.031 C 
ATOM     40  C   UNL     1      -0.389  -6.223   7.659  1.00  0.00     0.029 A 
ATOM     41  N   UNL     1      -0.604  -3.987   7.465  1.00  0.00    -0.354 N 
ATOM     42  C   UNL     1      -2.983  -8.352   9.959  1.00  0.00     0.074 A 
ATOM     43  C   UNL     1      -4.353  -7.982   9.695  1.00  0.00     0.031 C 
ATOM     44  C   UNL     1       0.845  -5.718   7.509  1.00  0.00     0.029 A 
ATOM     45  C   UNL     1       0.753  -4.281   7.700  1.00  0.00     0.049 A 
ATOM     46  H   UNL     1      -0.966  -3.136   7.127  1.00  0.00     0.167 HD
ATOM     47  C   UNL     1      -2.338  -9.512  10.281  1.00  0.00     0.037 A 
ATOM     48  C   UNL     1       1.473  -3.576   8.623  1.00  0.00     0.037 A 
ATOM     49  C   UNL     1      -0.889  -9.309  10.320  1.00  0.00     0.049 A 
ATOM     50  C   UNL     1       1.955  -4.409   9.790  1.00  0.00     0.074 A 
ATOM     51  C   UNL     1       0.110  -9.545   9.389  1.00  0.00     0.029 A 
ATOM     52  N   UNL     1      -0.329  -8.490  11.296  1.00  0.00    -0.354 N 
ATOM     53  N   UNL     1       1.505  -5.600  10.075  1.00  0.00    -0.248 NA
ATOM     54  C   UNL     1       2.970  -3.961  10.740  1.00  0.00     0.031 C 
ATOM     55  C   UNL     1       1.254  -8.806   9.773  1.00  0.00     0.029 A 
ATOM     56  C   UNL     1       0.961  -8.134  10.947  1.00  0.00     0.049 A 
ATOM     57  H   UNL     1      -0.787  -8.205  12.120  1.00  0.00     0.167 HD
ATOM     58  C   UNL     1       2.095  -6.055  11.226  1.00  0.00     0.074 A 
ATOM     59  C   UNL     1       3.031  -5.006  11.584  1.00  0.00     0.031 C 
ATOM     60  C   UNL     1       1.754  -7.252  11.792  1.00  0.00     0.037 A 
BRANCH  47  61
ATOM     61  C   UNL     1      -3.003 -10.878  10.223  1.00  0.00     0.058 A 
ATOM     62  C   UNL     1      -2.266 -12.025   9.854  1.00  0.00     0.135 A 
ATOM     63  C   UNL     1      -4.374 -11.116  10.443  1.00  0.00     0.135 A 
ATOM     64  F   UNL     1      -0.932 -11.995   9.731  1.00  0.00    -0.206 F 
ATOM     65  C   UNL     1      -2.860 -13.261   9.586  1.00  0.00     0.059 A 
ATOM     66  C   UNL     1      -5.003 -12.325  10.125  1.00  0.00     0.059 A 
ATOM     67  F   UNL     1      -5.153 -10.199  11.032  1.00  0.00    -0.206 F 
ATOM     68  C   UNL     1      -4.237 -13.392   9.681  1.00  0.00     0.060 A 
BRANCH  68  69
ATOM     69  S   UNL     1      -4.995 -14.966   9.238  1.00  0.00     0.124 S 
ATOM     70  O   UNL     1      -4.472 -15.194   7.894  1.00  0.00    -0.237 OA
ATOM     71  O   UNL     1      -4.482 -15.852  10.278  1.00  0.00    -0.237 OA
ATOM     72  O   UNL     1      -6.426 -14.685   9.305  1.00  0.00    -0.744 OA
ENDBRANCH  68  69
ENDBRANCH  47  61
BRANCH  48  73
ATOM     73  C   UNL     1       1.088  -2.139   8.681  1.00  0.00     0.058 A 
ATOM     74  C   UNL     1       1.369  -1.346   7.550  1.00  0.00     0.135 A 
ATOM     75  C   UNL     1       0.098  -1.683   9.562  1.00  0.00     0.135 A 
ATOM     76  F   UNL     1       2.322  -1.728   6.683  1.00  0.00    -0.206 F 
ATOM     77  C   UNL     1       0.585  -0.249   7.213  1.00  0.00     0.059 A 
ATOM     78  C   UNL     1      -0.696  -0.578   9.247  1.00  0.00     0.059 A 
ATOM     79  F   UNL     1      -0.210  -2.392  10.658  1.00  0.00    -0.206 F 
ATOM     80  C   UNL     1      -0.490   0.082   8.034  1.00  0.00     0.060 A 
BRANCH  80  81
ATOM     81  S   UNL     1      -1.711   1.249   7.386  1.00  0.00     0.124 S 
ATOM     82  O   UNL     1      -0.903   2.447   7.179  1.00  0.00    -0.237 OA
ATOM     83  O   UNL     1      -2.152   0.568   6.169  1.00  0.00    -0.237 OA
ATOM     84  O   UNL     1      -2.696   1.329   8.457  1.00  0.00    -0.744 OA
ENDBRANCH  80  81
ENDBRANCH  48  73
BRANCH  60  85
ATOM     85  C   UNL     1       2.208  -7.751  13.144  1.00  0.00     0.058 A 
ATOM     86  C   UNL     1       2.496  -6.916  14.237  1.00  0.00     0.135 A 
ATOM     87  C   UNL     1       2.240  -9.141  13.416  1.00  0.00     0.135 A 
ATOM     88  F   UNL     1       2.389  -5.583  14.143  1.00  0.00    -0.206 F 
ATOM     89  C   UNL     1       2.864  -7.419  15.487  1.00  0.00     0.059 A 
ATOM     90  C   UNL     1       2.550  -9.663  14.669  1.00  0.00     0.059 A 
ATOM     91  F   UNL     1       1.959 -10.046  12.466  1.00  0.00    -0.206 F 
ATOM     92  C   UNL     1       2.891  -8.794  15.694  1.00  0.00     0.060 A 
BRANCH  92  93
ATOM     93  S   UNL     1       3.316  -9.454  17.317  1.00  0.00     0.124 S 
ATOM     94  O   UNL     1       4.758  -9.634  17.189  1.00  0.00    -0.237 OA
ATOM     95  O   UNL     1       2.892  -8.391  18.223  1.00  0.00    -0.237 OA
ATOM     96  O   UNL     1       2.529 -10.681  17.392  1.00  0.00    -0.744 OA
ENDBRANCH  92  93
ENDBRANCH  60  85
ENDBRANCH  34  35
ENDBRANCH  26  29
ENDBRANCH  24  25
ENDBRANCH   1  24
TORSDOF 16
