REMARK SMILES COc1ccc(CCn2cc(C(=O)NCCCNC(=O)c3ccc(-c4c5nc(c(-c6c(F)cc(S(=O)(=O)[O-])cc6F)c6ccc([nH]6)c(-c6c(F)cc(S(=O)(=O)[O-])cc6F)c6nc(c(-c7c(F)cc(S(=O)(=O)[O-])cc7F)c7ccc4[nH]7)C=C6)C=C5)cc3)ccc2=O)cc1OC
REMARK SMILES IDX 15 1 14 2 12 3 13 4 11 6 9 7 10 8 89 9 88 10 90 11 87 12
REMARK SMILES IDX 8 13 7 14 6 15 3 16 4 17 92 18 5 19 91 20 2 21 1 22 93 23
REMARK SMILES IDX 94 24 16 25 17 26 18 27 19 28 20 30 21 31 22 32 86 33 23 34
REMARK SMILES IDX 85 35 24 36 25 37 26 38 79 39 27 40 84 41 78 42 80 43 28 44
REMARK SMILES IDX 83 45 77 46 76 47 29 49 63 50 42 51 62 52 43 53 46 54 61 55
REMARK SMILES IDX 81 56 44 57 45 58 60 60 82 61 47 62 30 63 31 64 40 65 32 66
REMARK SMILES IDX 33 67 39 68 41 69 34 70 35 71 36 72 37 73 38 74 64 75 65 76
REMARK SMILES IDX 74 77 66 78 67 79 73 80 75 81 68 82 69 83 70 84 71 85 72 86
REMARK SMILES IDX 48 87 49 88 58 89 50 90 51 91 57 92 59 93 52 94 53 95 54 96
REMARK SMILES IDX 55 97 56 98
REMARK H PARENT 14 5 18 29 80 48 46 59
REMARK Flexibility Score: inf
ROOT
ATOM      1  C   UNL     1      -0.292  -9.292  -5.777  1.00  0.00     0.118 C 
ENDROOT
BRANCH   1   2
ATOM      2  N   UNL     1      -1.609  -9.158  -5.174  1.00  0.00    -0.352 N 
ATOM      3  C   UNL     1      -2.348  -8.073  -4.814  1.00  0.00     0.252 C 
ATOM      4  O   UNL     1      -3.451  -8.269  -4.305  1.00  0.00    -0.269 OA
ATOM      5  H   UNL     1      -2.051 -10.018  -4.990  1.00  0.00     0.163 HD
BRANCH   3   6
ATOM      6  C   UNL     1      -1.913  -6.678  -5.143  1.00  0.00     0.056 A 
ATOM      7  N   UNL     1      -0.264  -4.976  -5.499  1.00  0.00    -0.314 N 
ATOM      8  C   UNL     1      -0.651  -6.232  -5.029  1.00  0.00     0.103 A 
ATOM      9  C   UNL     1      -1.182  -4.130  -6.124  1.00  0.00     0.250 A 
ATOM     10  C   UNL     1      -2.608  -4.519  -6.013  1.00  0.00     0.072 A 
ATOM     11  O   UNL     1      -0.906  -3.093  -6.732  1.00  0.00    -0.269 OA
ATOM     12  C   UNL     1      -2.934  -5.734  -5.559  1.00  0.00     0.021 A 
BRANCH   7  13
ATOM     13  C   UNL     1       1.175  -4.675  -5.556  1.00  0.00     0.130 C 
BRANCH  13  14
ATOM     14  C   UNL     1       1.634  -3.244  -5.229  1.00  0.00     0.057 C 
BRANCH  14  15
ATOM     15  C   UNL     1       1.499  -2.790  -3.795  1.00  0.00    -0.042 A 
ATOM     16  C   UNL     1       1.289  -1.703  -1.203  1.00  0.00     0.160 A 
ATOM     17  C   UNL     1       0.165  -2.234  -1.849  1.00  0.00     0.051 A 
ATOM     18  C   UNL     1       2.538  -1.747  -1.829  1.00  0.00     0.160 A 
ATOM     19  C   UNL     1       0.266  -2.754  -3.140  1.00  0.00     0.008 A 
ATOM     20  C   UNL     1       2.624  -2.290  -3.120  1.00  0.00     0.054 A 
BRANCH  16  21
ATOM     21  O   UNL     1       1.137  -1.194   0.059  1.00  0.00    -0.493 OA
ATOM     22  C   UNL     1       0.325  -0.020   0.054  1.00  0.00     0.278 C 
ENDBRANCH  16  21
BRANCH  18  23
ATOM     23  O   UNL     1       3.745  -1.298  -1.367  1.00  0.00    -0.493 OA
ATOM     24  C   UNL     1       3.786  -0.620  -0.121  1.00  0.00     0.278 C 
ENDBRANCH  18  23
ENDBRANCH  14  15
ENDBRANCH  13  14
ENDBRANCH   7  13
ENDBRANCH   3   6
ENDBRANCH   1   2
BRANCH   1  25
ATOM     25  C   UNL     1       0.737  -9.722  -4.731  1.00  0.00     0.042 C 
BRANCH  25  26
ATOM     26  C   UNL     1       0.618 -11.196  -4.340  1.00  0.00     0.118 C 
BRANCH  26  27
ATOM     27  N   UNL     1       1.019 -12.074  -5.427  1.00  0.00    -0.352 N 
ATOM     28  C   UNL     1       1.882 -13.138  -5.427  1.00  0.00     0.251 C 
ATOM     29  H   UNL     1       0.606 -11.873  -6.298  1.00  0.00     0.163 HD
ATOM     30  O   UNL     1       2.248 -13.602  -6.511  1.00  0.00    -0.269 OA
BRANCH  28  31
ATOM     31  C   UNL     1       2.382 -13.728  -4.166  1.00  0.00     0.039 A 
ATOM     32  C   UNL     1       3.703 -14.183  -4.125  1.00  0.00     0.014 A 
ATOM     33  C   UNL     1       1.552 -13.904  -3.055  1.00  0.00     0.014 A 
ATOM     34  C   UNL     1       4.198 -14.786  -2.967  1.00  0.00     0.010 A 
ATOM     35  C   UNL     1       2.064 -14.451  -1.877  1.00  0.00     0.010 A 
ATOM     36  C   UNL     1       3.388 -14.910  -1.826  1.00  0.00    -0.014 A 
BRANCH  36  37
ATOM     37  C   UNL     1       3.928 -15.524  -0.586  1.00  0.00     0.031 A 
ATOM     38  C   UNL     1       3.394 -16.840  -0.085  1.00  0.00     0.074 A 
ATOM     39  C   UNL     1       4.891 -14.880   0.101  1.00  0.00     0.049 A 
ATOM     40  N   UNL     1       3.764 -17.536   0.960  1.00  0.00    -0.248 NA
ATOM     41  C   UNL     1       2.286 -17.442  -0.843  1.00  0.00     0.031 C 
ATOM     42  C   UNL     1       5.447 -13.571  -0.251  1.00  0.00     0.029 A 
ATOM     43  N   UNL     1       5.578 -15.238   1.233  1.00  0.00    -0.354 N 
ATOM     44  C   UNL     1       2.933 -18.650   0.990  1.00  0.00     0.074 A 
ATOM     45  C   UNL     1       2.005 -18.511  -0.112  1.00  0.00     0.031 C 
ATOM     46  C   UNL     1       6.409 -13.251   0.628  1.00  0.00     0.029 A 
ATOM     47  C   UNL     1       6.525 -14.318   1.617  1.00  0.00     0.049 A 
ATOM     48  H   UNL     1       5.408 -16.074   1.725  1.00  0.00     0.167 HD
ATOM     49  C   UNL     1       2.955 -19.703   1.843  1.00  0.00     0.037 A 
ATOM     50  C   UNL     1       7.395 -14.338   2.644  1.00  0.00     0.037 A 
ATOM     51  C   UNL     1       3.896 -19.846   2.924  1.00  0.00     0.049 A 
ATOM     52  C   UNL     1       7.427 -15.534   3.553  1.00  0.00     0.074 A 
ATOM     53  C   UNL     1       4.038 -20.899   3.811  1.00  0.00     0.029 A 
ATOM     54  N   UNL     1       4.858 -18.906   3.266  1.00  0.00    -0.354 N 
ATOM     55  N   UNL     1       6.677 -16.611   3.526  1.00  0.00    -0.248 NA
ATOM     56  C   UNL     1       8.434 -15.527   4.622  1.00  0.00     0.031 C 
ATOM     57  C   UNL     1       5.065 -20.582   4.709  1.00  0.00     0.029 A 
ATOM     58  C   UNL     1       5.589 -19.349   4.357  1.00  0.00     0.049 A 
ATOM     59  H   UNL     1       5.000 -18.050   2.802  1.00  0.00     0.167 HD
ATOM     60  C   UNL     1       7.134 -17.417   4.562  1.00  0.00     0.074 A 
ATOM     61  C   UNL     1       8.239 -16.713   5.181  1.00  0.00     0.031 C 
ATOM     62  C   UNL     1       6.681 -18.631   4.965  1.00  0.00     0.037 A 
BRANCH  49  63
ATOM     63  C   UNL     1       1.934 -20.789   1.634  1.00  0.00     0.058 A 
ATOM     64  C   UNL     1       2.006 -21.664   0.538  1.00  0.00     0.135 A 
ATOM     65  C   UNL     1       0.888 -20.977   2.552  1.00  0.00     0.135 A 
ATOM     66  F   UNL     1       2.976 -21.522  -0.379  1.00  0.00    -0.206 F 
ATOM     67  C   UNL     1       1.060 -22.666   0.342  1.00  0.00     0.059 A 
ATOM     68  C   UNL     1      -0.054 -21.989   2.390  1.00  0.00     0.059 A 
ATOM     69  F   UNL     1       0.772 -20.170   3.618  1.00  0.00    -0.206 F 
ATOM     70  C   UNL     1       0.031 -22.819   1.272  1.00  0.00     0.060 A 
BRANCH  70  71
ATOM     71  S   UNL     1      -1.189 -24.122   1.005  1.00  0.00     0.124 S 
ATOM     72  O   UNL     1      -1.990 -23.552  -0.074  1.00  0.00    -0.237 OA
ATOM     73  O   UNL     1      -0.355 -25.263   0.639  1.00  0.00    -0.237 OA
ATOM     74  O   UNL     1      -1.861 -24.229   2.296  1.00  0.00    -0.744 OA
ENDBRANCH  70  71
ENDBRANCH  49  63
BRANCH  50  75
ATOM     75  C   UNL     1       8.338 -13.205   2.836  1.00  0.00     0.058 A 
ATOM     76  C   UNL     1       9.705 -13.349   2.556  1.00  0.00     0.135 A 
ATOM     77  C   UNL     1       7.889 -11.952   3.282  1.00  0.00     0.135 A 
ATOM     78  F   UNL     1      10.181 -14.529   2.130  1.00  0.00    -0.206 F 
ATOM     79  C   UNL     1      10.598 -12.297   2.726  1.00  0.00     0.059 A 
ATOM     80  C   UNL     1       8.760 -10.878   3.437  1.00  0.00     0.059 A 
ATOM     81  F   UNL     1       6.588 -11.759   3.544  1.00  0.00    -0.206 F 
ATOM     82  C   UNL     1      10.115 -11.064   3.166  1.00  0.00     0.060 A 
BRANCH  82  83
ATOM     83  S   UNL     1      11.273  -9.688   3.331  1.00  0.00     0.124 S 
ATOM     84  O   UNL     1      11.970 -10.037   4.563  1.00  0.00    -0.237 OA
ATOM     85  O   UNL     1      12.054  -9.793   2.102  1.00  0.00    -0.237 OA
ATOM     86  O   UNL     1      10.397  -8.522   3.409  1.00  0.00    -0.744 OA
ENDBRANCH  82  83
ENDBRANCH  50  75
BRANCH  62  87
ATOM     87  C   UNL     1       7.398 -19.275   6.119  1.00  0.00     0.058 A 
ATOM     88  C   UNL     1       7.259 -18.797   7.431  1.00  0.00     0.135 A 
ATOM     89  C   UNL     1       8.232 -20.385   5.909  1.00  0.00     0.135 A 
ATOM     90  F   UNL     1       6.477 -17.735   7.684  1.00  0.00    -0.206 F 
ATOM     91  C   UNL     1       7.955 -19.370   8.490  1.00  0.00     0.059 A 
ATOM     92  C   UNL     1       8.917 -20.990   6.957  1.00  0.00     0.059 A 
ATOM     93  F   UNL     1       8.389 -20.889   4.675  1.00  0.00    -0.206 F 
ATOM     94  C   UNL     1       8.789 -20.462   8.242  1.00  0.00     0.060 A 
BRANCH  94  95
ATOM     95  S   UNL     1       9.697 -21.194   9.619  1.00  0.00     0.124 S 
ATOM     96  O   UNL     1      10.787 -20.239   9.791  1.00  0.00    -0.237 OA
ATOM     97  O   UNL     1       8.697 -21.212  10.683  1.00  0.00    -0.237 OA
ATOM     98  O   UNL     1      10.084 -22.506   9.110  1.00  0.00    -0.744 OA
ENDBRANCH  94  95
ENDBRANCH  62  87
ENDBRANCH  36  37
ENDBRANCH  28  31
ENDBRANCH  26  27
ENDBRANCH  25  26
ENDBRANCH   1  25
TORSDOF 18
