REMARK SMILES O=C(NCCCNC(=O)[C@H]1CC[C@@H](C(F)F)[NH2+]1)c1ccc(-c2c3nc(c(-c4c(F)cc(S(=O)(=O)[O-])cc4F)c4ccc([nH]4)c(-c4c(F)cc(S(=O)(=O)[O-])cc4F)c4nc(c(-c5c(F)cc(S(=O)(=O)[O-])cc5F)c5ccc2[nH]5)C=C4)C=C3)cc1
REMARK SMILES IDX 4 1 3 2 1 3 2 4 18 6 19 7 83 8 20 9 82 10 21 11 22 12 23 13
REMARK SMILES IDX 76 14 24 15 81 16 75 17 77 18 25 19 80 20 74 21 73 22 26 24
REMARK SMILES IDX 60 25 39 26 59 27 40 28 43 29 58 30 78 31 41 32 42 33 57 35
REMARK SMILES IDX 79 36 44 37 27 38 28 39 37 40 29 41 30 42 36 43 38 44 31 45
REMARK SMILES IDX 32 46 33 47 34 48 35 49 61 50 62 51 71 52 63 53 64 54 70 55
REMARK SMILES IDX 72 56 65 57 66 58 67 59 68 60 69 61 45 62 46 63 55 64 47 65
REMARK SMILES IDX 48 66 54 67 56 68 49 69 50 70 51 71 52 72 53 73 5 74 6 75
REMARK SMILES IDX 7 76 8 77 9 79 10 80 11 81 17 82 12 83 13 84 14 87 15 88
REMARK SMILES IDX 16 89
REMARK H PARENT 3 5 77 23 43 34 7 78 17 85 17 86
REMARK Flexibility Score: inf
ROOT
ATOM      1  C   UNL     1       3.242  -0.897 -10.071  1.00  0.00     0.118 C 
ENDROOT
BRANCH   1   2
ATOM      2  N   UNL     1       3.840  -1.695 -11.141  1.00  0.00    -0.352 N 
ATOM      3  O   UNL     1       4.076  -3.418 -12.571  1.00  0.00    -0.269 OA
ATOM      4  C   UNL     1       3.328  -2.738 -11.880  1.00  0.00     0.251 C 
ATOM      5  H   UNL     1       4.764  -1.444 -11.372  1.00  0.00     0.163 HD
BRANCH   4   6
ATOM      6  C   UNL     1       1.882  -3.043 -11.825  1.00  0.00     0.039 A 
ATOM      7  C   UNL     1       0.953  -2.010 -11.759  1.00  0.00     0.014 A 
ATOM      8  C   UNL     1       1.443  -4.371 -11.858  1.00  0.00     0.014 A 
ATOM      9  C   UNL     1      -0.378  -2.295 -11.506  1.00  0.00     0.010 A 
ATOM     10  C   UNL     1       0.076  -4.655 -11.755  1.00  0.00     0.010 A 
ATOM     11  C   UNL     1      -0.844  -3.618 -11.542  1.00  0.00    -0.014 A 
BRANCH  11  12
ATOM     12  C   UNL     1      -2.309  -3.843 -11.433  1.00  0.00     0.031 A 
ATOM     13  C   UNL     1      -2.902  -4.648 -10.310  1.00  0.00     0.074 A 
ATOM     14  C   UNL     1      -3.108  -3.226 -12.328  1.00  0.00     0.049 A 
ATOM     15  N   UNL     1      -4.164  -4.875 -10.045  1.00  0.00    -0.248 NA
ATOM     16  C   UNL     1      -1.970  -5.290  -9.370  1.00  0.00     0.031 C 
ATOM     17  C   UNL     1      -2.637  -2.438 -13.473  1.00  0.00     0.029 A 
ATOM     18  N   UNL     1      -4.472  -3.118 -12.398  1.00  0.00    -0.354 N 
ATOM     19  C   UNL     1      -4.179  -5.695  -8.923  1.00  0.00     0.074 A 
ATOM     20  C   UNL     1      -2.799  -5.950  -8.572  1.00  0.00     0.031 C 
ATOM     21  C   UNL     1      -3.684  -1.862 -14.077  1.00  0.00     0.029 A 
ATOM     22  C   UNL     1      -4.905  -2.307 -13.422  1.00  0.00     0.049 A 
ATOM     23  H   UNL     1      -5.083  -3.575 -11.776  1.00  0.00     0.167 HD
ATOM     24  C   UNL     1      -5.249  -6.179  -8.246  1.00  0.00     0.037 A 
ATOM     25  C   UNL     1      -6.149  -1.972 -13.808  1.00  0.00     0.037 A 
ATOM     26  C   UNL     1      -6.619  -5.905  -8.601  1.00  0.00     0.049 A 
ATOM     27  C   UNL     1      -7.312  -2.519 -13.036  1.00  0.00     0.074 A 
ATOM     28  C   UNL     1      -7.776  -6.354  -7.986  1.00  0.00     0.029 A 
ATOM     29  N   UNL     1      -7.020  -5.102  -9.660  1.00  0.00    -0.354 N 
ATOM     30  N   UNL     1      -7.303  -3.299 -11.982  1.00  0.00    -0.248 NA
ATOM     31  C   UNL     1      -8.652  -2.150 -13.507  1.00  0.00     0.031 C 
ATOM     32  C   UNL     1      -8.874  -5.848  -8.691  1.00  0.00     0.029 A 
ATOM     33  C   UNL     1      -8.403  -5.048  -9.720  1.00  0.00     0.049 A 
ATOM     34  H   UNL     1      -6.410  -4.638 -10.279  1.00  0.00     0.167 HD
ATOM     35  C   UNL     1      -8.636  -3.517 -11.663  1.00  0.00     0.074 A 
ATOM     36  C   UNL     1      -9.422  -2.756 -12.614  1.00  0.00     0.031 C 
ATOM     37  C   UNL     1      -9.164  -4.287 -10.680  1.00  0.00     0.037 A 
BRANCH  24  38
ATOM     38  C   UNL     1      -4.985  -7.062  -7.056  1.00  0.00     0.058 A 
ATOM     39  C   UNL     1      -4.497  -6.541  -5.847  1.00  0.00     0.135 A 
ATOM     40  C   UNL     1      -5.274  -8.436  -7.105  1.00  0.00     0.135 A 
ATOM     41  F   UNL     1      -4.189  -5.239  -5.747  1.00  0.00    -0.206 F 
ATOM     42  C   UNL     1      -4.288  -7.353  -4.735  1.00  0.00     0.059 A 
ATOM     43  C   UNL     1      -5.094  -9.263  -5.999  1.00  0.00     0.059 A 
ATOM     44  F   UNL     1      -5.742  -8.988  -8.236  1.00  0.00    -0.206 F 
ATOM     45  C   UNL     1      -4.590  -8.713  -4.821  1.00  0.00     0.060 A 
BRANCH  45  46
ATOM     46  S   UNL     1      -4.325  -9.749  -3.365  1.00  0.00     0.124 S 
ATOM     47  O   UNL     1      -2.868  -9.840  -3.334  1.00  0.00    -0.237 OA
ATOM     48  O   UNL     1      -4.932  -8.955  -2.302  1.00  0.00    -0.237 OA
ATOM     49  O   UNL     1      -5.024 -10.987  -3.696  1.00  0.00    -0.744 OA
ENDBRANCH  45  46
ENDBRANCH  24  38
BRANCH  25  50
ATOM     50  C   UNL     1      -6.345  -1.104 -14.999  1.00  0.00     0.058 A 
ATOM     51  C   UNL     1      -6.852   0.197 -14.882  1.00  0.00     0.135 A 
ATOM     52  C   UNL     1      -6.002  -1.559 -16.283  1.00  0.00     0.135 A 
ATOM     53  F   UNL     1      -7.194   0.678 -13.676  1.00  0.00    -0.206 F 
ATOM     54  C   UNL     1      -7.031   1.011 -15.996  1.00  0.00     0.059 A 
ATOM     55  C   UNL     1      -6.142  -0.754 -17.407  1.00  0.00     0.059 A 
ATOM     56  F   UNL     1      -5.491  -2.790 -16.447  1.00  0.00    -0.206 F 
ATOM     57  C   UNL     1      -6.673   0.525 -17.255  1.00  0.00     0.060 A 
BRANCH  57  58
ATOM     58  S   UNL     1      -6.872   1.596 -18.694  1.00  0.00     0.124 S 
ATOM     59  O   UNL     1      -8.309   1.506 -18.928  1.00  0.00    -0.237 OA
ATOM     60  O   UNL     1      -6.385   2.879 -18.197  1.00  0.00    -0.237 OA
ATOM     61  O   UNL     1      -6.026   0.962 -19.701  1.00  0.00    -0.744 OA
ENDBRANCH  57  58
ENDBRANCH  25  50
BRANCH  37  62
ATOM     62  C   UNL     1     -10.662  -4.324 -10.585  1.00  0.00     0.058 A 
ATOM     63  C   UNL     1     -11.438  -5.020 -11.524  1.00  0.00     0.135 A 
ATOM     64  C   UNL     1     -11.325  -3.663  -9.540  1.00  0.00     0.135 A 
ATOM     65  F   UNL     1     -10.850  -5.661 -12.547  1.00  0.00    -0.206 F 
ATOM     66  C   UNL     1     -12.827  -5.030 -11.451  1.00  0.00     0.059 A 
ATOM     67  C   UNL     1     -12.712  -3.681  -9.433  1.00  0.00     0.059 A 
ATOM     68  F   UNL     1     -10.626  -2.991  -8.612  1.00  0.00    -0.206 F 
ATOM     69  C   UNL     1     -13.454  -4.353 -10.404  1.00  0.00     0.060 A 
BRANCH  69  70
ATOM     70  S   UNL     1     -15.257  -4.376 -10.315  1.00  0.00     0.124 S 
ATOM     71  O   UNL     1     -15.613  -3.418 -11.356  1.00  0.00    -0.237 OA
ATOM     72  O   UNL     1     -15.568  -5.772 -10.604  1.00  0.00    -0.237 OA
ATOM     73  O   UNL     1     -15.533  -3.949  -8.946  1.00  0.00    -0.744 OA
ENDBRANCH  69  70
ENDBRANCH  37  62
ENDBRANCH  11  12
ENDBRANCH   4   6
ENDBRANCH   1   2
BRANCH   1  74
ATOM     74  C   UNL     1       3.765  -1.293  -8.699  1.00  0.00     0.042 C 
BRANCH  74  75
ATOM     75  C   UNL     1       5.203  -0.852  -8.514  1.00  0.00     0.118 C 
BRANCH  75  76
ATOM     76  N   UNL     1       5.312   0.557  -8.191  1.00  0.00    -0.351 N 
ATOM     77  C   UNL     1       5.874   1.222  -7.152  1.00  0.00     0.278 C 
ATOM     78  H   UNL     1       4.894   1.148  -8.859  1.00  0.00     0.163 HD
ATOM     79  O   UNL     1       5.910   2.456  -7.264  1.00  0.00    -0.268 OA
BRANCH  77  80
ATOM     80  C   UNL     1       6.469   0.562  -5.887  1.00  0.00     0.273 C 
ATOM     81  C   UNL     1       5.938  -0.754  -5.365  1.00  0.00     0.082 C 
ATOM     82  N   UNL     1       7.945   0.408  -5.983  1.00  0.00    -0.329 N 
ATOM     83  C   UNL     1       7.014  -1.789  -5.672  1.00  0.00     0.078 C 
ATOM     84  C   UNL     1       8.227  -1.026  -6.209  1.00  0.00     0.251 C 
ATOM     85  H   UNL     1       8.385   0.718  -5.117  1.00  0.00     0.347 HD
ATOM     86  H   UNL     1       8.316   0.972  -6.748  1.00  0.00     0.347 HD
BRANCH  84  87
ATOM     87  C   UNL     1       8.649  -1.380  -7.654  1.00  0.00     0.399 C 
ATOM     88  F   UNL     1       8.560  -2.720  -7.854  1.00  0.00    -0.204 F 
ATOM     89  F   UNL     1       7.854  -0.800  -8.579  1.00  0.00    -0.204 F 
ENDBRANCH  84  87
ENDBRANCH  77  80
ENDBRANCH  75  76
ENDBRANCH  74  75
ENDBRANCH   1  74
TORSDOF 14
