REMARK SMILES O=C(CSc1nnc(-c2ccncc2)s1)Nc1cccc(C(=O)NCCCNC(=O)c2ccc(-c3c4nc(c(-c5c(F)cc(S(=O)(=O)[O-])cc5F)c5ccc([nH]5)c(-c5c(F)cc(S(=O)(=O)[O-])cc5F)c5nc(c(-c6c(F)cc(S(=O)(=O)[O-])cc6F)c6ccc3[nH]6)C=C5)C=C4)cc2)c1
REMARK SMILES IDX 25 1 24 2 22 3 23 4 21 6 17 7 18 8 97 9 19 10 20 11 16 12
REMARK SMILES IDX 1 13 2 14 3 16 4 17 5 18 6 19 15 20 7 21 8 22 9 23 10 24
REMARK SMILES IDX 14 25 11 26 13 27 12 28 26 29 27 30 28 31 29 32 30 34 31 35
REMARK SMILES IDX 32 36 96 37 33 38 95 39 34 40 35 41 36 42 89 43 37 44 94 45
REMARK SMILES IDX 88 46 90 47 38 48 93 49 87 50 86 51 39 53 73 54 52 55 72 56
REMARK SMILES IDX 53 57 56 58 71 59 91 60 54 61 55 62 70 64 92 65 57 66 40 67
REMARK SMILES IDX 41 68 50 69 42 70 43 71 49 72 51 73 44 74 45 75 46 76 47 77
REMARK SMILES IDX 48 78 74 79 75 80 84 81 76 82 77 83 83 84 85 85 78 86 79 87
REMARK SMILES IDX 80 88 81 89 82 90 58 91 59 92 68 93 60 94 61 95 67 96 69 97
REMARK SMILES IDX 62 98 63 99 64 100 65 101 66 102
REMARK H PARENT 24 5 16 15 28 33 90 52 56 63
REMARK Flexibility Score: inf
ROOT
ATOM      1  C   UNL     1      -0.323  -1.447  -2.911  1.00  0.00     0.118 C 
ENDROOT
BRANCH   1   2
ATOM      2  N   UNL     1      -0.852  -2.802  -2.780  1.00  0.00    -0.352 N 
ATOM      3  C   UNL     1      -0.521  -3.858  -1.958  1.00  0.00     0.251 C 
ATOM      4  O   UNL     1      -1.139  -4.915  -2.085  1.00  0.00    -0.269 OA
ATOM      5  H   UNL     1      -1.590  -3.001  -3.401  1.00  0.00     0.163 HD
BRANCH   3   6
ATOM      6  C   UNL     1       0.597  -3.791  -0.979  1.00  0.00     0.041 A 
ATOM      7  C   UNL     1       2.198  -2.487   0.286  1.00  0.00     0.041 A 
ATOM      8  C   UNL     1       2.941  -3.645   0.530  1.00  0.00     0.026 A 
ATOM      9  C   UNL     1       0.964  -2.605  -0.349  1.00  0.00     0.040 A 
ATOM     10  C   UNL     1       2.481  -4.885   0.075  1.00  0.00     0.003 A 
ATOM     11  C   UNL     1       1.331  -4.952  -0.714  1.00  0.00     0.014 A 
BRANCH   7  12
ATOM     12  N   UNL     1       2.787  -1.236   0.572  1.00  0.00    -0.325 N 
ATOM     13  O   UNL     1       1.057   0.247   0.071  1.00  0.00    -0.274 OA
ATOM     14  C   UNL     1       2.235   0.015   0.340  1.00  0.00     0.234 C 
ATOM     15  H   UNL     1       3.683  -1.253   0.980  1.00  0.00     0.169 HD
BRANCH  14  16
ATOM     16  C   UNL     1       3.237   1.158   0.319  1.00  0.00     0.177 C 
BRANCH  16  17
ATOM     17  S   UNL     1       4.331   1.197   1.756  1.00  0.00    -0.084 SA
BRANCH  17  18
ATOM     18  C   UNL     1       3.167   1.060   3.047  1.00  0.00     0.175 A 
ATOM     19  N   UNL     1       2.996  -0.085   3.666  1.00  0.00    -0.131 NA
ATOM     20  S   UNL     1       2.215   2.348   3.645  1.00  0.00    -0.086 S 
ATOM     21  N   UNL     1       2.103   0.025   4.710  1.00  0.00    -0.137 NA
ATOM     22  C   UNL     1       1.618   1.246   4.826  1.00  0.00     0.148 A 
BRANCH  22  23
ATOM     23  C   UNL     1       0.751   1.688   5.916  1.00  0.00     0.015 A 
ATOM     24  C   UNL     1      -0.419   2.417   5.697  1.00  0.00     0.031 A 
ATOM     25  C   UNL     1       1.096   1.349   7.228  1.00  0.00     0.031 A 
ATOM     26  C   UNL     1      -1.181   2.780   6.796  1.00  0.00     0.111 A 
ATOM     27  C   UNL     1       0.275   1.766   8.259  1.00  0.00     0.111 A 
ATOM     28  N   UNL     1      -0.855   2.478   8.072  1.00  0.00    -0.265 NA
ENDBRANCH  22  23
ENDBRANCH  17  18
ENDBRANCH  16  17
ENDBRANCH  14  16
ENDBRANCH   7  12
ENDBRANCH   3   6
ENDBRANCH   1   2
BRANCH   1  29
ATOM     29  C   UNL     1       0.173  -1.100  -4.304  1.00  0.00     0.042 C 
BRANCH  29  30
ATOM     30  C   UNL     1      -0.913  -0.999  -5.359  1.00  0.00     0.118 C 
BRANCH  30  31
ATOM     31  N   UNL     1      -1.866   0.074  -5.096  1.00  0.00    -0.352 N 
ATOM     32  C   UNL     1      -2.062   1.283  -5.723  1.00  0.00     0.251 C 
ATOM     33  H   UNL     1      -2.473  -0.096  -4.340  1.00  0.00     0.163 HD
ATOM     34  O   UNL     1      -2.802   2.114  -5.207  1.00  0.00    -0.269 OA
BRANCH  32  35
ATOM     35  C   UNL     1      -1.373   1.599  -6.996  1.00  0.00     0.039 A 
ATOM     36  C   UNL     1      -0.898   2.897  -7.208  1.00  0.00     0.014 A 
ATOM     37  C   UNL     1      -1.210   0.634  -7.989  1.00  0.00     0.014 A 
ATOM     38  C   UNL     1      -0.190   3.197  -8.377  1.00  0.00     0.010 A 
ATOM     39  C   UNL     1      -0.412   0.902  -9.096  1.00  0.00     0.010 A 
ATOM     40  C   UNL     1       0.101   2.189  -9.309  1.00  0.00    -0.014 A 
BRANCH  40  41
ATOM     41  C   UNL     1       0.928   2.451 -10.516  1.00  0.00     0.031 A 
ATOM     42  C   UNL     1       0.350   2.219 -11.889  1.00  0.00     0.074 A 
ATOM     43  C   UNL     1       2.219   2.815 -10.377  1.00  0.00     0.049 A 
ATOM     44  N   UNL     1       0.939   2.285 -13.055  1.00  0.00    -0.248 NA
ATOM     45  C   UNL     1      -1.068   1.828 -11.957  1.00  0.00     0.031 C 
ATOM     46  C   UNL     1       2.909   3.019  -9.100  1.00  0.00     0.029 A 
ATOM     47  N   UNL     1       3.189   3.062 -11.317  1.00  0.00    -0.354 N 
ATOM     48  C   UNL     1      -0.027   1.926 -13.988  1.00  0.00     0.074 A 
ATOM     49  C   UNL     1      -1.222   1.585 -13.251  1.00  0.00     0.031 C 
ATOM     50  C   UNL     1       4.179   3.381  -9.338  1.00  0.00     0.029 A 
ATOM     51  C   UNL     1       4.412   3.389 -10.778  1.00  0.00     0.049 A 
ATOM     52  H   UNL     1       3.024   3.010 -12.286  1.00  0.00     0.167 HD
ATOM     53  C   UNL     1       0.067   1.906 -15.339  1.00  0.00     0.037 A 
ATOM     54  C   UNL     1       5.591   3.651 -11.375  1.00  0.00     0.037 A 
ATOM     55  C   UNL     1       1.252   2.277 -16.067  1.00  0.00     0.049 A 
ATOM     56  C   UNL     1       5.670   3.621 -12.878  1.00  0.00     0.074 A 
ATOM     57  C   UNL     1       1.431   2.354 -17.436  1.00  0.00     0.029 A 
ATOM     58  N   UNL     1       2.461   2.631 -15.485  1.00  0.00    -0.354 N 
ATOM     59  N   UNL     1       4.727   3.346 -13.748  1.00  0.00    -0.248 NA
ATOM     60  C   UNL     1       6.970   3.943 -13.483  1.00  0.00     0.031 C 
ATOM     61  C   UNL     1       2.762   2.702 -17.684  1.00  0.00     0.029 A 
ATOM     62  C   UNL     1       3.397   2.902 -16.468  1.00  0.00     0.049 A 
ATOM     63  H   UNL     1       2.629   2.681 -14.516  1.00  0.00     0.167 HD
ATOM     64  C   UNL     1       5.311   3.491 -15.001  1.00  0.00     0.074 A 
ATOM     65  C   UNL     1       6.685   3.890 -14.777  1.00  0.00     0.031 C 
ATOM     66  C   UNL     1       4.759   3.311 -16.227  1.00  0.00     0.037 A 
BRANCH  53  67
ATOM     67  C   UNL     1      -1.146   1.477 -16.122  1.00  0.00     0.058 A 
ATOM     68  C   UNL     1      -2.306   2.267 -16.181  1.00  0.00     0.135 A 
ATOM     69  C   UNL     1      -1.133   0.282 -16.860  1.00  0.00     0.135 A 
ATOM     70  F   UNL     1      -2.381   3.412 -15.483  1.00  0.00    -0.206 F 
ATOM     71  C   UNL     1      -3.417   1.877 -16.921  1.00  0.00     0.059 A 
ATOM     72  C   UNL     1      -2.221  -0.113 -17.633  1.00  0.00     0.059 A 
ATOM     73  F   UNL     1      -0.052  -0.514 -16.840  1.00  0.00    -0.206 F 
ATOM     74  C   UNL     1      -3.364   0.686 -17.647  1.00  0.00     0.060 A 
BRANCH  74  75
ATOM     75  S   UNL     1      -4.808   0.204 -18.616  1.00  0.00     0.124 S 
ATOM     76  O   UNL     1      -5.753  -0.166 -17.567  1.00  0.00    -0.237 OA
ATOM     77  O   UNL     1      -5.118   1.432 -19.342  1.00  0.00    -0.237 OA
ATOM     78  O   UNL     1      -4.317  -0.899 -19.436  1.00  0.00    -0.744 OA
ENDBRANCH  74  75
ENDBRANCH  53  67
BRANCH  54  79
ATOM     79  C   UNL     1       6.788   3.978 -10.553  1.00  0.00     0.058 A 
ATOM     80  C   UNL     1       7.341   5.267 -10.560  1.00  0.00     0.135 A 
ATOM     81  C   UNL     1       7.400   3.011  -9.739  1.00  0.00     0.135 A 
ATOM     82  F   UNL     1       6.797   6.226 -11.325  1.00  0.00    -0.206 F 
ATOM     83  C   UNL     1       8.469   5.583  -9.808  1.00  0.00     0.059 A 
ATOM     84  C   UNL     1       8.511   3.310  -8.955  1.00  0.00     0.059 A 
ATOM     85  F   UNL     1       6.901   1.767  -9.680  1.00  0.00    -0.206 F 
ATOM     86  C   UNL     1       9.045   4.597  -9.005  1.00  0.00     0.060 A 
BRANCH  86  87
ATOM     87  S   UNL     1      10.481   5.029  -7.999  1.00  0.00     0.124 S 
ATOM     88  O   UNL     1      11.522   5.155  -9.012  1.00  0.00    -0.237 OA
ATOM     89  O   UNL     1      10.049   6.271  -7.367  1.00  0.00    -0.237 OA
ATOM     90  O   UNL     1      10.613   3.889  -7.097  1.00  0.00    -0.744 OA
ENDBRANCH  86  87
ENDBRANCH  54  79
BRANCH  66  91
ATOM     91  C   UNL     1       5.625   3.585 -17.427  1.00  0.00     0.058 A 
ATOM     92  C   UNL     1       6.675   2.729 -17.794  1.00  0.00     0.135 A 
ATOM     93  C   UNL     1       5.358   4.688 -18.255  1.00  0.00     0.135 A 
ATOM     94  F   UNL     1       6.977   1.664 -17.034  1.00  0.00    -0.206 F 
ATOM     95  C   UNL     1       7.443   2.968 -18.929  1.00  0.00     0.059 A 
ATOM     96  C   UNL     1       6.092   4.928 -19.411  1.00  0.00     0.059 A 
ATOM     97  F   UNL     1       4.358   5.532 -17.955  1.00  0.00    -0.206 F 
ATOM     98  C   UNL     1       7.140   4.068 -19.734  1.00  0.00     0.060 A 
BRANCH  98  99
ATOM     99  S   UNL     1       8.119   4.342 -21.226  1.00  0.00     0.124 S 
ATOM    100  O   UNL     1       9.387   4.797 -20.666  1.00  0.00    -0.237 OA
ATOM    101  O   UNL     1       8.134   3.015 -21.835  1.00  0.00    -0.237 OA
ATOM    102  O   UNL     1       7.355   5.351 -21.954  1.00  0.00    -0.744 OA
ENDBRANCH  98  99
ENDBRANCH  66  91
ENDBRANCH  40  41
ENDBRANCH  32  35
ENDBRANCH  30  31
ENDBRANCH  29  30
ENDBRANCH   1  29
TORSDOF 18
