REMARK SMILES Cc1cc(OC(F)F)ccc1NC(=O)[C@@H]1CCCC[C@@H]1C(=O)NCCCNC(=O)c1ccc(-c2c3nc(c(-c4c(F)cc(S(=O)(=O)[O-])cc4F)c4ccc([nH]4)c(-c4c(F)cc(S(=O)(=O)[O-])cc4F)c4nc(c(-c5c(F)cc(S(=O)(=O)[O-])cc5F)c5ccc2[nH]5)C=C4)C=C3)cc1
REMARK SMILES IDX 24 1 23 2 21 3 22 4 20 6 15 7 16 8 17 9 19 10 18 11 13 12
REMARK SMILES IDX 12 13 14 15 11 16 1 17 2 18 3 19 4 20 10 21 9 22 5 23 6 24
REMARK SMILES IDX 7 25 8 26 25 27 26 28 27 29 28 30 29 32 30 33 31 34 95 35
REMARK SMILES IDX 32 36 94 37 33 38 34 39 35 40 88 41 36 42 93 43 87 44 89 45
REMARK SMILES IDX 37 46 92 47 86 48 85 49 38 51 72 52 51 53 71 54 52 55 55 56
REMARK SMILES IDX 70 57 90 58 53 59 54 60 69 62 91 63 56 64 39 65 40 66 49 67
REMARK SMILES IDX 41 68 42 69 48 70 50 71 43 72 44 73 45 74 46 75 47 76 73 77
REMARK SMILES IDX 74 78 83 79 75 80 76 81 82 82 84 83 77 84 78 85 79 86 80 87
REMARK SMILES IDX 81 88 57 89 58 90 67 91 59 92 60 93 66 94 68 95 61 96 62 97
REMARK SMILES IDX 63 98 64 99 65 100
REMARK H PARENT 23 5 12 14 27 31 89 50 55 61
REMARK Flexibility Score: inf
ROOT
ATOM      1  C   UNL     1       0.926   1.735   2.113  1.00  0.00     0.117 C 
ENDROOT
BRANCH   1   2
ATOM      2  N   UNL     1      -0.072   2.401   2.916  1.00  0.00    -0.356 N 
ATOM      3  C   UNL     1      -1.286   2.897   2.566  1.00  0.00     0.223 C 
ATOM      4  O   UNL     1      -1.888   3.532   3.434  1.00  0.00    -0.275 OA
ATOM      5  H   UNL     1       0.165   2.514   3.865  1.00  0.00     0.163 HD
BRANCH   3   6
ATOM      6  C   UNL     1      -1.900   2.612   1.175  1.00  0.00     0.091 C 
ATOM      7  C   UNL     1      -1.556   3.564   0.002  1.00  0.00     0.091 C 
ATOM      8  C   UNL     1      -1.857   5.009   0.436  1.00  0.00     0.014 C 
ATOM      9  C   UNL     1      -3.363   5.176   0.648  1.00  0.00     0.001 C 
ATOM     10  C   UNL     1      -3.448   2.674   1.312  1.00  0.00     0.014 C 
ATOM     11  C   UNL     1      -4.002   4.095   1.522  1.00  0.00     0.001 C 
BRANCH   7  12
ATOM     12  C   UNL     1      -0.244   3.436  -0.785  1.00  0.00     0.228 C 
ATOM     13  N   UNL     1       0.203   2.264  -1.341  1.00  0.00    -0.326 N 
ATOM     14  H   UNL     1       1.042   2.353  -1.850  1.00  0.00     0.169 HD
ATOM     15  O   UNL     1       0.469   4.429  -0.977  1.00  0.00    -0.274 OA
BRANCH  13  16
ATOM     16  C   UNL     1      -0.320   0.964  -1.316  1.00  0.00     0.044 A 
ATOM     17  C   UNL     1       2.030  -0.082  -0.982  1.00  0.00     0.047 C 
ATOM     18  C   UNL     1       0.528  -0.137  -1.084  1.00  0.00    -0.024 A 
ATOM     19  C   UNL     1      -0.059  -1.382  -0.790  1.00  0.00     0.052 A 
ATOM     20  C   UNL     1      -1.443  -1.555  -0.790  1.00  0.00     0.126 A 
ATOM     21  C   UNL     1      -1.689   0.746  -1.470  1.00  0.00     0.030 A 
ATOM     22  C   UNL     1      -2.251  -0.502  -1.199  1.00  0.00     0.049 A 
BRANCH  20  23
ATOM     23  O   UNL     1      -1.873  -2.783  -0.383  1.00  0.00    -0.435 OA
BRANCH  23  24
ATOM     24  C   UNL     1      -3.235  -2.904   0.001  1.00  0.00     0.542 C 
ATOM     25  F   UNL     1      -3.598  -1.897   0.833  1.00  0.00    -0.167 F 
ATOM     26  F   UNL     1      -4.022  -2.839  -1.103  1.00  0.00    -0.167 F 
ENDBRANCH  23  24
ENDBRANCH  20  23
ENDBRANCH  13  16
ENDBRANCH   7  12
ENDBRANCH   3   6
ENDBRANCH   1   2
BRANCH   1  27
ATOM     27  C   UNL     1       1.797   2.771   1.414  1.00  0.00     0.042 C 
BRANCH  27  28
ATOM     28  C   UNL     1       3.194   2.853   1.972  1.00  0.00     0.118 C 
BRANCH  28  29
ATOM     29  N   UNL     1       4.042   1.785   1.448  1.00  0.00    -0.352 N 
ATOM     30  C   UNL     1       4.894   1.181   2.343  1.00  0.00     0.251 C 
ATOM     31  H   UNL     1       4.005   1.512   0.503  1.00  0.00     0.163 HD
ATOM     32  O   UNL     1       4.416   0.346   3.106  1.00  0.00    -0.269 OA
BRANCH  30  33
ATOM     33  C   UNL     1       6.257   1.810   2.575  1.00  0.00     0.039 A 
ATOM     34  C   UNL     1       6.862   1.181   3.667  1.00  0.00     0.014 A 
ATOM     35  C   UNL     1       6.148   3.198   2.608  1.00  0.00     0.014 A 
ATOM     36  C   UNL     1       6.564   1.696   4.916  1.00  0.00     0.010 A 
ATOM     37  C   UNL     1       5.779   3.723   3.827  1.00  0.00     0.010 A 
ATOM     38  C   UNL     1       5.861   2.896   4.954  1.00  0.00    -0.014 A 
BRANCH  38  39
ATOM     39  C   UNL     1       5.129   3.322   6.126  1.00  0.00     0.031 A 
ATOM     40  C   UNL     1       5.827   4.245   7.026  1.00  0.00     0.074 A 
ATOM     41  C   UNL     1       3.891   2.839   6.380  1.00  0.00     0.049 A 
ATOM     42  N   UNL     1       5.559   4.386   8.274  1.00  0.00    -0.248 NA
ATOM     43  C   UNL     1       6.998   5.010   6.590  1.00  0.00     0.031 C 
ATOM     44  C   UNL     1       2.965   3.281   7.421  1.00  0.00     0.029 A 
ATOM     45  N   UNL     1       3.314   1.655   5.897  1.00  0.00    -0.354 N 
ATOM     46  C   UNL     1       6.273   5.478   8.699  1.00  0.00     0.074 A 
ATOM     47  C   UNL     1       7.279   5.695   7.699  1.00  0.00     0.031 C 
ATOM     48  C   UNL     1       2.144   2.259   7.720  1.00  0.00     0.029 A 
ATOM     49  C   UNL     1       2.622   1.097   6.983  1.00  0.00     0.049 A 
ATOM     50  H   UNL     1       3.381   1.291   4.985  1.00  0.00     0.167 HD
ATOM     51  C   UNL     1       5.782   6.197   9.741  1.00  0.00     0.037 A 
ATOM     52  C   UNL     1       2.942  -0.101   7.552  1.00  0.00     0.037 A 
ATOM     53  C   UNL     1       4.829   5.385  10.501  1.00  0.00     0.049 A 
ATOM     54  C   UNL     1       3.304   0.050   9.026  1.00  0.00     0.074 A 
ATOM     55  C   UNL     1       3.453   5.400  10.634  1.00  0.00     0.029 A 
ATOM     56  N   UNL     1       5.255   4.149  10.998  1.00  0.00    -0.354 N 
ATOM     57  N   UNL     1       3.688   1.170   9.585  1.00  0.00    -0.248 NA
ATOM     58  C   UNL     1       3.239  -1.049   9.985  1.00  0.00     0.031 C 
ATOM     59  C   UNL     1       3.048   4.104  11.073  1.00  0.00     0.029 A 
ATOM     60  C   UNL     1       4.179   3.326  11.270  1.00  0.00     0.049 A 
ATOM     61  H   UNL     1       6.197   3.899  11.136  1.00  0.00     0.167 HD
ATOM     62  C   UNL     1       3.935   0.967  10.922  1.00  0.00     0.074 A 
ATOM     63  C   UNL     1       3.616  -0.437  11.122  1.00  0.00     0.031 C 
ATOM     64  C   UNL     1       4.385   1.959  11.755  1.00  0.00     0.037 A 
BRANCH  51  65
ATOM     65  C   UNL     1       5.990   7.695   9.880  1.00  0.00     0.058 A 
ATOM     66  C   UNL     1       5.488   8.385  11.002  1.00  0.00     0.135 A 
ATOM     67  C   UNL     1       6.541   8.538   8.880  1.00  0.00     0.135 A 
ATOM     68  F   UNL     1       4.899   7.721  12.008  1.00  0.00    -0.206 F 
ATOM     69  C   UNL     1       5.534   9.783  11.120  1.00  0.00     0.059 A 
ATOM     70  C   UNL     1       6.648   9.922   9.001  1.00  0.00     0.059 A 
ATOM     71  F   UNL     1       6.940   8.086   7.686  1.00  0.00    -0.206 F 
ATOM     72  C   UNL     1       6.121  10.544  10.115  1.00  0.00     0.060 A 
BRANCH  72  73
ATOM     73  S   UNL     1       6.169  12.341  10.241  1.00  0.00     0.124 S 
ATOM     74  O   UNL     1       4.769  12.694  10.034  1.00  0.00    -0.237 OA
ATOM     75  O   UNL     1       6.688  12.546  11.588  1.00  0.00    -0.237 OA
ATOM     76  O   UNL     1       7.075  12.733   9.164  1.00  0.00    -0.744 OA
ENDBRANCH  72  73
ENDBRANCH  51  65
BRANCH  52  77
ATOM     77  C   UNL     1       3.495  -1.121   6.611  1.00  0.00     0.058 A 
ATOM     78  C   UNL     1       2.653  -1.634   5.601  1.00  0.00     0.135 A 
ATOM     79  C   UNL     1       4.872  -1.328   6.450  1.00  0.00     0.135 A 
ATOM     80  F   UNL     1       1.322  -1.485   5.704  1.00  0.00    -0.206 F 
ATOM     81  C   UNL     1       3.153  -2.213   4.433  1.00  0.00     0.059 A 
ATOM     82  C   UNL     1       5.397  -1.909   5.286  1.00  0.00     0.059 A 
ATOM     83  F   UNL     1       5.733  -0.858   7.364  1.00  0.00    -0.206 F 
ATOM     84  C   UNL     1       4.532  -2.308   4.261  1.00  0.00     0.060 A 
BRANCH  84  85
ATOM     85  S   UNL     1       5.187  -2.739   2.615  1.00  0.00     0.124 S 
ATOM     86  O   UNL     1       5.210  -4.196   2.682  1.00  0.00    -0.237 OA
ATOM     87  O   UNL     1       4.207  -2.183   1.680  1.00  0.00    -0.237 OA
ATOM     88  O   UNL     1       6.500  -2.097   2.588  1.00  0.00    -0.744 OA
ENDBRANCH  84  85
ENDBRANCH  52  77
BRANCH  64  89
ATOM     89  C   UNL     1       4.991   1.761  13.142  1.00  0.00     0.058 A 
ATOM     90  C   UNL     1       5.550   0.556  13.609  1.00  0.00     0.135 A 
ATOM     91  C   UNL     1       5.162   2.866  14.018  1.00  0.00     0.135 A 
ATOM     92  F   UNL     1       5.590  -0.544  12.846  1.00  0.00    -0.206 F 
ATOM     93  C   UNL     1       6.151   0.434  14.867  1.00  0.00     0.059 A 
ATOM     94  C   UNL     1       5.819   2.783  15.245  1.00  0.00     0.059 A 
ATOM     95  F   UNL     1       4.712   4.090  13.704  1.00  0.00    -0.206 F 
ATOM     96  C   UNL     1       6.283   1.553  15.680  1.00  0.00     0.060 A 
BRANCH  96  97
ATOM     97  S   UNL     1       7.117   1.412  17.270  1.00  0.00     0.124 S 
ATOM     98  O   UNL     1       6.015   1.026  18.144  1.00  0.00    -0.237 OA
ATOM     99  O   UNL     1       8.117   0.379  17.021  1.00  0.00    -0.237 OA
ATOM    100  O   UNL     1       7.657   2.753  17.486  1.00  0.00    -0.744 OA
ENDBRANCH  96  97
ENDBRANCH  64  89
ENDBRANCH  38  39
ENDBRANCH  30  33
ENDBRANCH  28  29
ENDBRANCH  27  28
ENDBRANCH   1  27
TORSDOF 17
