REMARK SMILES O=C1Nc2ccc(Br)cc2/C1=N/c1ccc(C(=O)NCCCNC(=O)c2ccc(-c3c4nc(c(-c5c(F)cc(S(=O)(=O)[O-])cc5F)c5ccc([nH]5)c(-c5c(F)cc(S(=O)(=O)[O-])cc5F)c5nc(c(-c6c(F)cc(S(=O)(=O)[O-])cc6F)c6ccc3[nH]6)C=C5)C=C4)cc2)cc1
REMARK SMILES IDX 22 1 21 2 20 3 19 4 17 5 18 6 16 8 13 9 14 10 93 11 15 12
REMARK SMILES IDX 92 13 12 14 1 15 2 16 3 17 11 18 4 19 10 21 5 22 9 23 6 24
REMARK SMILES IDX 7 25 8 26 23 27 24 28 25 30 26 31 27 32 91 33 28 34 90 35
REMARK SMILES IDX 29 36 30 37 31 38 84 39 32 40 89 41 83 42 85 43 33 44 88 45
REMARK SMILES IDX 82 46 81 47 34 49 68 50 47 51 67 52 48 53 51 54 66 55 86 56
REMARK SMILES IDX 49 57 50 58 65 60 87 61 52 62 35 63 36 64 45 65 37 66 38 67
REMARK SMILES IDX 44 68 46 69 39 70 40 71 41 72 42 73 43 74 69 75 70 76 79 77
REMARK SMILES IDX 71 78 72 79 78 80 80 81 73 82 74 83 75 84 76 85 77 86 53 87
REMARK SMILES IDX 54 88 63 89 55 90 56 91 62 92 64 93 57 94 58 95 59 96 60 97
REMARK SMILES IDX 61 98
REMARK H PARENT 19 7 3 20 23 29 85 48 51 59
REMARK Flexibility Score: inf
ROOT
ATOM      1  C   UNL     1       9.737   4.393  -4.004  1.00  0.00     0.118 C 
ENDROOT
BRANCH   1   2
ATOM      2  C   UNL     1       8.463   3.716  -3.505  1.00  0.00     0.042 C 
BRANCH   2   3
ATOM      3  C   UNL     1       8.565   3.225  -2.060  1.00  0.00     0.118 C 
BRANCH   3   4
ATOM      4  N   UNL     1       8.500   4.335  -1.126  1.00  0.00    -0.352 N 
ATOM      5  C   UNL     1       7.491   4.790  -0.316  1.00  0.00     0.251 C 
ATOM      6  O   UNL     1       7.739   5.725   0.444  1.00  0.00    -0.269 OA
ATOM      7  H   UNL     1       9.332   4.857  -1.063  1.00  0.00     0.163 HD
BRANCH   5   8
ATOM      8  C   UNL     1       6.142   4.162  -0.277  1.00  0.00     0.039 A 
ATOM      9  C   UNL     1       3.635   2.914  -0.007  1.00  0.00     0.064 A 
ATOM     10  C   UNL     1       4.205   3.579   1.076  1.00  0.00     0.029 A 
ATOM     11  C   UNL     1       4.279   2.954  -1.245  1.00  0.00     0.029 A 
ATOM     12  C   UNL     1       5.454   4.195   0.945  1.00  0.00     0.016 A 
ATOM     13  C   UNL     1       5.516   3.586  -1.384  1.00  0.00     0.016 A 
BRANCH   9  14
ATOM     14  N   UNL     1       2.391   2.290   0.117  1.00  0.00    -0.243 NA
ATOM     15  O   UNL     1       4.660   0.127   0.145  1.00  0.00    -0.267 OA
ATOM     16  C   UNL     1       3.469  -0.061   0.114  1.00  0.00     0.275 C 
ATOM     17  N   UNL     1       2.816  -1.280   0.066  1.00  0.00    -0.320 N 
ATOM     18  C   UNL     1       2.339   0.996   0.136  1.00  0.00     0.138 C 
ATOM     19  C   UNL     1       1.437  -1.111   0.074  1.00  0.00     0.051 A 
ATOM     20  H   UNL     1       3.269  -2.153   0.031  1.00  0.00     0.170 HD
ATOM     21  C   UNL     1       1.093   0.237   0.136  1.00  0.00     0.031 A 
ATOM     22  C   UNL     1       0.471  -2.092   0.014  1.00  0.00     0.028 A 
ATOM     23  C   UNL     1      -0.215   0.677   0.134  1.00  0.00     0.028 A 
ATOM     24  C   UNL     1      -0.868  -1.676   0.011  1.00  0.00     0.018 A 
ATOM     25  C   UNL     1      -1.200  -0.306   0.071  1.00  0.00     0.018 A 
ATOM     26  Br  UNL     1      -3.021   0.206   0.051  1.00  0.00    -0.051 Br
ENDBRANCH   9  14
ENDBRANCH   5   8
ENDBRANCH   3   4
ENDBRANCH   2   3
ENDBRANCH   1   2
BRANCH   1  27
ATOM     27  N   UNL     1      10.842   3.452  -4.106  1.00  0.00    -0.352 N 
ATOM     28  C   UNL     1      11.619   3.108  -5.181  1.00  0.00     0.251 C 
ATOM     29  H   UNL     1      11.068   2.987  -3.268  1.00  0.00     0.163 HD
ATOM     30  O   UNL     1      12.324   2.104  -5.105  1.00  0.00    -0.269 OA
BRANCH  28  31
ATOM     31  C   UNL     1      11.621   3.921  -6.418  1.00  0.00     0.039 A 
ATOM     32  C   UNL     1      11.785   3.267  -7.643  1.00  0.00     0.014 A 
ATOM     33  C   UNL     1      11.544   5.316  -6.382  1.00  0.00     0.014 A 
ATOM     34  C   UNL     1      11.846   4.008  -8.825  1.00  0.00     0.010 A 
ATOM     35  C   UNL     1      11.523   6.048  -7.568  1.00  0.00     0.010 A 
ATOM     36  C   UNL     1      11.696   5.404  -8.801  1.00  0.00    -0.014 A 
BRANCH  36  37
ATOM     37  C   UNL     1      11.748   6.195 -10.058  1.00  0.00     0.031 A 
ATOM     38  C   UNL     1      12.849   7.199 -10.280  1.00  0.00     0.074 A 
ATOM     39  C   UNL     1      10.790   6.022 -10.990  1.00  0.00     0.049 A 
ATOM     40  N   UNL     1      13.056   7.984 -11.306  1.00  0.00    -0.248 NA
ATOM     41  C   UNL     1      13.836   7.358  -9.199  1.00  0.00     0.031 C 
ATOM     42  C   UNL     1       9.649   5.110 -10.868  1.00  0.00     0.029 A 
ATOM     43  N   UNL     1      10.620   6.599 -12.223  1.00  0.00    -0.354 N 
ATOM     44  C   UNL     1      14.189   8.727 -10.995  1.00  0.00     0.074 A 
ATOM     45  C   UNL     1      14.587   8.348  -9.658  1.00  0.00     0.031 C 
ATOM     46  C   UNL     1       8.921   5.163 -11.995  1.00  0.00     0.029 A 
ATOM     47  C   UNL     1       9.516   6.140 -12.901  1.00  0.00     0.049 A 
ATOM     48  H   UNL     1      11.233   7.278 -12.587  1.00  0.00     0.167 HD
ATOM     49  C   UNL     1      14.854   9.623 -11.764  1.00  0.00     0.037 A 
ATOM     50  C   UNL     1       9.035   6.471 -14.115  1.00  0.00     0.037 A 
ATOM     51  C   UNL     1      14.459   9.982 -13.102  1.00  0.00     0.049 A 
ATOM     52  C   UNL     1       9.780   7.486 -14.941  1.00  0.00     0.074 A 
ATOM     53  C   UNL     1      15.086  10.846 -13.982  1.00  0.00     0.029 A 
ATOM     54  N   UNL     1      13.332   9.499 -13.752  1.00  0.00    -0.354 N 
ATOM     55  N   UNL     1      10.886   8.132 -14.655  1.00  0.00    -0.248 NA
ATOM     56  C   UNL     1       9.216   7.812 -16.258  1.00  0.00     0.031 C 
ATOM     57  C   UNL     1      14.312  10.925 -15.144  1.00  0.00     0.029 A 
ATOM     58  C   UNL     1      13.233  10.065 -15.013  1.00  0.00     0.049 A 
ATOM     59  H   UNL     1      12.696   8.850 -13.373  1.00  0.00     0.167 HD
ATOM     60  C   UNL     1      11.165   8.918 -15.768  1.00  0.00     0.074 A 
ATOM     61  C   UNL     1      10.123   8.652 -16.737  1.00  0.00     0.031 C 
ATOM     62  C   UNL     1      12.190   9.783 -15.969  1.00  0.00     0.037 A 
BRANCH  49  63
ATOM     63  C   UNL     1      16.084  10.269 -11.183  1.00  0.00     0.058 A 
ATOM     64  C   UNL     1      17.261   9.537 -10.951  1.00  0.00     0.135 A 
ATOM     65  C   UNL     1      16.105  11.643 -10.894  1.00  0.00     0.135 A 
ATOM     66  F   UNL     1      17.297   8.218 -11.195  1.00  0.00    -0.206 F 
ATOM     67  C   UNL     1      18.402  10.137 -10.428  1.00  0.00     0.059 A 
ATOM     68  C   UNL     1      17.245  12.271 -10.399  1.00  0.00     0.059 A 
ATOM     69  F   UNL     1      15.010  12.393 -11.095  1.00  0.00    -0.206 F 
ATOM     70  C   UNL     1      18.385  11.506 -10.156  1.00  0.00     0.060 A 
BRANCH  70  71
ATOM     71  S   UNL     1      19.879  12.269  -9.489  1.00  0.00     0.124 S 
ATOM     72  O   UNL     1      19.904  11.724  -8.135  1.00  0.00    -0.237 OA
ATOM     73  O   UNL     1      20.912  11.771 -10.391  1.00  0.00    -0.237 OA
ATOM     74  O   UNL     1      19.604  13.699  -9.584  1.00  0.00    -0.744 OA
ENDBRANCH  70  71
ENDBRANCH  49  63
BRANCH  50  75
ATOM     75  C   UNL     1       7.800   5.823 -14.633  1.00  0.00     0.058 A 
ATOM     76  C   UNL     1       7.848   4.946 -15.728  1.00  0.00     0.135 A 
ATOM     77  C   UNL     1       6.547   6.067 -14.050  1.00  0.00     0.135 A 
ATOM     78  F   UNL     1       9.020   4.682 -16.324  1.00  0.00    -0.206 F 
ATOM     79  C   UNL     1       6.698   4.356 -16.242  1.00  0.00     0.059 A 
ATOM     80  C   UNL     1       5.386   5.466 -14.526  1.00  0.00     0.059 A 
ATOM     81  F   UNL     1       6.446   6.883 -12.989  1.00  0.00    -0.206 F 
ATOM     82  C   UNL     1       5.470   4.622 -15.633  1.00  0.00     0.060 A 
BRANCH  82  83
ATOM     83  S   UNL     1       3.988   3.827 -16.289  1.00  0.00     0.124 S 
ATOM     84  O   UNL     1       3.801   4.545 -17.545  1.00  0.00    -0.237 OA
ATOM     85  O   UNL     1       4.413   2.436 -16.406  1.00  0.00    -0.237 OA
ATOM     86  O   UNL     1       2.985   4.084 -15.260  1.00  0.00    -0.744 OA
ENDBRANCH  82  83
ENDBRANCH  50  75
BRANCH  62  87
ATOM     87  C   UNL     1      12.255  10.481 -17.301  1.00  0.00     0.058 A 
ATOM     88  C   UNL     1      11.336  11.480 -17.658  1.00  0.00     0.135 A 
ATOM     89  C   UNL     1      13.277  10.174 -18.215  1.00  0.00     0.135 A 
ATOM     90  F   UNL     1      10.336  11.808 -16.825  1.00  0.00    -0.206 F 
ATOM     91  C   UNL     1      11.409  12.129 -18.886  1.00  0.00     0.059 A 
ATOM     92  C   UNL     1      13.389  10.834 -19.434  1.00  0.00     0.059 A 
ATOM     93  F   UNL     1      14.189   9.234 -17.919  1.00  0.00    -0.206 F 
ATOM     94  C   UNL     1      12.442  11.801 -19.767  1.00  0.00     0.060 A 
BRANCH  94  95
ATOM     95  S   UNL     1      12.541  12.671 -21.345  1.00  0.00     0.124 S 
ATOM     96  O   UNL     1      11.416  12.092 -22.072  1.00  0.00    -0.237 OA
ATOM     97  O   UNL     1      12.384  14.066 -20.941  1.00  0.00    -0.237 OA
ATOM     98  O   UNL     1      13.864  12.315 -21.848  1.00  0.00    -0.744 OA
ENDBRANCH  94  95
ENDBRANCH  62  87
ENDBRANCH  36  37
ENDBRANCH  28  31
ENDBRANCH   1  27
TORSDOF 14
