REMARK SMILES O=C1O[C@@H](c2ccc(O)c(O)c2)[C@H](C(=O)NCCCNC(=O)c2ccc(-c3c4nc(c(-c5c(F)cc(S(=O)(=O)[O-])cc5F)c5ccc([nH]5)c(-c5c(F)cc(S(=O)(=O)[O-])cc5F)c5nc(c(-c6c(F)cc(S(=O)(=O)[O-])cc6F)c6ccc3[nH]6)C=C5)C=C4)cc2)/C1=C\c1ccc(O)c(O)c1
REMARK SMILES IDX 18 1 17 2 16 3 14 4 15 5 13 7 1 8 2 9 3 10 89 11 4 12 90 13
REMARK SMILES IDX 5 14 6 15 12 16 7 17 10 18 8 19 11 20 9 22 91 24 92 25 98 26
REMARK SMILES IDX 93 27 96 28 94 29 97 30 95 32 19 34 20 35 21 36 22 38 23 39
REMARK SMILES IDX 24 40 88 41 25 42 87 43 26 44 27 45 28 46 81 47 29 48 86 49
REMARK SMILES IDX 80 50 82 51 30 52 85 53 79 54 78 55 31 57 65 58 44 59 64 60
REMARK SMILES IDX 45 61 48 62 63 63 83 64 46 65 47 66 62 68 84 69 49 70 32 71
REMARK SMILES IDX 33 72 42 73 34 74 35 75 41 76 43 77 36 78 37 79 38 80 39 81
REMARK SMILES IDX 40 82 66 83 67 84 76 85 68 86 69 87 75 88 77 89 70 90 71 91
REMARK SMILES IDX 72 92 73 93 74 94 50 95 51 96 60 97 52 98 53 99 59 100
REMARK SMILES IDX 61 101 54 102 55 103 56 104 57 105 58 106
REMARK H PARENT 16 6 11 21 9 23 97 31 95 33 20 37 82 56 48 67
REMARK Flexibility Score: inf
ROOT
ATOM      1  C   UNL     1       5.190   1.427   1.496  1.00  0.00     0.042 C 
ENDROOT
BRANCH   1   2
ATOM      2  C   UNL     1       4.039   0.440   1.554  1.00  0.00     0.117 C 
BRANCH   2   3
ATOM      3  N   UNL     1       2.832   0.975   2.158  1.00  0.00    -0.355 N 
ATOM      4  C   UNL     1       1.554   1.096   1.689  1.00  0.00     0.231 C 
ATOM      5  O   UNL     1       0.704   1.439   2.513  1.00  0.00    -0.274 OA
ATOM      6  H   UNL     1       2.956   1.313   3.074  1.00  0.00     0.163 HD
BRANCH   4   7
ATOM      7  C   UNL     1       1.232   0.920   0.200  1.00  0.00     0.161 C 
ATOM      8  O   UNL     1      -1.891  -0.796  -0.103  1.00  0.00    -0.247 OA
ATOM      9  C   UNL     1      -0.731  -0.426  -0.131  1.00  0.00     0.335 C 
ATOM     10  O   UNL     1       0.343  -1.236  -0.279  1.00  0.00    -0.453 OA
ATOM     11  C   UNL     1      -0.242   0.960  -0.039  1.00  0.00     0.054 C 
ATOM     12  C   UNL     1       1.560  -0.472  -0.332  1.00  0.00     0.224 C 
ATOM     13  C   UNL     1      -1.105   1.974  -0.205  1.00  0.00     0.020 C 
BRANCH  12  14
ATOM     14  C   UNL     1       2.181  -0.481  -1.731  1.00  0.00    -0.002 A 
ATOM     15  C   UNL     1       3.252   0.382  -2.063  1.00  0.00     0.012 A 
ATOM     16  C   UNL     1       1.764  -1.407  -2.699  1.00  0.00     0.057 A 
ATOM     17  C   UNL     1       3.890   0.323  -3.307  1.00  0.00     0.050 A 
ATOM     18  C   UNL     1       2.393  -1.448  -3.939  1.00  0.00     0.157 A 
ATOM     19  C   UNL     1       3.452  -0.598  -4.241  1.00  0.00     0.157 A 
BRANCH  18  20
ATOM     20  O   UNL     1       1.966  -2.351  -4.871  1.00  0.00    -0.504 OA
ATOM     21  H   UNL     1       2.381  -2.390  -5.710  1.00  0.00     0.293 HD
ENDBRANCH  18  20
BRANCH  19  22
ATOM     22  O   UNL     1       4.034  -0.713  -5.472  1.00  0.00    -0.504 OA
ATOM     23  H   UNL     1       4.749  -0.155  -5.706  1.00  0.00     0.293 HD
ENDBRANCH  19  22
ENDBRANCH  12  14
BRANCH  13  24
ATOM     24  C   UNL     1      -0.747   3.390  -0.164  1.00  0.00    -0.021 A 
ATOM     25  C   UNL     1       0.125   3.947  -1.113  1.00  0.00     0.012 A 
ATOM     26  C   UNL     1      -1.327   4.209   0.810  1.00  0.00     0.058 A 
ATOM     27  C   UNL     1       0.443   5.308  -1.073  1.00  0.00     0.051 A 
ATOM     28  C   UNL     1      -1.013   5.560   0.837  1.00  0.00     0.157 A 
ATOM     29  C   UNL     1      -0.130   6.107  -0.091  1.00  0.00     0.157 A 
BRANCH  28  30
ATOM     30  O   UNL     1      -1.583   6.359   1.787  1.00  0.00    -0.504 OA
ATOM     31  H   UNL     1      -1.378   7.273   1.815  1.00  0.00     0.293 HD
ENDBRANCH  28  30
BRANCH  29  32
ATOM     32  O   UNL     1       0.141   7.444   0.002  1.00  0.00    -0.504 OA
ATOM     33  H   UNL     1       0.731   7.845  -0.606  1.00  0.00     0.293 HD
ENDBRANCH  29  32
ENDBRANCH  13  24
ENDBRANCH   4   7
ENDBRANCH   2   3
ENDBRANCH   1   2
BRANCH   1  34
ATOM     34  C   UNL     1       5.744   1.808   2.860  1.00  0.00     0.118 C 
BRANCH  34  35
ATOM     35  N   UNL     1       6.246   0.658   3.602  1.00  0.00    -0.352 N 
ATOM     36  C   UNL     1       7.523   0.332   3.989  1.00  0.00     0.251 C 
ATOM     37  H   UNL     1       5.556   0.008   3.869  1.00  0.00     0.163 HD
ATOM     38  O   UNL     1       7.749  -0.794   4.425  1.00  0.00    -0.269 OA
BRANCH  36  39
ATOM     39  C   UNL     1       8.620   1.315   3.863  1.00  0.00     0.039 A 
ATOM     40  C   UNL     1       9.879   0.876   3.444  1.00  0.00     0.014 A 
ATOM     41  C   UNL     1       8.416   2.663   4.164  1.00  0.00     0.014 A 
ATOM     42  C   UNL     1      10.905   1.804   3.250  1.00  0.00     0.010 A 
ATOM     43  C   UNL     1       9.405   3.596   3.872  1.00  0.00     0.010 A 
ATOM     44  C   UNL     1      10.662   3.177   3.415  1.00  0.00    -0.014 A 
BRANCH  44  45
ATOM     45  C   UNL     1      11.703   4.191   3.104  1.00  0.00     0.031 A 
ATOM     46  C   UNL     1      12.198   5.122   4.179  1.00  0.00     0.074 A 
ATOM     47  C   UNL     1      12.142   4.322   1.836  1.00  0.00     0.049 A 
ATOM     48  N   UNL     1      13.041   6.118   4.081  1.00  0.00    -0.248 NA
ATOM     49  C   UNL     1      11.655   4.931   5.535  1.00  0.00     0.031 C 
ATOM     50  C   UNL     1      11.690   3.519   0.696  1.00  0.00     0.029 A 
ATOM     51  N   UNL     1      13.054   5.189   1.285  1.00  0.00    -0.354 N 
ATOM     52  C   UNL     1      13.111   6.682   5.350  1.00  0.00     0.074 A 
ATOM     53  C   UNL     1      12.192   5.949   6.191  1.00  0.00     0.031 C 
ATOM     54  C   UNL     1      12.337   3.918  -0.410  1.00  0.00     0.029 A 
ATOM     55  C   UNL     1      13.214   5.035  -0.072  1.00  0.00     0.049 A 
ATOM     56  H   UNL     1      13.547   5.858   1.813  1.00  0.00     0.167 HD
ATOM     57  C   UNL     1      13.887   7.706   5.776  1.00  0.00     0.037 A 
ATOM     58  C   UNL     1      13.965   5.726  -0.952  1.00  0.00     0.037 A 
ATOM     59  C   UNL     1      14.826   8.406   4.939  1.00  0.00     0.049 A 
ATOM     60  C   UNL     1      14.827   6.853  -0.447  1.00  0.00     0.074 A 
ATOM     61  C   UNL     1      15.723   9.396   5.298  1.00  0.00     0.029 A 
ATOM     62  N   UNL     1      14.984   8.199   3.576  1.00  0.00    -0.354 N 
ATOM     63  N   UNL     1      14.950   7.311   0.776  1.00  0.00    -0.248 NA
ATOM     64  C   UNL     1      15.658   7.552  -1.436  1.00  0.00     0.031 C 
ATOM     65  C   UNL     1      16.375   9.835   4.143  1.00  0.00     0.029 A 
ATOM     66  C   UNL     1      15.937   9.070   3.074  1.00  0.00     0.049 A 
ATOM     67  H   UNL     1      14.492   7.531   3.045  1.00  0.00     0.167 HD
ATOM     68  C   UNL     1      15.890   8.333   0.707  1.00  0.00     0.074 A 
ATOM     69  C   UNL     1      16.317   8.413  -0.674  1.00  0.00     0.031 C 
ATOM     70  C   UNL     1      16.356   9.134   1.696  1.00  0.00     0.037 A 
BRANCH  57  71
ATOM     71  C   UNL     1      13.762   8.143   7.211  1.00  0.00     0.058 A 
ATOM     72  C   UNL     1      14.224   7.350   8.273  1.00  0.00     0.135 A 
ATOM     73  C   UNL     1      13.242   9.411   7.521  1.00  0.00     0.135 A 
ATOM     74  F   UNL     1      14.715   6.122   8.037  1.00  0.00    -0.206 F 
ATOM     75  C   UNL     1      14.163   7.791   9.591  1.00  0.00     0.059 A 
ATOM     76  C   UNL     1      13.199   9.886   8.828  1.00  0.00     0.059 A 
ATOM     77  F   UNL     1      12.781  10.209   6.544  1.00  0.00    -0.206 F 
ATOM     78  C   UNL     1      13.657   9.065   9.857  1.00  0.00     0.060 A 
BRANCH  78  79
ATOM     79  S   UNL     1      13.625   9.637  11.569  1.00  0.00     0.124 S 
ATOM     80  O   UNL     1      12.578   8.794  12.138  1.00  0.00    -0.237 OA
ATOM     81  O   UNL     1      14.984   9.349  12.017  1.00  0.00    -0.237 OA
ATOM     82  O   UNL     1      13.293  11.053  11.449  1.00  0.00    -0.744 OA
ENDBRANCH  78  79
ENDBRANCH  57  71
BRANCH  58  83
ATOM     83  C   UNL     1      13.929   5.382  -2.400  1.00  0.00     0.058 A 
ATOM     84  C   UNL     1      15.047   4.838  -3.049  1.00  0.00     0.135 A 
ATOM     85  C   UNL     1      12.772   5.598  -3.166  1.00  0.00     0.135 A 
ATOM     86  F   UNL     1      16.179   4.617  -2.363  1.00  0.00    -0.206 F 
ATOM     87  C   UNL     1      15.032   4.547  -4.410  1.00  0.00     0.059 A 
ATOM     88  C   UNL     1      12.721   5.285  -4.520  1.00  0.00     0.059 A 
ATOM     89  F   UNL     1      11.666   6.096  -2.591  1.00  0.00    -0.206 F 
ATOM     90  C   UNL     1      13.862   4.774  -5.137  1.00  0.00     0.060 A 
BRANCH  90  91
ATOM     91  S   UNL     1      13.837   4.363  -6.895  1.00  0.00     0.124 S 
ATOM     92  O   UNL     1      14.672   5.419  -7.455  1.00  0.00    -0.237 OA
ATOM     93  O   UNL     1      14.409   3.020  -6.903  1.00  0.00    -0.237 OA
ATOM     94  O   UNL     1      12.418   4.432  -7.234  1.00  0.00    -0.744 OA
ENDBRANCH  90  91
ENDBRANCH  58  83
BRANCH  70  95
ATOM     95  C   UNL     1      17.408  10.147   1.334  1.00  0.00     0.058 A 
ATOM     96  C   UNL     1      17.110  11.280   0.561  1.00  0.00     0.135 A 
ATOM     97  C   UNL     1      18.720  10.010   1.817  1.00  0.00     0.135 A 
ATOM     98  F   UNL     1      15.874  11.456   0.068  1.00  0.00    -0.206 F 
ATOM     99  C   UNL     1      18.082  12.228   0.258  1.00  0.00     0.059 A 
ATOM    100  C   UNL     1      19.699  10.963   1.555  1.00  0.00     0.059 A 
ATOM    101  F   UNL     1      19.057   8.951   2.571  1.00  0.00    -0.206 F 
ATOM    102  C   UNL     1      19.373  12.063   0.764  1.00  0.00     0.060 A 
BRANCH 102 103
ATOM    103  S   UNL     1      20.613  13.320   0.391  1.00  0.00     0.124 S 
ATOM    104  O   UNL     1      20.866  13.073  -1.024  1.00  0.00    -0.237 OA
ATOM    105  O   UNL     1      19.905  14.557   0.703  1.00  0.00    -0.237 OA
ATOM    106  O   UNL     1      21.714  12.989   1.292  1.00  0.00    -0.744 OA
ENDBRANCH 102 103
ENDBRANCH  70  95
ENDBRANCH  44  45
ENDBRANCH  36  39
ENDBRANCH  34  35
ENDBRANCH   1  34
TORSDOF 19
