REMARK SMILES CC(C)c1cc(OCC(=O)NCCCNC(=O)c2ccc(-c3c4nc(c(-c5c(F)cc(S(=O)(=O)[O-])cc5F)c5ccc([nH]5)c(-c5c(F)cc(S(=O)(=O)[O-])cc5F)c5nc(c(-c6c(F)cc(S(=O)(=O)[O-])cc6F)c6ccc3[nH]6)C=C5)C=C4)cc2)nc(Nc2ccc(F)cc2F)n1
REMARK SMILES IDX 12 1 11 2 9 3 10 4 8 6 7 7 6 8 4 9 5 10 95 11 85 12 84 13
REMARK SMILES IDX 2 14 1 15 3 16 86 17 87 19 88 20 93 21 89 22 92 23 94 24
REMARK SMILES IDX 90 25 91 26 13 27 14 28 15 29 16 30 17 32 18 33 19 34 83 35
REMARK SMILES IDX 20 36 82 37 21 38 22 39 23 40 76 41 24 42 81 43 75 44 77 45
REMARK SMILES IDX 25 46 80 47 74 48 73 49 26 51 60 52 39 53 59 54 40 55 43 56
REMARK SMILES IDX 58 57 78 58 41 59 42 60 57 62 79 63 44 64 27 65 28 66 37 67
REMARK SMILES IDX 29 68 30 69 36 70 38 71 31 72 32 73 33 74 34 75 35 76 61 77
REMARK SMILES IDX 62 78 71 79 63 80 64 81 70 82 72 83 65 84 66 85 67 86 68 87
REMARK SMILES IDX 69 88 45 89 46 90 55 91 47 92 48 93 54 94 56 95 49 96 50 97
REMARK SMILES IDX 51 98 52 99 53 100
REMARK H PARENT 11 5 86 18 15 31 77 50 43 61
REMARK Flexibility Score: inf
ROOT
ATOM      1  C   UNL     1      -4.456  -4.783  -3.458  1.00  0.00     0.117 C 
ENDROOT
BRANCH   1   2
ATOM      2  N   UNL     1      -3.059  -5.058  -3.175  1.00  0.00    -0.353 N 
ATOM      3  C   UNL     1      -2.430  -5.075  -1.966  1.00  0.00     0.258 C 
ATOM      4  O   UNL     1      -1.240  -5.394  -1.917  1.00  0.00    -0.271 OA
ATOM      5  H   UNL     1      -2.494  -5.257  -3.956  1.00  0.00     0.163 HD
BRANCH   3   6
ATOM      6  C   UNL     1      -3.211  -4.720  -0.695  1.00  0.00     0.331 C 
BRANCH   6   7
ATOM      7  O   UNL     1      -3.798  -3.432  -0.654  1.00  0.00    -0.467 OA
BRANCH   7   8
ATOM      8  C   UNL     1      -2.973  -2.343  -0.612  1.00  0.00     0.218 A 
ATOM      9  C   UNL     1      -0.923  -1.194  -0.572  1.00  0.00     0.052 A 
ATOM     10  C   UNL     1      -1.597  -2.395  -0.557  1.00  0.00     0.092 A 
ATOM     11  N   UNL     1      -1.598  -0.035  -0.639  1.00  0.00    -0.217 NA
ATOM     12  C   UNL     1      -2.939  -0.057  -0.667  1.00  0.00     0.230 A 
ATOM     13  N   UNL     1      -3.654  -1.186  -0.640  1.00  0.00    -0.177 NA
BRANCH   9  14
ATOM     14  C   UNL     1       0.596  -1.104  -0.600  1.00  0.00     0.032 C 
ATOM     15  C   UNL     1       1.098   0.194   0.048  1.00  0.00     0.014 C 
ATOM     16  C   UNL     1       1.308  -2.290   0.063  1.00  0.00     0.014 C 
ENDBRANCH   9  14
BRANCH  12  17
ATOM     17  N   UNL     1      -3.639   1.144  -0.620  1.00  0.00    -0.322 N 
ATOM     18  H   UNL     1      -4.611   1.073  -0.479  1.00  0.00     0.170 HD
BRANCH  17  19
ATOM     19  C   UNL     1      -3.129   2.441  -0.747  1.00  0.00     0.077 A 
ATOM     20  C   UNL     1      -3.452   3.405   0.218  1.00  0.00     0.032 A 
ATOM     21  C   UNL     1      -2.211   2.795  -1.754  1.00  0.00     0.149 A 
ATOM     22  C   UNL     1      -2.855   4.669   0.186  1.00  0.00     0.041 A 
ATOM     23  C   UNL     1      -1.629   4.057  -1.804  1.00  0.00     0.080 A 
ATOM     24  F   UNL     1      -1.904   1.921  -2.726  1.00  0.00    -0.205 F 
ATOM     25  C   UNL     1      -1.949   4.980  -0.822  1.00  0.00     0.126 A 
ATOM     26  F   UNL     1      -1.368   6.187  -0.836  1.00  0.00    -0.207 F 
ENDBRANCH  17  19
ENDBRANCH  12  17
ENDBRANCH   7   8
ENDBRANCH   6   7
ENDBRANCH   3   6
ENDBRANCH   1   2
BRANCH   1  27
ATOM     27  C   UNL     1      -4.671  -3.438  -4.142  1.00  0.00     0.042 C 
BRANCH  27  28
ATOM     28  C   UNL     1      -3.986  -3.296  -5.500  1.00  0.00     0.118 C 
BRANCH  28  29
ATOM     29  N   UNL     1      -4.412  -4.304  -6.464  1.00  0.00    -0.352 N 
ATOM     30  C   UNL     1      -5.056  -4.177  -7.669  1.00  0.00     0.251 C 
ATOM     31  H   UNL     1      -4.201  -5.231  -6.208  1.00  0.00     0.163 HD
ATOM     32  O   UNL     1      -5.470  -5.190  -8.235  1.00  0.00    -0.269 OA
BRANCH  30  33
ATOM     33  C   UNL     1      -5.281  -2.849  -8.280  1.00  0.00     0.039 A 
ATOM     34  C   UNL     1      -6.521  -2.580  -8.867  1.00  0.00     0.014 A 
ATOM     35  C   UNL     1      -4.278  -1.877  -8.299  1.00  0.00     0.014 A 
ATOM     36  C   UNL     1      -6.785  -1.310  -9.388  1.00  0.00     0.010 A 
ATOM     37  C   UNL     1      -4.564  -0.591  -8.754  1.00  0.00     0.010 A 
ATOM     38  C   UNL     1      -5.826  -0.288  -9.288  1.00  0.00    -0.014 A 
BRANCH  38  39
ATOM     39  C   UNL     1      -6.144   1.110  -9.681  1.00  0.00     0.031 A 
ATOM     40  C   UNL     1      -5.397   1.784 -10.798  1.00  0.00     0.074 A 
ATOM     41  C   UNL     1      -7.060   1.799  -8.970  1.00  0.00     0.049 A 
ATOM     42  N   UNL     1      -5.479   3.021 -11.217  1.00  0.00    -0.248 NA
ATOM     43  C   UNL     1      -4.415   0.968 -11.528  1.00  0.00     0.031 C 
ATOM     44  C   UNL     1      -7.822   1.269  -7.836  1.00  0.00     0.029 A 
ATOM     45  N   UNL     1      -7.495   3.097  -9.080  1.00  0.00    -0.354 N 
ATOM     46  C   UNL     1      -4.556   3.137 -12.249  1.00  0.00     0.074 A 
ATOM     47  C   UNL     1      -3.893   1.855 -12.364  1.00  0.00     0.031 C 
ATOM     48  C   UNL     1      -8.639   2.225  -7.367  1.00  0.00     0.029 A 
ATOM     49  C   UNL     1      -8.425   3.450  -8.130  1.00  0.00     0.049 A 
ATOM     50  H   UNL     1      -7.171   3.716  -9.774  1.00  0.00     0.167 HD
ATOM     51  C   UNL     1      -4.298   4.208 -13.039  1.00  0.00     0.037 A 
ATOM     52  C   UNL     1      -9.024   4.632  -7.884  1.00  0.00     0.037 A 
ATOM     53  C   UNL     1      -4.968   5.479 -12.921  1.00  0.00     0.049 A 
ATOM     54  C   UNL     1      -8.695   5.815  -8.754  1.00  0.00     0.074 A 
ATOM     55  C   UNL     1      -4.817   6.606 -13.710  1.00  0.00     0.029 A 
ATOM     56  N   UNL     1      -5.905   5.798 -11.948  1.00  0.00    -0.354 N 
ATOM     57  N   UNL     1      -7.870   5.886  -9.771  1.00  0.00    -0.248 NA
ATOM     58  C   UNL     1      -9.379   7.078  -8.443  1.00  0.00     0.031 C 
ATOM     59  C   UNL     1      -5.619   7.623 -13.181  1.00  0.00     0.029 A 
ATOM     60  C   UNL     1      -6.316   7.113 -12.097  1.00  0.00     0.049 A 
ATOM     61  H   UNL     1      -6.231   5.180 -11.255  1.00  0.00     0.167 HD
ATOM     62  C   UNL     1      -7.950   7.195 -10.234  1.00  0.00     0.074 A 
ATOM     63  C   UNL     1      -8.919   7.874  -9.399  1.00  0.00     0.031 C 
ATOM     64  C   UNL     1      -7.279   7.782 -11.257  1.00  0.00     0.037 A 
BRANCH  51  65
ATOM     65  C   UNL     1      -3.240   4.058 -14.101  1.00  0.00     0.058 A 
ATOM     66  C   UNL     1      -3.437   3.248 -15.230  1.00  0.00     0.135 A 
ATOM     67  C   UNL     1      -2.034   4.773 -14.014  1.00  0.00     0.135 A 
ATOM     68  F   UNL     1      -4.566   2.532 -15.361  1.00  0.00    -0.206 F 
ATOM     69  C   UNL     1      -2.467   3.130 -16.221  1.00  0.00     0.059 A 
ATOM     70  C   UNL     1      -1.062   4.694 -15.007  1.00  0.00     0.059 A 
ATOM     71  F   UNL     1      -1.792   5.565 -12.957  1.00  0.00    -0.206 F 
ATOM     72  C   UNL     1      -1.282   3.858 -16.101  1.00  0.00     0.060 A 
BRANCH  72  73
ATOM     73  S   UNL     1      -0.039   3.699 -17.400  1.00  0.00     0.124 S 
ATOM     74  O   UNL     1       0.454   2.344 -17.168  1.00  0.00    -0.237 OA
ATOM     75  O   UNL     1      -0.830   3.885 -18.612  1.00  0.00    -0.237 OA
ATOM     76  O   UNL     1       0.907   4.769 -17.101  1.00  0.00    -0.744 OA
ENDBRANCH  72  73
ENDBRANCH  51  65
BRANCH  52  77
ATOM     77  C   UNL     1      -9.996   4.753  -6.764  1.00  0.00     0.058 A 
ATOM     78  C   UNL     1     -11.363   4.950  -7.011  1.00  0.00     0.135 A 
ATOM     79  C   UNL     1      -9.582   4.661  -5.426  1.00  0.00     0.135 A 
ATOM     80  F   UNL     1     -11.808   5.053  -8.273  1.00  0.00    -0.206 F 
ATOM     81  C   UNL     1     -12.282   5.067  -5.974  1.00  0.00     0.059 A 
ATOM     82  C   UNL     1     -10.486   4.746  -4.372  1.00  0.00     0.059 A 
ATOM     83  F   UNL     1      -8.288   4.458  -5.134  1.00  0.00    -0.206 F 
ATOM     84  C   UNL     1     -11.834   4.959  -4.656  1.00  0.00     0.060 A 
BRANCH  84  85
ATOM     85  S   UNL     1     -13.043   5.062  -3.319  1.00  0.00     0.124 S 
ATOM     86  O   UNL     1     -13.389   6.479  -3.344  1.00  0.00    -0.237 OA
ATOM     87  O   UNL     1     -14.081   4.143  -3.775  1.00  0.00    -0.237 OA
ATOM     88  O   UNL     1     -12.291   4.616  -2.150  1.00  0.00    -0.744 OA
ENDBRANCH  84  85
ENDBRANCH  52  77
BRANCH  64  89
ATOM     89  C   UNL     1      -7.583   9.227 -11.545  1.00  0.00     0.058 A 
ATOM     90  C   UNL     1      -7.165  10.255 -10.684  1.00  0.00     0.135 A 
ATOM     91  C   UNL     1      -8.261   9.593 -12.719  1.00  0.00     0.135 A 
ATOM     92  F   UNL     1      -6.521   9.961  -9.543  1.00  0.00    -0.206 F 
ATOM     93  C   UNL     1      -7.429  11.592 -10.966  1.00  0.00     0.059 A 
ATOM     94  C   UNL     1      -8.508  10.926 -13.036  1.00  0.00     0.059 A 
ATOM     95  F   UNL     1      -8.676   8.652 -13.582  1.00  0.00    -0.206 F 
ATOM     96  C   UNL     1      -8.099  11.918 -12.146  1.00  0.00     0.060 A 
BRANCH  96  97
ATOM     97  S   UNL     1      -8.405  13.658 -12.514  1.00  0.00     0.124 S 
ATOM     98  O   UNL     1      -9.448  13.985 -11.547  1.00  0.00    -0.237 OA
ATOM     99  O   UNL     1      -7.099  14.263 -12.267  1.00  0.00    -0.237 OA
ATOM    100  O   UNL     1      -8.827  13.642 -13.912  1.00  0.00    -0.744 OA
ENDBRANCH  96  97
ENDBRANCH  64  89
ENDBRANCH  38  39
ENDBRANCH  30  33
ENDBRANCH  28  29
ENDBRANCH  27  28
ENDBRANCH   1  27
TORSDOF 18
