REMARK SMILES CC1(C)C(NC(=O)[C@@H]2CCC[C@@H](C(=O)NCCCNC(=O)c3ccc(-c4c5nc(c(-c6c(F)cc(S(=O)(=O)[O-])cc6F)c6ccc([nH]6)c(-c6c(F)cc(S(=O)(=O)[O-])cc6F)c6nc(c(-c7c(F)cc(S(=O)(=O)[O-])cc7F)c7ccc4[nH]7)C=C6)C=C5)cc3)C2)C1(C)C
REMARK SMILES IDX 17 1 16 2 15 3 13 4 14 5 12 7 8 8 9 9 88 10 10 11 11 12 6 13
REMARK SMILES IDX 5 14 7 16 4 17 1 18 2 19 3 20 89 21 90 22 91 23 18 24 19 25
REMARK SMILES IDX 20 26 21 28 22 29 23 30 87 31 24 32 86 33 25 34 26 35 27 36
REMARK SMILES IDX 80 37 28 38 85 39 79 40 81 41 29 42 84 43 78 44 77 45 30 47
REMARK SMILES IDX 64 48 43 49 63 50 44 51 47 52 62 53 82 54 45 55 46 56 61 58
REMARK SMILES IDX 83 59 48 60 31 61 32 62 41 63 33 64 34 65 40 66 42 67 35 68
REMARK SMILES IDX 36 69 37 70 38 71 39 72 65 73 66 74 75 75 67 76 68 77 74 78
REMARK SMILES IDX 76 79 69 80 70 81 71 82 72 83 73 84 49 85 50 86 59 87 51 88
REMARK SMILES IDX 52 89 58 90 60 91 53 92 54 93 55 94 56 95 57 96
REMARK H PARENT 15 6 5 15 19 27 81 46 47 57
REMARK Flexibility Score: inf
ROOT
ATOM      1  C   UNL     1       6.651   7.632   0.412  1.00  0.00     0.042 C 
ENDROOT
BRANCH   1   2
ATOM      2  C   UNL     1       5.545   7.633  -0.631  1.00  0.00     0.117 C 
BRANCH   2   3
ATOM      3  N   UNL     1       5.721   6.584  -1.616  1.00  0.00    -0.356 N 
ATOM      4  C   UNL     1       4.936   5.514  -1.906  1.00  0.00     0.223 C 
ATOM      5  O   UNL     1       5.291   4.779  -2.828  1.00  0.00    -0.275 OA
ATOM      6  H   UNL     1       6.539   6.659  -2.159  1.00  0.00     0.163 HD
BRANCH   4   7
ATOM      7  C   UNL     1       3.698   5.234  -1.062  1.00  0.00     0.079 C 
ATOM      8  C   UNL     1       2.693   3.221  -2.383  1.00  0.00     0.079 C 
ATOM      9  C   UNL     1       3.199   2.339  -1.232  1.00  0.00     0.013 C 
ATOM     10  C   UNL     1       2.555   4.686  -1.917  1.00  0.00     0.027 C 
ATOM     11  C   UNL     1       4.328   2.905  -0.379  1.00  0.00     0.002 C 
ATOM     12  C   UNL     1       4.037   4.310   0.103  1.00  0.00     0.013 C 
BRANCH   8  13
ATOM     13  C   UNL     1       1.349   2.852  -3.081  1.00  0.00     0.223 C 
ATOM     14  N   UNL     1       0.890   1.570  -3.209  1.00  0.00    -0.352 N 
ATOM     15  H   UNL     1       0.117   1.451  -3.806  1.00  0.00     0.163 HD
ATOM     16  O   UNL     1       0.666   3.724  -3.635  1.00  0.00    -0.275 OA
BRANCH  14  17
ATOM     17  C   UNL     1       1.381   0.394  -2.597  1.00  0.00     0.094 C 
ATOM     18  C   UNL     1       1.169  -0.536  -0.213  1.00  0.00     0.014 C 
ATOM     19  C   UNL     1       0.519  -0.313  -1.561  1.00  0.00    -0.007 C 
ATOM     20  C   UNL     1      -0.958  -0.003  -1.419  1.00  0.00     0.014 C 
ATOM     21  C   UNL     1       0.992  -1.038  -2.836  1.00  0.00    -0.007 C 
ATOM     22  C   UNL     1       2.134  -2.037  -2.734  1.00  0.00     0.014 C 
ATOM     23  C   UNL     1       0.084  -1.340  -4.000  1.00  0.00     0.014 C 
ENDBRANCH  14  17
ENDBRANCH   8  13
ENDBRANCH   4   7
ENDBRANCH   2   3
ENDBRANCH   1   2
BRANCH   1  24
ATOM     24  C   UNL     1       8.051   7.806  -0.164  1.00  0.00     0.118 C 
BRANCH  24  25
ATOM     25  N   UNL     1       8.183   9.017  -0.963  1.00  0.00    -0.352 N 
ATOM     26  C   UNL     1       9.010  10.100  -0.804  1.00  0.00     0.251 C 
ATOM     27  H   UNL     1       7.583   9.066  -1.742  1.00  0.00     0.163 HD
ATOM     28  O   UNL     1       8.816  11.107  -1.480  1.00  0.00    -0.269 OA
BRANCH  26  29
ATOM     29  C   UNL     1      10.113  10.066   0.179  1.00  0.00     0.039 A 
ATOM     30  C   UNL     1      10.385  11.216   0.924  1.00  0.00     0.014 A 
ATOM     31  C   UNL     1      10.898   8.922   0.348  1.00  0.00     0.014 A 
ATOM     32  C   UNL     1      11.408  11.199   1.875  1.00  0.00     0.010 A 
ATOM     33  C   UNL     1      11.855   8.878   1.357  1.00  0.00     0.010 A 
ATOM     34  C   UNL     1      12.131  10.020   2.122  1.00  0.00    -0.014 A 
BRANCH  34  35
ATOM     35  C   UNL     1      13.185   9.975   3.166  1.00  0.00     0.031 A 
ATOM     36  C   UNL     1      14.616   9.698   2.788  1.00  0.00     0.074 A 
ATOM     37  C   UNL     1      12.845  10.133   4.460  1.00  0.00     0.049 A 
ATOM     38  N   UNL     1      15.667   9.588   3.560  1.00  0.00    -0.248 NA
ATOM     39  C   UNL     1      14.899   9.489   1.359  1.00  0.00     0.031 C 
ATOM     40  C   UNL     1      11.483  10.341   4.957  1.00  0.00     0.029 A 
ATOM     41  N   UNL     1      13.615  10.136   5.596  1.00  0.00    -0.354 N 
ATOM     42  C   UNL     1      16.729   9.290   2.715  1.00  0.00     0.074 A 
ATOM     43  C   UNL     1      16.185   9.171   1.380  1.00  0.00     0.031 C 
ATOM     44  C   UNL     1      11.516  10.473   6.292  1.00  0.00     0.029 A 
ATOM     45  C   UNL     1      12.894  10.327   6.751  1.00  0.00     0.049 A 
ATOM     46  H   UNL     1      14.592  10.012   5.585  1.00  0.00     0.167 HD
ATOM     47  C   UNL     1      18.043   9.159   3.017  1.00  0.00     0.037 A 
ATOM     48  C   UNL     1      13.296  10.375   8.036  1.00  0.00     0.037 A 
ATOM     49  C   UNL     1      18.580   9.297   4.346  1.00  0.00     0.049 A 
ATOM     50  C   UNL     1      14.761  10.242   8.349  1.00  0.00     0.074 A 
ATOM     51  C   UNL     1      19.901   9.231   4.753  1.00  0.00     0.029 A 
ATOM     52  N   UNL     1      17.822   9.527   5.485  1.00  0.00    -0.354 N 
ATOM     53  N   UNL     1      15.762  10.031   7.527  1.00  0.00    -0.248 NA
ATOM     54  C   UNL     1      15.155  10.370   9.758  1.00  0.00     0.031 C 
ATOM     55  C   UNL     1      19.937   9.379   6.143  1.00  0.00     0.029 A 
ATOM     56  C   UNL     1      18.645   9.590   6.598  1.00  0.00     0.049 A 
ATOM     57  H   UNL     1      16.843   9.630   5.501  1.00  0.00     0.167 HD
ATOM     58  C   UNL     1      16.907  10.023   8.317  1.00  0.00     0.074 A 
ATOM     59  C   UNL     1      16.474  10.266   9.678  1.00  0.00     0.031 C 
ATOM     60  C   UNL     1      18.198   9.835   7.947  1.00  0.00     0.037 A 
BRANCH  47  61
ATOM     61  C   UNL     1      18.988   8.859   1.883  1.00  0.00     0.058 A 
ATOM     62  C   UNL     1      19.262   9.807   0.882  1.00  0.00     0.135 A 
ATOM     63  C   UNL     1      19.640   7.618   1.801  1.00  0.00     0.135 A 
ATOM     64  F   UNL     1      18.657  11.005   0.902  1.00  0.00    -0.206 F 
ATOM     65  C   UNL     1      20.112   9.520  -0.180  1.00  0.00     0.059 A 
ATOM     66  C   UNL     1      20.520   7.321   0.764  1.00  0.00     0.059 A 
ATOM     67  F   UNL     1      19.420   6.675   2.731  1.00  0.00    -0.206 F 
ATOM     68  C   UNL     1      20.735   8.272  -0.233  1.00  0.00     0.060 A 
BRANCH  68  69
ATOM     69  S   UNL     1      21.825   7.912  -1.625  1.00  0.00     0.124 S 
ATOM     70  O   UNL     1      20.863   7.729  -2.708  1.00  0.00    -0.237 OA
ATOM     71  O   UNL     1      22.643   9.117  -1.702  1.00  0.00    -0.237 OA
ATOM     72  O   UNL     1      22.529   6.705  -1.202  1.00  0.00    -0.744 OA
ENDBRANCH  68  69
ENDBRANCH  47  61
BRANCH  48  73
ATOM     73  C   UNL     1      12.292  10.583   9.113  1.00  0.00     0.058 A 
ATOM     74  C   UNL     1      12.217  11.797   9.810  1.00  0.00     0.135 A 
ATOM     75  C   UNL     1      11.362   9.584   9.439  1.00  0.00     0.135 A 
ATOM     76  F   UNL     1      13.087  12.782   9.537  1.00  0.00    -0.206 F 
ATOM     77  C   UNL     1      11.264  12.012  10.801  1.00  0.00     0.059 A 
ATOM     78  C   UNL     1      10.383   9.783  10.407  1.00  0.00     0.059 A 
ATOM     79  F   UNL     1      11.378   8.411   8.787  1.00  0.00    -0.206 F 
ATOM     80  C   UNL     1      10.347  10.999  11.088  1.00  0.00     0.060 A 
BRANCH  80  81
ATOM     81  S   UNL     1       9.072  11.311  12.329  1.00  0.00     0.124 S 
ATOM     82  O   UNL     1       9.845  11.256  13.565  1.00  0.00    -0.237 OA
ATOM     83  O   UNL     1       8.582  12.629  11.940  1.00  0.00    -0.237 OA
ATOM     84  O   UNL     1       8.130  10.215  12.124  1.00  0.00    -0.744 OA
ENDBRANCH  80  81
ENDBRANCH  48  73
BRANCH  60  85
ATOM     85  C   UNL     1      19.245   9.914   9.025  1.00  0.00     0.058 A 
ATOM     86  C   UNL     1      19.397   8.902   9.984  1.00  0.00     0.135 A 
ATOM     87  C   UNL     1      20.141  10.995   9.064  1.00  0.00     0.135 A 
ATOM     88  F   UNL     1      18.563   7.850   9.995  1.00  0.00    -0.206 F 
ATOM     89  C   UNL     1      20.385   8.970  10.961  1.00  0.00     0.059 A 
ATOM     90  C   UNL     1      21.154  11.069  10.014  1.00  0.00     0.059 A 
ATOM     91  F   UNL     1      20.047  11.986   8.163  1.00  0.00    -0.206 F 
ATOM     92  C   UNL     1      21.261  10.057  10.967  1.00  0.00     0.060 A 
BRANCH  92  93
ATOM     93  S   UNL     1      22.558  10.117  12.220  1.00  0.00     0.124 S 
ATOM     94  O   UNL     1      21.796  10.461  13.416  1.00  0.00    -0.237 OA
ATOM     95  O   UNL     1      23.096   8.761  12.179  1.00  0.00    -0.237 OA
ATOM     96  O   UNL     1      23.458  11.156  11.728  1.00  0.00    -0.744 OA
ENDBRANCH  92  93
ENDBRANCH  60  85
ENDBRANCH  34  35
ENDBRANCH  26  29
ENDBRANCH  24  25
ENDBRANCH   1  24
TORSDOF 15
