REMARK SMILES O=C(NCCCNC(=O)c1ccc(-c2c3nc(c(-c4c(F)cc(S(=O)(=O)[O-])cc4F)c4ccc([nH]4)c(-c4c(F)cc(S(=O)(=O)[O-])cc4F)c4nc(c(-c5c(F)cc(S(=O)(=O)[O-])cc5F)c5ccc2[nH]5)C=C4)C=C3)cc1)c1ccc(-c2ccc(=O)[nH]c2)cc1
REMARK SMILES IDX 6 1 5 2 4 3 3 4 1 5 2 6 76 8 77 9 88 10 78 11 87 12 79 13
REMARK SMILES IDX 80 14 81 15 86 16 82 17 85 18 83 19 84 21 7 22 8 23 9 25
REMARK SMILES IDX 10 26 11 27 75 28 12 29 74 30 13 31 14 32 15 33 68 34 16 35
REMARK SMILES IDX 73 36 67 37 69 38 17 39 72 40 66 41 65 42 18 44 52 45 31 46
REMARK SMILES IDX 51 47 32 48 35 49 50 50 70 51 33 52 34 53 49 55 71 56 36 57
REMARK SMILES IDX 19 58 20 59 29 60 21 61 22 62 28 63 30 64 23 65 24 66 25 67
REMARK SMILES IDX 26 68 27 69 53 70 54 71 63 72 55 73 56 74 62 75 64 76 57 77
REMARK SMILES IDX 58 78 59 79 60 80 61 81 37 82 38 83 47 84 39 85 40 86 46 87
REMARK SMILES IDX 48 88 41 89 42 90 43 91 44 92 45 93
REMARK H PARENT 3 7 85 20 7 24 69 43 35 54
REMARK Flexibility Score: inf
ROOT
ATOM      1  C   UNL     1       4.413   1.810   3.200  1.00  0.00     0.118 C 
ENDROOT
BRANCH   1   2
ATOM      2  C   UNL     1       4.934   1.460   1.815  1.00  0.00     0.042 C 
BRANCH   2   3
ATOM      3  C   UNL     1       4.519   0.082   1.325  1.00  0.00     0.118 C 
BRANCH   3   4
ATOM      4  N   UNL     1       3.077  -0.043   1.153  1.00  0.00    -0.352 N 
ATOM      5  O   UNL     1       1.118  -0.102   0.033  1.00  0.00    -0.269 OA
ATOM      6  C   UNL     1       2.342  -0.176   0.001  1.00  0.00     0.251 C 
ATOM      7  H   UNL     1       2.553  -0.029   1.986  1.00  0.00     0.163 HD
BRANCH   6   8
ATOM      8  C   UNL     1       3.028  -0.399  -1.287  1.00  0.00     0.039 A 
ATOM      9  C   UNL     1       4.002  -1.393  -1.415  1.00  0.00     0.014 A 
ATOM     10  C   UNL     1       2.679   0.390  -2.385  1.00  0.00     0.014 A 
ATOM     11  C   UNL     1       4.702  -1.526  -2.611  1.00  0.00     0.009 A 
ATOM     12  C   UNL     1       3.361   0.230  -3.595  1.00  0.00     0.009 A 
ATOM     13  C   UNL     1       4.389  -0.717  -3.713  1.00  0.00    -0.017 A 
BRANCH  13  14
ATOM     14  C   UNL     1       5.138  -0.859  -4.978  1.00  0.00    -0.002 A 
ATOM     15  C   UNL     1       5.781   0.258  -5.657  1.00  0.00     0.016 A 
ATOM     16  C   UNL     1       5.243  -2.082  -5.532  1.00  0.00     0.094 A 
ATOM     17  C   UNL     1       6.458   0.085  -6.802  1.00  0.00     0.072 A 
ATOM     18  N   UNL     1       5.938  -2.274  -6.699  1.00  0.00    -0.328 N 
ATOM     19  C   UNL     1       6.562  -1.270  -7.396  1.00  0.00     0.247 A 
ATOM     20  H   UNL     1       5.992  -3.189  -7.060  1.00  0.00     0.169 HD
ATOM     21  O   UNL     1       7.168  -1.467  -8.443  1.00  0.00    -0.270 OA
ENDBRANCH  13  14
ENDBRANCH   6   8
ENDBRANCH   3   4
ENDBRANCH   2   3
ENDBRANCH   1   2
BRANCH   1  22
ATOM     22  N   UNL     1       4.893   0.900   4.231  1.00  0.00    -0.352 N 
ATOM     23  C   UNL     1       5.685   1.135   5.329  1.00  0.00     0.251 C 
ATOM     24  H   UNL     1       4.604  -0.035   4.124  1.00  0.00     0.163 HD
ATOM     25  O   UNL     1       6.123   0.181   5.967  1.00  0.00    -0.269 OA
BRANCH  23  26
ATOM     26  C   UNL     1       6.025   2.518   5.732  1.00  0.00     0.039 A 
ATOM     27  C   UNL     1       7.314   2.788   6.202  1.00  0.00     0.014 A 
ATOM     28  C   UNL     1       5.079   3.543   5.673  1.00  0.00     0.014 A 
ATOM     29  C   UNL     1       7.667   4.095   6.549  1.00  0.00     0.010 A 
ATOM     30  C   UNL     1       5.460   4.858   5.922  1.00  0.00     0.010 A 
ATOM     31  C   UNL     1       6.754   5.148   6.378  1.00  0.00    -0.014 A 
BRANCH  31  32
ATOM     32  C   UNL     1       7.120   6.553   6.695  1.00  0.00     0.031 A 
ATOM     33  C   UNL     1       6.366   7.306   7.760  1.00  0.00     0.074 A 
ATOM     34  C   UNL     1       8.085   7.171   5.985  1.00  0.00     0.049 A 
ATOM     35  N   UNL     1       6.484   8.555   8.130  1.00  0.00    -0.248 NA
ATOM     36  C   UNL     1       5.320   6.565   8.484  1.00  0.00     0.031 C 
ATOM     37  C   UNL     1       8.854   6.567   4.894  1.00  0.00     0.029 A 
ATOM     38  N   UNL     1       8.579   8.449   6.067  1.00  0.00    -0.354 N 
ATOM     39  C   UNL     1       5.521   8.752   9.114  1.00  0.00     0.074 A 
ATOM     40  C   UNL     1       4.786   7.513   9.239  1.00  0.00     0.031 C 
ATOM     41  C   UNL     1       9.738   7.464   4.428  1.00  0.00     0.029 A 
ATOM     42  C   UNL     1       9.572   8.719   5.155  1.00  0.00     0.049 A 
ATOM     43  H   UNL     1       8.252   9.111   6.718  1.00  0.00     0.167 HD
ATOM     44  C   UNL     1       5.287   9.855   9.864  1.00  0.00     0.037 A 
ATOM     45  C   UNL     1      10.267   9.850   4.926  1.00  0.00     0.037 A 
ATOM     46  C   UNL     1       6.041  11.077   9.754  1.00  0.00     0.049 A 
ATOM     47  C   UNL     1       9.992  11.063   5.774  1.00  0.00     0.074 A 
ATOM     48  C   UNL     1       5.920  12.233  10.504  1.00  0.00     0.029 A 
ATOM     49  N   UNL     1       7.058  11.301   8.836  1.00  0.00    -0.354 N 
ATOM     50  N   UNL     1       9.117  11.212   6.740  1.00  0.00    -0.248 NA
ATOM     51  C   UNL     1      10.805  12.257   5.509  1.00  0.00     0.031 C 
ATOM     52  C   UNL     1       6.829  13.174  10.008  1.00  0.00     0.029 A 
ATOM     53  C   UNL     1       7.559  12.583   8.989  1.00  0.00     0.049 A 
ATOM     54  H   UNL     1       7.375  10.646   8.174  1.00  0.00     0.167 HD
ATOM     55  C   UNL     1       9.299  12.505   7.221  1.00  0.00     0.074 A 
ATOM     56  C   UNL     1      10.374  13.089   6.446  1.00  0.00     0.031 C 
ATOM     57  C   UNL     1       8.638  13.148   8.216  1.00  0.00     0.037 A 
BRANCH  44  58
ATOM     58  C   UNL     1       4.173   9.789  10.875  1.00  0.00     0.058 A 
ATOM     59  C   UNL     1       4.261   8.980  12.020  1.00  0.00     0.135 A 
ATOM     60  C   UNL     1       3.015  10.568  10.714  1.00  0.00     0.135 A 
ATOM     61  F   UNL     1       5.337   8.202  12.218  1.00  0.00    -0.206 F 
ATOM     62  C   UNL     1       3.229   8.920  12.951  1.00  0.00     0.059 A 
ATOM     63  C   UNL     1       1.984  10.548  11.649  1.00  0.00     0.059 A 
ATOM     64  F   UNL     1       2.876  11.359   9.639  1.00  0.00    -0.206 F 
ATOM     65  C   UNL     1       2.094   9.709  12.757  1.00  0.00     0.060 A 
BRANCH  65  66
ATOM     66  S   UNL     1       0.768   9.623  13.978  1.00  0.00     0.124 S 
ATOM     67  O   UNL     1       0.205   8.304  13.704  1.00  0.00    -0.237 OA
ATOM     68  O   UNL     1       1.494   9.753  15.237  1.00  0.00    -0.237 OA
ATOM     69  O   UNL     1      -0.088  10.753  13.631  1.00  0.00    -0.744 OA
ENDBRANCH  65  66
ENDBRANCH  44  58
BRANCH  45  70
ATOM     70  C   UNL     1      11.309   9.882   3.864  1.00  0.00     0.058 A 
ATOM     71  C   UNL     1      12.671   9.973   4.190  1.00  0.00     0.135 A 
ATOM     72  C   UNL     1      10.967   9.815   2.504  1.00  0.00     0.135 A 
ATOM     73  F   UNL     1      13.049  10.045   5.475  1.00  0.00    -0.206 F 
ATOM     74  C   UNL     1      13.655  10.017   3.208  1.00  0.00     0.059 A 
ATOM     75  C   UNL     1      11.936   9.829   1.504  1.00  0.00     0.059 A 
ATOM     76  F   UNL     1       9.681   9.709   2.138  1.00  0.00    -0.206 F 
ATOM     77  C   UNL     1      13.277   9.942   1.867  1.00  0.00     0.060 A 
BRANCH  77  78
ATOM     78  S   UNL     1      14.566   9.955   0.602  1.00  0.00     0.124 S 
ATOM     79  O   UNL     1      15.007  11.344   0.646  1.00  0.00    -0.237 OA
ATOM     80  O   UNL     1      15.510   8.967   1.117  1.00  0.00    -0.237 OA
ATOM     81  O   UNL     1      13.853   9.556  -0.608  1.00  0.00    -0.744 OA
ENDBRANCH  77  78
ENDBRANCH  45  70
BRANCH  57  82
ATOM     82  C   UNL     1       9.091  14.542   8.560  1.00  0.00     0.058 A 
ATOM     83  C   UNL     1       8.859  15.631   7.707  1.00  0.00     0.135 A 
ATOM     84  C   UNL     1       9.733  14.794   9.784  1.00  0.00     0.135 A 
ATOM     85  F   UNL     1       8.253  15.446   6.523  1.00  0.00    -0.206 F 
ATOM     86  C   UNL     1       9.279  16.916   8.038  1.00  0.00     0.059 A 
ATOM     87  C   UNL     1      10.132  16.075  10.150  1.00  0.00     0.059 A 
ATOM     88  F   UNL     1       9.968  13.790  10.644  1.00  0.00    -0.206 F 
ATOM     89  C   UNL     1       9.915  17.127   9.263  1.00  0.00     0.060 A 
BRANCH  89  90
ATOM     90  S   UNL     1      10.439  18.801   9.689  1.00  0.00     0.124 S 
ATOM     91  O   UNL     1      11.593  18.980   8.814  1.00  0.00    -0.237 OA
ATOM     92  O   UNL     1       9.259  19.593   9.354  1.00  0.00    -0.237 OA
ATOM     93  O   UNL     1      10.741  18.711  11.115  1.00  0.00    -0.744 OA
ENDBRANCH  89  90
ENDBRANCH  57  82
ENDBRANCH  31  32
ENDBRANCH  23  26
ENDBRANCH   1  22
TORSDOF 14
