REMARK SMILES CCCC[C@@H](NS(=O)(=O)c1cc2c3c(c1)c(C)cc(=O)n3CC2)C(=O)NCCCNC(=O)c1ccc(-c2c3nc(c(-c4c(F)cc(S(=O)(=O)[O-])cc4F)c4ccc([nH]4)c(-c4c(F)cc(S(=O)(=O)[O-])cc4F)c4nc(c(-c5c(F)cc(S(=O)(=O)[O-])cc5F)c5ccc2[nH]5)C=C4)C=C3)cc1
REMARK SMILES IDX 28 1 27 2 26 3 24 4 25 5 5 7 4 8 3 9 2 10 1 11 6 12 7 14
REMARK SMILES IDX 8 15 9 16 10 17 11 18 15 19 12 20 14 21 13 22 23 23 16 24
REMARK SMILES IDX 21 25 22 26 17 27 18 28 19 29 20 30 29 31 30 32 31 33 32 35
REMARK SMILES IDX 33 36 34 37 98 38 35 39 97 40 36 41 37 42 38 43 91 44 39 45
REMARK SMILES IDX 96 46 90 47 92 48 40 49 95 50 89 51 88 52 41 54 75 55 54 56
REMARK SMILES IDX 74 57 55 58 58 59 73 60 93 61 56 62 57 63 72 65 94 66 59 67
REMARK SMILES IDX 42 68 43 69 52 70 44 71 45 72 51 73 53 74 46 75 47 76 48 77
REMARK SMILES IDX 49 78 50 79 76 80 77 81 86 82 78 83 79 84 85 85 87 86 80 87
REMARK SMILES IDX 81 88 82 89 83 90 84 91 60 92 61 93 70 94 62 95 63 96 69 97
REMARK SMILES IDX 71 98 64 99 65 100 66 101 67 102 68 103
REMARK H PARENT 26 6 6 13 30 34 92 53 58 64
REMARK Flexibility Score: inf
ROOT
ATOM      1  C   UNL     1       0.861  -2.099   6.118  1.00  0.00     0.042 C 
ENDROOT
BRANCH   1   2
ATOM      2  C   UNL     1      -0.475  -2.270   5.412  1.00  0.00     0.117 C 
BRANCH   2   3
ATOM      3  N   UNL     1      -0.960  -0.975   4.967  1.00  0.00    -0.355 N 
ATOM      4  C   UNL     1      -0.993  -0.438   3.714  1.00  0.00     0.238 C 
ATOM      5  O   UNL     1      -1.163   0.779   3.606  1.00  0.00    -0.273 OA
ATOM      6  H   UNL     1      -1.319  -0.397   5.678  1.00  0.00     0.163 HD
BRANCH   4   7
ATOM      7  C   UNL     1      -0.840  -1.328   2.482  1.00  0.00     0.159 C 
BRANCH   7   8
ATOM      8  C   UNL     1       0.662  -1.594   2.292  1.00  0.00     0.030 C 
BRANCH   8   9
ATOM      9  C   UNL     1       1.065  -2.224   0.959  1.00  0.00     0.002 C 
BRANCH   9  10
ATOM     10  C   UNL     1       0.623  -1.468  -0.294  1.00  0.00    -0.003 C 
ATOM     11  C   UNL     1       1.093  -0.022  -0.337  1.00  0.00     0.004 C 
ENDBRANCH   9  10
ENDBRANCH   8   9
ENDBRANCH   7   8
BRANCH   7  12
ATOM     12  N   UNL     1      -1.629  -2.575   2.603  1.00  0.00    -0.199 NA
ATOM     13  H   UNL     1      -1.438  -2.950   3.532  1.00  0.00     0.142 HD
BRANCH  12  14
ATOM     14  S   UNL     1      -3.304  -2.561   2.428  1.00  0.00     0.241 S 
ATOM     15  O   UNL     1      -3.627  -1.761   1.272  1.00  0.00    -0.207 OA
ATOM     16  O   UNL     1      -3.707  -3.952   2.511  1.00  0.00    -0.207 OA
BRANCH  14  17
ATOM     17  C   UNL     1      -3.930  -1.739   3.880  1.00  0.00     0.083 A 
ATOM     18  C   UNL     1      -3.970  -0.333   3.863  1.00  0.00     0.027 A 
ATOM     19  C   UNL     1      -4.336  -2.481   5.019  1.00  0.00     0.032 A 
ATOM     20  C   UNL     1      -4.229   0.316   5.050  1.00  0.00    -0.020 A 
ATOM     21  C   UNL     1      -4.696  -1.808   6.194  1.00  0.00     0.003 A 
ATOM     22  C   UNL     1      -4.579  -0.427   6.163  1.00  0.00     0.055 A 
ATOM     23  C   UNL     1      -4.098   1.767   5.404  1.00  0.00     0.060 C 
ATOM     24  C   UNL     1      -5.149  -2.393   7.474  1.00  0.00    -0.036 A 
ATOM     25  N   UNL     1      -4.764   0.391   7.264  1.00  0.00    -0.308 N 
ATOM     26  C   UNL     1      -4.482   1.779   6.902  1.00  0.00     0.131 C 
ATOM     27  C   UNL     1      -5.414  -3.864   7.563  1.00  0.00     0.045 C 
ATOM     28  C   UNL     1      -5.348  -1.575   8.532  1.00  0.00     0.075 A 
ATOM     29  C   UNL     1      -5.138  -0.093   8.485  1.00  0.00     0.251 A 
ATOM     30  O   UNL     1      -5.315   0.595   9.484  1.00  0.00    -0.269 OA
ENDBRANCH  14  17
ENDBRANCH  12  14
ENDBRANCH   7  12
ENDBRANCH   4   7
ENDBRANCH   2   3
ENDBRANCH   1   2
BRANCH   1  31
ATOM     31  C   UNL     1       0.717  -1.341   7.429  1.00  0.00     0.118 C 
BRANCH  31  32
ATOM     32  N   UNL     1       0.000  -2.125   8.424  1.00  0.00    -0.352 N 
ATOM     33  C   UNL     1       0.480  -2.631   9.607  1.00  0.00     0.251 C 
ATOM     34  H   UNL     1      -0.945  -2.317   8.225  1.00  0.00     0.163 HD
ATOM     35  O   UNL     1      -0.150  -3.482  10.223  1.00  0.00    -0.269 OA
BRANCH  33  36
ATOM     36  C   UNL     1       1.778  -2.137  10.104  1.00  0.00     0.039 A 
ATOM     37  C   UNL     1       2.766  -3.054  10.463  1.00  0.00     0.014 A 
ATOM     38  C   UNL     1       2.018  -0.760  10.166  1.00  0.00     0.014 A 
ATOM     39  C   UNL     1       4.021  -2.584  10.848  1.00  0.00     0.010 A 
ATOM     40  C   UNL     1       3.289  -0.298  10.480  1.00  0.00     0.010 A 
ATOM     41  C   UNL     1       4.295  -1.206  10.842  1.00  0.00    -0.014 A 
BRANCH  41  42
ATOM     42  C   UNL     1       5.610  -0.690  11.286  1.00  0.00     0.031 A 
ATOM     43  C   UNL     1       5.695   0.085  12.571  1.00  0.00     0.074 A 
ATOM     44  C   UNL     1       6.706  -0.892  10.530  1.00  0.00     0.049 A 
ATOM     45  N   UNL     1       6.736   0.645  13.127  1.00  0.00    -0.248 NA
ATOM     46  C   UNL     1       4.441   0.269  13.324  1.00  0.00     0.031 C 
ATOM     47  C   UNL     1       6.733  -1.604   9.250  1.00  0.00     0.029 A 
ATOM     48  N   UNL     1       8.009  -0.512  10.725  1.00  0.00    -0.354 N 
ATOM     49  C   UNL     1       6.266   1.239  14.291  1.00  0.00     0.074 A 
ATOM     50  C   UNL     1       4.838   1.029  14.334  1.00  0.00     0.031 C 
ATOM     51  C   UNL     1       7.993  -1.624   8.786  1.00  0.00     0.029 A 
ATOM     52  C   UNL     1       8.858  -0.901   9.715  1.00  0.00     0.049 A 
ATOM     53  H   UNL     1       8.310  -0.008  11.516  1.00  0.00     0.167 HD
ATOM     54  C   UNL     1       6.971   1.873  15.255  1.00  0.00     0.037 A 
ATOM     55  C   UNL     1      10.180  -0.692   9.558  1.00  0.00     0.037 A 
ATOM     56  C   UNL     1       8.396   2.059  15.215  1.00  0.00     0.049 A 
ATOM     57  C   UNL     1      10.933   0.057  10.629  1.00  0.00     0.074 A 
ATOM     58  C   UNL     1       9.209   2.649  16.166  1.00  0.00     0.029 A 
ATOM     59  N   UNL     1       9.219   1.661  14.173  1.00  0.00    -0.354 N 
ATOM     60  N   UNL     1      10.485   0.553  11.758  1.00  0.00    -0.248 NA
ATOM     61  C   UNL     1      12.371   0.270  10.409  1.00  0.00     0.031 C 
ATOM     62  C   UNL     1      10.517   2.657  15.675  1.00  0.00     0.029 A 
ATOM     63  C   UNL     1      10.528   2.020  14.444  1.00  0.00     0.049 A 
ATOM     64  H   UNL     1       8.918   1.192  13.361  1.00  0.00     0.167 HD
ATOM     65  C   UNL     1      11.588   1.114  12.392  1.00  0.00     0.074 A 
ATOM     66  C   UNL     1      12.728   0.880  11.531  1.00  0.00     0.031 C 
ATOM     67  C   UNL     1      11.653   1.768  13.578  1.00  0.00     0.037 A 
BRANCH  54  68
ATOM     68  C   UNL     1       6.225   2.395  16.449  1.00  0.00     0.058 A 
ATOM     69  C   UNL     1       5.705   1.527  17.422  1.00  0.00     0.135 A 
ATOM     70  C   UNL     1       6.108   3.777  16.671  1.00  0.00     0.135 A 
ATOM     71  F   UNL     1       5.769   0.198  17.247  1.00  0.00    -0.206 F 
ATOM     72  C   UNL     1       5.099   2.010  18.576  1.00  0.00     0.059 A 
ATOM     73  C   UNL     1       5.530   4.282  17.831  1.00  0.00     0.059 A 
ATOM     74  F   UNL     1       6.580   4.649  15.765  1.00  0.00    -0.206 F 
ATOM     75  C   UNL     1       5.029   3.390  18.778  1.00  0.00     0.060 A 
BRANCH  75  76
ATOM     76  S   UNL     1       4.296   3.994  20.313  1.00  0.00     0.124 S 
ATOM     77  O   UNL     1       2.899   3.609  20.142  1.00  0.00    -0.237 OA
ATOM     78  O   UNL     1       5.040   3.247  21.322  1.00  0.00    -0.237 OA
ATOM     79  O   UNL     1       4.560   5.429  20.276  1.00  0.00    -0.744 OA
ENDBRANCH  75  76
ENDBRANCH  54  68
BRANCH  55  80
ATOM     80  C   UNL     1      10.884  -1.204   8.350  1.00  0.00     0.058 A 
ATOM     81  C   UNL     1      11.836  -2.229   8.447  1.00  0.00     0.135 A 
ATOM     82  C   UNL     1      10.629  -0.671   7.076  1.00  0.00     0.135 A 
ATOM     83  F   UNL     1      12.122  -2.768   9.642  1.00  0.00    -0.206 F 
ATOM     84  C   UNL     1      12.529  -2.691   7.332  1.00  0.00     0.059 A 
ATOM     85  C   UNL     1      11.287  -1.136   5.942  1.00  0.00     0.059 A 
ATOM     86  F   UNL     1       9.716   0.301   6.924  1.00  0.00    -0.206 F 
ATOM     87  C   UNL     1      12.246  -2.138   6.082  1.00  0.00     0.060 A 
BRANCH  87  88
ATOM     88  S   UNL     1      13.133  -2.764   4.639  1.00  0.00     0.124 S 
ATOM     89  O   UNL     1      14.483  -2.274   4.887  1.00  0.00    -0.237 OA
ATOM     90  O   UNL     1      12.941  -4.205   4.768  1.00  0.00    -0.237 OA
ATOM     91  O   UNL     1      12.432  -2.144   3.518  1.00  0.00    -0.744 OA
ENDBRANCH  87  88
ENDBRANCH  55  80
BRANCH  67  92
ATOM     92  C   UNL     1      12.997   2.266  14.035  1.00  0.00     0.058 A 
ATOM     93  C   UNL     1      13.617   3.367  13.425  1.00  0.00     0.135 A 
ATOM     94  C   UNL     1      13.626   1.694  15.153  1.00  0.00     0.135 A 
ATOM     95  F   UNL     1      13.059   3.947  12.350  1.00  0.00    -0.206 F 
ATOM     96  C   UNL     1      14.820   3.876  13.900  1.00  0.00     0.059 A 
ATOM     97  C   UNL     1      14.814   2.207  15.665  1.00  0.00     0.059 A 
ATOM     98  F   UNL     1      13.068   0.647  15.782  1.00  0.00    -0.206 F 
ATOM     99  C   UNL     1      15.407   3.295  15.026  1.00  0.00     0.060 A 
BRANCH  99 100
ATOM    100  S   UNL     1      16.942   4.003  15.658  1.00  0.00     0.124 S 
ATOM    101  O   UNL     1      17.887   3.643  14.606  1.00  0.00    -0.237 OA
ATOM    102  O   UNL     1      16.612   5.421  15.755  1.00  0.00    -0.237 OA
ATOM    103  O   UNL     1      17.134   3.320  16.933  1.00  0.00    -0.744 OA
ENDBRANCH  99 100
ENDBRANCH  67  92
ENDBRANCH  41  42
ENDBRANCH  33  36
ENDBRANCH  31  32
ENDBRANCH   1  31
TORSDOF 19
