REMARK SMILES COc1cc([C@@H]2CC(NCCCNC(=O)c3ccc(-c4c5nc(c(-c6c(F)cc(S(=O)(=O)[O-])cc6F)c6ccc([nH]6)c(-c6c(F)cc(S(=O)(=O)[O-])cc6F)c6nc(c(-c7c(F)cc(S(=O)(=O)[O-])cc7F)c7ccc4[nH]7)C=C6)C=C5)cc3)=[NH+]c3c(C(=O)[O-])cn(-c4ccc(Cl)cc4)c32)cc(OC)c1O
REMARK SMILES IDX 12 1 11 2 10 3 9 4 6 5 7 6 97 7 8 8 83 9 89 10 82 11 84 12
REMARK SMILES IDX 88 13 5 16 3 17 4 18 102 19 99 20 98 21 2 22 1 23 103 24
REMARK SMILES IDX 100 26 101 27 90 28 91 29 96 30 92 31 95 32 93 33 94 34
REMARK SMILES IDX 85 35 86 36 87 37 13 38 14 39 15 41 16 42 17 43 81 44 18 45
REMARK SMILES IDX 80 46 19 47 20 48 21 49 74 50 22 51 79 52 73 53 75 54 23 55
REMARK SMILES IDX 78 56 72 57 71 58 24 60 58 61 37 62 57 63 38 64 41 65 56 66
REMARK SMILES IDX 76 67 39 68 40 69 55 71 77 72 42 73 25 74 26 75 35 76 27 77
REMARK SMILES IDX 28 78 34 79 36 80 29 81 30 82 31 83 32 84 33 85 59 86 60 87
REMARK SMILES IDX 69 88 61 89 62 90 68 91 70 92 63 93 64 94 65 95 66 96 67 97
REMARK SMILES IDX 43 98 44 99 53 100 45 101 46 102 52 103 54 104 47 105 48 106
REMARK SMILES IDX 49 107 50 108 51 109
REMARK H PARENT 9 14 82 15 103 25 13 40 75 59 41 70
REMARK Flexibility Score: inf
ROOT
ATOM      1  C   UNL     1      -4.611   4.890   8.704  1.00  0.00     0.120 C 
ENDROOT
BRANCH   1   2
ATOM      2  C   UNL     1      -5.172   5.735   7.574  1.00  0.00     0.067 C 
BRANCH   2   3
ATOM      3  C   UNL     1      -4.086   6.476   6.794  1.00  0.00     0.235 C 
BRANCH   3   4
ATOM      4  N   UNL     1      -3.270   5.583   5.982  1.00  0.00    -0.278 N 
ATOM      5  C   UNL     1      -2.394   4.613   2.340  1.00  0.00     0.083 C 
ATOM      6  C   UNL     1      -2.292   4.716   3.882  1.00  0.00     0.142 C 
ATOM      7  C   UNL     1      -3.630   5.290   1.841  1.00  0.00     0.078 A 
ATOM      8  C   UNL     1      -3.405   5.470   4.610  1.00  0.00     0.248 C 
ATOM      9  C   UNL     1      -4.487   5.990   2.656  1.00  0.00     0.155 A 
ATOM     10  N   UNL     1      -3.946   5.645   0.537  1.00  0.00    -0.315 N 
ATOM     11  N   UNL     1      -4.431   6.023   4.037  1.00  0.00    -0.243 N 
ATOM     12  C   UNL     1      -5.316   6.837   1.895  1.00  0.00     0.062 A 
ATOM     13  C   UNL     1      -4.931   6.617   0.584  1.00  0.00     0.106 A 
ATOM     14  H   UNL     1      -2.589   5.033   6.432  1.00  0.00     0.304 HD
ATOM     15  H   UNL     1      -5.143   6.450   4.566  1.00  0.00     0.312 HD
BRANCH   5  16
ATOM     16  C   UNL     1      -2.139   3.179   1.914  1.00  0.00    -0.031 A 
ATOM     17  C   UNL     1      -0.556   1.546   1.016  1.00  0.00     0.164 A 
ATOM     18  C   UNL     1      -0.951   2.869   1.238  1.00  0.00     0.055 A 
ATOM     19  C   UNL     1      -1.372   0.500   1.480  1.00  0.00     0.200 A 
ATOM     20  C   UNL     1      -2.605   0.778   2.091  1.00  0.00     0.164 A 
ATOM     21  C   UNL     1      -2.977   2.121   2.290  1.00  0.00     0.055 A 
BRANCH  17  22
ATOM     22  O   UNL     1       0.665   1.460   0.392  1.00  0.00    -0.493 OA
ATOM     23  C   UNL     1       1.169   0.173   0.046  1.00  0.00     0.278 C 
ENDBRANCH  17  22
BRANCH  19  24
ATOM     24  O   UNL     1      -0.818  -0.736   1.485  1.00  0.00    -0.502 OA
ATOM     25  H   UNL     1       0.008  -0.881   1.066  1.00  0.00     0.293 HD
ENDBRANCH  19  24
BRANCH  20  26
ATOM     26  O   UNL     1      -3.532  -0.084   2.614  1.00  0.00    -0.493 OA
ATOM     27  C   UNL     1      -3.281  -1.480   2.598  1.00  0.00     0.278 C 
ENDBRANCH  20  26
ENDBRANCH   5  16
BRANCH  10  28
ATOM     28  C   UNL     1      -3.368   5.202  -0.676  1.00  0.00     0.046 A 
ATOM     29  C   UNL     1      -3.319   3.839  -0.975  1.00  0.00     0.028 A 
ATOM     30  C   UNL     1      -2.941   6.146  -1.621  1.00  0.00     0.028 A 
ATOM     31  C   UNL     1      -2.801   3.414  -2.201  1.00  0.00     0.022 A 
ATOM     32  C   UNL     1      -2.413   5.716  -2.840  1.00  0.00     0.022 A 
ATOM     33  C   UNL     1      -2.345   4.353  -3.125  1.00  0.00     0.041 A 
ATOM     34  Cl  UNL     1      -1.714   3.831  -4.639  1.00  0.00    -0.084 Cl
ENDBRANCH  10  28
BRANCH  12  35
ATOM     35  C   UNL     1      -6.316   7.811   2.302  1.00  0.00     0.077 C 
ATOM     36  O   UNL     1      -6.954   8.518   1.546  1.00  0.00    -0.545 OA
ATOM     37  O   UNL     1      -6.508   7.929   3.638  1.00  0.00    -0.545 OA
ENDBRANCH  12  35
ENDBRANCH   3   4
ENDBRANCH   2   3
ENDBRANCH   1   2
BRANCH   1  38
ATOM     38  N   UNL     1      -3.977   5.680   9.773  1.00  0.00    -0.352 N 
ATOM     39  C   UNL     1      -3.336   5.227  10.916  1.00  0.00     0.251 C 
ATOM     40  H   UNL     1      -4.014   6.657   9.662  1.00  0.00     0.163 HD
ATOM     41  O   UNL     1      -3.157   5.973  11.872  1.00  0.00    -0.269 OA
BRANCH  39  42
ATOM     42  C   UNL     1      -2.867   3.831  10.953  1.00  0.00     0.039 A 
ATOM     43  C   UNL     1      -2.950   3.029  12.095  1.00  0.00     0.014 A 
ATOM     44  C   UNL     1      -2.378   3.313   9.762  1.00  0.00     0.014 A 
ATOM     45  C   UNL     1      -2.610   1.679  11.989  1.00  0.00     0.010 A 
ATOM     46  C   UNL     1      -2.297   1.962   9.601  1.00  0.00     0.010 A 
ATOM     47  C   UNL     1      -2.300   1.152  10.726  1.00  0.00    -0.014 A 
BRANCH  47  48
ATOM     48  C   UNL     1      -2.060  -0.268  10.500  1.00  0.00     0.031 A 
ATOM     49  C   UNL     1      -3.184  -1.144  10.920  1.00  0.00     0.074 A 
ATOM     50  C   UNL     1      -1.040  -0.704   9.723  1.00  0.00     0.049 A 
ATOM     51  N   UNL     1      -3.202  -1.999  11.887  1.00  0.00    -0.248 NA
ATOM     52  C   UNL     1      -4.503  -0.925  10.298  1.00  0.00     0.031 C 
ATOM     53  C   UNL     1      -0.058   0.095   8.974  1.00  0.00     0.029 A 
ATOM     54  N   UNL     1      -0.730  -1.970   9.338  1.00  0.00    -0.354 N 
ATOM     55  C   UNL     1      -4.449  -2.612  11.820  1.00  0.00     0.074 A 
ATOM     56  C   UNL     1      -5.270  -1.760  11.001  1.00  0.00     0.031 C 
ATOM     57  C   UNL     1       0.565  -0.682   8.061  1.00  0.00     0.029 A 
ATOM     58  C   UNL     1       0.161  -2.059   8.268  1.00  0.00     0.049 A 
ATOM     59  H   UNL     1      -1.106  -2.765   9.781  1.00  0.00     0.167 HD
ATOM     60  C   UNL     1      -4.619  -3.907  12.207  1.00  0.00     0.037 A 
ATOM     61  C   UNL     1       0.507  -3.186   7.588  1.00  0.00     0.037 A 
ATOM     62  C   UNL     1      -3.505  -4.361  13.004  1.00  0.00     0.049 A 
ATOM     63  C   UNL     1       0.151  -4.332   8.463  1.00  0.00     0.074 A 
ATOM     64  C   UNL     1      -2.911  -3.912  14.169  1.00  0.00     0.029 A 
ATOM     65  N   UNL     1      -2.568  -5.168  12.400  1.00  0.00    -0.354 N 
ATOM     66  N   UNL     1       0.743  -4.579   9.601  1.00  0.00    -0.248 NA
ATOM     67  C   UNL     1      -1.184  -4.895   8.319  1.00  0.00     0.031 C 
ATOM     68  C   UNL     1      -1.509  -4.043  13.940  1.00  0.00     0.029 A 
ATOM     69  C   UNL     1      -1.330  -4.651  12.697  1.00  0.00     0.049 A 
ATOM     70  H   UNL     1      -2.751  -5.967  11.856  1.00  0.00     0.167 HD
ATOM     71  C   UNL     1      -0.282  -4.941  10.463  1.00  0.00     0.074 A 
ATOM     72  C   UNL     1      -1.436  -5.188   9.598  1.00  0.00     0.031 C 
ATOM     73  C   UNL     1      -0.191  -4.718  11.807  1.00  0.00     0.037 A 
BRANCH  60  74
ATOM     74  C   UNL     1      -5.599  -4.859  11.560  1.00  0.00     0.058 A 
ATOM     75  C   UNL     1      -5.846  -6.112  12.155  1.00  0.00     0.135 A 
ATOM     76  C   UNL     1      -6.111  -4.699  10.251  1.00  0.00     0.135 A 
ATOM     77  F   UNL     1      -5.386  -6.386  13.386  1.00  0.00    -0.206 F 
ATOM     78  C   UNL     1      -6.507  -7.142  11.483  1.00  0.00     0.059 A 
ATOM     79  C   UNL     1      -6.824  -5.689   9.587  1.00  0.00     0.059 A 
ATOM     80  F   UNL     1      -5.861  -3.613   9.510  1.00  0.00    -0.206 F 
ATOM     81  C   UNL     1      -6.985  -6.921  10.194  1.00  0.00     0.060 A 
BRANCH  81  82
ATOM     82  S   UNL     1      -7.766  -8.268   9.291  1.00  0.00     0.124 S 
ATOM     83  O   UNL     1      -6.632  -9.152   9.050  1.00  0.00    -0.237 OA
ATOM     84  O   UNL     1      -8.755  -8.742  10.254  1.00  0.00    -0.237 OA
ATOM     85  O   UNL     1      -8.315  -7.607   8.111  1.00  0.00    -0.744 OA
ENDBRANCH  81  82
ENDBRANCH  60  74
BRANCH  61  86
ATOM     86  C   UNL     1       0.798  -3.348   6.135  1.00  0.00     0.058 A 
ATOM     87  C   UNL     1       1.276  -4.561   5.598  1.00  0.00     0.135 A 
ATOM     88  C   UNL     1       0.337  -2.413   5.196  1.00  0.00     0.135 A 
ATOM     89  F   UNL     1       1.738  -5.520   6.415  1.00  0.00    -0.206 F 
ATOM     90  C   UNL     1       1.223  -4.856   4.224  1.00  0.00     0.059 A 
ATOM     91  C   UNL     1       0.305  -2.678   3.831  1.00  0.00     0.059 A 
ATOM     92  F   UNL     1      -0.205  -1.246   5.575  1.00  0.00    -0.206 F 
ATOM     93  C   UNL     1       0.702  -3.912   3.344  1.00  0.00     0.060 A 
BRANCH  93  94
ATOM     94  S   UNL     1       0.375  -4.335   1.609  1.00  0.00     0.124 S 
ATOM     95  O   UNL     1       1.698  -4.210   1.010  1.00  0.00    -0.237 OA
ATOM     96  O   UNL     1      -0.156  -5.690   1.710  1.00  0.00    -0.237 OA
ATOM     97  O   UNL     1      -0.605  -3.335   1.174  1.00  0.00    -0.744 OA
ENDBRANCH  93  94
ENDBRANCH  61  86
BRANCH  73  98
ATOM     98  C   UNL     1       1.145  -4.301  12.380  1.00  0.00     0.058 A 
ATOM     99  C   UNL     1       1.817  -3.104  12.066  1.00  0.00     0.135 A 
ATOM    100  C   UNL     1       1.688  -5.077  13.413  1.00  0.00     0.135 A 
ATOM    101  F   UNL     1       1.318  -2.248  11.165  1.00  0.00    -0.206 F 
ATOM    102  C   UNL     1       2.990  -2.719  12.720  1.00  0.00     0.059 A 
ATOM    103  C   UNL     1       2.838  -4.699  14.100  1.00  0.00     0.059 A 
ATOM    104  F   UNL     1       1.066  -6.202  13.805  1.00  0.00    -0.206 F 
ATOM    105  C   UNL     1       3.493  -3.525  13.739  1.00  0.00     0.060 A 
BRANCH 105 106
ATOM    106  S   UNL     1       4.973  -2.999  14.633  1.00  0.00     0.124 S 
ATOM    107  O   UNL     1       6.016  -3.174  13.628  1.00  0.00    -0.237 OA
ATOM    108  O   UNL     1       4.658  -1.618  14.986  1.00  0.00    -0.237 OA
ATOM    109  O   UNL     1       5.035  -3.923  15.763  1.00  0.00    -0.744 OA
ENDBRANCH 105 106
ENDBRANCH  73  98
ENDBRANCH  47  48
ENDBRANCH  39  42
ENDBRANCH   1  38
TORSDOF 18
