REMARK SMILES Cc1cc([N+](=O)[O-])ccc1NC(=O)[C@@H]1[C@@H](C(=O)NCCCNC(=O)c2ccc(-c3c4nc(c(-c5c(F)cc(S(=O)(=O)[O-])cc5F)c5ccc([nH]5)c(-c5c(F)cc(S(=O)(=O)[O-])cc5F)c5nc(c(-c6c(F)cc(S(=O)(=O)[O-])cc6F)c6ccc3[nH]6)C=C5)C=C4)cc2)[C@H]2C=C[C@@H]1C2
REMARK SMILES IDX 20 1 19 2 18 3 16 4 17 5 15 7 14 8 94 9 91 10 93 11 95 12
REMARK SMILES IDX 92 13 12 14 11 15 13 17 10 18 1 19 2 20 3 21 4 22 9 23 8 24
REMARK SMILES IDX 5 25 6 26 7 27 21 28 22 29 23 30 24 32 25 33 26 34 90 35
REMARK SMILES IDX 27 36 89 37 28 38 29 39 30 40 83 41 31 42 88 43 82 44 84 45
REMARK SMILES IDX 32 46 87 47 81 48 80 49 33 51 67 52 46 53 66 54 47 55 50 56
REMARK SMILES IDX 65 57 85 58 48 59 49 60 64 62 86 63 51 64 34 65 35 66 44 67
REMARK SMILES IDX 36 68 37 69 43 70 45 71 38 72 39 73 40 74 41 75 42 76 68 77
REMARK SMILES IDX 69 78 78 79 70 80 71 81 77 82 79 83 72 84 73 85 74 86 75 87
REMARK SMILES IDX 76 88 52 89 53 90 62 91 54 92 55 93 61 94 63 95 56 96 57 97
REMARK SMILES IDX 58 98 59 99 60 100
REMARK H PARENT 18 6 11 16 22 31 84 50 50 61
REMARK Flexibility Score: inf
ROOT
ATOM      1  C   UNL     1      -3.462   8.534   0.877  1.00  0.00     0.042 C 
ENDROOT
BRANCH   1   2
ATOM      2  C   UNL     1      -4.233   7.250   0.613  1.00  0.00     0.117 C 
BRANCH   2   3
ATOM      3  N   UNL     1      -3.685   6.515  -0.519  1.00  0.00    -0.356 N 
ATOM      4  C   UNL     1      -2.703   5.588  -0.635  1.00  0.00     0.224 C 
ATOM      5  O   UNL     1      -2.461   5.191  -1.782  1.00  0.00    -0.275 OA
ATOM      6  H   UNL     1      -4.116   6.737  -1.376  1.00  0.00     0.163 HD
BRANCH   4   7
ATOM      7  C   UNL     1      -1.840   5.108   0.533  1.00  0.00     0.098 C 
ATOM      8  C   UNL     1      -1.349   3.626   0.236  1.00  0.00     0.099 C 
ATOM      9  C   UNL     1      -1.716   2.881   1.545  1.00  0.00     0.025 C 
ATOM     10  C   UNL     1      -2.491   4.938   1.925  1.00  0.00     0.025 C 
ATOM     11  C   UNL     1      -3.221   2.778   1.592  1.00  0.00    -0.027 C 
ATOM     12  C   UNL     1      -1.514   3.971   2.595  1.00  0.00     0.017 C 
ATOM     13  C   UNL     1      -3.687   4.012   1.825  1.00  0.00    -0.027 C 
BRANCH   8  14
ATOM     14  C   UNL     1       0.128   3.477  -0.089  1.00  0.00     0.228 C 
ATOM     15  N   UNL     1       0.689   2.250  -0.354  1.00  0.00    -0.326 N 
ATOM     16  H   UNL     1       1.655   2.294  -0.539  1.00  0.00     0.169 HD
ATOM     17  O   UNL     1       0.899   4.441  -0.053  1.00  0.00    -0.274 OA
BRANCH  15  18
ATOM     18  C   UNL     1       0.168   0.939  -0.417  1.00  0.00     0.044 A 
ATOM     19  C   UNL     1       2.494  -0.051   0.124  1.00  0.00     0.047 C 
ATOM     20  C   UNL     1       1.008  -0.156  -0.110  1.00  0.00    -0.021 A 
ATOM     21  C   UNL     1       0.453  -1.453  -0.018  1.00  0.00     0.091 A 
ATOM     22  C   UNL     1      -0.912  -1.662  -0.240  1.00  0.00     0.269 A 
ATOM     23  C   UNL     1      -1.168   0.674  -0.750  1.00  0.00     0.033 A 
ATOM     24  C   UNL     1      -1.721  -0.604  -0.638  1.00  0.00     0.088 A 
BRANCH  22  25
ATOM     25  N   UNL     1      -1.493  -2.995  -0.053  1.00  0.00     0.062 N 
ATOM     26  O   UNL     1      -0.714  -3.944   0.116  1.00  0.00    -0.258 OA
ATOM     27  O   UNL     1      -2.728  -3.092  -0.059  1.00  0.00    -0.258 OA
ENDBRANCH  22  25
ENDBRANCH  15  18
ENDBRANCH   8  14
ENDBRANCH   4   7
ENDBRANCH   2   3
ENDBRANCH   1   2
BRANCH   1  28
ATOM     28  C   UNL     1      -4.145   9.727   0.222  1.00  0.00     0.118 C 
BRANCH  28  29
ATOM     29  N   UNL     1      -4.969  10.506   1.140  1.00  0.00    -0.352 N 
ATOM     30  C   UNL     1      -5.663  11.673   0.866  1.00  0.00     0.251 C 
ATOM     31  H   UNL     1      -5.040  10.163   2.060  1.00  0.00     0.163 HD
ATOM     32  O   UNL     1      -6.153  12.370   1.736  1.00  0.00    -0.269 OA
BRANCH  30  33
ATOM     33  C   UNL     1      -5.883  11.979  -0.561  1.00  0.00     0.039 A 
ATOM     34  C   UNL     1      -7.176  11.784  -1.062  1.00  0.00     0.014 A 
ATOM     35  C   UNL     1      -4.786  12.110  -1.407  1.00  0.00     0.014 A 
ATOM     36  C   UNL     1      -7.346  11.540  -2.421  1.00  0.00     0.010 A 
ATOM     37  C   UNL     1      -4.945  11.765  -2.734  1.00  0.00     0.010 A 
ATOM     38  C   UNL     1      -6.216  11.443  -3.234  1.00  0.00    -0.014 A 
BRANCH  38  39
ATOM     39  C   UNL     1      -6.253  10.932  -4.599  1.00  0.00     0.031 A 
ATOM     40  C   UNL     1      -6.040  11.855  -5.737  1.00  0.00     0.074 A 
ATOM     41  C   UNL     1      -6.412   9.608  -4.825  1.00  0.00     0.049 A 
ATOM     42  N   UNL     1      -6.467  11.638  -6.936  1.00  0.00    -0.248 NA
ATOM     43  C   UNL     1      -5.348  13.134  -5.599  1.00  0.00     0.031 C 
ATOM     44  C   UNL     1      -6.187   8.897  -6.080  1.00  0.00     0.029 A 
ATOM     45  N   UNL     1      -6.996   8.655  -3.987  1.00  0.00    -0.354 N 
ATOM     46  C   UNL     1      -5.901  12.584  -7.758  1.00  0.00     0.074 A 
ATOM     47  C   UNL     1      -5.248  13.520  -6.874  1.00  0.00     0.031 C 
ATOM     48  C   UNL     1      -6.830   7.720  -6.037  1.00  0.00     0.029 A 
ATOM     49  C   UNL     1      -7.611   7.694  -4.812  1.00  0.00     0.049 A 
ATOM     50  H   UNL     1      -6.981   8.655  -3.002  1.00  0.00     0.167 HD
ATOM     51  C   UNL     1      -5.927  12.418  -9.110  1.00  0.00     0.037 A 
ATOM     52  C   UNL     1      -8.959   7.477  -4.758  1.00  0.00     0.037 A 
ATOM     53  C   UNL     1      -6.643  11.205  -9.485  1.00  0.00     0.049 A 
ATOM     54  C   UNL     1      -9.685   7.822  -6.041  1.00  0.00     0.074 A 
ATOM     55  C   UNL     1      -6.213   9.914  -9.745  1.00  0.00     0.029 A 
ATOM     56  N   UNL     1      -8.018  11.130  -9.290  1.00  0.00    -0.354 N 
ATOM     57  N   UNL     1      -9.161   8.517  -7.013  1.00  0.00    -0.248 NA
ATOM     58  C   UNL     1     -11.064   7.429  -6.325  1.00  0.00     0.031 C 
ATOM     59  C   UNL     1      -7.325   9.046  -9.623  1.00  0.00     0.029 A 
ATOM     60  C   UNL     1      -8.437   9.812  -9.318  1.00  0.00     0.049 A 
ATOM     61  H   UNL     1      -8.609  11.904  -9.153  1.00  0.00     0.167 HD
ATOM     62  C   UNL     1     -10.094   8.712  -7.998  1.00  0.00     0.074 A 
ATOM     63  C   UNL     1     -11.260   7.984  -7.535  1.00  0.00     0.031 C 
ATOM     64  C   UNL     1      -9.834   9.466  -9.107  1.00  0.00     0.037 A 
BRANCH  51  65
ATOM     65  C   UNL     1      -5.026  13.210 -10.023  1.00  0.00     0.058 A 
ATOM     66  C   UNL     1      -4.322  12.584 -11.071  1.00  0.00     0.135 A 
ATOM     67  C   UNL     1      -4.767  14.586  -9.861  1.00  0.00     0.135 A 
ATOM     68  F   UNL     1      -4.515  11.294 -11.373  1.00  0.00    -0.206 F 
ATOM     69  C   UNL     1      -3.361  13.246 -11.836  1.00  0.00     0.059 A 
ATOM     70  C   UNL     1      -3.774  15.259 -10.580  1.00  0.00     0.059 A 
ATOM     71  F   UNL     1      -5.480  15.320  -8.992  1.00  0.00    -0.206 F 
ATOM     72  C   UNL     1      -3.068  14.576 -11.563  1.00  0.00     0.060 A 
BRANCH  72  73
ATOM     73  S   UNL     1      -1.738  15.374 -12.485  1.00  0.00     0.124 S 
ATOM     74  O   UNL     1      -0.658  14.396 -12.383  1.00  0.00    -0.237 OA
ATOM     75  O   UNL     1      -2.336  15.524 -13.807  1.00  0.00    -0.237 OA
ATOM     76  O   UNL     1      -1.515  16.616 -11.750  1.00  0.00    -0.744 OA
ENDBRANCH  72  73
ENDBRANCH  51  65
BRANCH  52  77
ATOM     77  C   UNL     1      -9.511   7.598  -3.380  1.00  0.00     0.058 A 
ATOM     78  C   UNL     1      -9.125   6.625  -2.437  1.00  0.00     0.135 A 
ATOM     79  C   UNL     1      -9.999   8.816  -2.889  1.00  0.00     0.135 A 
ATOM     80  F   UNL     1      -8.668   5.432  -2.853  1.00  0.00    -0.206 F 
ATOM     81  C   UNL     1      -9.063   6.906  -1.076  1.00  0.00     0.059 A 
ATOM     82  C   UNL     1      -9.953   9.117  -1.526  1.00  0.00     0.059 A 
ATOM     83  F   UNL     1     -10.388   9.779  -3.738  1.00  0.00    -0.206 F 
ATOM     84  C   UNL     1      -9.416   8.180  -0.640  1.00  0.00     0.060 A 
BRANCH  84  85
ATOM     85  S   UNL     1      -8.999   8.636   1.061  1.00  0.00     0.124 S 
ATOM     86  O   UNL     1      -9.765   7.664   1.833  1.00  0.00    -0.237 OA
ATOM     87  O   UNL     1      -7.548   8.445   1.076  1.00  0.00    -0.237 OA
ATOM     88  O   UNL     1      -9.449  10.019   1.158  1.00  0.00    -0.744 OA
ENDBRANCH  84  85
ENDBRANCH  52  77
BRANCH  64  89
ATOM     89  C   UNL     1     -10.845   9.880 -10.148  1.00  0.00     0.058 A 
ATOM     90  C   UNL     1     -12.191  10.162  -9.864  1.00  0.00     0.135 A 
ATOM     91  C   UNL     1     -10.427  10.150 -11.474  1.00  0.00     0.135 A 
ATOM     92  F   UNL     1     -12.679  10.042  -8.621  1.00  0.00    -0.206 F 
ATOM     93  C   UNL     1     -13.078  10.622 -10.840  1.00  0.00     0.059 A 
ATOM     94  C   UNL     1     -11.281  10.659 -12.448  1.00  0.00     0.059 A 
ATOM     95  F   UNL     1      -9.161   9.935 -11.864  1.00  0.00    -0.206 F 
ATOM     96  C   UNL     1     -12.614  10.868 -12.129  1.00  0.00     0.060 A 
BRANCH  96  97
ATOM     97  S   UNL     1     -13.734  11.518 -13.383  1.00  0.00     0.124 S 
ATOM     98  O   UNL     1     -14.208  10.290 -14.013  1.00  0.00    -0.237 OA
ATOM     99  O   UNL     1     -14.725  12.242 -12.592  1.00  0.00    -0.237 OA
ATOM    100  O   UNL     1     -12.864  12.355 -14.202  1.00  0.00    -0.744 OA
ENDBRANCH  96  97
ENDBRANCH  64  89
ENDBRANCH  38  39
ENDBRANCH  30  33
ENDBRANCH  28  29
ENDBRANCH   1  28
TORSDOF 16
