REMARK SMILES C[C@@H](C(=O)NCCCNC(=O)c1ccc(-c2c3nc(c(-c4c(F)cc(S(=O)(=O)[O-])cc4F)c4ccc([nH]4)c(-c4c(F)cc(S(=O)(=O)[O-])cc4F)c4nc(c(-c5c(F)cc(S(=O)(=O)[O-])cc5F)c5ccc2[nH]5)C=C4)C=C3)cc1)N(C)C(=O)NC[C@H]1C[N@@H+]2CCC[C@@H]2CO1
REMARK SMILES IDX 6 1 5 2 3 3 4 4 2 6 1 7 78 8 79 9 80 10 81 11 82 12 83 14
REMARK SMILES IDX 84 15 85 16 92 17 86 18 91 19 87 20 90 21 88 23 89 24 7 25
REMARK SMILES IDX 8 26 9 27 10 28 11 30 12 31 13 32 77 33 14 34 76 35 15 36
REMARK SMILES IDX 16 37 17 38 70 39 18 40 75 41 69 42 71 43 19 44 74 45 68 46
REMARK SMILES IDX 67 47 20 49 54 50 33 51 53 52 34 53 37 54 52 55 72 56 35 57
REMARK SMILES IDX 36 58 51 60 73 61 38 62 21 63 22 64 31 65 23 66 24 67 30 68
REMARK SMILES IDX 32 69 25 70 26 71 27 72 28 73 29 74 55 75 56 76 65 77 57 78
REMARK SMILES IDX 58 79 64 80 66 81 59 82 60 83 61 84 62 85 63 86 39 87 40 88
REMARK SMILES IDX 49 89 41 90 42 91 48 92 50 93 43 94 44 95 45 96 46 97 47 98
REMARK H PARENT 5 5 82 13 86 22 9 29 71 48 37 59
REMARK Flexibility Score: inf
ROOT
ATOM      1  C   UNL     1       3.516   0.461  -1.804  1.00  0.00     0.117 C 
ENDROOT
BRANCH   1   2
ATOM      2  N   UNL     1       2.439  -0.144  -2.557  1.00  0.00    -0.354 N 
ATOM      3  C   UNL     1       1.091  -0.123  -2.340  1.00  0.00     0.242 C 
ATOM      4  O   UNL     1       0.390  -0.535  -3.269  1.00  0.00    -0.273 OA
ATOM      5  H   UNL     1       2.722  -0.650  -3.353  1.00  0.00     0.163 HD
BRANCH   3   6
ATOM      6  C   UNL     1       0.511   0.477  -1.026  1.00  0.00     0.172 C 
ATOM      7  C   UNL     1       0.959  -0.235   0.253  1.00  0.00     0.042 C 
BRANCH   6   8
ATOM      8  N   UNL     1      -0.963   0.602  -1.133  1.00  0.00    -0.316 N 
ATOM      9  C   UNL     1      -1.454   1.905  -1.529  1.00  0.00     0.149 C 
BRANCH   8  10
ATOM     10  C   UNL     1      -1.709  -0.546  -1.080  1.00  0.00     0.317 C 
ATOM     11  O   UNL     1      -1.201  -1.658  -0.914  1.00  0.00    -0.249 OA
ATOM     12  N   UNL     1      -3.047  -0.546  -1.193  1.00  0.00    -0.335 N 
ATOM     13  H   UNL     1      -3.394  -1.458  -1.320  1.00  0.00     0.165 HD
BRANCH  12  14
ATOM     14  C   UNL     1      -4.122   0.430  -1.179  1.00  0.00     0.155 C 
BRANCH  14  15
ATOM     15  C   UNL     1      -4.988   0.449  -2.462  1.00  0.00     0.192 C 
ATOM     16  C   UNL     1      -4.977   1.805  -3.222  1.00  0.00     0.296 C 
ATOM     17  O   UNL     1      -4.721  -0.712  -3.273  1.00  0.00    -0.364 OA
ATOM     18  N   UNL     1      -3.977   1.927  -4.285  1.00  0.00    -0.328 N 
ATOM     19  C   UNL     1      -4.807  -0.448  -4.673  1.00  0.00     0.225 C 
ATOM     20  C   UNL     1      -4.232   3.054  -5.188  1.00  0.00     0.262 C 
ATOM     21  C   UNL     1      -3.864   0.691  -5.093  1.00  0.00     0.210 C 
ATOM     22  H   UNL     1      -3.099   2.095  -3.794  1.00  0.00     0.348 HD
ATOM     23  C   UNL     1      -3.719   2.590  -6.539  1.00  0.00     0.068 C 
ATOM     24  C   UNL     1      -4.084   1.119  -6.543  1.00  0.00     0.073 C 
ENDBRANCH  14  15
ENDBRANCH  12  14
ENDBRANCH   8  10
ENDBRANCH   6   8
ENDBRANCH   3   6
ENDBRANCH   1   2
BRANCH   1  25
ATOM     25  C   UNL     1       4.389  -0.570  -1.097  1.00  0.00     0.042 C 
BRANCH  25  26
ATOM     26  C   UNL     1       5.119  -1.537  -2.027  1.00  0.00     0.118 C 
BRANCH  26  27
ATOM     27  N   UNL     1       6.035  -0.865  -2.937  1.00  0.00    -0.352 N 
ATOM     28  C   UNL     1       7.382  -1.029  -3.138  1.00  0.00     0.251 C 
ATOM     29  H   UNL     1       5.618  -0.177  -3.504  1.00  0.00     0.163 HD
ATOM     30  O   UNL     1       7.974  -0.217  -3.849  1.00  0.00    -0.269 OA
BRANCH  28  31
ATOM     31  C   UNL     1       8.135  -2.139  -2.508  1.00  0.00     0.039 A 
ATOM     32  C   UNL     1       9.435  -1.886  -2.058  1.00  0.00     0.014 A 
ATOM     33  C   UNL     1       7.609  -3.430  -2.404  1.00  0.00     0.014 A 
ATOM     34  C   UNL     1      10.178  -2.904  -1.455  1.00  0.00     0.010 A 
ATOM     35  C   UNL     1       8.325  -4.428  -1.739  1.00  0.00     0.010 A 
ATOM     36  C   UNL     1       9.618  -4.177  -1.259  1.00  0.00    -0.014 A 
BRANCH  36  37
ATOM     37  C   UNL     1      10.374  -5.231  -0.531  1.00  0.00     0.031 A 
ATOM     38  C   UNL     1      10.812  -6.490  -1.229  1.00  0.00     0.074 A 
ATOM     39  C   UNL     1      10.640  -5.061   0.779  1.00  0.00     0.049 A 
ATOM     40  N   UNL     1      11.482  -7.508  -0.750  1.00  0.00    -0.248 NA
ATOM     41  C   UNL     1      10.431  -6.637  -2.643  1.00  0.00     0.031 C 
ATOM     42  C   UNL     1      10.215  -3.914   1.586  1.00  0.00     0.029 A 
ATOM     43  N   UNL     1      11.328  -5.851   1.666  1.00  0.00    -0.354 N 
ATOM     44  C   UNL     1      11.603  -8.413  -1.797  1.00  0.00     0.074 A 
ATOM     45  C   UNL     1      10.890  -7.849  -2.924  1.00  0.00     0.031 C 
ATOM     46  C   UNL     1      10.672  -4.063   2.839  1.00  0.00     0.029 A 
ATOM     47  C   UNL     1      11.398  -5.326   2.934  1.00  0.00     0.049 A 
ATOM     48  H   UNL     1      11.733  -6.713   1.417  1.00  0.00     0.167 HD
ATOM     49  C   UNL     1      12.267  -9.595  -1.827  1.00  0.00     0.037 A 
ATOM     50  C   UNL     1      11.981  -5.804   4.051  1.00  0.00     0.037 A 
ATOM     51  C   UNL     1      12.986 -10.149  -0.707  1.00  0.00     0.049 A 
ATOM     52  C   UNL     1      12.727  -7.107   3.988  1.00  0.00     0.074 A 
ATOM     53  C   UNL     1      13.730 -11.315  -0.652  1.00  0.00     0.029 A 
ATOM     54  N   UNL     1      13.052  -9.576   0.555  1.00  0.00    -0.354 N 
ATOM     55  N   UNL     1      12.885  -7.918   2.969  1.00  0.00    -0.248 NA
ATOM     56  C   UNL     1      13.386  -7.553   5.223  1.00  0.00     0.031 C 
ATOM     57  C   UNL     1      14.216 -11.466   0.652  1.00  0.00     0.029 A 
ATOM     58  C   UNL     1      13.811 -10.372   1.399  1.00  0.00     0.049 A 
ATOM     59  H   UNL     1      12.623  -8.729   0.813  1.00  0.00     0.167 HD
ATOM     60  C   UNL     1      13.671  -8.965   3.437  1.00  0.00     0.074 A 
ATOM     61  C   UNL     1      13.977  -8.670   4.822  1.00  0.00     0.031 C 
ATOM     62  C   UNL     1      14.097 -10.073   2.780  1.00  0.00     0.037 A 
BRANCH  49  63
ATOM     63  C   UNL     1      12.259 -10.365  -3.120  1.00  0.00     0.058 A 
ATOM     64  C   UNL     1      12.983  -9.924  -4.239  1.00  0.00     0.135 A 
ATOM     65  C   UNL     1      11.556 -11.575  -3.232  1.00  0.00     0.135 A 
ATOM     66  F   UNL     1      13.662  -8.767  -4.192  1.00  0.00    -0.206 F 
ATOM     67  C   UNL     1      12.989 -10.640  -5.432  1.00  0.00     0.059 A 
ATOM     68  C   UNL     1      11.569 -12.322  -4.408  1.00  0.00     0.059 A 
ATOM     69  F   UNL     1      10.848 -12.045  -2.193  1.00  0.00    -0.206 F 
ATOM     70  C   UNL     1      12.278 -11.838  -5.507  1.00  0.00     0.060 A 
BRANCH  70  71
ATOM     71  S   UNL     1      12.302 -12.762  -7.059  1.00  0.00     0.124 S 
ATOM     72  O   UNL     1      11.427 -11.944  -7.896  1.00  0.00    -0.237 OA
ATOM     73  O   UNL     1      13.719 -12.736  -7.415  1.00  0.00    -0.237 OA
ATOM     74  O   UNL     1      11.776 -14.067  -6.687  1.00  0.00    -0.744 OA
ENDBRANCH  70  71
ENDBRANCH  49  63
BRANCH  50  75
ATOM     75  C   UNL     1      11.899  -5.029   5.317  1.00  0.00     0.058 A 
ATOM     76  C   UNL     1      13.023  -4.371   5.836  1.00  0.00     0.135 A 
ATOM     77  C   UNL     1      10.690  -4.914   6.020  1.00  0.00     0.135 A 
ATOM     78  F   UNL     1      14.203  -4.456   5.202  1.00  0.00    -0.206 F 
ATOM     79  C   UNL     1      12.958  -3.639   7.017  1.00  0.00     0.059 A 
ATOM     80  C   UNL     1      10.593  -4.168   7.190  1.00  0.00     0.059 A 
ATOM     81  F   UNL     1       9.581  -5.510   5.554  1.00  0.00    -0.206 F 
ATOM     82  C   UNL     1      11.736  -3.541   7.686  1.00  0.00     0.060 A 
BRANCH  82  83
ATOM     83  S   UNL     1      11.646  -2.542   9.188  1.00  0.00     0.124 S 
ATOM     84  O   UNL     1      12.290  -3.415  10.161  1.00  0.00    -0.237 OA
ATOM     85  O   UNL     1      12.393  -1.346   8.808  1.00  0.00    -0.237 OA
ATOM     86  O   UNL     1      10.211  -2.341   9.369  1.00  0.00    -0.744 OA
ENDBRANCH  82  83
ENDBRANCH  50  75
BRANCH  62  87
ATOM     87  C   UNL     1      14.948 -11.040   3.555  1.00  0.00     0.058 A 
ATOM     88  C   UNL     1      14.403 -11.856   4.559  1.00  0.00     0.135 A 
ATOM     89  C   UNL     1      16.321 -11.160   3.285  1.00  0.00     0.135 A 
ATOM     90  F   UNL     1      13.098 -11.776   4.860  1.00  0.00    -0.206 F 
ATOM     91  C   UNL     1      15.197 -12.730   5.295  1.00  0.00     0.059 A 
ATOM     92  C   UNL     1      17.128 -12.047   3.991  1.00  0.00     0.059 A 
ATOM     93  F   UNL     1      16.890 -10.411   2.327  1.00  0.00    -0.206 F 
ATOM     94  C   UNL     1      16.560 -12.814   5.008  1.00  0.00     0.060 A 
BRANCH  94  95
ATOM     95  S   UNL     1      17.582 -13.950   5.970  1.00  0.00     0.124 S 
ATOM     96  O   UNL     1      17.738 -13.215   7.221  1.00  0.00    -0.237 OA
ATOM     97  O   UNL     1      16.748 -15.145   6.036  1.00  0.00    -0.237 OA
ATOM     98  O   UNL     1      18.792 -14.082   5.164  1.00  0.00    -0.744 OA
ENDBRANCH  94  95
ENDBRANCH  62  87
ENDBRANCH  36  37
ENDBRANCH  28  31
ENDBRANCH  26  27
ENDBRANCH  25  26
ENDBRANCH   1  25
TORSDOF 17
