REMARK SMILES O=C(CSc1ccc(Br)cn1)NCCCNC(=O)c1ccc(-c2c3nc(c(-c4c(F)cc(S(=O)(=O)[O-])cc4F)c4ccc([nH]4)c(-c4c(F)cc(S(=O)(=O)[O-])cc4F)c4nc(c(-c5c(F)cc(S(=O)(=O)[O-])cc5F)c5ccc2[nH]5)C=C4)C=C3)cc1
REMARK SMILES IDX 14 1 13 2 12 3 1 4 2 5 3 7 4 8 5 9 6 10 11 11 7 12 10 13
REMARK SMILES IDX 8 14 9 15 15 16 16 17 17 18 18 20 19 21 20 22 84 23 21 24
REMARK SMILES IDX 83 25 22 26 23 27 24 28 77 29 25 30 82 31 76 32 78 33 26 34
REMARK SMILES IDX 81 35 75 36 74 37 27 39 61 40 40 41 60 42 41 43 44 44 59 45
REMARK SMILES IDX 79 46 42 47 43 48 58 50 80 51 45 52 28 53 29 54 38 55 30 56
REMARK SMILES IDX 31 57 37 58 39 59 32 60 33 61 34 62 35 63 36 64 62 65 63 66
REMARK SMILES IDX 72 67 64 68 65 69 71 70 73 71 66 72 67 73 68 74 69 75 70 76
REMARK SMILES IDX 46 77 47 78 56 79 48 80 49 81 55 82 57 83 50 84 51 85 52 86
REMARK SMILES IDX 53 87 54 88
REMARK H PARENT 12 6 16 19 78 38 44 49
REMARK Flexibility Score: inf
ROOT
ATOM      1  C   UNL     1       2.355   1.270   3.222  1.00  0.00     0.042 C 
ENDROOT
BRANCH   1   2
ATOM      2  C   UNL     1       2.072   1.727   1.794  1.00  0.00     0.117 C 
BRANCH   2   3
ATOM      3  N   UNL     1       2.715   0.895   0.797  1.00  0.00    -0.355 N 
ATOM      4  O   UNL     1       0.788  -0.007  -0.062  1.00  0.00    -0.274 OA
ATOM      5  C   UNL     1       2.009   0.119  -0.102  1.00  0.00     0.230 C 
ATOM      6  H   UNL     1       3.699   0.883   0.759  1.00  0.00     0.163 HD
BRANCH   5   7
ATOM      7  C   UNL     1       2.870  -0.656  -1.091  1.00  0.00     0.176 C 
BRANCH   7   8
ATOM      8  S   UNL     1       4.180   0.388  -1.819  1.00  0.00    -0.096 SA
BRANCH   8   9
ATOM      9  C   UNL     1       3.163   1.566  -2.683  1.00  0.00     0.097 A 
ATOM     10  C   UNL     1       3.490   2.917  -2.642  1.00  0.00     0.037 A 
ATOM     11  N   UNL     1       2.108   1.088  -3.379  1.00  0.00    -0.249 NA
ATOM     12  C   UNL     1       2.687   3.826  -3.329  1.00  0.00     0.020 A 
ATOM     13  C   UNL     1       1.343   1.992  -4.037  1.00  0.00     0.128 A 
ATOM     14  C   UNL     1       1.591   3.355  -4.040  1.00  0.00     0.036 A 
ATOM     15  Br  UNL     1       0.478   4.541  -4.992  1.00  0.00    -0.049 Br
ENDBRANCH   8   9
ENDBRANCH   7   8
ENDBRANCH   5   7
ENDBRANCH   2   3
ENDBRANCH   1   2
BRANCH   1  16
ATOM     16  C   UNL     1       3.822   1.325   3.643  1.00  0.00     0.118 C 
BRANCH  16  17
ATOM     17  N   UNL     1       4.388   2.664   3.593  1.00  0.00    -0.352 N 
ATOM     18  C   UNL     1       5.113   3.371   4.520  1.00  0.00     0.251 C 
ATOM     19  H   UNL     1       4.223   3.146   2.750  1.00  0.00     0.163 HD
ATOM     20  O   UNL     1       5.380   4.548   4.280  1.00  0.00    -0.269 OA
BRANCH  18  21
ATOM     21  C   UNL     1       5.555   2.765   5.800  1.00  0.00     0.039 A 
ATOM     22  C   UNL     1       5.546   3.566   6.948  1.00  0.00     0.014 A 
ATOM     23  C   UNL     1       6.025   1.451   5.885  1.00  0.00     0.014 A 
ATOM     24  C   UNL     1       5.952   3.039   8.178  1.00  0.00     0.010 A 
ATOM     25  C   UNL     1       6.365   0.905   7.127  1.00  0.00     0.010 A 
ATOM     26  C   UNL     1       6.337   1.693   8.287  1.00  0.00    -0.014 A 
BRANCH  26  27
ATOM     27  C   UNL     1       6.692   1.111   9.610  1.00  0.00     0.031 A 
ATOM     28  C   UNL     1       8.088   0.616   9.888  1.00  0.00     0.074 A 
ATOM     29  C   UNL     1       5.743   0.998  10.560  1.00  0.00     0.049 A 
ATOM     30  N   UNL     1       8.574   0.089  10.984  1.00  0.00    -0.248 NA
ATOM     31  C   UNL     1       9.058   0.702   8.786  1.00  0.00     0.031 C 
ATOM     32  C   UNL     1       4.338   1.382  10.401  1.00  0.00     0.029 A 
ATOM     33  N   UNL     1       5.812   0.529  11.849  1.00  0.00    -0.354 N 
ATOM     34  C   UNL     1       9.898  -0.227  10.703  1.00  0.00     0.074 A 
ATOM     35  C   UNL     1      10.125   0.121   9.316  1.00  0.00     0.031 C 
ATOM     36  C   UNL     1       3.687   1.163  11.554  1.00  0.00     0.029 A 
ATOM     37  C   UNL     1       4.617   0.598  12.527  1.00  0.00     0.049 A 
ATOM     38  H   UNL     1       6.639   0.176  12.250  1.00  0.00     0.167 HD
ATOM     39  C   UNL     1      10.846  -0.736  11.528  1.00  0.00     0.037 A 
ATOM     40  C   UNL     1       4.304   0.252  13.791  1.00  0.00     0.037 A 
ATOM     41  C   UNL     1      10.626  -1.060  12.915  1.00  0.00     0.049 A 
ATOM     42  C   UNL     1       5.379  -0.284  14.696  1.00  0.00     0.074 A 
ATOM     43  C   UNL     1      11.538  -1.526  13.847  1.00  0.00     0.029 A 
ATOM     44  N   UNL     1       9.409  -0.950  13.572  1.00  0.00    -0.354 N 
ATOM     45  N   UNL     1       6.644  -0.510  14.431  1.00  0.00    -0.248 NA
ATOM     46  C   UNL     1       4.988  -0.597  16.077  1.00  0.00     0.031 C 
ATOM     47  C   UNL     1      10.865  -1.733  15.056  1.00  0.00     0.029 A 
ATOM     48  C   UNL     1       9.543  -1.353  14.892  1.00  0.00     0.049 A 
ATOM     49  H   UNL     1       8.572  -0.633  13.162  1.00  0.00     0.167 HD
ATOM     50  C   UNL     1       7.205  -0.969  15.618  1.00  0.00     0.074 A 
ATOM     51  C   UNL     1       6.145  -0.971  16.606  1.00  0.00     0.031 C 
ATOM     52  C   UNL     1       8.481  -1.352  15.867  1.00  0.00     0.037 A 
BRANCH  39  53
ATOM     53  C   UNL     1      12.218  -0.967  10.954  1.00  0.00     0.058 A 
ATOM     54  C   UNL     1      13.067   0.102  10.624  1.00  0.00     0.135 A 
ATOM     55  C   UNL     1      12.706  -2.271  10.764  1.00  0.00     0.135 A 
ATOM     56  F   UNL     1      12.648   1.369  10.773  1.00  0.00    -0.206 F 
ATOM     57  C   UNL     1      14.337  -0.112  10.098  1.00  0.00     0.059 A 
ATOM     58  C   UNL     1      13.983  -2.508  10.264  1.00  0.00     0.059 A 
ATOM     59  F   UNL     1      11.938  -3.330  11.065  1.00  0.00    -0.206 F 
ATOM     60  C   UNL     1      14.786  -1.421   9.919  1.00  0.00     0.060 A 
BRANCH  60  61
ATOM     61  S   UNL     1      16.436  -1.684   9.235  1.00  0.00     0.124 S 
ATOM     62  O   UNL     1      16.223  -1.347   7.830  1.00  0.00    -0.237 OA
ATOM     63  O   UNL     1      17.245  -0.734   9.996  1.00  0.00    -0.237 OA
ATOM     64  O   UNL     1      16.700  -3.089   9.512  1.00  0.00    -0.744 OA
ENDBRANCH  60  61
ENDBRANCH  39  53
BRANCH  40  65
ATOM     65  C   UNL     1       2.916   0.440  14.288  1.00  0.00     0.058 A 
ATOM     66  C   UNL     1       2.613   1.448  15.216  1.00  0.00     0.135 A 
ATOM     67  C   UNL     1       1.864  -0.372  13.838  1.00  0.00     0.135 A 
ATOM     68  F   UNL     1       3.587   2.246  15.681  1.00  0.00    -0.206 F 
ATOM     69  C   UNL     1       1.321   1.633  15.695  1.00  0.00     0.059 A 
ATOM     70  C   UNL     1       0.559  -0.190  14.283  1.00  0.00     0.059 A 
ATOM     71  F   UNL     1       2.099  -1.338  12.936  1.00  0.00    -0.206 F 
ATOM     72  C   UNL     1       0.299   0.809  15.220  1.00  0.00     0.060 A 
BRANCH  72  73
ATOM     73  S   UNL     1      -1.386   1.090  15.808  1.00  0.00     0.124 S 
ATOM     74  O   UNL     1      -1.324   0.531  17.153  1.00  0.00    -0.237 OA
ATOM     75  O   UNL     1      -1.503   2.543  15.724  1.00  0.00    -0.237 OA
ATOM     76  O   UNL     1      -2.201   0.348  14.851  1.00  0.00    -0.744 OA
ENDBRANCH  72  73
ENDBRANCH  40  65
BRANCH  52  77
ATOM     77  C   UNL     1       8.808  -1.778  17.272  1.00  0.00     0.058 A 
ATOM     78  C   UNL     1       8.352  -2.995  17.800  1.00  0.00     0.135 A 
ATOM     79  C   UNL     1       9.599  -0.961  18.097  1.00  0.00     0.135 A 
ATOM     80  F   UNL     1       7.588  -3.811  17.056  1.00  0.00    -0.206 F 
ATOM     81  C   UNL     1       8.635  -3.372  19.110  1.00  0.00     0.059 A 
ATOM     82  C   UNL     1       9.917  -1.330  19.400  1.00  0.00     0.059 A 
ATOM     83  F   UNL     1      10.072   0.208  17.637  1.00  0.00    -0.206 F 
ATOM     84  C   UNL     1       9.414  -2.529  19.904  1.00  0.00     0.060 A 
BRANCH  84  85
ATOM     85  S   UNL     1       9.777  -3.025  21.602  1.00  0.00     0.124 S 
ATOM     86  O   UNL     1       8.513  -2.729  22.269  1.00  0.00    -0.237 OA
ATOM     87  O   UNL     1      10.100  -4.440  21.454  1.00  0.00    -0.237 OA
ATOM     88  O   UNL     1      10.899  -2.167  21.973  1.00  0.00    -0.744 OA
ENDBRANCH  84  85
ENDBRANCH  52  77
ENDBRANCH  26  27
ENDBRANCH  18  21
ENDBRANCH  16  17
ENDBRANCH   1  16
TORSDOF 15
