REMARK SMILES O=C(CCCN1C(=O)C(=O)/C(=C(/[O-])c2ccc(Cl)cc2)[C@@H]1c1ccccc1[N+](=O)[O-])NCCCNC(=O)c1ccc(-c2c3nc(c(-c4c(F)cc(S(=O)(=O)[O-])cc4F)c4ccc([nH]4)c(-c4c(F)cc(S(=O)(=O)[O-])cc4F)c4nc(c(-c5c(F)cc(S(=O)(=O)[O-])cc5F)c5ccc2[nH]5)C=C4)C=C3)cc1
REMARK SMILES IDX 32 1 31 2 1 3 2 4 3 6 4 7 5 8 6 9 7 10 21 11 8 12 9 13 11 14
REMARK SMILES IDX 10 15 12 16 13 17 22 18 23 19 27 20 24 21 26 22 25 23 28 24
REMARK SMILES IDX 29 25 30 26 14 27 15 28 20 29 16 30 19 31 17 32 18 33 33 34
REMARK SMILES IDX 34 35 35 36 36 37 37 39 38 40 39 41 103 42 40 43 102 44
REMARK SMILES IDX 41 45 42 46 43 47 96 48 44 49 101 50 95 51 97 52 45 53
REMARK SMILES IDX 100 54 94 55 93 56 46 58 80 59 59 60 79 61 60 62 63 63 78 64
REMARK SMILES IDX 98 65 61 66 62 67 77 69 99 70 64 71 47 72 48 73 57 74 49 75
REMARK SMILES IDX 50 76 56 77 58 78 51 79 52 80 53 81 54 82 55 83 81 84 82 85
REMARK SMILES IDX 91 86 83 87 84 88 90 89 92 90 85 91 86 92 87 93 88 94 89 95
REMARK SMILES IDX 65 96 66 97 75 98 67 99 68 100 74 101 76 102 69 103 70 104
REMARK SMILES IDX 71 105 72 106 73 107
REMARK H PARENT 31 5 35 38 97 57 63 68
REMARK Flexibility Score: inf
ROOT
ATOM      1  C   UNL     1       1.719   2.190   1.529  1.00  0.00     0.117 C 
ENDROOT
BRANCH   1   2
ATOM      2  N   UNL     1       2.157   0.874   1.111  1.00  0.00    -0.356 N 
ATOM      3  O   UNL     1       0.423   0.493  -0.353  1.00  0.00    -0.275 OA
ATOM      4  C   UNL     1       1.508   0.177   0.121  1.00  0.00     0.220 C 
ATOM      5  H   UNL     1       2.940   0.468   1.548  1.00  0.00     0.163 HD
BRANCH   4   6
ATOM      6  C   UNL     1       2.317  -0.979  -0.418  1.00  0.00     0.102 C 
BRANCH   6   7
ATOM      7  C   UNL     1       3.278  -0.482  -1.498  1.00  0.00     0.031 C 
BRANCH   7   8
ATOM      8  C   UNL     1       4.513   0.276  -1.002  1.00  0.00     0.121 C 
BRANCH   8   9
ATOM      9  N   UNL     1       5.606  -0.450  -0.357  1.00  0.00    -0.324 N 
ATOM     10  C   UNL     1       6.717   0.254   0.092  1.00  0.00     0.295 C 
ATOM     11  C   UNL     1       5.696  -1.878  -0.069  1.00  0.00     0.157 C 
ATOM     12  O   UNL     1       6.872   1.458   0.104  1.00  0.00    -0.265 OA
ATOM     13  C   UNL     1       7.708  -0.764   0.655  1.00  0.00     0.248 C 
ATOM     14  C   UNL     1       6.981  -2.055   0.714  1.00  0.00     0.025 C 
ATOM     15  O   UNL     1       8.828  -0.507   1.038  1.00  0.00    -0.283 OA
ATOM     16  C   UNL     1       7.345  -3.116   1.454  1.00  0.00    -0.092 C 
ATOM     17  O   UNL     1       6.463  -4.170   1.629  1.00  0.00    -0.872 OA
BRANCH  11  18
ATOM     18  C   UNL     1       5.565  -2.806  -1.274  1.00  0.00     0.057 A 
ATOM     19  C   UNL     1       4.919  -4.044  -1.064  1.00  0.00     0.013 A 
ATOM     20  C   UNL     1       5.989  -2.548  -2.594  1.00  0.00     0.275 A 
ATOM     21  C   UNL     1       4.686  -4.948  -2.107  1.00  0.00     0.001 A 
ATOM     22  C   UNL     1       5.726  -3.434  -3.655  1.00  0.00     0.086 A 
ATOM     23  C   UNL     1       5.073  -4.635  -3.405  1.00  0.00     0.007 A 
BRANCH  20  24
ATOM     24  N   UNL     1       6.705  -1.337  -2.954  1.00  0.00     0.063 N 
ATOM     25  O   UNL     1       6.195  -0.623  -3.828  1.00  0.00    -0.258 OA
ATOM     26  O   UNL     1       7.780  -1.131  -2.381  1.00  0.00    -0.258 OA
ENDBRANCH  20  24
ENDBRANCH  11  18
BRANCH  16  27
ATOM     27  C   UNL     1       8.652  -3.325   2.100  1.00  0.00    -0.033 A 
ATOM     28  C   UNL     1       9.086  -2.585   3.205  1.00  0.00     0.009 A 
ATOM     29  C   UNL     1       9.476  -4.343   1.592  1.00  0.00     0.009 A 
ATOM     30  C   UNL     1      10.342  -2.838   3.772  1.00  0.00     0.021 A 
ATOM     31  C   UNL     1      10.724  -4.600   2.162  1.00  0.00     0.021 A 
ATOM     32  C   UNL     1      11.155  -3.841   3.247  1.00  0.00     0.041 A 
ATOM     33  Cl  UNL     1      12.700  -4.152   3.936  1.00  0.00    -0.084 Cl
ENDBRANCH  16  27
ENDBRANCH   8   9
ENDBRANCH   7   8
ENDBRANCH   6   7
ENDBRANCH   4   6
ENDBRANCH   1   2
BRANCH   1  34
ATOM     34  C   UNL     1       2.217   2.551   2.920  1.00  0.00     0.042 C 
BRANCH  34  35
ATOM     35  C   UNL     1       3.736   2.644   3.048  1.00  0.00     0.118 C 
BRANCH  35  36
ATOM     36  N   UNL     1       4.303   3.808   2.388  1.00  0.00    -0.352 N 
ATOM     37  C   UNL     1       5.044   4.839   2.922  1.00  0.00     0.251 C 
ATOM     38  H   UNL     1       4.134   3.869   1.421  1.00  0.00     0.163 HD
ATOM     39  O   UNL     1       5.300   5.825   2.237  1.00  0.00    -0.269 OA
BRANCH  37  40
ATOM     40  C   UNL     1       5.491   4.781   4.333  1.00  0.00     0.039 A 
ATOM     41  C   UNL     1       5.329   5.911   5.138  1.00  0.00     0.014 A 
ATOM     42  C   UNL     1       6.056   3.619   4.868  1.00  0.00     0.014 A 
ATOM     43  C   UNL     1       5.654   5.849   6.496  1.00  0.00     0.010 A 
ATOM     44  C   UNL     1       6.302   3.534   6.238  1.00  0.00     0.010 A 
ATOM     45  C   UNL     1       6.100   4.646   7.069  1.00  0.00    -0.014 A 
BRANCH  45  46
ATOM     46  C   UNL     1       6.345   4.536   8.533  1.00  0.00     0.031 A 
ATOM     47  C   UNL     1       7.723   4.225   9.054  1.00  0.00     0.074 A 
ATOM     48  C   UNL     1       5.314   4.658   9.393  1.00  0.00     0.049 A 
ATOM     49  N   UNL     1       8.115   4.034  10.288  1.00  0.00    -0.248 NA
ATOM     50  C   UNL     1       8.796   4.084   8.057  1.00  0.00     0.031 C 
ATOM     51  C   UNL     1       3.921   4.907   9.015  1.00  0.00     0.029 A 
ATOM     52  N   UNL     1       5.274   4.582  10.764  1.00  0.00    -0.354 N 
ATOM     53  C   UNL     1       9.471   3.738  10.216  1.00  0.00     0.074 A 
ATOM     54  C   UNL     1       9.823   3.722   8.812  1.00  0.00     0.031 C 
ATOM     55  C   UNL     1       3.170   4.988  10.126  1.00  0.00     0.029 A 
ATOM     56  C   UNL     1       4.016   4.761  11.293  1.00  0.00     0.049 A 
ATOM     57  H   UNL     1       6.071   4.414  11.317  1.00  0.00     0.167 HD
ATOM     58  C   UNL     1      10.349   3.525  11.226  1.00  0.00     0.037 A 
ATOM     59  C   UNL     1       3.590   4.740  12.571  1.00  0.00     0.037 A 
ATOM     60  C   UNL     1      10.003   3.573  12.623  1.00  0.00     0.049 A 
ATOM     61  C   UNL     1       4.585   4.508  13.675  1.00  0.00     0.074 A 
ATOM     62  C   UNL     1      10.834   3.430  13.720  1.00  0.00     0.029 A 
ATOM     63  N   UNL     1       8.723   3.780  13.117  1.00  0.00    -0.354 N 
ATOM     64  N   UNL     1       5.875   4.291  13.589  1.00  0.00    -0.248 NA
ATOM     65  C   UNL     1       4.068   4.525  15.051  1.00  0.00     0.031 C 
ATOM     66  C   UNL     1      10.052   3.509  14.877  1.00  0.00     0.029 A 
ATOM     67  C   UNL     1       8.740   3.749  14.502  1.00  0.00     0.049 A 
ATOM     68  H   UNL     1       7.922   3.928  12.565  1.00  0.00     0.167 HD
ATOM     69  C   UNL     1       6.329   4.173  14.899  1.00  0.00     0.074 A 
ATOM     70  C   UNL     1       5.177   4.354  15.758  1.00  0.00     0.031 C 
ATOM     71  C   UNL     1       7.587   3.937  15.348  1.00  0.00     0.037 A 
BRANCH  58  72
ATOM     72  C   UNL     1      11.777   3.227  10.856  1.00  0.00     0.058 A 
ATOM     73  C   UNL     1      12.619   4.212  10.316  1.00  0.00     0.135 A 
ATOM     74  C   UNL     1      12.322   1.952  11.080  1.00  0.00     0.135 A 
ATOM     75  F   UNL     1      12.146   5.444  10.069  1.00  0.00    -0.206 F 
ATOM     76  C   UNL     1      13.941   3.937   9.983  1.00  0.00     0.059 A 
ATOM     77  C   UNL     1      13.650   1.662  10.781  1.00  0.00     0.059 A 
ATOM     78  F   UNL     1      11.562   0.973  11.595  1.00  0.00    -0.206 F 
ATOM     79  C   UNL     1      14.448   2.658  10.220  1.00  0.00     0.060 A 
BRANCH  79  80
ATOM     80  S   UNL     1      16.169   2.320   9.792  1.00  0.00     0.124 S 
ATOM     81  O   UNL     1      16.099   2.258   8.336  1.00  0.00    -0.237 OA
ATOM     82  O   UNL     1      16.862   3.480  10.344  1.00  0.00    -0.237 OA
ATOM     83  O   UNL     1      16.443   1.053  10.463  1.00  0.00    -0.744 OA
ENDBRANCH  79  80
ENDBRANCH  58  72
BRANCH  59  84
ATOM     84  C   UNL     1       2.152   4.968  12.878  1.00  0.00     0.058 A 
ATOM     85  C   UNL     1       1.725   6.153  13.494  1.00  0.00     0.135 A 
ATOM     86  C   UNL     1       1.177   4.012  12.553  1.00  0.00     0.135 A 
ATOM     87  F   UNL     1       2.620   7.094  13.831  1.00  0.00    -0.206 F 
ATOM     88  C   UNL     1       0.385   6.378  13.793  1.00  0.00     0.059 A 
ATOM     89  C   UNL     1      -0.172   4.224  12.819  1.00  0.00     0.059 A 
ATOM     90  F   UNL     1       1.531   2.868  11.947  1.00  0.00    -0.206 F 
ATOM     91  C   UNL     1      -0.557   5.407  13.449  1.00  0.00     0.060 A 
BRANCH  91  92
ATOM     92  S   UNL     1      -2.300   5.728  13.798  1.00  0.00     0.124 S 
ATOM     93  O   UNL     1      -2.348   5.547  15.244  1.00  0.00    -0.237 OA
ATOM     94  O   UNL     1      -2.463   7.097  13.319  1.00  0.00    -0.237 OA
ATOM     95  O   UNL     1      -2.991   4.711  13.011  1.00  0.00    -0.744 OA
ENDBRANCH  91  92
ENDBRANCH  59  84
BRANCH  71  96
ATOM     96  C   UNL     1       7.794   3.893  16.836  1.00  0.00     0.058 A 
ATOM     97  C   UNL     1       7.350   2.812  17.612  1.00  0.00     0.135 A 
ATOM     98  C   UNL     1       8.489   4.926  17.488  1.00  0.00     0.135 A 
ATOM     99  F   UNL     1       6.675   1.802  17.040  1.00  0.00    -0.206 F 
ATOM    100  C   UNL     1       7.566   2.766  18.986  1.00  0.00     0.059 A 
ATOM    101  C   UNL     1       8.740   4.888  18.855  1.00  0.00     0.059 A 
ATOM    102  F   UNL     1       8.944   5.979  16.791  1.00  0.00    -0.206 F 
ATOM    103  C   UNL     1       8.264   3.808  19.599  1.00  0.00     0.060 A 
BRANCH 103 104
ATOM    104  S   UNL     1       8.566   3.722  21.377  1.00  0.00     0.124 S 
ATOM    105  O   UNL     1       7.247   4.037  21.914  1.00  0.00    -0.237 OA
ATOM    106  O   UNL     1       9.009   2.342  21.552  1.00  0.00    -0.237 OA
ATOM    107  O   UNL     1       9.593   4.736  21.597  1.00  0.00    -0.744 OA
ENDBRANCH 103 104
ENDBRANCH  71  96
ENDBRANCH  45  46
ENDBRANCH  37  40
ENDBRANCH  35  36
ENDBRANCH  34  35
ENDBRANCH   1  34
TORSDOF 19
