REMARK SMILES C[C@H]1c2ccc(O)cc2OC(=O)[C@@H]1CC(=O)N[C@@H](CC1=c2ccccc2=NC1)C(=O)NCCCNC(=O)c1ccc(-c2c3nc(c(-c4c(F)cc(S(=O)(=O)[O-])cc4F)c4ccc([nH]4)c(-c4c(F)cc(S(=O)(=O)[O-])cc4F)c4nc(c(-c5c(F)cc(S(=O)(=O)[O-])cc5F)c5ccc2[nH]5)C=C4)C=C3)cc1
REMARK SMILES IDX 32 1 31 2 29 3 30 4 18 6 17 7 15 8 16 9 14 11 13 12 1 13
REMARK SMILES IDX 2 14 3 15 4 16 9 17 11 18 5 19 8 20 10 21 12 22 6 23 7 24
REMARK SMILES IDX 19 26 20 27 21 28 28 29 22 30 26 31 27 32 23 33 25 34 24 35
REMARK SMILES IDX 33 36 34 37 35 38 36 39 37 41 38 42 39 43 103 44 40 45
REMARK SMILES IDX 102 46 41 47 42 48 43 49 96 50 44 51 101 52 95 53 97 54
REMARK SMILES IDX 45 55 100 56 94 57 93 58 46 60 80 61 59 62 79 63 60 64 63 65
REMARK SMILES IDX 78 66 98 67 61 68 62 69 77 71 99 72 64 73 47 74 48 75 57 76
REMARK SMILES IDX 49 77 50 78 56 79 58 80 51 81 52 82 53 83 54 84 55 85 81 86
REMARK SMILES IDX 82 87 91 88 83 89 84 90 90 91 92 92 85 93 86 94 87 95 88 96
REMARK SMILES IDX 89 97 65 98 66 99 75 100 67 101 68 102 74 103 76 104 69 105
REMARK SMILES IDX 70 106 71 107 72 108 73 109
REMARK H PARENT 31 5 17 10 7 25 35 40 97 59 63 70
REMARK Flexibility Score: inf
ROOT
ATOM      1  C   UNL     1      -1.191  -8.000   3.248  1.00  0.00     0.117 C 
ENDROOT
BRANCH   1   2
ATOM      2  N   UNL     1      -1.359  -7.731   1.848  1.00  0.00    -0.354 N 
ATOM      3  C   UNL     1      -0.749  -6.733   1.150  1.00  0.00     0.242 C 
ATOM      4  O   UNL     1      -0.934  -6.689  -0.069  1.00  0.00    -0.273 OA
ATOM      5  H   UNL     1      -1.968  -8.320   1.349  1.00  0.00     0.163 HD
BRANCH   3   6
ATOM      6  C   UNL     1       0.176  -5.706   1.855  1.00  0.00     0.175 C 
BRANCH   6   7
ATOM      7  N   UNL     1      -0.516  -4.781   2.769  1.00  0.00    -0.344 N 
ATOM      8  C   UNL     1      -1.038  -3.540   2.565  1.00  0.00     0.221 C 
ATOM      9  O   UNL     1      -1.551  -2.952   3.518  1.00  0.00    -0.275 OA
ATOM     10  H   UNL     1      -0.618  -5.118   3.688  1.00  0.00     0.164 HD
BRANCH   8  11
ATOM     11  C   UNL     1      -0.986  -2.879   1.203  1.00  0.00     0.116 C 
BRANCH  11  12
ATOM     12  C   UNL     1       0.247  -1.966   1.046  1.00  0.00     0.116 C 
ATOM     13  C   UNL     1       1.260   0.057  -0.135  1.00  0.00     0.014 C 
ATOM     14  C   UNL     1       0.139  -0.990  -0.145  1.00  0.00     0.034 C 
ATOM     15  C   UNL     1       0.157  -1.776  -1.431  1.00  0.00    -0.001 A 
ATOM     16  C   UNL     1      -0.493  -1.330  -2.586  1.00  0.00     0.011 A 
ATOM     17  C   UNL     1       0.802  -3.013  -1.464  1.00  0.00     0.138 A 
ATOM     18  C   UNL     1       1.487  -2.802   0.848  1.00  0.00     0.315 C 
ATOM     19  C   UNL     1      -0.550  -2.149  -3.718  1.00  0.00     0.047 A 
ATOM     20  C   UNL     1       0.726  -3.853  -2.568  1.00  0.00     0.093 A 
ATOM     21  O   UNL     1       1.583  -3.445  -0.379  1.00  0.00    -0.426 OA
ATOM     22  O   UNL     1       2.324  -2.980   1.724  1.00  0.00    -0.251 OA
ATOM     23  C   UNL     1       0.033  -3.415  -3.687  1.00  0.00     0.119 A 
BRANCH  23  24
ATOM     24  O   UNL     1      -0.049  -4.258  -4.755  1.00  0.00    -0.508 OA
ATOM     25  H   UNL     1      -0.510  -3.993  -5.527  1.00  0.00     0.293 HD
ENDBRANCH  23  24
ENDBRANCH  11  12
ENDBRANCH   8  11
ENDBRANCH   6   7
BRANCH   6  26
ATOM     26  C   UNL     1       1.499  -6.349   2.411  1.00  0.00     0.068 C 
BRANCH  26  27
ATOM     27  C   UNL     1       1.896  -6.072   3.844  1.00  0.00    -0.037 C 
ATOM     28  C   UNL     1       1.380  -6.356   5.041  1.00  0.00     0.001 A 
ATOM     29  C   UNL     1       3.123  -5.233   4.108  1.00  0.00     0.174 C 
ATOM     30  C   UNL     1       0.506  -7.282   5.685  1.00  0.00     0.010 A 
ATOM     31  C   UNL     1       1.764  -5.112   5.755  1.00  0.00     0.065 A 
ATOM     32  N   UNL     1       2.776  -4.441   5.300  1.00  0.00    -0.280 NA
ATOM     33  C   UNL     1      -0.135  -6.917   6.807  1.00  0.00     0.001 A 
ATOM     34  C   UNL     1       0.844  -4.679   6.831  1.00  0.00     0.028 A 
ATOM     35  C   UNL     1      -0.075  -5.548   7.282  1.00  0.00     0.002 A 
ENDBRANCH  26  27
ENDBRANCH   6  26
ENDBRANCH   3   6
ENDBRANCH   1   2
BRANCH   1  36
ATOM     36  C   UNL     1      -2.378  -8.653   3.917  1.00  0.00     0.042 C 
BRANCH  36  37
ATOM     37  C   UNL     1      -2.500 -10.122   3.559  1.00  0.00     0.118 C 
BRANCH  37  38
ATOM     38  N   UNL     1      -1.479 -10.959   4.191  1.00  0.00    -0.352 N 
ATOM     39  C   UNL     1      -1.444 -11.659   5.386  1.00  0.00     0.251 C 
ATOM     40  H   UNL     1      -0.653 -11.041   3.662  1.00  0.00     0.163 HD
ATOM     41  O   UNL     1      -0.397 -12.157   5.751  1.00  0.00    -0.269 OA
BRANCH  39  42
ATOM     42  C   UNL     1      -2.653 -11.749   6.244  1.00  0.00     0.039 A 
ATOM     43  C   UNL     1      -3.916 -11.822   5.680  1.00  0.00     0.014 A 
ATOM     44  C   UNL     1      -2.530 -11.736   7.638  1.00  0.00     0.014 A 
ATOM     45  C   UNL     1      -5.029 -11.548   6.455  1.00  0.00     0.010 A 
ATOM     46  C   UNL     1      -3.679 -11.657   8.441  1.00  0.00     0.010 A 
ATOM     47  C   UNL     1      -4.940 -11.478   7.853  1.00  0.00    -0.014 A 
BRANCH  47  48
ATOM     48  C   UNL     1      -6.178 -11.199   8.639  1.00  0.00     0.031 A 
ATOM     49  C   UNL     1      -6.247 -10.026   9.588  1.00  0.00     0.074 A 
ATOM     50  C   UNL     1      -7.289 -11.932   8.400  1.00  0.00     0.049 A 
ATOM     51  N   UNL     1      -7.240  -9.646  10.353  1.00  0.00    -0.248 NA
ATOM     52  C   UNL     1      -5.053  -9.172   9.706  1.00  0.00     0.031 C 
ATOM     53  C   UNL     1      -7.368 -13.075   7.482  1.00  0.00     0.029 A 
ATOM     54  N   UNL     1      -8.579 -11.793   8.848  1.00  0.00    -0.354 N 
ATOM     55  C   UNL     1      -6.781  -8.541  11.062  1.00  0.00     0.074 A 
ATOM     56  C   UNL     1      -5.412  -8.319  10.656  1.00  0.00     0.031 C 
ATOM     57  C   UNL     1      -8.648 -13.442   7.337  1.00  0.00     0.029 A 
ATOM     58  C   UNL     1      -9.468 -12.654   8.246  1.00  0.00     0.049 A 
ATOM     59  H   UNL     1      -8.843 -11.139   9.535  1.00  0.00     0.167 HD
ATOM     60  C   UNL     1      -7.446  -7.772  11.958  1.00  0.00     0.037 A 
ATOM     61  C   UNL     1     -10.794 -12.817   8.419  1.00  0.00     0.037 A 
ATOM     62  C   UNL     1      -8.826  -7.967  12.320  1.00  0.00     0.049 A 
ATOM     63  C   UNL     1     -11.489 -11.987   9.457  1.00  0.00     0.074 A 
ATOM     64  C   UNL     1      -9.582  -7.264  13.243  1.00  0.00     0.029 A 
ATOM     65  N   UNL     1      -9.667  -8.914  11.756  1.00  0.00    -0.354 N 
ATOM     66  N   UNL     1     -11.008 -11.006  10.182  1.00  0.00    -0.248 NA
ATOM     67  C   UNL     1     -12.895 -12.310   9.731  1.00  0.00     0.031 C 
ATOM     68  C   UNL     1     -10.872  -7.801  13.254  1.00  0.00     0.029 A 
ATOM     69  C   UNL     1     -10.931  -8.814  12.311  1.00  0.00     0.049 A 
ATOM     70  H   UNL     1      -9.404  -9.562  11.062  1.00  0.00     0.167 HD
ATOM     71  C   UNL     1     -12.054 -10.593  10.996  1.00  0.00     0.074 A 
ATOM     72  C   UNL     1     -13.200 -11.411  10.656  1.00  0.00     0.031 C 
ATOM     73  C   UNL     1     -12.060  -9.632  11.951  1.00  0.00     0.037 A 
BRANCH  60  74
ATOM     74  C   UNL     1      -6.702  -6.644  12.619  1.00  0.00     0.058 A 
ATOM     75  C   UNL     1      -6.417  -5.452  11.936  1.00  0.00     0.135 A 
ATOM     76  C   UNL     1      -6.351  -6.720  13.978  1.00  0.00     0.135 A 
ATOM     77  F   UNL     1      -6.710  -5.335  10.631  1.00  0.00    -0.206 F 
ATOM     78  C   UNL     1      -5.809  -4.376  12.575  1.00  0.00     0.059 A 
ATOM     79  C   UNL     1      -5.763  -5.648  14.643  1.00  0.00     0.059 A 
ATOM     80  F   UNL     1      -6.599  -7.839  14.677  1.00  0.00    -0.206 F 
ATOM     81  C   UNL     1      -5.493  -4.480  13.931  1.00  0.00     0.060 A 
BRANCH  81  82
ATOM     82  S   UNL     1      -4.743  -3.057  14.752  1.00  0.00     0.124 S 
ATOM     83  O   UNL     1      -3.414  -3.042  14.150  1.00  0.00    -0.237 OA
ATOM     84  O   UNL     1      -5.631  -1.968  14.357  1.00  0.00    -0.237 OA
ATOM     85  O   UNL     1      -4.787  -3.417  16.166  1.00  0.00    -0.744 OA
ENDBRANCH  81  82
ENDBRANCH  60  74
BRANCH  61  86
ATOM     86  C   UNL     1     -11.539 -13.833   7.628  1.00  0.00     0.058 A 
ATOM     87  C   UNL     1     -12.515 -13.447   6.697  1.00  0.00     0.135 A 
ATOM     88  C   UNL     1     -11.294 -15.206   7.784  1.00  0.00     0.135 A 
ATOM     89  F   UNL     1     -12.793 -12.146   6.516  1.00  0.00    -0.206 F 
ATOM     90  C   UNL     1     -13.231 -14.385   5.960  1.00  0.00     0.059 A 
ATOM     91  C   UNL     1     -11.973 -16.162   7.037  1.00  0.00     0.059 A 
ATOM     92  F   UNL     1     -10.362 -15.629   8.652  1.00  0.00    -0.206 F 
ATOM     93  C   UNL     1     -12.951 -15.742   6.137  1.00  0.00     0.060 A 
BRANCH  93  94
ATOM     94  S   UNL     1     -13.859 -16.953   5.155  1.00  0.00     0.124 S 
ATOM     95  O   UNL     1     -15.159 -16.948   5.815  1.00  0.00    -0.237 OA
ATOM     96  O   UNL     1     -13.817 -16.363   3.821  1.00  0.00    -0.237 OA
ATOM     97  O   UNL     1     -13.072 -18.172   5.317  1.00  0.00    -0.744 OA
ENDBRANCH  93  94
ENDBRANCH  61  86
BRANCH  73  98
ATOM     98  C   UNL     1     -13.350  -9.398  12.678  1.00  0.00     0.058 A 
ATOM     99  C   UNL     1     -13.800 -10.285  13.668  1.00  0.00     0.135 A 
ATOM    100  C   UNL     1     -14.115  -8.250  12.421  1.00  0.00     0.135 A 
ATOM    101  F   UNL     1     -13.107 -11.402  13.941  1.00  0.00    -0.206 F 
ATOM    102  C   UNL     1     -14.975 -10.047  14.372  1.00  0.00     0.059 A 
ATOM    103  C   UNL     1     -15.281  -7.981  13.128  1.00  0.00     0.059 A 
ATOM    104  F   UNL     1     -13.721  -7.371  11.486  1.00  0.00    -0.206 F 
ATOM    105  C   UNL     1     -15.706  -8.889  14.097  1.00  0.00     0.060 A 
BRANCH 105 106
ATOM    106  S   UNL     1     -17.206  -8.573  15.049  1.00  0.00     0.124 S 
ATOM    107  O   UNL     1     -18.124  -9.559  14.487  1.00  0.00    -0.237 OA
ATOM    108  O   UNL     1     -16.765  -8.825  16.418  1.00  0.00    -0.237 OA
ATOM    109  O   UNL     1     -17.516  -7.180  14.743  1.00  0.00    -0.744 OA
ENDBRANCH 105 106
ENDBRANCH  73  98
ENDBRANCH  47  48
ENDBRANCH  39  42
ENDBRANCH  37  38
ENDBRANCH  36  37
ENDBRANCH   1  36
TORSDOF 19
