REMARK SMILES CC[C@](C)(NC(=O)NC[C@H]1COCCO1)C(=O)NCCCNC(=O)c1ccc(-c2c3nc(c(-c4c(F)cc(S(=O)(=O)[O-])cc4F)c4ccc([nH]4)c(-c4c(F)cc(S(=O)(=O)[O-])cc4F)c4nc(c(-c5c(F)cc(S(=O)(=O)[O-])cc5F)c5ccc2[nH]5)C=C4)C=C3)cc1
REMARK SMILES IDX 20 1 19 2 18 3 16 4 17 5 3 7 4 8 2 9 1 10 5 11 6 12 7 14
REMARK SMILES IDX 8 15 9 17 10 18 11 19 15 20 12 21 14 22 13 23 21 24 22 25
REMARK SMILES IDX 23 26 24 28 25 29 26 30 90 31 27 32 89 33 28 34 29 35 30 36
REMARK SMILES IDX 83 37 31 38 88 39 82 40 84 41 32 42 87 43 81 44 80 45 33 47
REMARK SMILES IDX 67 48 46 49 66 50 47 51 50 52 65 53 85 54 48 55 49 56 64 58
REMARK SMILES IDX 86 59 51 60 34 61 35 62 44 63 36 64 37 65 43 66 45 67 38 68
REMARK SMILES IDX 39 69 40 70 41 71 42 72 68 73 69 74 78 75 70 76 71 77 77 78
REMARK SMILES IDX 79 79 72 80 73 81 74 82 75 83 76 84 52 85 53 86 62 87 54 88
REMARK SMILES IDX 55 89 61 90 63 91 56 92 57 93 58 94 59 95 60 96
REMARK H PARENT 18 6 5 13 8 16 22 27 84 46 50 57
REMARK Flexibility Score: inf
ROOT
ATOM      1  C   UNL     1       4.635   0.265   0.067  1.00  0.00     0.042 C 
ENDROOT
BRANCH   1   2
ATOM      2  C   UNL     1       5.075   0.723  -1.329  1.00  0.00     0.117 C 
BRANCH   2   3
ATOM      3  N   UNL     1       5.173   2.150  -1.599  1.00  0.00    -0.354 N 
ATOM      4  C   UNL     1       6.209   2.997  -1.942  1.00  0.00     0.245 C 
ATOM      5  O   UNL     1       5.987   4.043  -2.559  1.00  0.00    -0.272 OA
ATOM      6  H   UNL     1       4.309   2.615  -1.519  1.00  0.00     0.163 HD
BRANCH   4   7
ATOM      7  C   UNL     1       7.648   2.583  -1.679  1.00  0.00     0.117 C 
ATOM      8  C   UNL     1       8.686   3.716  -1.649  1.00  0.00     0.045 C 
BRANCH   7   9
ATOM      9  C   UNL     1       7.888   1.707  -2.952  1.00  0.00     0.035 C 
ATOM     10  C   UNL     1       9.118   0.839  -3.061  1.00  0.00     0.007 C 
ENDBRANCH   7   9
BRANCH   7  11
ATOM     11  N   UNL     1       7.634   1.951  -0.361  1.00  0.00    -0.324 N 
ATOM     12  C   UNL     1       7.105   2.340   0.819  1.00  0.00     0.315 C 
ATOM     13  H   UNL     1       8.096   1.082  -0.327  1.00  0.00     0.166 HD
ATOM     14  O   UNL     1       7.423   1.667   1.807  1.00  0.00    -0.249 OA
ATOM     15  N   UNL     1       6.182   3.302   1.028  1.00  0.00    -0.335 N 
ATOM     16  H   UNL     1       5.684   3.105   1.854  1.00  0.00     0.165 HD
BRANCH  15  17
ATOM     17  C   UNL     1       5.663   4.568   0.422  1.00  0.00     0.152 C 
BRANCH  17  18
ATOM     18  C   UNL     1       4.097   4.719   0.178  1.00  0.00     0.163 C 
ATOM     19  C   UNL     1       3.701   6.191   0.020  1.00  0.00     0.194 C 
ATOM     20  O   UNL     1       3.502   3.944  -0.886  1.00  0.00    -0.372 OA
ATOM     21  O   UNL     1       4.189   6.683  -1.225  1.00  0.00    -0.376 OA
ATOM     22  C   UNL     1       3.233   4.585  -2.149  1.00  0.00     0.189 C 
ATOM     23  C   UNL     1       3.461   6.087  -2.294  1.00  0.00     0.188 C 
ENDBRANCH  17  18
ENDBRANCH  15  17
ENDBRANCH   7  11
ENDBRANCH   4   7
ENDBRANCH   2   3
ENDBRANCH   1   2
BRANCH   1  24
ATOM     24  C   UNL     1       3.575   1.040   0.843  1.00  0.00     0.118 C 
BRANCH  24  25
ATOM     25  N   UNL     1       2.310   1.208   0.157  1.00  0.00    -0.352 N 
ATOM     26  C   UNL     1       1.030   0.927   0.572  1.00  0.00     0.251 C 
ATOM     27  H   UNL     1       2.378   1.583  -0.751  1.00  0.00     0.163 HD
ATOM     28  O   UNL     1       0.095   1.098  -0.207  1.00  0.00    -0.269 OA
BRANCH  26  29
ATOM     29  C   UNL     1       0.756   0.407   1.936  1.00  0.00     0.039 A 
ATOM     30  C   UNL     1      -0.124  -0.672   2.071  1.00  0.00     0.014 A 
ATOM     31  C   UNL     1       1.291   1.004   3.082  1.00  0.00     0.014 A 
ATOM     32  C   UNL     1      -0.429  -1.177   3.341  1.00  0.00     0.010 A 
ATOM     33  C   UNL     1       1.027   0.463   4.348  1.00  0.00     0.010 A 
ATOM     34  C   UNL     1       0.159  -0.631   4.495  1.00  0.00    -0.014 A 
BRANCH  34  35
ATOM     35  C   UNL     1      -0.140  -1.205   5.840  1.00  0.00     0.031 A 
ATOM     36  C   UNL     1      -0.880  -0.402   6.881  1.00  0.00     0.074 A 
ATOM     37  C   UNL     1       0.265  -2.457   6.139  1.00  0.00     0.049 A 
ATOM     38  N   UNL     1      -1.255  -0.754   8.086  1.00  0.00    -0.248 NA
ATOM     39  C   UNL     1      -1.228   0.983   6.530  1.00  0.00     0.031 C 
ATOM     40  C   UNL     1       1.033  -3.330   5.250  1.00  0.00     0.029 A 
ATOM     41  N   UNL     1       0.086  -3.216   7.271  1.00  0.00    -0.354 N 
ATOM     42  C   UNL     1      -1.879   0.361   8.636  1.00  0.00     0.074 A 
ATOM     43  C   UNL     1      -1.781   1.419   7.653  1.00  0.00     0.031 C 
ATOM     44  C   UNL     1       1.234  -4.511   5.856  1.00  0.00     0.029 A 
ATOM     45  C   UNL     1       0.635  -4.475   7.188  1.00  0.00     0.049 A 
ATOM     46  H   UNL     1      -0.391  -2.889   8.068  1.00  0.00     0.167 HD
ATOM     47  C   UNL     1      -2.498   0.489   9.837  1.00  0.00     0.037 A 
ATOM     48  C   UNL     1       0.653  -5.489   8.076  1.00  0.00     0.037 A 
ATOM     49  C   UNL     1      -2.605  -0.567  10.814  1.00  0.00     0.049 A 
ATOM     50  C   UNL     1      -0.049  -5.328   9.399  1.00  0.00     0.074 A 
ATOM     51  C   UNL     1      -3.252  -0.545  12.039  1.00  0.00     0.029 A 
ATOM     52  N   UNL     1      -2.052  -1.833  10.682  1.00  0.00    -0.354 N 
ATOM     53  N   UNL     1      -0.692  -4.287   9.872  1.00  0.00    -0.248 NA
ATOM     54  C   UNL     1      -0.038  -6.488  10.302  1.00  0.00     0.031 C 
ATOM     55  C   UNL     1      -3.050  -1.779  12.667  1.00  0.00     0.029 A 
ATOM     56  C   UNL     1      -2.330  -2.593  11.808  1.00  0.00     0.049 A 
ATOM     57  H   UNL     1      -1.538  -2.145   9.903  1.00  0.00     0.167 HD
ATOM     58  C   UNL     1      -1.196  -4.680  11.108  1.00  0.00     0.074 A 
ATOM     59  C   UNL     1      -0.791  -6.057  11.304  1.00  0.00     0.031 C 
ATOM     60  C   UNL     1      -1.933  -3.967  11.996  1.00  0.00     0.037 A 
BRANCH  47  61
ATOM     61  C   UNL     1      -3.115   1.824  10.166  1.00  0.00     0.058 A 
ATOM     62  C   UNL     1      -4.253   2.297   9.493  1.00  0.00     0.135 A 
ATOM     63  C   UNL     1      -2.589   2.623  11.195  1.00  0.00     0.135 A 
ATOM     64  F   UNL     1      -4.794   1.582   8.494  1.00  0.00    -0.206 F 
ATOM     65  C   UNL     1      -4.825   3.528   9.802  1.00  0.00     0.059 A 
ATOM     66  C   UNL     1      -3.163   3.843  11.543  1.00  0.00     0.059 A 
ATOM     67  F   UNL     1      -1.506   2.220  11.878  1.00  0.00    -0.206 F 
ATOM     68  C   UNL     1      -4.272   4.295  10.828  1.00  0.00     0.060 A 
BRANCH  68  69
ATOM     69  S   UNL     1      -5.026   5.889  11.213  1.00  0.00     0.124 S 
ATOM     70  O   UNL     1      -4.619   6.689  10.062  1.00  0.00    -0.237 OA
ATOM     71  O   UNL     1      -6.443   5.556  11.286  1.00  0.00    -0.237 OA
ATOM     72  O   UNL     1      -4.406   6.261  12.484  1.00  0.00    -0.744 OA
ENDBRANCH  68  69
ENDBRANCH  47  61
BRANCH  48  73
ATOM     73  C   UNL     1       1.330  -6.770   7.730  1.00  0.00     0.058 A 
ATOM     74  C   UNL     1       0.592  -7.942   7.503  1.00  0.00     0.135 A 
ATOM     75  C   UNL     1       2.727  -6.848   7.621  1.00  0.00     0.135 A 
ATOM     76  F   UNL     1      -0.746  -7.922   7.603  1.00  0.00    -0.206 F 
ATOM     77  C   UNL     1       1.214  -9.150   7.202  1.00  0.00     0.059 A 
ATOM     78  C   UNL     1       3.370  -8.038   7.292  1.00  0.00     0.059 A 
ATOM     79  F   UNL     1       3.479  -5.753   7.813  1.00  0.00    -0.206 F 
ATOM     80  C   UNL     1       2.605  -9.187   7.096  1.00  0.00     0.060 A 
BRANCH  80  81
ATOM     81  S   UNL     1       3.399 -10.749   6.660  1.00  0.00     0.124 S 
ATOM     82  O   UNL     1       3.244 -11.512   7.893  1.00  0.00    -0.237 OA
ATOM     83  O   UNL     1       2.596 -11.195   5.526  1.00  0.00    -0.237 OA
ATOM     84  O   UNL     1       4.765 -10.351   6.332  1.00  0.00    -0.744 OA
ENDBRANCH  80  81
ENDBRANCH  48  73
BRANCH  60  85
ATOM     85  C   UNL     1      -2.404  -4.679  13.238  1.00  0.00     0.058 A 
ATOM     86  C   UNL     1      -1.521  -5.066  14.259  1.00  0.00     0.135 A 
ATOM     87  C   UNL     1      -3.768  -4.965  13.414  1.00  0.00     0.135 A 
ATOM     88  F   UNL     1      -0.206  -4.819  14.145  1.00  0.00    -0.206 F 
ATOM     89  C   UNL     1      -1.966  -5.753  15.385  1.00  0.00     0.059 A 
ATOM     90  C   UNL     1      -4.240  -5.622  14.546  1.00  0.00     0.059 A 
ATOM     91  F   UNL     1      -4.661  -4.605  12.478  1.00  0.00    -0.206 F 
ATOM     92  C   UNL     1      -3.328  -6.031  15.517  1.00  0.00     0.060 A 
BRANCH  92  93
ATOM     93  S   UNL     1      -3.893  -6.929  16.978  1.00  0.00     0.124 S 
ATOM     94  O   UNL     1      -3.442  -8.285  16.682  1.00  0.00    -0.237 OA
ATOM     95  O   UNL     1      -3.187  -6.247  18.058  1.00  0.00    -0.237 OA
ATOM     96  O   UNL     1      -5.340  -6.730  16.960  1.00  0.00    -0.744 OA
ENDBRANCH  92  93
ENDBRANCH  60  85
ENDBRANCH  34  35
ENDBRANCH  26  29
ENDBRANCH  24  25
ENDBRANCH   1  24
TORSDOF 17
