REMARK SMILES O=C(NCCCNC(=O)c1cc2c(c(S(=O)(=O)Nc3cc(C(F)(F)F)ccc3-n3cccn3)c1)CCC2)c1ccc(-c2c3nc(c(-c4c(F)cc(S(=O)(=O)[O-])cc4F)c4ccc([nH]4)c(-c4c(F)cc(S(=O)(=O)[O-])cc4F)c4nc(c(-c5c(F)cc(S(=O)(=O)[O-])cc5F)c5ccc2[nH]5)C=C4)C=C3)cc1
REMARK SMILES IDX 5 1 4 2 3 3 1 4 2 5 38 7 39 8 103 9 40 10 102 11 41 12 42 13
REMARK SMILES IDX 43 14 96 15 44 16 101 17 95 18 97 19 45 20 100 21 94 22
REMARK SMILES IDX 93 23 46 25 80 26 59 27 79 28 60 29 63 30 78 31 98 32 61 33
REMARK SMILES IDX 62 34 77 36 99 37 64 38 47 39 48 40 57 41 49 42 50 43 56 44
REMARK SMILES IDX 58 45 51 46 52 47 53 48 54 49 55 50 81 51 82 52 91 53 83 54
REMARK SMILES IDX 84 55 90 56 92 57 85 58 86 59 87 60 88 61 89 62 65 63 66 64
REMARK SMILES IDX 75 65 67 66 68 67 74 68 76 69 69 70 70 71 71 72 72 73 73 74
REMARK SMILES IDX 6 75 7 76 8 77 9 79 10 80 11 81 34 82 12 83 14 84 13 85
REMARK SMILES IDX 37 86 35 87 36 88 15 89 16 90 17 91 18 92 19 94 20 95 28 96
REMARK SMILES IDX 21 97 27 98 26 99 29 100 30 101 33 102 31 103 32 104 22 105
REMARK SMILES IDX 23 106 24 107 25 108
REMARK H PARENT 3 6 97 24 63 35 7 78 18 93
REMARK Flexibility Score: inf
ROOT
ATOM      1  C   UNL     1       4.987  -1.826   0.947  1.00  0.00     0.042 C 
ENDROOT
BRANCH   1   2
ATOM      2  C   UNL     1       4.648  -1.049  -0.320  1.00  0.00     0.118 C 
BRANCH   2   3
ATOM      3  N   UNL     1       3.232  -0.950  -0.625  1.00  0.00    -0.352 N 
ATOM      4  O   UNL     1       1.120  -0.334  -0.764  1.00  0.00    -0.269 OA
ATOM      5  C   UNL     1       2.183  -0.212  -0.147  1.00  0.00     0.251 C 
ATOM      6  H   UNL     1       2.962  -1.559  -1.349  1.00  0.00     0.163 HD
BRANCH   5   7
ATOM      7  C   UNL     1       2.216   0.667   1.056  1.00  0.00     0.039 A 
ATOM      8  C   UNL     1       3.367   1.100   1.715  1.00  0.00     0.014 A 
ATOM      9  C   UNL     1       0.967   1.099   1.544  1.00  0.00     0.014 A 
ATOM     10  C   UNL     1       3.276   1.891   2.861  1.00  0.00     0.010 A 
ATOM     11  C   UNL     1       0.871   1.913   2.672  1.00  0.00     0.010 A 
ATOM     12  C   UNL     1       2.030   2.299   3.343  1.00  0.00    -0.014 A 
BRANCH  12  13
ATOM     13  C   UNL     1       1.998   3.285   4.428  1.00  0.00     0.031 A 
ATOM     14  C   UNL     1       2.535   4.636   4.082  1.00  0.00     0.074 A 
ATOM     15  C   UNL     1       1.353   3.108   5.599  1.00  0.00     0.049 A 
ATOM     16  N   UNL     1       3.462   5.318   4.675  1.00  0.00    -0.248 NA
ATOM     17  C   UNL     1       2.000   5.282   2.871  1.00  0.00     0.031 C 
ATOM     18  C   UNL     1       0.495   1.982   5.968  1.00  0.00     0.029 A 
ATOM     19  N   UNL     1       1.222   3.965   6.659  1.00  0.00    -0.354 N 
ATOM     20  C   UNL     1       3.475   6.565   4.048  1.00  0.00     0.074 A 
ATOM     21  C   UNL     1       2.667   6.435   2.864  1.00  0.00     0.031 C 
ATOM     22  C   UNL     1      -0.233   2.321   7.054  1.00  0.00     0.029 A 
ATOM     23  C   UNL     1       0.179   3.638   7.517  1.00  0.00     0.049 A 
ATOM     24  H   UNL     1       1.812   4.741   6.800  1.00  0.00     0.167 HD
ATOM     25  C   UNL     1       3.954   7.681   4.663  1.00  0.00     0.037 A 
ATOM     26  C   UNL     1      -0.370   4.417   8.482  1.00  0.00     0.037 A 
ATOM     27  C   UNL     1       4.835   7.361   5.757  1.00  0.00     0.049 A 
ATOM     28  C   UNL     1       0.603   5.482   8.828  1.00  0.00     0.074 A 
ATOM     29  C   UNL     1       5.992   6.621   5.902  1.00  0.00     0.029 A 
ATOM     30  N   UNL     1       4.401   7.620   7.033  1.00  0.00    -0.354 N 
ATOM     31  N   UNL     1       1.728   5.286   9.457  1.00  0.00    -0.248 NA
ATOM     32  C   UNL     1       0.469   6.783   8.188  1.00  0.00     0.031 C 
ATOM     33  C   UNL     1       5.937   6.087   7.223  1.00  0.00     0.029 A 
ATOM     34  C   UNL     1       4.760   6.551   7.809  1.00  0.00     0.049 A 
ATOM     35  H   UNL     1       3.922   8.426   7.334  1.00  0.00     0.167 HD
ATOM     36  C   UNL     1       2.589   6.246   8.951  1.00  0.00     0.074 A 
ATOM     37  C   UNL     1       1.727   7.217   8.291  1.00  0.00     0.031 C 
ATOM     38  C   UNL     1       3.932   6.014   8.865  1.00  0.00     0.037 A 
BRANCH  25  39
ATOM     39  C   UNL     1       3.326   9.054   4.515  1.00  0.00     0.058 A 
ATOM     40  C   UNL     1       3.977  10.178   5.069  1.00  0.00     0.135 A 
ATOM     41  C   UNL     1       1.977   9.258   4.143  1.00  0.00     0.135 A 
ATOM     42  F   UNL     1       5.261  10.101   5.455  1.00  0.00    -0.206 F 
ATOM     43  C   UNL     1       3.309  11.374   5.336  1.00  0.00     0.059 A 
ATOM     44  C   UNL     1       1.309  10.460   4.346  1.00  0.00     0.059 A 
ATOM     45  F   UNL     1       1.210   8.272   3.663  1.00  0.00    -0.206 F 
ATOM     46  C   UNL     1       1.965  11.492   4.996  1.00  0.00     0.060 A 
BRANCH  46  47
ATOM     47  S   UNL     1       1.048  12.962   5.488  1.00  0.00     0.124 S 
ATOM     48  O   UNL     1       0.891  12.731   6.919  1.00  0.00    -0.237 OA
ATOM     49  O   UNL     1       1.961  14.035   5.109  1.00  0.00    -0.237 OA
ATOM     50  O   UNL     1      -0.172  12.875   4.692  1.00  0.00    -0.744 OA
ENDBRANCH  46  47
ENDBRANCH  25  39
BRANCH  26  51
ATOM     51  C   UNL     1      -1.780   4.451   8.958  1.00  0.00     0.058 A 
ATOM     52  C   UNL     1      -2.135   5.133  10.137  1.00  0.00     0.135 A 
ATOM     53  C   UNL     1      -2.849   4.037   8.139  1.00  0.00     0.135 A 
ATOM     54  F   UNL     1      -1.186   5.590  10.967  1.00  0.00    -0.206 F 
ATOM     55  C   UNL     1      -3.465   5.426  10.459  1.00  0.00     0.059 A 
ATOM     56  C   UNL     1      -4.182   4.296   8.450  1.00  0.00     0.059 A 
ATOM     57  F   UNL     1      -2.632   3.446   6.955  1.00  0.00    -0.206 F 
ATOM     58  C   UNL     1      -4.482   5.016   9.599  1.00  0.00     0.060 A 
BRANCH  58  59
ATOM     59  S   UNL     1      -6.184   5.535   9.917  1.00  0.00     0.124 S 
ATOM     60  O   UNL     1      -6.523   4.748  11.098  1.00  0.00    -0.237 OA
ATOM     61  O   UNL     1      -6.035   6.971  10.127  1.00  0.00    -0.237 OA
ATOM     62  O   UNL     1      -6.888   5.157   8.694  1.00  0.00    -0.744 OA
ENDBRANCH  58  59
ENDBRANCH  26  51
BRANCH  38  63
ATOM     63  C   UNL     1       4.529   4.937   9.727  1.00  0.00     0.058 A 
ATOM     64  C   UNL     1       4.187   3.576   9.657  1.00  0.00     0.135 A 
ATOM     65  C   UNL     1       5.583   5.292  10.585  1.00  0.00     0.135 A 
ATOM     66  F   UNL     1       3.274   3.136   8.779  1.00  0.00    -0.206 F 
ATOM     67  C   UNL     1       4.824   2.621  10.450  1.00  0.00     0.059 A 
ATOM     68  C   UNL     1       6.256   4.351  11.358  1.00  0.00     0.059 A 
ATOM     69  F   UNL     1       6.001   6.568  10.648  1.00  0.00    -0.206 F 
ATOM     70  C   UNL     1       5.858   3.018  11.299  1.00  0.00     0.060 A 
BRANCH  70  71
ATOM     71  S   UNL     1       6.730   1.767  12.266  1.00  0.00     0.124 S 
ATOM     72  O   UNL     1       5.766   1.466  13.318  1.00  0.00    -0.237 OA
ATOM     73  O   UNL     1       6.954   0.707  11.287  1.00  0.00    -0.237 OA
ATOM     74  O   UNL     1       7.940   2.459  12.706  1.00  0.00    -0.744 OA
ENDBRANCH  70  71
ENDBRANCH  38  63
ENDBRANCH  12  13
ENDBRANCH   5   7
ENDBRANCH   2   3
ENDBRANCH   1   2
BRANCH   1  75
ATOM     75  C   UNL     1       4.472  -3.262   0.983  1.00  0.00     0.118 C 
BRANCH  75  76
ATOM     76  N   UNL     1       5.146  -4.166   0.050  1.00  0.00    -0.352 N 
ATOM     77  C   UNL     1       5.875  -5.317   0.290  1.00  0.00     0.251 C 
ATOM     78  H   UNL     1       5.069  -3.915  -0.899  1.00  0.00     0.163 HD
ATOM     79  O   UNL     1       6.423  -5.910  -0.634  1.00  0.00    -0.269 OA
BRANCH  77  80
ATOM     80  C   UNL     1       6.029  -5.812   1.679  1.00  0.00     0.041 A 
ATOM     81  C   UNL     1       4.895  -5.947   2.477  1.00  0.00     0.018 A 
ATOM     82  C   UNL     1       7.323  -5.982   2.218  1.00  0.00     0.036 A 
ATOM     83  C   UNL     1       5.084  -5.955   3.842  1.00  0.00    -0.043 A 
ATOM     84  C   UNL     1       7.505  -6.073   3.613  1.00  0.00     0.092 A 
ATOM     85  C   UNL     1       6.373  -5.925   4.407  1.00  0.00    -0.024 A 
ATOM     86  C   UNL     1       4.015  -5.771   4.878  1.00  0.00     0.036 C 
ATOM     87  C   UNL     1       6.232  -5.506   5.839  1.00  0.00     0.037 C 
ATOM     88  C   UNL     1       4.818  -5.997   6.157  1.00  0.00     0.010 C 
BRANCH  84  89
ATOM     89  S   UNL     1       9.162  -6.055   4.269  1.00  0.00     0.262 S 
ATOM     90  O   UNL     1      10.070  -6.129   3.149  1.00  0.00    -0.201 OA
ATOM     91  O   UNL     1       9.261  -4.947   5.204  1.00  0.00    -0.201 OA
BRANCH  89  92
ATOM     92  N   UNL     1       9.500  -7.479   5.159  1.00  0.00    -0.277 N 
ATOM     93  H   UNL     1      10.325  -7.981   4.969  1.00  0.00     0.180 HD
BRANCH  92  94
ATOM     94  C   UNL     1       8.607  -7.955   6.177  1.00  0.00     0.075 A 
ATOM     95  C   UNL     1       8.699  -7.411   7.470  1.00  0.00     0.042 A 
ATOM     96  C   UNL     1       7.563  -8.847   5.878  1.00  0.00     0.089 A 
ATOM     97  C   UNL     1       7.727  -7.704   8.450  1.00  0.00     0.058 A 
ATOM     98  C   UNL     1       6.606  -9.157   6.857  1.00  0.00     0.031 A 
ATOM     99  C   UNL     1       6.692  -8.595   8.133  1.00  0.00     0.015 A 
BRANCH  96 100
ATOM    100  N   UNL     1       7.417  -9.411   4.586  1.00  0.00    -0.239 N 
ATOM    101  C   UNL     1       8.398  -9.687   3.658  1.00  0.00     0.115 A 
ATOM    102  N   UNL     1       6.185  -9.696   4.088  1.00  0.00    -0.177 NA
ATOM    103  C   UNL     1       7.765  -9.931   2.466  1.00  0.00     0.042 A 
ATOM    104  C   UNL     1       6.401  -9.887   2.784  1.00  0.00     0.135 A 
ENDBRANCH  96 100
BRANCH  97 105
ATOM    105  C   UNL     1       7.764  -7.013   9.796  1.00  0.00     0.416 C 
ATOM    106  F   UNL     1       8.760  -7.492  10.590  1.00  0.00    -0.166 F 
ATOM    107  F   UNL     1       7.972  -5.675   9.686  1.00  0.00    -0.166 F 
ATOM    108  F   UNL     1       6.612  -7.161  10.507  1.00  0.00    -0.166 F 
ENDBRANCH  97 105
ENDBRANCH  92  94
ENDBRANCH  89  92
ENDBRANCH  84  89
ENDBRANCH  77  80
ENDBRANCH  75  76
ENDBRANCH   1  75
TORSDOF 18
