REMARK SMILES Nc1ccc(-c2cc(Cl)cc3c2O[C@H](C(F)(F)F)C(C(=O)NCCCNC(=O)c2ccc(-c4c5nc(c(-c6c(F)cc(S(=O)(=O)[O-])cc6F)c6ccc([nH]6)c(-c6c(F)cc(S(=O)(=O)[O-])cc6F)c6nc(c(-c7c(F)cc(S(=O)(=O)[O-])cc7F)c7ccc4[nH]7)C=C6)C=C5)cc2)=C3)cc1
REMARK SMILES IDX 24 1 23 2 22 3 20 4 21 5 19 7 6 8 7 9 12 10 8 11 11 12 13 13
REMARK SMILES IDX 9 14 10 15 95 16 14 17 5 18 2 19 3 20 97 21 4 22 96 23 1 24
REMARK SMILES IDX 15 27 16 28 17 29 18 30 25 31 26 32 27 33 28 35 29 36 30 37
REMARK SMILES IDX 94 38 31 39 93 40 32 41 33 42 34 43 87 44 35 45 92 46 86 47
REMARK SMILES IDX 88 48 36 49 91 50 85 51 84 52 37 54 71 55 50 56 70 57 51 58
REMARK SMILES IDX 54 59 69 60 89 61 52 62 53 63 68 65 90 66 55 67 38 68 39 69
REMARK SMILES IDX 48 70 40 71 41 72 47 73 49 74 42 75 43 76 44 77 45 78 46 79
REMARK SMILES IDX 72 80 73 81 82 82 74 83 75 84 81 85 83 86 76 87 77 88 78 89
REMARK SMILES IDX 79 90 80 91 56 92 57 93 66 94 58 95 59 96 65 97 67 98 60 99
REMARK SMILES IDX 61 100 62 101 63 102 64 103
REMARK H PARENT 22 6 1 25 1 26 26 34 88 53 54 64
REMARK Flexibility Score: inf
ROOT
ATOM      1  C   UNL     1      -3.635  -2.831   6.527  1.00  0.00     0.042 C 
ENDROOT
BRANCH   1   2
ATOM      2  C   UNL     1      -4.284  -3.633   5.409  1.00  0.00     0.118 C 
BRANCH   2   3
ATOM      3  N   UNL     1      -5.607  -3.137   5.063  1.00  0.00    -0.352 N 
ATOM      4  C   UNL     1      -6.160  -2.399   4.071  1.00  0.00     0.251 C 
ATOM      5  O   UNL     1      -7.383  -2.244   4.146  1.00  0.00    -0.270 OA
ATOM      6  H   UNL     1      -6.281  -3.410   5.728  1.00  0.00     0.163 HD
BRANCH   4   7
ATOM      7  C   UNL     1      -5.411  -1.791   2.933  1.00  0.00     0.067 C 
ATOM      8  C   UNL     1      -3.359   0.148  -0.189  1.00  0.00     0.026 A 
ATOM      9  C   UNL     1      -4.104   0.705  -1.239  1.00  0.00     0.033 A 
ATOM     10  C   UNL     1      -4.063  -0.418   0.891  1.00  0.00     0.135 A 
ATOM     11  C   UNL     1      -5.500   0.688  -1.202  1.00  0.00     0.042 A 
ATOM     12  C   UNL     1      -5.463  -0.444   0.927  1.00  0.00     0.019 A 
ATOM     13  O   UNL     1      -3.329  -0.901   1.945  1.00  0.00    -0.475 OA
ATOM     14  Cl  UNL     1      -6.392   1.372  -2.507  1.00  0.00    -0.084 Cl
ATOM     15  C   UNL     1      -6.183   0.118  -0.127  1.00  0.00     0.032 A 
ATOM     16  C   UNL     1      -6.135  -1.043   2.077  1.00  0.00     0.025 C 
ATOM     17  C   UNL     1      -3.941  -1.978   2.696  1.00  0.00     0.314 C 
BRANCH   8  18
ATOM     18  C   UNL     1      -1.888   0.135  -0.228  1.00  0.00    -0.014 A 
ATOM     19  C   UNL     1       0.941   0.081  -0.107  1.00  0.00     0.031 A 
ATOM     20  C   UNL     1       0.214  -1.103  -0.216  1.00  0.00     0.026 A 
ATOM     21  C   UNL     1       0.250   1.293  -0.143  1.00  0.00     0.026 A 
ATOM     22  C   UNL     1      -1.183  -1.079  -0.266  1.00  0.00     0.011 A 
ATOM     23  C   UNL     1      -1.149   1.323  -0.188  1.00  0.00     0.011 A 
BRANCH  19  24
ATOM     24  N   UNL     1       2.328   0.058  -0.110  1.00  0.00    -0.399 N 
ATOM     25  H   UNL     1       2.806  -0.803  -0.085  1.00  0.00     0.156 HD
ATOM     26  H   UNL     1       2.835   0.902  -0.137  1.00  0.00     0.156 HD
ENDBRANCH  19  24
ENDBRANCH   8  18
BRANCH  17  27
ATOM     27  C   UNL     1      -3.608  -3.327   2.027  1.00  0.00     0.429 C 
ATOM     28  F   UNL     1      -2.291  -3.619   2.168  1.00  0.00    -0.167 F 
ATOM     29  F   UNL     1      -4.292  -4.362   2.573  1.00  0.00    -0.167 F 
ATOM     30  F   UNL     1      -3.882  -3.341   0.702  1.00  0.00    -0.167 F 
ENDBRANCH  17  27
ENDBRANCH   4   7
ENDBRANCH   2   3
ENDBRANCH   1   2
BRANCH   1  31
ATOM     31  C   UNL     1      -4.098  -3.266   7.911  1.00  0.00     0.118 C 
BRANCH  31  32
ATOM     32  N   UNL     1      -3.675  -4.625   8.243  1.00  0.00    -0.352 N 
ATOM     33  C   UNL     1      -2.970  -5.099   9.325  1.00  0.00     0.251 C 
ATOM     34  H   UNL     1      -3.935  -5.311   7.587  1.00  0.00     0.163 HD
ATOM     35  O   UNL     1      -2.574  -6.262   9.327  1.00  0.00    -0.269 OA
BRANCH  33  36
ATOM     36  C   UNL     1      -2.669  -4.207  10.464  1.00  0.00     0.039 A 
ATOM     37  C   UNL     1      -3.624  -3.301  10.920  1.00  0.00     0.014 A 
ATOM     38  C   UNL     1      -1.411  -4.263  11.071  1.00  0.00     0.014 A 
ATOM     39  C   UNL     1      -3.256  -2.317  11.826  1.00  0.00     0.010 A 
ATOM     40  C   UNL     1      -1.080  -3.341  12.070  1.00  0.00     0.010 A 
ATOM     41  C   UNL     1      -1.979  -2.321  12.413  1.00  0.00    -0.014 A 
BRANCH  41  42
ATOM     42  C   UNL     1      -1.630  -1.228  13.359  1.00  0.00     0.031 A 
ATOM     43  C   UNL     1      -0.528  -0.251  13.040  1.00  0.00     0.074 A 
ATOM     44  C   UNL     1      -2.397  -1.051  14.455  1.00  0.00     0.049 A 
ATOM     45  N   UNL     1      -0.171   0.825  13.695  1.00  0.00    -0.248 NA
ATOM     46  C   UNL     1       0.282  -0.513  11.840  1.00  0.00     0.031 C 
ATOM     47  C   UNL     1      -3.493  -1.934  14.863  1.00  0.00     0.029 A 
ATOM     48  N   UNL     1      -2.417  -0.048  15.389  1.00  0.00    -0.354 N 
ATOM     49  C   UNL     1       0.910   1.355  13.001  1.00  0.00     0.074 A 
ATOM     50  C   UNL     1       1.176   0.466  11.892  1.00  0.00     0.031 C 
ATOM     51  C   UNL     1      -4.139  -1.384  15.900  1.00  0.00     0.029 A 
ATOM     52  C   UNL     1      -3.463  -0.148  16.278  1.00  0.00     0.049 A 
ATOM     53  H   UNL     1      -1.748   0.674  15.421  1.00  0.00     0.167 HD
ATOM     54  C   UNL     1       1.606   2.489  13.253  1.00  0.00     0.037 A 
ATOM     55  C   UNL     1      -3.840   0.664  17.284  1.00  0.00     0.037 A 
ATOM     56  C   UNL     1       1.314   3.388  14.338  1.00  0.00     0.049 A 
ATOM     57  C   UNL     1      -3.036   1.900  17.560  1.00  0.00     0.074 A 
ATOM     58  C   UNL     1       1.946   4.575  14.665  1.00  0.00     0.029 A 
ATOM     59  N   UNL     1       0.302   3.204  15.269  1.00  0.00    -0.354 N 
ATOM     60  N   UNL     1      -2.018   2.384  16.889  1.00  0.00    -0.248 NA
ATOM     61  C   UNL     1      -3.411   2.687  18.743  1.00  0.00     0.031 C 
ATOM     62  C   UNL     1       1.340   5.090  15.816  1.00  0.00     0.029 A 
ATOM     63  C   UNL     1       0.307   4.242  16.185  1.00  0.00     0.049 A 
ATOM     64  H   UNL     1      -0.326   2.446  15.278  1.00  0.00     0.167 HD
ATOM     65  C   UNL     1      -1.625   3.528  17.571  1.00  0.00     0.074 A 
ATOM     66  C   UNL     1      -2.531   3.680  18.692  1.00  0.00     0.031 C 
ATOM     67  C   UNL     1      -0.598   4.369  17.300  1.00  0.00     0.037 A 
BRANCH  54  68
ATOM     68  C   UNL     1       2.756   2.823  12.343  1.00  0.00     0.058 A 
ATOM     69  C   UNL     1       2.547   3.296  11.038  1.00  0.00     0.135 A 
ATOM     70  C   UNL     1       4.081   2.709  12.794  1.00  0.00     0.135 A 
ATOM     71  F   UNL     1       1.301   3.410  10.552  1.00  0.00    -0.206 F 
ATOM     72  C   UNL     1       3.612   3.622  10.204  1.00  0.00     0.059 A 
ATOM     73  C   UNL     1       5.161   3.050  11.985  1.00  0.00     0.059 A 
ATOM     74  F   UNL     1       4.336   2.262  14.034  1.00  0.00    -0.206 F 
ATOM     75  C   UNL     1       4.916   3.493  10.686  1.00  0.00     0.060 A 
BRANCH  75  76
ATOM     76  S   UNL     1       6.285   3.915   9.586  1.00  0.00     0.124 S 
ATOM     77  O   UNL     1       6.256   2.800   8.645  1.00  0.00    -0.237 OA
ATOM     78  O   UNL     1       5.868   5.207   9.050  1.00  0.00    -0.237 OA
ATOM     79  O   UNL     1       7.440   3.952  10.478  1.00  0.00    -0.744 OA
ENDBRANCH  75  76
ENDBRANCH  54  68
BRANCH  55  80
ATOM     80  C   UNL     1      -5.040   0.323  18.092  1.00  0.00     0.058 A 
ATOM     81  C   UNL     1      -6.220   1.072  17.981  1.00  0.00     0.135 A 
ATOM     82  C   UNL     1      -5.048  -0.790  18.947  1.00  0.00     0.135 A 
ATOM     83  F   UNL     1      -6.259   2.148  17.181  1.00  0.00    -0.206 F 
ATOM     84  C   UNL     1      -7.370   0.725  18.683  1.00  0.00     0.059 A 
ATOM     85  C   UNL     1      -6.191  -1.171  19.641  1.00  0.00     0.059 A 
ATOM     86  F   UNL     1      -3.947  -1.547  19.076  1.00  0.00    -0.206 F 
ATOM     87  C   UNL     1      -7.348  -0.404  19.505  1.00  0.00     0.060 A 
BRANCH  87  88
ATOM     88  S   UNL     1      -8.867  -0.892  20.349  1.00  0.00     0.124 S 
ATOM     89  O   UNL     1      -8.960   0.121  21.394  1.00  0.00    -0.237 OA
ATOM     90  O   UNL     1      -9.856  -0.800  19.279  1.00  0.00    -0.237 OA
ATOM     91  O   UNL     1      -8.576  -2.248  20.807  1.00  0.00    -0.744 OA
ENDBRANCH  87  88
ENDBRANCH  55  80
BRANCH  67  92
ATOM     92  C   UNL     1      -0.378   5.520  18.237  1.00  0.00     0.058 A 
ATOM     93  C   UNL     1       0.238   5.329  19.483  1.00  0.00     0.135 A 
ATOM     94  C   UNL     1      -0.690   6.832  17.848  1.00  0.00     0.135 A 
ATOM     95  F   UNL     1       0.545   4.091  19.902  1.00  0.00    -0.206 F 
ATOM     96  C   UNL     1       0.543   6.402  20.311  1.00  0.00     0.059 A 
ATOM     97  C   UNL     1      -0.376   7.922  18.652  1.00  0.00     0.059 A 
ATOM     98  F   UNL     1      -1.276   7.064  16.662  1.00  0.00    -0.206 F 
ATOM     99  C   UNL     1       0.242   7.696  19.882  1.00  0.00     0.060 A 
BRANCH  99 100
ATOM    100  S   UNL     1       0.719   9.084  20.934  1.00  0.00     0.124 S 
ATOM    101  O   UNL     1      -0.241   8.969  22.027  1.00  0.00    -0.237 OA
ATOM    102  O   UNL     1       2.102   8.759  21.268  1.00  0.00    -0.237 OA
ATOM    103  O   UNL     1       0.546  10.244  20.066  1.00  0.00    -0.744 OA
ENDBRANCH  99 100
ENDBRANCH  67  92
ENDBRANCH  41  42
ENDBRANCH  33  36
ENDBRANCH  31  32
ENDBRANCH   1  31
TORSDOF 16
