REMARK SMILES CCNC(=O)NC(=O)[C@@H](C)[NH2+][C@](C)(C(=O)NCCCNC(=O)c1ccc(-c2c3nc(c(-c4c(F)cc(S(=O)(=O)[O-])cc4F)c4ccc([nH]4)c(-c4c(F)cc(S(=O)(=O)[O-])cc4F)c4nc(c(-c5c(F)cc(S(=O)(=O)[O-])cc5F)c5ccc2[nH]5)C=C4)C=C3)cc1)C(F)(F)F
REMARK SMILES IDX 17 1 16 2 14 3 15 4 12 6 13 7 11 8 9 11 10 12 7 13 3 14 4 15
REMARK SMILES IDX 5 17 6 18 8 20 2 21 1 22 89 23 90 24 91 25 92 26 18 27 19 28
REMARK SMILES IDX 20 29 21 30 22 32 23 33 24 34 88 35 25 36 87 37 26 38 27 39
REMARK SMILES IDX 28 40 81 41 29 42 86 43 80 44 82 45 30 46 85 47 79 48 78 49
REMARK SMILES IDX 31 51 65 52 44 53 64 54 45 55 48 56 63 57 83 58 46 59 47 60
REMARK SMILES IDX 62 62 84 63 49 64 32 65 33 66 42 67 34 68 35 69 41 70 43 71
REMARK SMILES IDX 36 72 37 73 38 74 39 75 40 76 66 77 67 78 76 79 68 80 69 81
REMARK SMILES IDX 75 82 77 83 70 84 71 85 72 86 73 87 74 88 50 89 51 90 60 91
REMARK SMILES IDX 52 92 53 93 59 94 61 95 54 96 55 97 56 98 57 99 58 100
REMARK H PARENT 16 5 11 9 11 10 3 16 6 19 20 31 82 50 48 61
REMARK Flexibility Score: inf
ROOT
ATOM      1  C   UNL     1       2.843   0.560   3.338  1.00  0.00     0.118 C 
ENDROOT
BRANCH   1   2
ATOM      2  N   UNL     1       2.694  -0.865   3.589  1.00  0.00    -0.350 N 
ATOM      3  C   UNL     1       1.691  -1.755   3.314  1.00  0.00     0.290 C 
ATOM      4  O   UNL     1       1.792  -2.852   3.864  1.00  0.00    -0.267 OA
ATOM      5  H   UNL     1       3.467  -1.270   4.046  1.00  0.00     0.163 HD
BRANCH   3   6
ATOM      6  C   UNL     1       0.591  -1.416   2.269  1.00  0.00     0.269 C 
ATOM      7  C   UNL     1      -0.310  -0.274   2.775  1.00  0.00     0.101 C 
BRANCH   6   8
ATOM      8  N   UNL     1       1.342  -1.156   0.979  1.00  0.00    -0.316 N 
ATOM      9  H   UNL     1       2.299  -0.917   1.239  1.00  0.00     0.348 HD
ATOM     10  H   UNL     1       1.200  -2.016   0.449  1.00  0.00     0.348 HD
BRANCH   8  11
ATOM     11  C   UNL     1       0.881  -0.111   0.054  1.00  0.00     0.271 C 
ATOM     12  C   UNL     1      -0.453  -0.275  -0.674  1.00  0.00     0.086 C 
BRANCH  11  13
ATOM     13  C   UNL     1       1.975   0.158  -0.993  1.00  0.00     0.285 C 
ATOM     14  N   UNL     1       2.056  -3.158  -1.907  1.00  0.00    -0.338 N 
ATOM     15  C   UNL     1       2.765  -2.083  -2.244  1.00  0.00     0.321 C 
ATOM     16  H   UNL     1       2.318  -3.959  -2.415  1.00  0.00     0.165 HD
ATOM     17  O   UNL     1       3.682  -2.262  -3.057  1.00  0.00    -0.248 OA
ATOM     18  N   UNL     1       2.591  -0.797  -1.801  1.00  0.00    -0.273 N 
ATOM     19  H   UNL     1       3.240  -0.277  -2.328  1.00  0.00     0.175 HD
ATOM     20  O   UNL     1       2.364   1.326  -1.155  1.00  0.00    -0.268 OA
BRANCH  14  21
ATOM     21  C   UNL     1       0.997  -3.418  -0.974  1.00  0.00     0.114 C 
ATOM     22  C   UNL     1      -0.117  -4.270  -1.543  1.00  0.00     0.027 C 
ENDBRANCH  14  21
ENDBRANCH  11  13
ENDBRANCH   8  11
ENDBRANCH   6   8
BRANCH   6  23
ATOM     23  C   UNL     1      -0.313  -2.693   2.229  1.00  0.00     0.453 C 
ATOM     24  F   UNL     1      -0.902  -2.953   3.420  1.00  0.00    -0.164 F 
ATOM     25  F   UNL     1      -1.328  -2.527   1.338  1.00  0.00    -0.164 F 
ATOM     26  F   UNL     1       0.344  -3.809   1.840  1.00  0.00    -0.164 F 
ENDBRANCH   6  23
ENDBRANCH   3   6
ENDBRANCH   1   2
BRANCH   1  27
ATOM     27  C   UNL     1       2.429   1.381   4.554  1.00  0.00     0.042 C 
BRANCH  27  28
ATOM     28  C   UNL     1       3.221   1.050   5.812  1.00  0.00     0.118 C 
BRANCH  28  29
ATOM     29  N   UNL     1       4.636   1.349   5.673  1.00  0.00    -0.352 N 
ATOM     30  C   UNL     1       5.413   2.265   6.339  1.00  0.00     0.251 C 
ATOM     31  H   UNL     1       5.111   0.813   4.997  1.00  0.00     0.163 HD
ATOM     32  O   UNL     1       6.539   2.512   5.920  1.00  0.00    -0.269 OA
BRANCH  30  33
ATOM     33  C   UNL     1       4.889   2.962   7.534  1.00  0.00     0.039 A 
ATOM     34  C   UNL     1       5.185   4.316   7.705  1.00  0.00     0.014 A 
ATOM     35  C   UNL     1       4.129   2.288   8.494  1.00  0.00     0.014 A 
ATOM     36  C   UNL     1       4.674   5.000   8.809  1.00  0.00     0.010 A 
ATOM     37  C   UNL     1       3.535   2.994   9.535  1.00  0.00     0.010 A 
ATOM     38  C   UNL     1       3.817   4.354   9.717  1.00  0.00    -0.014 A 
BRANCH  38  39
ATOM     39  C   UNL     1       3.228   5.094  10.862  1.00  0.00     0.031 A 
ATOM     40  C   UNL     1       3.555   4.699  12.278  1.00  0.00     0.074 A 
ATOM     41  C   UNL     1       2.379   6.112  10.624  1.00  0.00     0.049 A 
ATOM     42  N   UNL     1       3.177   5.259  13.399  1.00  0.00    -0.248 NA
ATOM     43  C   UNL     1       4.393   3.504  12.460  1.00  0.00     0.031 C 
ATOM     44  C   UNL     1       1.935   6.550   9.298  1.00  0.00     0.029 A 
ATOM     45  N   UNL     1       1.751   6.975  11.485  1.00  0.00    -0.354 N 
ATOM     46  C   UNL     1       3.728   4.485  14.414  1.00  0.00     0.074 A 
ATOM     47  C   UNL     1       4.399   3.373  13.777  1.00  0.00     0.031 C 
ATOM     48  C   UNL     1       1.156   7.635   9.431  1.00  0.00     0.029 A 
ATOM     49  C   UNL     1       1.020   7.950  10.850  1.00  0.00     0.049 A 
ATOM     50  H   UNL     1       1.817   6.903  12.465  1.00  0.00     0.167 HD
ATOM     51  C   UNL     1       3.707   4.696  15.753  1.00  0.00     0.037 A 
ATOM     52  C   UNL     1       0.335   8.995  11.352  1.00  0.00     0.037 A 
ATOM     53  C   UNL     1       3.041   5.808  16.380  1.00  0.00     0.049 A 
ATOM     54  C   UNL     1       0.327   9.215  12.839  1.00  0.00     0.074 A 
ATOM     55  C   UNL     1       2.989   6.140  17.722  1.00  0.00     0.029 A 
ATOM     56  N   UNL     1       2.303   6.771  15.704  1.00  0.00    -0.354 N 
ATOM     57  N   UNL     1       0.906   8.510  13.782  1.00  0.00    -0.248 NA
ATOM     58  C   UNL     1      -0.419  10.381  13.328  1.00  0.00     0.031 C 
ATOM     59  C   UNL     1       2.185   7.278  17.862  1.00  0.00     0.029 A 
ATOM     60  C   UNL     1       1.778   7.686  16.602  1.00  0.00     0.049 A 
ATOM     61  H   UNL     1       2.173   6.799  14.728  1.00  0.00     0.167 HD
ATOM     62  C   UNL     1       0.618   9.163  14.976  1.00  0.00     0.074 A 
ATOM     63  C   UNL     1      -0.175  10.327  14.630  1.00  0.00     0.031 C 
ATOM     64  C   UNL     1       0.978   8.832  16.242  1.00  0.00     0.037 A 
BRANCH  51  65
ATOM     65  C   UNL     1       4.429   3.693  16.616  1.00  0.00     0.058 A 
ATOM     66  C   UNL     1       5.829   3.562  16.581  1.00  0.00     0.135 A 
ATOM     67  C   UNL     1       3.718   2.837  17.471  1.00  0.00     0.135 A 
ATOM     68  F   UNL     1       6.561   4.345  15.772  1.00  0.00    -0.206 F 
ATOM     69  C   UNL     1       6.489   2.582  17.314  1.00  0.00     0.059 A 
ATOM     70  C   UNL     1       4.361   1.871  18.240  1.00  0.00     0.059 A 
ATOM     71  F   UNL     1       2.380   2.919  17.551  1.00  0.00    -0.206 F 
ATOM     72  C   UNL     1       5.744   1.733  18.134  1.00  0.00     0.060 A 
BRANCH  72  73
ATOM     73  S   UNL     1       6.608   0.437  19.046  1.00  0.00     0.124 S 
ATOM     74  O   UNL     1       6.903  -0.518  17.982  1.00  0.00    -0.237 OA
ATOM     75  O   UNL     1       7.758   1.150  19.593  1.00  0.00    -0.237 OA
ATOM     76  O   UNL     1       5.622  -0.002  20.028  1.00  0.00    -0.744 OA
ENDBRANCH  72  73
ENDBRANCH  51  65
BRANCH  52  77
ATOM     77  C   UNL     1      -0.334   9.950  10.429  1.00  0.00     0.058 A 
ATOM     78  C   UNL     1       0.185  11.238  10.234  1.00  0.00     0.135 A 
ATOM     79  C   UNL     1      -1.472   9.584   9.694  1.00  0.00     0.135 A 
ATOM     80  F   UNL     1       1.269  11.635  10.919  1.00  0.00    -0.206 F 
ATOM     81  C   UNL     1      -0.401  12.134   9.347  1.00  0.00     0.059 A 
ATOM     82  C   UNL     1      -2.062  10.454   8.782  1.00  0.00     0.059 A 
ATOM     83  F   UNL     1      -1.996   8.356   9.832  1.00  0.00    -0.206 F 
ATOM     84  C   UNL     1      -1.521  11.729   8.619  1.00  0.00     0.060 A 
BRANCH  84  85
ATOM     85  S   UNL     1      -2.226  12.872   7.411  1.00  0.00     0.124 S 
ATOM     86  O   UNL     1      -2.860  13.860   8.276  1.00  0.00    -0.237 OA
ATOM     87  O   UNL     1      -1.041  13.321   6.688  1.00  0.00    -0.237 OA
ATOM     88  O   UNL     1      -3.137  12.028   6.643  1.00  0.00    -0.744 OA
ENDBRANCH  84  85
ENDBRANCH  52  77
BRANCH  64  89
ATOM     89  C   UNL     1       0.535   9.762  17.339  1.00  0.00     0.058 A 
ATOM     90  C   UNL     1      -0.812   9.866  17.723  1.00  0.00     0.135 A 
ATOM     91  C   UNL     1       1.471  10.565  18.011  1.00  0.00     0.135 A 
ATOM     92  F   UNL     1      -1.748   9.123  17.111  1.00  0.00    -0.206 F 
ATOM     93  C   UNL     1      -1.222  10.769  18.699  1.00  0.00     0.059 A 
ATOM     94  C   UNL     1       1.088  11.452  19.012  1.00  0.00     0.059 A 
ATOM     95  F   UNL     1       2.774  10.495  17.695  1.00  0.00    -0.206 F 
ATOM     96  C   UNL     1      -0.264  11.564  19.332  1.00  0.00     0.060 A 
BRANCH  96  97
ATOM     97  S   UNL     1      -0.808  12.746  20.582  1.00  0.00     0.124 S 
ATOM     98  O   UNL     1      -1.387  13.800  19.755  1.00  0.00    -0.237 OA
ATOM     99  O   UNL     1      -1.758  11.961  21.365  1.00  0.00    -0.237 OA
ATOM    100  O   UNL     1       0.427  13.099  21.276  1.00  0.00    -0.744 OA
ENDBRANCH  96  97
ENDBRANCH  64  89
ENDBRANCH  38  39
ENDBRANCH  30  33
ENDBRANCH  28  29
ENDBRANCH  27  28
ENDBRANCH   1  27
TORSDOF 18
