REMARK SMILES [NH3+][C@]1(C(=O)NCCCNC(=O)c2ccc(-c3c4nc(c(-c5c(F)cc(S(=O)(=O)[O-])cc5F)c5ccc([nH]5)c(-c5c(F)cc(S(=O)(=O)[O-])cc5F)c5nc(c(-c6c(F)cc(S(=O)(=O)[O-])cc6F)c6ccc3[nH]6)C=C5)C=C4)cc2)CCC[C@@H]1CCn1cc(I)cn1
REMARK SMILES IDX 7 1 6 2 5 3 3 4 4 5 2 7 78 8 81 9 79 10 80 11 1 12 82 16
REMARK SMILES IDX 83 17 84 18 85 19 89 20 86 21 88 22 87 23 8 24 9 25 10 26
REMARK SMILES IDX 11 28 12 29 13 30 77 31 14 32 76 33 15 34 16 35 17 36 70 37
REMARK SMILES IDX 18 38 75 39 69 40 71 41 19 42 74 43 68 44 67 45 20 47 54 48
REMARK SMILES IDX 33 49 53 50 34 51 37 52 52 53 72 54 35 55 36 56 51 58 73 59
REMARK SMILES IDX 38 60 21 61 22 62 31 63 23 64 24 65 30 66 32 67 25 68 26 69
REMARK SMILES IDX 27 70 28 71 29 72 55 73 56 74 65 75 57 76 58 77 64 78 66 79
REMARK SMILES IDX 59 80 60 81 61 82 62 83 63 84 39 85 40 86 49 87 41 88 42 89
REMARK SMILES IDX 48 90 50 91 43 92 44 93 45 94 46 95 47 96
REMARK H PARENT 5 6 1 13 1 14 1 15 9 27 71 46 37 57
REMARK Flexibility Score: inf
ROOT
ATOM      1  C   UNL     1       3.244  -2.629   1.619  1.00  0.00     0.042 C 
ENDROOT
BRANCH   1   2
ATOM      2  C   UNL     1       3.411  -1.150   1.301  1.00  0.00     0.118 C 
BRANCH   2   3
ATOM      3  N   UNL     1       2.507  -0.721   0.252  1.00  0.00    -0.351 N 
ATOM      4  C   UNL     1       1.347  -0.032   0.230  1.00  0.00     0.281 C 
ATOM      5  O   UNL     1       0.737  -0.092  -0.847  1.00  0.00    -0.268 OA
ATOM      6  H   UNL     1       2.807  -0.994  -0.645  1.00  0.00     0.163 HD
BRANCH   4   7
ATOM      7  C   UNL     1       0.726   0.776   1.408  1.00  0.00     0.176 C 
ATOM      8  C   UNL     1       1.605   1.064   2.627  1.00  0.00     0.079 C 
ATOM      9  C   UNL     1       0.420   2.232   0.876  1.00  0.00     0.062 C 
ATOM     10  C   UNL     1       1.011   2.315   3.247  1.00  0.00     0.008 C 
ATOM     11  C   UNL     1       0.780   3.196   2.033  1.00  0.00     0.011 C 
BRANCH   7  12
ATOM     12  N   UNL     1      -0.470   0.040   1.873  1.00  0.00    -0.345 N 
ATOM     13  H   UNL     1      -0.901   0.545   2.647  1.00  0.00     0.345 HD
ATOM     14  H   UNL     1      -0.196  -0.891   2.186  1.00  0.00     0.345 HD
ATOM     15  H   UNL     1      -1.138  -0.042   1.106  1.00  0.00     0.345 HD
ENDBRANCH   7  12
BRANCH   9  16
ATOM     16  C   UNL     1      -1.006   2.501   0.334  1.00  0.00     0.034 C 
BRANCH  16  17
ATOM     17  C   UNL     1      -1.011   3.327  -0.962  1.00  0.00     0.145 C 
BRANCH  17  18
ATOM     18  N   UNL     1      -0.696   2.528  -2.134  1.00  0.00    -0.272 N 
ATOM     19  C   UNL     1       0.412   2.627  -2.928  1.00  0.00     0.123 A 
ATOM     20  N   UNL     1      -1.548   1.553  -2.518  1.00  0.00    -0.180 NA
ATOM     21  C   UNL     1       0.343   1.545  -3.768  1.00  0.00     0.051 A 
ATOM     22  C   UNL     1      -0.859   0.896  -3.459  1.00  0.00     0.149 A 
ATOM     23  I   UNL     1       1.722   1.005  -5.126  1.00  0.00    -0.041 I 
ENDBRANCH  17  18
ENDBRANCH  16  17
ENDBRANCH   9  16
ENDBRANCH   4   7
ENDBRANCH   2   3
ENDBRANCH   1   2
BRANCH   1  24
ATOM     24  C   UNL     1       3.583  -3.548   0.451  1.00  0.00     0.118 C 
BRANCH  24  25
ATOM     25  N   UNL     1       4.966  -3.402   0.008  1.00  0.00    -0.352 N 
ATOM     26  C   UNL     1       6.043  -4.233   0.172  1.00  0.00     0.251 C 
ATOM     27  H   UNL     1       5.155  -2.573  -0.488  1.00  0.00     0.163 HD
ATOM     28  O   UNL     1       7.177  -3.806  -0.062  1.00  0.00    -0.269 OA
BRANCH  26  29
ATOM     29  C   UNL     1       5.859  -5.623   0.637  1.00  0.00     0.039 A 
ATOM     30  C   UNL     1       6.765  -6.162   1.555  1.00  0.00     0.014 A 
ATOM     31  C   UNL     1       4.808  -6.405   0.153  1.00  0.00     0.014 A 
ATOM     32  C   UNL     1       6.568  -7.456   2.043  1.00  0.00     0.010 A 
ATOM     33  C   UNL     1       4.560  -7.655   0.709  1.00  0.00     0.010 A 
ATOM     34  C   UNL     1       5.439  -8.197   1.658  1.00  0.00    -0.014 A 
BRANCH  34  35
ATOM     35  C   UNL     1       5.150  -9.532   2.242  1.00  0.00     0.031 A 
ATOM     36  C   UNL     1       5.087 -10.748   1.358  1.00  0.00     0.074 A 
ATOM     37  C   UNL     1       4.866  -9.632   3.556  1.00  0.00     0.049 A 
ATOM     38  N   UNL     1       4.767 -11.978   1.669  1.00  0.00    -0.248 NA
ATOM     39  C   UNL     1       5.394 -10.552  -0.068  1.00  0.00     0.031 C 
ATOM     40  C   UNL     1       4.837  -8.514   4.503  1.00  0.00     0.029 A 
ATOM     41  N   UNL     1       4.533 -10.721   4.322  1.00  0.00    -0.354 N 
ATOM     42  C   UNL     1       4.818 -12.696   0.479  1.00  0.00     0.074 A 
ATOM     43  C   UNL     1       5.146 -11.754  -0.568  1.00  0.00     0.031 C 
ATOM     44  C   UNL     1       4.530  -8.979   5.725  1.00  0.00     0.029 A 
ATOM     45  C   UNL     1       4.297 -10.417   5.642  1.00  0.00     0.049 A 
ATOM     46  H   UNL     1       4.469 -11.634   3.960  1.00  0.00     0.167 HD
ATOM     47  C   UNL     1       4.633 -14.023   0.282  1.00  0.00     0.037 A 
ATOM     48  C   UNL     1       3.923 -11.205   6.669  1.00  0.00     0.037 A 
ATOM     49  C   UNL     1       4.333 -14.958   1.335  1.00  0.00     0.049 A 
ATOM     50  C   UNL     1       3.725 -12.676   6.425  1.00  0.00     0.074 A 
ATOM     51  C   UNL     1       4.192 -16.332   1.252  1.00  0.00     0.029 A 
ATOM     52  N   UNL     1       4.123 -14.615   2.663  1.00  0.00    -0.354 N 
ATOM     53  N   UNL     1       3.848 -13.350   5.306  1.00  0.00    -0.248 NA
ATOM     54  C   UNL     1       3.342 -13.495   7.583  1.00  0.00     0.031 C 
ATOM     55  C   UNL     1       3.852 -16.814   2.520  1.00  0.00     0.029 A 
ATOM     56  C   UNL     1       3.831 -15.748   3.405  1.00  0.00     0.049 A 
ATOM     57  H   UNL     1       4.175 -13.701   3.025  1.00  0.00     0.167 HD
ATOM     58  C   UNL     1       3.579 -14.675   5.629  1.00  0.00     0.074 A 
ATOM     59  C   UNL     1       3.304 -14.710   7.051  1.00  0.00     0.031 C 
ATOM     60  C   UNL     1       3.560 -15.764   4.821  1.00  0.00     0.037 A 
BRANCH  47  61
ATOM     61  C   UNL     1       4.756 -14.545  -1.125  1.00  0.00     0.058 A 
ATOM     62  C   UNL     1       5.994 -14.594  -1.788  1.00  0.00     0.135 A 
ATOM     63  C   UNL     1       3.631 -15.038  -1.806  1.00  0.00     0.135 A 
ATOM     64  F   UNL     1       7.100 -14.123  -1.190  1.00  0.00    -0.206 F 
ATOM     65  C   UNL     1       6.107 -15.083  -3.085  1.00  0.00     0.059 A 
ATOM     66  C   UNL     1       3.726 -15.559  -3.094  1.00  0.00     0.059 A 
ATOM     67  F   UNL     1       2.423 -15.016  -1.222  1.00  0.00    -0.206 F 
ATOM     68  C   UNL     1       4.966 -15.564  -3.730  1.00  0.00     0.060 A 
BRANCH  68  69
ATOM     69  S   UNL     1       5.133 -16.202  -5.411  1.00  0.00     0.124 S 
ATOM     70  O   UNL     1       5.337 -14.972  -6.170  1.00  0.00    -0.237 OA
ATOM     71  O   UNL     1       6.297 -17.076  -5.298  1.00  0.00    -0.237 OA
ATOM     72  O   UNL     1       3.863 -16.881  -5.645  1.00  0.00    -0.744 OA
ENDBRANCH  68  69
ENDBRANCH  47  61
BRANCH  48  73
ATOM     73  C   UNL     1       3.733 -10.620   8.023  1.00  0.00     0.058 A 
ATOM     74  C   UNL     1       4.632 -10.902   9.063  1.00  0.00     0.135 A 
ATOM     75  C   UNL     1       2.664  -9.754   8.302  1.00  0.00     0.135 A 
ATOM     76  F   UNL     1       5.667 -11.728   8.848  1.00  0.00    -0.206 F 
ATOM     77  C   UNL     1       4.470 -10.361  10.334  1.00  0.00     0.059 A 
ATOM     78  C   UNL     1       2.495  -9.180   9.558  1.00  0.00     0.059 A 
ATOM     79  F   UNL     1       1.786  -9.438   7.337  1.00  0.00    -0.206 F 
ATOM     80  C   UNL     1       3.398  -9.497  10.571  1.00  0.00     0.060 A 
BRANCH  80  81
ATOM     81  S   UNL     1       3.227  -8.761  12.211  1.00  0.00     0.124 S 
ATOM     82  O   UNL     1       2.768  -9.899  12.998  1.00  0.00    -0.237 OA
ATOM     83  O   UNL     1       4.585  -8.300  12.484  1.00  0.00    -0.237 OA
ATOM     84  O   UNL     1       2.245  -7.701  12.001  1.00  0.00    -0.744 OA
ENDBRANCH  80  81
ENDBRANCH  48  73
BRANCH  60  85
ATOM     85  C   UNL     1       3.256 -17.091   5.460  1.00  0.00     0.058 A 
ATOM     86  C   UNL     1       1.963 -17.420   5.896  1.00  0.00     0.135 A 
ATOM     87  C   UNL     1       4.260 -18.065   5.590  1.00  0.00     0.135 A 
ATOM     88  F   UNL     1       0.969 -16.522   5.801  1.00  0.00    -0.206 F 
ATOM     89  C   UNL     1       1.681 -18.658   6.463  1.00  0.00     0.059 A 
ATOM     90  C   UNL     1       3.994 -19.320   6.127  1.00  0.00     0.059 A 
ATOM     91  F   UNL     1       5.511 -17.805   5.178  1.00  0.00    -0.206 F 
ATOM     92  C   UNL     1       2.703 -19.603   6.572  1.00  0.00     0.060 A 
BRANCH  92  93
ATOM     93  S   UNL     1       2.316 -21.218   7.279  1.00  0.00     0.124 S 
ATOM     94  O   UNL     1       2.178 -20.895   8.694  1.00  0.00    -0.237 OA
ATOM     95  O   UNL     1       1.081 -21.575   6.586  1.00  0.00    -0.237 OA
ATOM     96  O   UNL     1       3.479 -22.030   6.930  1.00  0.00    -0.744 OA
ENDBRANCH  92  93
ENDBRANCH  60  85
ENDBRANCH  34  35
ENDBRANCH  26  29
ENDBRANCH  24  25
ENDBRANCH   1  24
TORSDOF 17
