REMARK SMILES Cc1ccc(S(=O)(=O)Nc2cc(C(=O)NCCCNC(=O)c3ccc(-c4c5nc(c(-c6c(F)cc(S(=O)(=O)[O-])cc6F)c6ccc([nH]6)c(-c6c(F)cc(S(=O)(=O)[O-])cc6F)c6nc(c(-c7c(F)cc(S(=O)(=O)[O-])cc7F)c7ccc4[nH]7)C=C6)C=C5)cc3)ccc2C)c(Br)c1
REMARK SMILES IDX 17 1 16 2 15 3 13 4 14 5 12 7 10 8 11 9 90 10 89 11 91 12
REMARK SMILES IDX 88 13 9 14 6 16 7 17 8 18 5 19 1 20 2 21 3 22 94 23 4 24
REMARK SMILES IDX 92 25 93 26 18 27 19 28 20 29 21 31 22 32 23 33 87 34 24 35
REMARK SMILES IDX 86 36 25 37 26 38 27 39 80 40 28 41 85 42 79 43 81 44 29 45
REMARK SMILES IDX 84 46 78 47 77 48 30 50 64 51 43 52 63 53 44 54 47 55 62 56
REMARK SMILES IDX 82 57 45 58 46 59 61 61 83 62 48 63 31 64 32 65 41 66 33 67
REMARK SMILES IDX 34 68 40 69 42 70 35 71 36 72 37 73 38 74 39 75 65 76 66 77
REMARK SMILES IDX 75 78 67 79 68 80 74 81 76 82 69 83 70 84 71 85 72 86 73 87
REMARK SMILES IDX 49 88 50 89 59 90 51 91 52 92 58 93 60 94 53 95 54 96 55 97
REMARK SMILES IDX 56 98 57 99
REMARK H PARENT 15 6 9 15 19 30 81 49 47 60
REMARK Flexibility Score: inf
ROOT
ATOM      1  C   UNL     1      -1.375   1.823   3.410  1.00  0.00     0.042 C 
ENDROOT
BRANCH   1   2
ATOM      2  C   UNL     1      -2.526   1.323   2.538  1.00  0.00     0.118 C 
BRANCH   2   3
ATOM      3  N   UNL     1      -3.754   2.072   2.748  1.00  0.00    -0.352 N 
ATOM      4  C   UNL     1      -4.282   3.170   2.114  1.00  0.00     0.251 C 
ATOM      5  O   UNL     1      -5.420   3.524   2.428  1.00  0.00    -0.269 OA
ATOM      6  H   UNL     1      -4.312   1.728   3.483  1.00  0.00     0.163 HD
BRANCH   4   7
ATOM      7  C   UNL     1      -3.582   3.933   1.034  1.00  0.00     0.041 A 
ATOM      8  C   UNL     1      -1.650   4.559  -0.300  1.00  0.00     0.053 A 
ATOM      9  C   UNL     1      -2.200   3.947   0.828  1.00  0.00     0.040 A 
ATOM     10  C   UNL     1      -2.439   5.411  -1.087  1.00  0.00    -0.027 A 
ATOM     11  C   UNL     1      -3.818   5.456  -0.853  1.00  0.00     0.006 A 
ATOM     12  C   UNL     1      -1.873   6.245  -2.204  1.00  0.00     0.046 C 
ATOM     13  C   UNL     1      -4.385   4.697   0.173  1.00  0.00     0.014 A 
BRANCH   8  14
ATOM     14  N   UNL     1      -0.263   4.436  -0.650  1.00  0.00    -0.279 N 
ATOM     15  H   UNL     1       0.187   5.212  -1.057  1.00  0.00     0.180 HD
BRANCH  14  16
ATOM     16  S   UNL     1       0.643   3.015  -0.398  1.00  0.00     0.263 S 
ATOM     17  O   UNL     1       0.992   3.109   1.007  1.00  0.00    -0.201 OA
ATOM     18  O   UNL     1       1.666   3.018  -1.421  1.00  0.00    -0.201 OA
BRANCH  16  19
ATOM     19  C   UNL     1      -0.340   1.552  -0.622  1.00  0.00     0.101 A 
ATOM     20  C   UNL     1      -3.088  -1.759  -0.285  1.00  0.00     0.044 C 
ATOM     21  C   UNL     1      -2.110  -0.635  -0.481  1.00  0.00    -0.050 A 
ATOM     22  C   UNL     1      -2.464   0.517  -1.190  1.00  0.00     0.005 A 
ATOM     23  C   UNL     1      -0.816  -0.736   0.042  1.00  0.00     0.020 A 
ATOM     24  C   UNL     1      -1.576   1.598  -1.280  1.00  0.00     0.024 A 
ATOM     25  C   UNL     1       0.070   0.348  -0.027  1.00  0.00     0.038 A 
ATOM     26  Br  UNL     1       1.810   0.047   0.680  1.00  0.00    -0.049 Br
ENDBRANCH  16  19
ENDBRANCH  14  16
ENDBRANCH   8  14
ENDBRANCH   4   7
ENDBRANCH   2   3
ENDBRANCH   1   2
BRANCH   1  27
ATOM     27  C   UNL     1      -1.361   1.160   4.773  1.00  0.00     0.118 C 
BRANCH  27  28
ATOM     28  N   UNL     1      -0.127   0.454   5.087  1.00  0.00    -0.352 N 
ATOM     29  C   UNL     1       0.136  -0.354   6.190  1.00  0.00     0.251 C 
ATOM     30  H   UNL     1       0.609   0.559   4.442  1.00  0.00     0.163 HD
ATOM     31  O   UNL     1       1.239  -0.788   6.413  1.00  0.00    -0.269 OA
BRANCH  29  32
ATOM     32  C   UNL     1      -1.019  -0.702   7.057  1.00  0.00     0.039 A 
ATOM     33  C   UNL     1      -1.370  -2.049   7.195  1.00  0.00     0.014 A 
ATOM     34  C   UNL     1      -1.871   0.304   7.498  1.00  0.00     0.014 A 
ATOM     35  C   UNL     1      -2.664  -2.379   7.604  1.00  0.00     0.010 A 
ATOM     36  C   UNL     1      -3.185  -0.019   7.762  1.00  0.00     0.010 A 
ATOM     37  C   UNL     1      -3.598  -1.358   7.790  1.00  0.00    -0.014 A 
BRANCH  37  38
ATOM     38  C   UNL     1      -5.035  -1.568   7.960  1.00  0.00     0.031 A 
ATOM     39  C   UNL     1      -5.689  -1.231   9.253  1.00  0.00     0.074 A 
ATOM     40  C   UNL     1      -5.809  -1.946   6.915  1.00  0.00     0.049 A 
ATOM     41  N   UNL     1      -6.820  -1.714   9.649  1.00  0.00    -0.248 NA
ATOM     42  C   UNL     1      -5.088  -0.332  10.232  1.00  0.00     0.031 C 
ATOM     43  C   UNL     1      -7.264  -1.841   6.837  1.00  0.00     0.029 A 
ATOM     44  N   UNL     1      -5.469  -2.688   5.781  1.00  0.00    -0.354 N 
ATOM     45  C   UNL     1      -7.232  -0.987  10.747  1.00  0.00     0.074 A 
ATOM     46  C   UNL     1      -6.089  -0.183  11.104  1.00  0.00     0.031 C 
ATOM     47  C   UNL     1      -7.712  -2.724   5.934  1.00  0.00     0.029 A 
ATOM     48  C   UNL     1      -6.572  -3.512   5.501  1.00  0.00     0.049 A 
ATOM     49  H   UNL     1      -4.625  -2.641   5.277  1.00  0.00     0.167 HD
ATOM     50  C   UNL     1      -8.538  -1.045  11.146  1.00  0.00     0.037 A 
ATOM     51  C   UNL     1      -6.548  -4.875   5.430  1.00  0.00     0.037 A 
ATOM     52  C   UNL     1      -9.300  -1.970  10.310  1.00  0.00     0.049 A 
ATOM     53  C   UNL     1      -7.542  -5.540   6.353  1.00  0.00     0.074 A 
ATOM     54  C   UNL     1     -10.137  -1.768   9.224  1.00  0.00     0.029 A 
ATOM     55  N   UNL     1      -9.050  -3.335  10.369  1.00  0.00    -0.354 N 
ATOM     56  N   UNL     1      -8.118  -4.930   7.349  1.00  0.00    -0.248 NA
ATOM     57  C   UNL     1      -7.935  -6.943   6.261  1.00  0.00     0.031 C 
ATOM     58  C   UNL     1     -10.376  -3.021   8.614  1.00  0.00     0.029 A 
ATOM     59  C   UNL     1      -9.684  -3.984   9.327  1.00  0.00     0.049 A 
ATOM     60  H   UNL     1      -8.498  -3.777  11.054  1.00  0.00     0.167 HD
ATOM     61  C   UNL     1      -8.908  -5.813   8.041  1.00  0.00     0.074 A 
ATOM     62  C   UNL     1      -8.776  -7.056   7.306  1.00  0.00     0.031 C 
ATOM     63  C   UNL     1      -9.586  -5.428   9.164  1.00  0.00     0.037 A 
BRANCH  50  64
ATOM     64  C   UNL     1      -9.205  -0.052  12.087  1.00  0.00     0.058 A 
ATOM     65  C   UNL     1     -10.593   0.208  11.996  1.00  0.00     0.135 A 
ATOM     66  C   UNL     1      -8.540   0.714  13.064  1.00  0.00     0.135 A 
ATOM     67  F   UNL     1     -11.397  -0.522  11.213  1.00  0.00    -0.206 F 
ATOM     68  C   UNL     1     -11.230   1.230  12.703  1.00  0.00     0.059 A 
ATOM     69  C   UNL     1      -9.142   1.778  13.746  1.00  0.00     0.059 A 
ATOM     70  F   UNL     1      -7.291   0.423  13.448  1.00  0.00    -0.206 F 
ATOM     71  C   UNL     1     -10.487   2.042  13.545  1.00  0.00     0.060 A 
BRANCH  71  72
ATOM     72  S   UNL     1     -11.307   3.416  14.374  1.00  0.00     0.124 S 
ATOM     73  O   UNL     1     -11.866   4.163  13.251  1.00  0.00    -0.237 OA
ATOM     74  O   UNL     1     -12.273   2.728  15.224  1.00  0.00    -0.237 OA
ATOM     75  O   UNL     1     -10.217   4.085  15.080  1.00  0.00    -0.744 OA
ENDBRANCH  71  72
ENDBRANCH  50  64
BRANCH  51  76
ATOM     76  C   UNL     1      -5.240  -5.450   5.033  1.00  0.00     0.058 A 
ATOM     77  C   UNL     1      -4.848  -5.298   3.692  1.00  0.00     0.135 A 
ATOM     78  C   UNL     1      -4.242  -5.673   5.992  1.00  0.00     0.135 A 
ATOM     79  F   UNL     1      -5.774  -5.120   2.736  1.00  0.00    -0.206 F 
ATOM     80  C   UNL     1      -3.511  -5.167   3.343  1.00  0.00     0.059 A 
ATOM     81  C   UNL     1      -2.893  -5.547   5.663  1.00  0.00     0.059 A 
ATOM     82  F   UNL     1      -4.567  -5.814   7.285  1.00  0.00    -0.206 F 
ATOM     83  C   UNL     1      -2.551  -5.210   4.352  1.00  0.00     0.060 A 
BRANCH  83  84
ATOM     84  S   UNL     1      -0.902  -4.575   3.963  1.00  0.00     0.124 S 
ATOM     85  O   UNL     1      -0.505  -5.423   2.845  1.00  0.00    -0.237 OA
ATOM     86  O   UNL     1      -1.208  -3.186   3.626  1.00  0.00    -0.237 OA
ATOM     87  O   UNL     1      -0.171  -4.777   5.208  1.00  0.00    -0.744 OA
ENDBRANCH  83  84
ENDBRANCH  51  76
BRANCH  63  88
ATOM     88  C   UNL     1     -10.310  -6.326  10.147  1.00  0.00     0.058 A 
ATOM     89  C   UNL     1     -10.014  -7.684  10.350  1.00  0.00     0.135 A 
ATOM     90  C   UNL     1     -11.274  -5.783  11.036  1.00  0.00     0.135 A 
ATOM     91  F   UNL     1      -9.038  -8.297   9.667  1.00  0.00    -0.206 F 
ATOM     92  C   UNL     1     -10.675  -8.465  11.303  1.00  0.00     0.059 A 
ATOM     93  C   UNL     1     -11.905  -6.528  12.030  1.00  0.00     0.059 A 
ATOM     94  F   UNL     1     -11.632  -4.491  10.982  1.00  0.00    -0.206 F 
ATOM     95  C   UNL     1     -11.622  -7.880  12.138  1.00  0.00     0.060 A 
BRANCH  95  96
ATOM     96  S   UNL     1     -12.439  -8.863  13.407  1.00  0.00     0.124 S 
ATOM     97  O   UNL     1     -13.633  -9.317  12.701  1.00  0.00    -0.237 OA
ATOM     98  O   UNL     1     -11.452  -9.898  13.704  1.00  0.00    -0.237 OA
ATOM     99  O   UNL     1     -12.664  -7.900  14.480  1.00  0.00    -0.744 OA
ENDBRANCH  95  96
ENDBRANCH  63  88
ENDBRANCH  37  38
ENDBRANCH  29  32
ENDBRANCH  27  28
ENDBRANCH   1  27
TORSDOF 16
