REMARK SMILES C[C@@H]1CCN(c2cncc(C(=O)NCCCNC(=O)c3ccc(-c4c5nc(c(-c6c(F)cc(S(=O)(=O)[O-])cc6F)c6ccc([nH]6)c(-c6c(F)cc(S(=O)(=O)[O-])cc6F)c6nc(c(-c7c(F)cc(S(=O)(=O)[O-])cc7F)c7ccc4[nH]7)C=C6)C=C5)cc3)n2)[C@H](C)C1
REMARK SMILES IDX 16 1 15 2 14 3 13 4 11 5 12 6 10 8 6 9 7 10 86 11 8 12 9 13
REMARK SMILES IDX 5 14 1 15 2 16 3 17 89 18 4 19 87 20 88 21 17 22 18 23 19 25
REMARK SMILES IDX 20 26 21 27 85 28 22 29 84 30 23 31 24 32 25 33 78 34 26 35
REMARK SMILES IDX 83 36 77 37 79 38 27 39 82 40 76 41 75 42 28 44 62 45 41 46
REMARK SMILES IDX 61 47 42 48 45 49 60 50 80 51 43 52 44 53 59 55 81 56 46 57
REMARK SMILES IDX 29 58 30 59 39 60 31 61 32 62 38 63 40 64 33 65 34 66 35 67
REMARK SMILES IDX 36 68 37 69 63 70 64 71 73 72 65 73 66 74 72 75 74 76 67 77
REMARK SMILES IDX 68 78 69 79 70 80 71 81 47 82 48 83 57 84 49 85 50 86 56 87
REMARK SMILES IDX 58 88 51 89 52 90 53 91 54 92 55 93
REMARK H PARENT 13 7 17 24 79 43 45 54
REMARK Flexibility Score: inf
ROOT
ATOM      1  C   UNL     1       2.992   4.367  -6.920  1.00  0.00     0.118 C 
ENDROOT
BRANCH   1   2
ATOM      2  C   UNL     1       2.229   3.944  -5.667  1.00  0.00     0.042 C 
BRANCH   2   3
ATOM      3  C   UNL     1       2.215   5.018  -4.584  1.00  0.00     0.118 C 
BRANCH   3   4
ATOM      4  N   UNL     1       1.351   6.135  -4.929  1.00  0.00    -0.351 N 
ATOM      5  C   UNL     1       0.099   6.488  -4.478  1.00  0.00     0.271 C 
ATOM      6  O   UNL     1      -0.402   7.513  -4.947  1.00  0.00    -0.267 OA
ATOM      7  H   UNL     1       1.726   6.746  -5.603  1.00  0.00     0.163 HD
BRANCH   5   8
ATOM      8  C   UNL     1      -0.667   5.703  -3.467  1.00  0.00     0.148 A 
ATOM      9  C   UNL     1      -0.863   3.897  -2.029  1.00  0.00     0.148 A 
ATOM     10  C   UNL     1      -2.153   4.348  -1.722  1.00  0.00     0.157 A 
ATOM     11  N   UNL     1      -0.112   4.603  -2.900  1.00  0.00    -0.222 NA
ATOM     12  N   UNL     1      -2.723   5.464  -2.244  1.00  0.00    -0.258 NA
ATOM     13  C   UNL     1      -1.947   6.125  -3.134  1.00  0.00     0.145 A 
BRANCH   9  14
ATOM     14  N   UNL     1      -0.318   2.771  -1.453  1.00  0.00    -0.353 N 
ATOM     15  C   UNL     1       1.000  -0.215   0.436  1.00  0.00     0.008 C 
ATOM     16  C   UNL     1       0.288   1.087   0.808  1.00  0.00    -0.011 C 
ATOM     17  C   UNL     1      -1.119   1.167   0.192  1.00  0.00     0.025 C 
ATOM     18  C   UNL     1       1.111   2.345   0.472  1.00  0.00     0.028 C 
ATOM     19  C   UNL     1      -1.093   1.550  -1.286  1.00  0.00     0.118 C 
ATOM     20  C   UNL     1       1.074   2.792  -1.003  1.00  0.00     0.081 C 
ATOM     21  C   UNL     1       1.987   1.966  -1.906  1.00  0.00     0.031 C 
ENDBRANCH   9  14
ENDBRANCH   5   8
ENDBRANCH   3   4
ENDBRANCH   2   3
ENDBRANCH   1   2
BRANCH   1  22
ATOM     22  N   UNL     1       4.405   4.619  -6.649  1.00  0.00    -0.352 N 
ATOM     23  C   UNL     1       5.526   4.000  -7.141  1.00  0.00     0.251 C 
ATOM     24  H   UNL     1       4.581   5.349  -6.013  1.00  0.00     0.163 HD
ATOM     25  O   UNL     1       6.618   4.210  -6.614  1.00  0.00    -0.269 OA
BRANCH  23  26
ATOM     26  C   UNL     1       5.423   3.082  -8.292  1.00  0.00     0.039 A 
ATOM     27  C   UNL     1       6.141   1.882  -8.277  1.00  0.00     0.014 A 
ATOM     28  C   UNL     1       4.630   3.412  -9.393  1.00  0.00     0.014 A 
ATOM     29  C   UNL     1       6.002   0.979  -9.335  1.00  0.00     0.010 A 
ATOM     30  C   UNL     1       4.434   2.481 -10.406  1.00  0.00     0.010 A 
ATOM     31  C   UNL     1       5.116   1.254 -10.387  1.00  0.00    -0.014 A 
BRANCH  31  32
ATOM     32  C   UNL     1       4.870   0.286 -11.487  1.00  0.00     0.031 A 
ATOM     33  C   UNL     1       5.193   0.677 -12.905  1.00  0.00     0.074 A 
ATOM     34  C   UNL     1       4.253  -0.884 -11.225  1.00  0.00     0.049 A 
ATOM     35  N   UNL     1       4.886   0.067 -14.018  1.00  0.00    -0.248 NA
ATOM     36  C   UNL     1       5.931   1.938 -13.096  1.00  0.00     0.031 C 
ATOM     37  C   UNL     1       3.857  -1.355  -9.895  1.00  0.00     0.029 A 
ATOM     38  N   UNL     1       3.815  -1.877 -12.068  1.00  0.00    -0.354 N 
ATOM     39  C   UNL     1       5.357   0.883 -15.040  1.00  0.00     0.074 A 
ATOM     40  C   UNL     1       5.948   2.046 -14.417  1.00  0.00     0.031 C 
ATOM     41  C   UNL     1       3.231  -2.537 -10.013  1.00  0.00     0.029 A 
ATOM     42  C   UNL     1       3.133  -2.886 -11.427  1.00  0.00     0.049 A 
ATOM     43  H   UNL     1       3.975  -1.867 -13.040  1.00  0.00     0.167 HD
ATOM     44  C   UNL     1       5.306   0.673 -16.375  1.00  0.00     0.037 A 
ATOM     45  C   UNL     1       2.472  -3.951 -11.922  1.00  0.00     0.037 A 
ATOM     46  C   UNL     1       4.759  -0.512 -16.980  1.00  0.00     0.049 A 
ATOM     47  C   UNL     1       2.440  -4.163 -13.415  1.00  0.00     0.074 A 
ATOM     48  C   UNL     1       4.743  -0.859 -18.320  1.00  0.00     0.029 A 
ATOM     49  N   UNL     1       4.131  -1.538 -16.292  1.00  0.00    -0.354 N 
ATOM     50  N   UNL     1       2.958  -3.418 -14.362  1.00  0.00    -0.248 NA
ATOM     51  C   UNL     1       1.738  -5.356 -13.909  1.00  0.00     0.031 C 
ATOM     52  C   UNL     1       4.054  -2.067 -18.448  1.00  0.00     0.029 A 
ATOM     53  C   UNL     1       3.700  -2.505 -17.182  1.00  0.00     0.049 A 
ATOM     54  H   UNL     1       4.010  -1.573 -15.315  1.00  0.00     0.167 HD
ATOM     55  C   UNL     1       2.682  -4.075 -15.557  1.00  0.00     0.074 A 
ATOM     56  C   UNL     1       1.951  -5.276 -15.216  1.00  0.00     0.031 C 
ATOM     57  C   UNL     1       3.010  -3.717 -16.821  1.00  0.00     0.037 A 
BRANCH  44  58
ATOM     58  C   UNL     1       5.852   1.733 -17.291  1.00  0.00     0.058 A 
ATOM     59  C   UNL     1       7.230   1.963 -17.419  1.00  0.00     0.135 A 
ATOM     60  C   UNL     1       4.986   2.454 -18.130  1.00  0.00     0.135 A 
ATOM     61  F   UNL     1       8.101   1.314 -16.630  1.00  0.00    -0.206 F 
ATOM     62  C   UNL     1       7.731   2.870 -18.347  1.00  0.00     0.059 A 
ATOM     63  C   UNL     1       5.466   3.346 -19.083  1.00  0.00     0.059 A 
ATOM     64  F   UNL     1       3.658   2.275 -18.044  1.00  0.00    -0.206 F 
ATOM     65  C   UNL     1       6.841   3.548 -19.183  1.00  0.00     0.060 A 
BRANCH  65  66
ATOM     66  S   UNL     1       7.514   4.674 -20.423  1.00  0.00     0.124 S 
ATOM     67  O   UNL     1       7.988   5.775 -19.590  1.00  0.00    -0.237 OA
ATOM     68  O   UNL     1       8.551   3.861 -21.049  1.00  0.00    -0.237 OA
ATOM     69  O   UNL     1       6.363   4.978 -21.268  1.00  0.00    -0.744 OA
ENDBRANCH  65  66
ENDBRANCH  44  58
BRANCH  45  70
ATOM     70  C   UNL     1       1.766  -4.893 -11.010  1.00  0.00     0.058 A 
ATOM     71  C   UNL     1       2.199  -6.219 -10.858  1.00  0.00     0.135 A 
ATOM     72  C   UNL     1       0.625  -4.495 -10.294  1.00  0.00     0.135 A 
ATOM     73  F   UNL     1       3.282  -6.651 -11.521  1.00  0.00    -0.206 F 
ATOM     74  C   UNL     1       1.505  -7.128 -10.065  1.00  0.00     0.059 A 
ATOM     75  C   UNL     1      -0.067  -5.376  -9.470  1.00  0.00     0.059 A 
ATOM     76  F   UNL     1       0.179  -3.233 -10.385  1.00  0.00    -0.206 F 
ATOM     77  C   UNL     1       0.368  -6.697  -9.378  1.00  0.00     0.060 A 
BRANCH  77  78
ATOM     78  S   UNL     1      -0.527  -7.883  -8.351  1.00  0.00     0.124 S 
ATOM     79  O   UNL     1      -1.177  -8.711  -9.360  1.00  0.00    -0.237 OA
ATOM     80  O   UNL     1       0.553  -8.517  -7.602  1.00  0.00    -0.237 OA
ATOM     81  O   UNL     1      -1.416  -7.037  -7.560  1.00  0.00    -0.744 OA
ENDBRANCH  77  78
ENDBRANCH  45  70
BRANCH  57  82
ATOM     82  C   UNL     1       2.655  -4.657 -17.939  1.00  0.00     0.058 A 
ATOM     83  C   UNL     1       1.341  -4.790 -18.410  1.00  0.00     0.135 A 
ATOM     84  C   UNL     1       3.673  -5.341 -18.626  1.00  0.00     0.135 A 
ATOM     85  F   UNL     1       0.332  -4.164 -17.783  1.00  0.00    -0.206 F 
ATOM     86  C   UNL     1       1.047  -5.566 -19.526  1.00  0.00     0.059 A 
ATOM     87  C   UNL     1       3.406  -6.099 -19.761  1.00  0.00     0.059 A 
ATOM     88  F   UNL     1       4.948  -5.240 -18.219  1.00  0.00    -0.206 F 
ATOM     89  C   UNL     1       2.088  -6.205 -20.204  1.00  0.00     0.060 A 
BRANCH  89  90
ATOM     90  S   UNL     1       1.704  -7.133 -21.704  1.00  0.00     0.124 S 
ATOM     91  O   UNL     1       1.023  -8.303 -21.160  1.00  0.00    -0.237 OA
ATOM     92  O   UNL     1       0.863  -6.196 -22.442  1.00  0.00    -0.237 OA
ATOM     93  O   UNL     1       3.015  -7.387 -22.293  1.00  0.00    -0.744 OA
ENDBRANCH  89  90
ENDBRANCH  57  82
ENDBRANCH  31  32
ENDBRANCH  23  26
ENDBRANCH   1  22
TORSDOF 14
