REMARK SMILES Cc1ccc(NC(=O)c2cnn3c2NC2=C(C(=O)CCC2)[C@H]3c2ccc(C(=O)NCCCNC(=O)c3ccc(-c4c5nc(c(-c6c(F)cc(S(=O)(=O)[O-])cc6F)c6ccc([nH]6)c(-c6c(F)cc(S(=O)(=O)[O-])cc6F)c6nc(c(-c7c(F)cc(S(=O)(=O)[O-])cc7F)c7ccc4[nH]7)C=C6)C=C5)cc3)cc2)cc1
REMARK SMILES IDX 31 1 30 2 29 3 27 4 28 5 26 7 23 8 24 9 103 10 25 11 102 12
REMARK SMILES IDX 22 13 9 14 10 15 13 16 11 17 12 18 14 19 15 20 16 22 21 23
REMARK SMILES IDX 17 24 20 25 18 26 19 27 7 28 6 29 8 31 5 32 1 33 2 34 3 35
REMARK SMILES IDX 105 36 4 37 104 38 32 39 33 40 34 41 35 43 36 44 37 45
REMARK SMILES IDX 101 46 38 47 100 48 39 49 40 50 41 51 94 52 42 53 99 54
REMARK SMILES IDX 93 55 95 56 43 57 98 58 92 59 91 60 44 62 78 63 57 64 77 65
REMARK SMILES IDX 58 66 61 67 76 68 96 69 59 70 60 71 75 73 97 74 62 75 45 76
REMARK SMILES IDX 46 77 55 78 47 79 48 80 54 81 56 82 49 83 50 84 51 85 52 86
REMARK SMILES IDX 53 87 79 88 80 89 89 90 81 91 82 92 88 93 90 94 83 95 84 96
REMARK SMILES IDX 85 97 86 98 87 99 63 100 64 101 73 102 65 103 66 104 72 105
REMARK SMILES IDX 74 106 67 107 68 108 69 109 70 110 71 111
REMARK H PARENT 29 6 14 21 6 30 33 42 95 61 61 72
REMARK Flexibility Score: inf
ROOT
ATOM      1  C   UNL     1      -0.778  -1.999  -6.089  1.00  0.00     0.042 C 
ENDROOT
BRANCH   1   2
ATOM      2  C   UNL     1      -1.979  -2.856  -6.487  1.00  0.00     0.118 C 
BRANCH   2   3
ATOM      3  N   UNL     1      -1.588  -4.156  -7.026  1.00  0.00    -0.352 N 
ATOM      4  C   UNL     1      -1.432  -5.397  -6.449  1.00  0.00     0.251 C 
ATOM      5  O   UNL     1      -1.282  -6.363  -7.200  1.00  0.00    -0.269 OA
ATOM      6  H   UNL     1      -1.399  -4.142  -7.992  1.00  0.00     0.163 HD
BRANCH   4   7
ATOM      7  C   UNL     1      -1.476  -5.653  -4.977  1.00  0.00     0.039 A 
ATOM      8  C   UNL     1      -1.836  -6.216  -2.205  1.00  0.00    -0.019 A 
ATOM      9  C   UNL     1      -2.034  -7.215  -3.172  1.00  0.00     0.007 A 
ATOM     10  C   UNL     1      -1.242  -5.022  -2.644  1.00  0.00     0.007 A 
ATOM     11  C   UNL     1      -1.864  -6.930  -4.539  1.00  0.00     0.014 A 
ATOM     12  C   UNL     1      -1.099  -4.732  -4.007  1.00  0.00     0.014 A 
BRANCH   8  13
ATOM     13  C   UNL     1      -2.443  -6.341  -0.771  1.00  0.00     0.175 C 
ATOM     14  C   UNL     1      -3.480  -2.958  -0.235  1.00  0.00     0.102 A 
ATOM     15  C   UNL     1      -2.560  -3.210   0.829  1.00  0.00     0.151 A 
ATOM     16  C   UNL     1      -3.732  -4.219  -0.731  1.00  0.00     0.142 A 
ATOM     17  N   UNL     1      -2.067  -4.454   0.823  1.00  0.00    -0.178 NA
ATOM     18  N   UNL     1      -2.706  -5.001  -0.224  1.00  0.00    -0.237 N 
ATOM     19  N   UNL     1      -4.644  -4.827  -1.552  1.00  0.00    -0.343 N 
ATOM     20  C   UNL     1      -4.812  -6.220  -1.459  1.00  0.00     0.026 C 
ATOM     21  H   UNL     1      -5.172  -4.300  -2.194  1.00  0.00     0.168 HD
ATOM     22  C   UNL     1      -3.835  -6.935  -0.847  1.00  0.00     0.044 C 
ATOM     23  C   UNL     1      -6.158  -6.842  -1.697  1.00  0.00     0.055 C 
ATOM     24  C   UNL     1      -4.332  -7.740   0.299  1.00  0.00     0.163 C 
ATOM     25  C   UNL     1      -6.700  -7.545  -0.448  1.00  0.00     0.014 C 
ATOM     26  O   UNL     1      -3.578  -8.468   0.936  1.00  0.00    -0.294 OA
ATOM     27  C   UNL     1      -5.757  -7.441   0.744  1.00  0.00     0.081 C 
BRANCH  14  28
ATOM     28  C   UNL     1      -4.079  -1.709  -0.643  1.00  0.00     0.261 C 
ATOM     29  N   UNL     1      -3.325  -0.548  -0.612  1.00  0.00    -0.322 N 
ATOM     30  H   UNL     1      -3.859   0.278  -0.652  1.00  0.00     0.170 HD
ATOM     31  O   UNL     1      -5.265  -1.647  -0.969  1.00  0.00    -0.269 OA
BRANCH  29  32
ATOM     32  C   UNL     1      -1.931  -0.330  -0.535  1.00  0.00     0.041 A 
ATOM     33  C   UNL     1       2.293   0.425   0.029  1.00  0.00     0.044 C 
ATOM     34  C   UNL     1       0.830   0.192  -0.206  1.00  0.00    -0.051 A 
ATOM     35  C   UNL     1       0.392  -1.052  -0.656  1.00  0.00     0.005 A 
ATOM     36  C   UNL     1      -0.119   1.190   0.035  1.00  0.00     0.005 A 
ATOM     37  C   UNL     1      -0.971  -1.290  -0.852  1.00  0.00     0.026 A 
ATOM     38  C   UNL     1      -1.488   0.933  -0.138  1.00  0.00     0.026 A 
ENDBRANCH  29  32
ENDBRANCH  14  28
ENDBRANCH   8  13
ENDBRANCH   4   7
ENDBRANCH   2   3
ENDBRANCH   1   2
BRANCH   1  39
ATOM     39  C   UNL     1      -0.260  -1.080  -7.191  1.00  0.00     0.118 C 
BRANCH  39  40
ATOM     40  N   UNL     1      -0.335   0.328  -6.804  1.00  0.00    -0.352 N 
ATOM     41  C   UNL     1       0.401   1.396  -7.289  1.00  0.00     0.251 C 
ATOM     42  H   UNL     1      -0.995   0.546  -6.107  1.00  0.00     0.163 HD
ATOM     43  O   UNL     1       0.359   2.508  -6.795  1.00  0.00    -0.269 OA
BRANCH  41  44
ATOM     44  C   UNL     1       1.180   1.143  -8.514  1.00  0.00     0.039 A 
ATOM     45  C   UNL     1       0.623   1.578  -9.720  1.00  0.00     0.014 A 
ATOM     46  C   UNL     1       2.211   0.210  -8.476  1.00  0.00     0.014 A 
ATOM     47  C   UNL     1       0.962   0.922 -10.897  1.00  0.00     0.010 A 
ATOM     48  C   UNL     1       2.486  -0.493  -9.632  1.00  0.00     0.010 A 
ATOM     49  C   UNL     1       1.819  -0.174 -10.828  1.00  0.00    -0.014 A 
BRANCH  49  50
ATOM     50  C   UNL     1       1.999  -1.116 -11.925  1.00  0.00     0.031 A 
ATOM     51  C   UNL     1       3.271  -1.141 -12.679  1.00  0.00     0.074 A 
ATOM     52  C   UNL     1       1.045  -2.038 -12.184  1.00  0.00     0.049 A 
ATOM     53  N   UNL     1       3.422  -1.680 -13.841  1.00  0.00    -0.248 NA
ATOM     54  C   UNL     1       4.484  -0.504 -12.183  1.00  0.00     0.031 C 
ATOM     55  C   UNL     1       1.192  -3.257 -12.972  1.00  0.00     0.029 A 
ATOM     56  N   UNL     1      -0.328  -1.946 -11.937  1.00  0.00    -0.354 N 
ATOM     57  C   UNL     1       4.771  -1.722 -14.116  1.00  0.00     0.074 A 
ATOM     58  C   UNL     1       5.381  -0.920 -13.081  1.00  0.00     0.031 C 
ATOM     59  C   UNL     1      -0.022  -3.676 -13.360  1.00  0.00     0.029 A 
ATOM     60  C   UNL     1      -0.976  -2.655 -12.968  1.00  0.00     0.049 A 
ATOM     61  H   UNL     1      -0.759  -1.477 -11.187  1.00  0.00     0.167 HD
ATOM     62  C   UNL     1       5.224  -2.542 -15.109  1.00  0.00     0.037 A 
ATOM     63  C   UNL     1      -1.836  -2.034 -13.827  1.00  0.00     0.037 A 
ATOM     64  C   UNL     1       4.110  -3.178 -15.813  1.00  0.00     0.049 A 
ATOM     65  C   UNL     1      -1.407  -2.092 -15.275  1.00  0.00     0.074 A 
ATOM     66  C   UNL     1       3.518  -4.426 -15.699  1.00  0.00     0.029 A 
ATOM     67  N   UNL     1       3.245  -2.403 -16.578  1.00  0.00    -0.354 N 
ATOM     68  N   UNL     1      -0.193  -2.362 -15.668  1.00  0.00    -0.248 NA
ATOM     69  C   UNL     1      -2.311  -1.855 -16.396  1.00  0.00     0.031 C 
ATOM     70  C   UNL     1       2.269  -4.386 -16.365  1.00  0.00     0.029 A 
ATOM     71  C   UNL     1       2.106  -3.119 -16.897  1.00  0.00     0.049 A 
ATOM     72  H   UNL     1       3.419  -1.474 -16.854  1.00  0.00     0.167 HD
ATOM     73  C   UNL     1      -0.126  -2.320 -17.039  1.00  0.00     0.074 A 
ATOM     74  C   UNL     1      -1.488  -2.026 -17.446  1.00  0.00     0.031 C 
ATOM     75  C   UNL     1       1.049  -2.529 -17.710  1.00  0.00     0.037 A 
BRANCH  62  76
ATOM     76  C   UNL     1       6.668  -2.999 -15.227  1.00  0.00     0.058 A 
ATOM     77  C   UNL     1       6.984  -4.281 -15.733  1.00  0.00     0.135 A 
ATOM     78  C   UNL     1       7.784  -2.255 -14.796  1.00  0.00     0.135 A 
ATOM     79  F   UNL     1       6.053  -5.066 -16.290  1.00  0.00    -0.206 F 
ATOM     80  C   UNL     1       8.270  -4.826 -15.685  1.00  0.00     0.059 A 
ATOM     81  C   UNL     1       9.070  -2.798 -14.683  1.00  0.00     0.059 A 
ATOM     82  F   UNL     1       7.684  -0.949 -14.517  1.00  0.00    -0.206 F 
ATOM     83  C   UNL     1       9.301  -4.094 -15.117  1.00  0.00     0.060 A 
BRANCH  83  84
ATOM     84  S   UNL     1      10.931  -4.850 -14.972  1.00  0.00     0.124 S 
ATOM     85  O   UNL     1      10.634  -6.090 -14.260  1.00  0.00    -0.237 OA
ATOM     86  O   UNL     1      11.323  -4.998 -16.369  1.00  0.00    -0.237 OA
ATOM     87  O   UNL     1      11.695  -3.867 -14.208  1.00  0.00    -0.744 OA
ENDBRANCH  83  84
ENDBRANCH  62  76
BRANCH  63  88
ATOM     88  C   UNL     1      -2.620  -0.944 -13.186  1.00  0.00     0.058 A 
ATOM     89  C   UNL     1      -3.576  -1.316 -12.222  1.00  0.00     0.135 A 
ATOM     90  C   UNL     1      -2.149   0.376 -13.156  1.00  0.00     0.135 A 
ATOM     91  F   UNL     1      -4.071  -2.565 -12.215  1.00  0.00    -0.206 F 
ATOM     92  C   UNL     1      -3.924  -0.474 -11.172  1.00  0.00     0.059 A 
ATOM     93  C   UNL     1      -2.491   1.242 -12.113  1.00  0.00     0.059 A 
ATOM     94  F   UNL     1      -1.241   0.790 -14.051  1.00  0.00    -0.206 F 
ATOM     95  C   UNL     1      -3.322   0.779 -11.091  1.00  0.00     0.060 A 
BRANCH  95  96
ATOM     96  S   UNL     1      -3.495   1.691  -9.537  1.00  0.00     0.124 S 
ATOM     97  O   UNL     1      -4.930   1.950  -9.496  1.00  0.00    -0.237 OA
ATOM     98  O   UNL     1      -3.003   0.717  -8.562  1.00  0.00    -0.237 OA
ATOM     99  O   UNL     1      -2.647   2.860  -9.737  1.00  0.00    -0.744 OA
ENDBRANCH  95  96
ENDBRANCH  63  88
BRANCH  75 100
ATOM    100  C   UNL     1       1.315  -2.308 -19.190  1.00  0.00     0.058 A 
ATOM    101  C   UNL     1       0.572  -1.449 -20.018  1.00  0.00     0.135 A 
ATOM    102  C   UNL     1       2.459  -2.884 -19.804  1.00  0.00     0.135 A 
ATOM    103  F   UNL     1      -0.463  -0.741 -19.547  1.00  0.00    -0.206 F 
ATOM    104  C   UNL     1       0.893  -1.231 -21.362  1.00  0.00     0.059 A 
ATOM    105  C   UNL     1       2.832  -2.632 -21.123  1.00  0.00     0.059 A 
ATOM    106  F   UNL     1       3.280  -3.707 -19.134  1.00  0.00    -0.206 F 
ATOM    107  C   UNL     1       2.027  -1.824 -21.907  1.00  0.00     0.060 A 
BRANCH 107 108
ATOM    108  S   UNL     1       2.491  -1.479 -23.613  1.00  0.00     0.124 S 
ATOM    109  O   UNL     1       1.769  -2.526 -24.329  1.00  0.00    -0.237 OA
ATOM    110  O   UNL     1       1.995  -0.121 -23.815  1.00  0.00    -0.237 OA
ATOM    111  O   UNL     1       3.945  -1.609 -23.597  1.00  0.00    -0.744 OA
ENDBRANCH 107 108
ENDBRANCH  75 100
ENDBRANCH  49  50
ENDBRANCH  41  44
ENDBRANCH  39  40
ENDBRANCH   1  39
TORSDOF 16
