REMARK SMILES O=C(NCCCNC(=O)[C@@H](Cc1ccccc1)/N=C1\C(=O)c2ccccc2C(=O)[C@H]1Cl)c1ccc(-c2c3nc(c(-c4c(F)cc(S(=O)(=O)[O-])cc4F)c4ccc([nH]4)c(-c4c(F)cc(S(=O)(=O)[O-])cc4F)c4nc(c(-c5c(F)cc(S(=O)(=O)[O-])cc5F)c5ccc2[nH]5)C=C4)C=C3)cc1
REMARK SMILES IDX 4 1 3 2 1 3 2 4 32 6 33 7 97 8 34 9 96 10 35 11 36 12 37 13
REMARK SMILES IDX 90 14 38 15 95 16 89 17 91 18 39 19 94 20 88 21 87 22 40 24
REMARK SMILES IDX 74 25 53 26 73 27 54 28 57 29 72 30 92 31 55 32 56 33 71 35
REMARK SMILES IDX 93 36 58 37 41 38 42 39 51 40 43 41 44 42 50 43 52 44 45 45
REMARK SMILES IDX 46 46 47 47 48 48 49 49 75 50 76 51 85 52 77 53 78 54 84 55
REMARK SMILES IDX 86 56 79 57 80 58 81 59 82 60 83 61 59 62 60 63 69 64 61 65
REMARK SMILES IDX 62 66 68 67 70 68 63 69 64 70 65 71 66 72 67 73 5 74 6 75
REMARK SMILES IDX 7 76 8 77 9 79 10 80 11 81 12 82 13 83 17 84 14 85 16 86
REMARK SMILES IDX 15 87 18 88 19 89 20 90 30 91 21 92 22 93 28 94 31 95 23 96
REMARK SMILES IDX 27 97 29 98 24 99 26 100 25 101
REMARK H PARENT 3 5 91 23 57 34 7 78
REMARK Flexibility Score: inf
ROOT
ATOM      1  C   UNL     1       4.407   2.523  -0.745  1.00  0.00     0.118 C 
ENDROOT
BRANCH   1   2
ATOM      2  N   UNL     1       3.122   1.912  -0.440  1.00  0.00    -0.352 N 
ATOM      3  O   UNL     1       1.510   0.565   0.220  1.00  0.00    -0.269 OA
ATOM      4  C   UNL     1       2.698   0.877   0.350  1.00  0.00     0.251 C 
ATOM      5  H   UNL     1       2.378   2.348  -0.916  1.00  0.00     0.163 HD
BRANCH   4   6
ATOM      6  C   UNL     1       3.536   0.121   1.333  1.00  0.00     0.039 A 
ATOM      7  C   UNL     1       4.896   0.316   1.572  1.00  0.00     0.014 A 
ATOM      8  C   UNL     1       2.866  -0.844   2.114  1.00  0.00     0.014 A 
ATOM      9  C   UNL     1       5.564  -0.409   2.567  1.00  0.00     0.010 A 
ATOM     10  C   UNL     1       3.522  -1.556   3.127  1.00  0.00     0.010 A 
ATOM     11  C   UNL     1       4.877  -1.329   3.368  1.00  0.00    -0.014 A 
BRANCH  11  12
ATOM     12  C   UNL     1       5.569  -1.932   4.529  1.00  0.00     0.031 A 
ATOM     13  C   UNL     1       6.178  -3.297   4.457  1.00  0.00     0.074 A 
ATOM     14  C   UNL     1       5.686  -1.198   5.651  1.00  0.00     0.049 A 
ATOM     15  N   UNL     1       6.955  -3.893   5.325  1.00  0.00    -0.248 NA
ATOM     16  C   UNL     1       5.874  -4.097   3.263  1.00  0.00     0.031 C 
ATOM     17  C   UNL     1       5.101   0.130   5.852  1.00  0.00     0.029 A 
ATOM     18  N   UNL     1       6.360  -1.450   6.817  1.00  0.00    -0.354 N 
ATOM     19  C   UNL     1       7.234  -5.141   4.789  1.00  0.00     0.074 A 
ATOM     20  C   UNL     1       6.535  -5.220   3.521  1.00  0.00     0.031 C 
ATOM     21  C   UNL     1       5.478   0.595   7.053  1.00  0.00     0.029 A 
ATOM     22  C   UNL     1       6.336  -0.396   7.697  1.00  0.00     0.049 A 
ATOM     23  H   UNL     1       6.816  -2.302   7.006  1.00  0.00     0.167 HD
ATOM     24  C   UNL     1       8.005  -6.128   5.305  1.00  0.00     0.037 A 
ATOM     25  C   UNL     1       6.965  -0.228   8.874  1.00  0.00     0.037 A 
ATOM     26  C   UNL     1       8.701  -6.053   6.563  1.00  0.00     0.049 A 
ATOM     27  C   UNL     1       7.876  -1.299   9.389  1.00  0.00     0.074 A 
ATOM     28  C   UNL     1       9.508  -7.005   7.165  1.00  0.00     0.029 A 
ATOM     29  N   UNL     1       8.676  -4.959   7.415  1.00  0.00    -0.354 N 
ATOM     30  N   UNL     1       8.166  -2.457   8.849  1.00  0.00    -0.248 NA
ATOM     31  C   UNL     1       8.557  -1.033  10.662  1.00  0.00     0.031 C 
ATOM     32  C   UNL     1       9.970  -6.484   8.382  1.00  0.00     0.029 A 
ATOM     33  C   UNL     1       9.455  -5.207   8.533  1.00  0.00     0.049 A 
ATOM     34  H   UNL     1       8.177  -4.127   7.248  1.00  0.00     0.167 HD
ATOM     35  C   UNL     1       9.067  -3.061   9.715  1.00  0.00     0.074 A 
ATOM     36  C   UNL     1       9.281  -2.136  10.811  1.00  0.00     0.031 C 
ATOM     37  C   UNL     1       9.661  -4.275   9.611  1.00  0.00     0.037 A 
BRANCH  24  38
ATOM     38  C   UNL     1       8.128  -7.379   4.492  1.00  0.00     0.058 A 
ATOM     39  C   UNL     1       9.077  -7.481   3.464  1.00  0.00     0.135 A 
ATOM     40  C   UNL     1       7.288  -8.476   4.730  1.00  0.00     0.135 A 
ATOM     41  F   UNL     1       9.890  -6.449   3.191  1.00  0.00    -0.206 F 
ATOM     42  C   UNL     1       9.174  -8.625   2.679  1.00  0.00     0.059 A 
ATOM     43  C   UNL     1       7.370  -9.632   3.961  1.00  0.00     0.059 A 
ATOM     44  F   UNL     1       6.359  -8.419   5.697  1.00  0.00    -0.206 F 
ATOM     45  C   UNL     1       8.305  -9.690   2.925  1.00  0.00     0.060 A 
BRANCH  45  46
ATOM     46  S   UNL     1       8.394 -11.164   1.886  1.00  0.00     0.124 S 
ATOM     47  O   UNL     1       7.468 -10.813   0.814  1.00  0.00    -0.237 OA
ATOM     48  O   UNL     1       9.803 -11.215   1.512  1.00  0.00    -0.237 OA
ATOM     49  O   UNL     1       7.949 -12.226   2.783  1.00  0.00    -0.744 OA
ENDBRANCH  45  46
ENDBRANCH  24  38
BRANCH  25  50
ATOM     50  C   UNL     1       6.798   1.051   9.598  1.00  0.00     0.058 A 
ATOM     51  C   UNL     1       7.693   2.109   9.386  1.00  0.00     0.135 A 
ATOM     52  C   UNL     1       5.701   1.266  10.441  1.00  0.00     0.135 A 
ATOM     53  F   UNL     1       8.751   1.942   8.578  1.00  0.00    -0.206 F 
ATOM     54  C   UNL     1       7.497   3.352   9.977  1.00  0.00     0.059 A 
ATOM     55  C   UNL     1       5.482   2.501  11.040  1.00  0.00     0.059 A 
ATOM     56  F   UNL     1       4.817   0.281  10.658  1.00  0.00    -0.206 F 
ATOM     57  C   UNL     1       6.385   3.539  10.799  1.00  0.00     0.060 A 
BRANCH  57  58
ATOM     58  S   UNL     1       6.050   5.175  11.489  1.00  0.00     0.124 S 
ATOM     59  O   UNL     1       6.652   5.063  12.812  1.00  0.00    -0.237 OA
ATOM     60  O   UNL     1       6.729   6.068  10.554  1.00  0.00    -0.237 OA
ATOM     61  O   UNL     1       4.592   5.241  11.455  1.00  0.00    -0.744 OA
ENDBRANCH  57  58
ENDBRANCH  25  50
BRANCH  37  62
ATOM     62  C   UNL     1      10.595  -4.660  10.716  1.00  0.00     0.058 A 
ATOM     63  C   UNL     1      10.115  -5.260  11.890  1.00  0.00     0.135 A 
ATOM     64  C   UNL     1      11.973  -4.427  10.605  1.00  0.00     0.135 A 
ATOM     65  F   UNL     1       8.802  -5.495  12.040  1.00  0.00    -0.206 F 
ATOM     66  C   UNL     1      10.972  -5.601  12.931  1.00  0.00     0.059 A 
ATOM     67  C   UNL     1      12.849  -4.764  11.632  1.00  0.00     0.059 A 
ATOM     68  F   UNL     1      12.475  -3.852   9.501  1.00  0.00    -0.206 F 
ATOM     69  C   UNL     1      12.337  -5.339  12.796  1.00  0.00     0.060 A 
BRANCH  69  70
ATOM     70  S   UNL     1      13.465  -5.777  14.137  1.00  0.00     0.124 S 
ATOM     71  O   UNL     1      13.508  -4.533  14.899  1.00  0.00    -0.237 OA
ATOM     72  O   UNL     1      12.785  -6.893  14.788  1.00  0.00    -0.237 OA
ATOM     73  O   UNL     1      14.692  -6.129  13.429  1.00  0.00    -0.744 OA
ENDBRANCH  69  70
ENDBRANCH  37  62
ENDBRANCH  11  12
ENDBRANCH   4   6
ENDBRANCH   1   2
BRANCH   1  74
ATOM     74  C   UNL     1       5.268   1.645  -1.655  1.00  0.00     0.042 C 
BRANCH  74  75
ATOM     75  C   UNL     1       4.591   1.331  -2.984  1.00  0.00     0.117 C 
BRANCH  75  76
ATOM     76  N   UNL     1       4.968   2.228  -4.051  1.00  0.00    -0.354 N 
ATOM     77  C   UNL     1       5.283   1.938  -5.343  1.00  0.00     0.245 C 
ATOM     78  H   UNL     1       5.001   3.182  -3.811  1.00  0.00     0.163 HD
ATOM     79  O   UNL     1       5.149   2.861  -6.159  1.00  0.00    -0.273 OA
BRANCH  77  80
ATOM     80  C   UNL     1       5.849   0.584  -5.801  1.00  0.00     0.199 C 
BRANCH  80  81
ATOM     81  C   UNL     1       6.942  -0.108  -4.954  1.00  0.00     0.073 C 
BRANCH  81  82
ATOM     82  C   UNL     1       6.598  -1.281  -4.060  1.00  0.00    -0.045 A 
ATOM     83  C   UNL     1       6.928  -1.242  -2.696  1.00  0.00     0.004 A 
ATOM     84  C   UNL     1       6.041  -2.461  -4.570  1.00  0.00     0.004 A 
ATOM     85  C   UNL     1       6.620  -2.309  -1.850  1.00  0.00     0.000 A 
ATOM     86  C   UNL     1       5.732  -3.531  -3.726  1.00  0.00     0.000 A 
ATOM     87  C   UNL     1       6.008  -3.449  -2.364  1.00  0.00     0.000 A 
ENDBRANCH  81  82
ENDBRANCH  80  81
BRANCH  80  88
ATOM     88  N   UNL     1       4.955  -0.334  -6.516  1.00  0.00    -0.270 NA
ATOM     89  C   UNL     1       3.732  -0.663  -6.325  1.00  0.00     0.109 C 
ATOM     90  C   UNL     1       2.801  -0.198  -5.247  1.00  0.00     0.209 C 
ATOM     91  C   UNL     1       3.139  -1.766  -7.155  1.00  0.00     0.205 C 
ATOM     92  O   UNL     1       2.508   0.977  -5.128  1.00  0.00    -0.287 OA
ATOM     93  C   UNL     1       2.201  -1.266  -4.427  1.00  0.00     0.035 A 
ATOM     94  C   UNL     1       2.603  -2.893  -6.303  1.00  0.00     0.187 C 
ATOM     95  Cl  UNL     1       1.811  -1.118  -8.144  1.00  0.00    -0.107 Cl
ATOM     96  C   UNL     1       1.681  -0.966  -3.164  1.00  0.00     0.013 A 
ATOM     97  C   UNL     1       2.156  -2.575  -4.918  1.00  0.00     0.031 A 
ATOM     98  O   UNL     1       2.484  -4.039  -6.731  1.00  0.00    -0.292 OA
ATOM     99  C   UNL     1       1.168  -1.988  -2.365  1.00  0.00     0.001 A 
ATOM    100  C   UNL     1       1.633  -3.595  -4.113  1.00  0.00     0.012 A 
ATOM    101  C   UNL     1       1.151  -3.301  -2.836  1.00  0.00     0.001 A 
ENDBRANCH  80  88
ENDBRANCH  77  80
ENDBRANCH  75  76
ENDBRANCH  74  75
ENDBRANCH   1  74
TORSDOF 16
