REMARK SMILES Cc1cc(C(=O)N[C@H](CC(C)C)C(=O)NCCCNC(=O)c2ccc(-c3c4nc(c(-c5c(F)cc(S(=O)(=O)[O-])cc5F)c5ccc([nH]5)c(-c5c(F)cc(S(=O)(=O)[O-])cc5F)c5nc(c(-c6c(F)cc(S(=O)(=O)[O-])cc6F)c6ccc3[nH]6)C=C5)C=C4)cc2)sc1Br
REMARK SMILES IDX 17 1 16 2 15 3 13 4 14 5 8 7 7 8 5 9 6 10 4 12 1 13 2 14
REMARK SMILES IDX 3 15 89 16 88 17 90 18 9 19 10 20 11 21 12 22 18 23 19 24
REMARK SMILES IDX 20 25 21 27 22 28 23 29 87 30 24 31 86 32 25 33 26 34 27 35
REMARK SMILES IDX 80 36 28 37 85 38 79 39 81 40 29 41 84 42 78 43 77 44 30 46
REMARK SMILES IDX 64 47 43 48 63 49 44 50 47 51 62 52 82 53 45 54 46 55 61 57
REMARK SMILES IDX 83 58 48 59 31 60 32 61 41 62 33 63 34 64 40 65 42 66 35 67
REMARK SMILES IDX 36 68 37 69 38 70 39 71 65 72 66 73 75 74 67 75 68 76 74 77
REMARK SMILES IDX 76 78 69 79 70 80 71 81 72 82 73 83 49 84 50 85 59 86 51 87
REMARK SMILES IDX 52 88 58 89 60 90 53 91 54 92 55 93 56 94 57 95
REMARK H PARENT 15 6 7 11 19 26 81 45 47 56
REMARK Flexibility Score: inf
ROOT
ATOM      1  C   UNL     1      -0.896  -6.870   5.594  1.00  0.00     0.042 C 
ENDROOT
BRANCH   1   2
ATOM      2  C   UNL     1      -0.230  -6.770   4.223  1.00  0.00     0.117 C 
BRANCH   2   3
ATOM      3  N   UNL     1      -1.101  -6.131   3.251  1.00  0.00    -0.354 N 
ATOM      4  C   UNL     1      -0.949  -4.958   2.578  1.00  0.00     0.242 C 
ATOM      5  O   UNL     1      -1.903  -4.548   1.911  1.00  0.00    -0.273 OA
ATOM      6  H   UNL     1      -1.930  -6.622   3.049  1.00  0.00     0.163 HD
BRANCH   4   7
ATOM      7  C   UNL     1       0.305  -4.082   2.750  1.00  0.00     0.171 C 
BRANCH   7   8
ATOM      8  N   UNL     1       1.609  -4.762   2.727  1.00  0.00    -0.340 N 
ATOM      9  C   UNL     1       2.203  -5.660   1.863  1.00  0.00     0.262 C 
ATOM     10  O   UNL     1       3.433  -5.719   1.970  1.00  0.00    -0.268 OA
ATOM     11  H   UNL     1       2.182  -4.525   3.491  1.00  0.00     0.164 HD
BRANCH   9  12
ATOM     12  C   UNL     1       1.438  -6.579   1.032  1.00  0.00     0.093 A 
ATOM     13  C   UNL     1      -1.720  -7.976  -0.461  1.00  0.00     0.046 C 
ATOM     14  C   UNL     1      -0.302  -7.762  -0.034  1.00  0.00    -0.025 A 
ATOM     15  C   UNL     1       0.237  -6.480   0.352  1.00  0.00     0.030 A 
ATOM     16  C   UNL     1       0.672  -8.726   0.082  1.00  0.00     0.074 A 
ATOM     17  S   UNL     1       2.101  -8.158   0.790  1.00  0.00    -0.123 S 
ATOM     18  Br  UNL     1       0.472 -10.519  -0.443  1.00  0.00    -0.039 Br
ENDBRANCH   9  12
ENDBRANCH   7   8
BRANCH   7  19
ATOM     19  C   UNL     1       0.049  -3.369   4.106  1.00  0.00     0.038 C 
BRANCH  19  20
ATOM     20  C   UNL     1       1.048  -2.313   4.600  1.00  0.00    -0.015 C 
ATOM     21  C   UNL     1       1.071  -1.080   3.704  1.00  0.00     0.007 C 
ATOM     22  C   UNL     1       0.658  -1.912   6.031  1.00  0.00     0.007 C 
ENDBRANCH  19  20
ENDBRANCH   7  19
ENDBRANCH   4   7
ENDBRANCH   2   3
ENDBRANCH   1   2
BRANCH   1  23
ATOM     23  C   UNL     1      -1.928  -7.980   5.641  1.00  0.00     0.118 C 
BRANCH  23  24
ATOM     24  N   UNL     1      -1.314  -9.308   5.564  1.00  0.00    -0.352 N 
ATOM     25  C   UNL     1      -1.949 -10.534   5.454  1.00  0.00     0.251 C 
ATOM     26  H   UNL     1      -0.330  -9.332   5.595  1.00  0.00     0.163 HD
ATOM     27  O   UNL     1      -1.388 -11.567   5.759  1.00  0.00    -0.269 OA
BRANCH  25  28
ATOM     28  C   UNL     1      -3.330 -10.534   4.943  1.00  0.00     0.039 A 
ATOM     29  C   UNL     1      -4.342 -11.274   5.559  1.00  0.00     0.014 A 
ATOM     30  C   UNL     1      -3.599  -9.690   3.872  1.00  0.00     0.014 A 
ATOM     31  C   UNL     1      -5.654 -11.090   5.130  1.00  0.00     0.010 A 
ATOM     32  C   UNL     1      -4.897  -9.365   3.594  1.00  0.00     0.010 A 
ATOM     33  C   UNL     1      -5.923 -10.117   4.156  1.00  0.00    -0.014 A 
BRANCH  33  34
ATOM     34  C   UNL     1      -7.284  -9.805   3.743  1.00  0.00     0.031 A 
ATOM     35  C   UNL     1      -8.199  -9.384   4.838  1.00  0.00     0.074 A 
ATOM     36  C   UNL     1      -7.606  -9.662   2.438  1.00  0.00     0.049 A 
ATOM     37  N   UNL     1      -9.223 -10.020   5.304  1.00  0.00    -0.248 NA
ATOM     38  C   UNL     1      -7.854  -8.179   5.612  1.00  0.00     0.031 C 
ATOM     39  C   UNL     1      -6.724  -9.717   1.263  1.00  0.00     0.029 A 
ATOM     40  N   UNL     1      -8.795  -9.306   1.890  1.00  0.00    -0.354 N 
ATOM     41  C   UNL     1      -9.792  -9.184   6.263  1.00  0.00     0.074 A 
ATOM     42  C   UNL     1      -8.800  -8.183   6.554  1.00  0.00     0.031 C 
ATOM     43  C   UNL     1      -7.346  -9.161   0.201  1.00  0.00     0.029 A 
ATOM     44  C   UNL     1      -8.721  -8.886   0.567  1.00  0.00     0.049 A 
ATOM     45  H   UNL     1      -9.643  -9.343   2.389  1.00  0.00     0.167 HD
ATOM     46  C   UNL     1     -11.123  -9.242   6.556  1.00  0.00     0.037 A 
ATOM     47  C   UNL     1      -9.717  -8.318  -0.157  1.00  0.00     0.037 A 
ATOM     48  C   UNL     1     -11.716 -10.444   6.019  1.00  0.00     0.049 A 
ATOM     49  C   UNL     1     -10.992  -8.681   0.522  1.00  0.00     0.074 A 
ATOM     50  C   UNL     1     -11.481 -11.796   6.184  1.00  0.00     0.029 A 
ATOM     51  N   UNL     1     -12.445 -10.333   4.857  1.00  0.00    -0.354 N 
ATOM     52  N   UNL     1     -11.437  -9.907   0.617  1.00  0.00    -0.248 NA
ATOM     53  C   UNL     1     -11.511  -7.755   1.519  1.00  0.00     0.031 C 
ATOM     54  C   UNL     1     -11.624 -12.353   4.879  1.00  0.00     0.029 A 
ATOM     55  C   UNL     1     -12.020 -11.330   4.015  1.00  0.00     0.049 A 
ATOM     56  H   UNL     1     -13.141  -9.664   4.666  1.00  0.00     0.167 HD
ATOM     57  C   UNL     1     -11.941 -10.009   1.907  1.00  0.00     0.074 A 
ATOM     58  C   UNL     1     -12.029  -8.630   2.387  1.00  0.00     0.031 C 
ATOM     59  C   UNL     1     -11.962 -11.203   2.573  1.00  0.00     0.037 A 
BRANCH  46  60
ATOM     60  C   UNL     1     -11.969  -8.068   7.000  1.00  0.00     0.058 A 
ATOM     61  C   UNL     1     -13.299  -8.295   7.415  1.00  0.00     0.135 A 
ATOM     62  C   UNL     1     -11.629  -6.716   6.776  1.00  0.00     0.135 A 
ATOM     63  F   UNL     1     -13.736  -9.541   7.661  1.00  0.00    -0.206 F 
ATOM     64  C   UNL     1     -14.239  -7.269   7.515  1.00  0.00     0.059 A 
ATOM     65  C   UNL     1     -12.535  -5.671   6.923  1.00  0.00     0.059 A 
ATOM     66  F   UNL     1     -10.433  -6.345   6.306  1.00  0.00    -0.206 F 
ATOM     67  C   UNL     1     -13.850  -5.960   7.248  1.00  0.00     0.060 A 
BRANCH  67  68
ATOM     68  S   UNL     1     -15.083  -4.649   7.261  1.00  0.00     0.124 S 
ATOM     69  O   UNL     1     -15.877  -4.986   6.085  1.00  0.00    -0.237 OA
ATOM     70  O   UNL     1     -15.731  -4.855   8.552  1.00  0.00    -0.237 OA
ATOM     71  O   UNL     1     -14.281  -3.433   7.155  1.00  0.00    -0.744 OA
ENDBRANCH  67  68
ENDBRANCH  46  60
BRANCH  47  72
ATOM     72  C   UNL     1      -9.596  -7.206  -1.139  1.00  0.00     0.058 A 
ATOM     73  C   UNL     1     -10.666  -6.856  -1.981  1.00  0.00     0.135 A 
ATOM     74  C   UNL     1      -8.527  -6.287  -1.083  1.00  0.00     0.135 A 
ATOM     75  F   UNL     1     -11.733  -7.662  -2.082  1.00  0.00    -0.206 F 
ATOM     76  C   UNL     1     -10.698  -5.645  -2.684  1.00  0.00     0.059 A 
ATOM     77  C   UNL     1      -8.532  -5.080  -1.782  1.00  0.00     0.059 A 
ATOM     78  F   UNL     1      -7.478  -6.490  -0.272  1.00  0.00    -0.206 F 
ATOM     79  C   UNL     1      -9.634  -4.752  -2.561  1.00  0.00     0.060 A 
BRANCH  79  80
ATOM     80  S   UNL     1      -9.749  -3.112  -3.317  1.00  0.00     0.124 S 
ATOM     81  O   UNL     1      -9.648  -3.427  -4.738  1.00  0.00    -0.237 OA
ATOM     82  O   UNL     1     -11.055  -2.652  -2.857  1.00  0.00    -0.237 OA
ATOM     83  O   UNL     1      -8.607  -2.397  -2.753  1.00  0.00    -0.744 OA
ENDBRANCH  79  80
ENDBRANCH  47  72
BRANCH  59  84
ATOM     84  C   UNL     1     -11.681 -12.470   1.800  1.00  0.00     0.058 A 
ATOM     85  C   UNL     1     -10.454 -12.774   1.182  1.00  0.00     0.135 A 
ATOM     86  C   UNL     1     -12.640 -13.493   1.843  1.00  0.00     0.135 A 
ATOM     87  F   UNL     1      -9.443 -11.898   1.187  1.00  0.00    -0.206 F 
ATOM     88  C   UNL     1     -10.208 -14.021   0.601  1.00  0.00     0.059 A 
ATOM     89  C   UNL     1     -12.406 -14.753   1.298  1.00  0.00     0.059 A 
ATOM     90  F   UNL     1     -13.808 -13.292   2.474  1.00  0.00    -0.206 F 
ATOM     91  C   UNL     1     -11.191 -15.007   0.666  1.00  0.00     0.060 A 
BRANCH  91  92
ATOM     92  S   UNL     1     -10.847 -16.642  -0.019  1.00  0.00     0.124 S 
ATOM     93  O   UNL     1     -10.855 -16.381  -1.454  1.00  0.00    -0.237 OA
ATOM     94  O   UNL     1      -9.545 -16.962   0.560  1.00  0.00    -0.237 OA
ATOM     95  O   UNL     1     -11.954 -17.458   0.473  1.00  0.00    -0.744 OA
ENDBRANCH  91  92
ENDBRANCH  59  84
ENDBRANCH  33  34
ENDBRANCH  25  28
ENDBRANCH  23  24
ENDBRANCH   1  23
TORSDOF 17
