REMARK SMILES O=C(NCCCNC(=O)[C@H](O)Cc1ccc(O)cc1)c1ccc(-c2c3nc(c(-c4c(F)cc(S(=O)(=O)[O-])cc4F)c4ccc([nH]4)c(-c4c(F)cc(S(=O)(=O)[O-])cc4F)c4nc(c(-c5c(F)cc(S(=O)(=O)[O-])cc5F)c5ccc2[nH]5)C=C4)C=C3)cc1
REMARK SMILES IDX 5 1 4 2 3 3 1 4 2 5 20 7 21 8 85 9 22 10 84 11 23 12 24 13
REMARK SMILES IDX 25 14 78 15 26 16 83 17 77 18 79 19 27 20 82 21 76 22 75 23
REMARK SMILES IDX 28 25 62 26 41 27 61 28 42 29 45 30 60 31 80 32 43 33 44 34
REMARK SMILES IDX 59 36 81 37 46 38 29 39 30 40 39 41 31 42 32 43 38 44 40 45
REMARK SMILES IDX 33 46 34 47 35 48 36 49 37 50 63 51 64 52 73 53 65 54 66 55
REMARK SMILES IDX 72 56 74 57 67 58 68 59 69 60 70 61 71 62 47 63 48 64 57 65
REMARK SMILES IDX 49 66 50 67 56 68 58 69 51 70 52 71 53 72 54 73 55 74 6 75
REMARK SMILES IDX 7 76 8 77 9 79 10 80 12 81 13 82 14 83 19 84 15 85 18 86
REMARK SMILES IDX 16 87 17 88 11 90
REMARK H PARENT 3 6 79 24 45 35 7 78 17 89 11 91
REMARK Flexibility Score: inf
ROOT
ATOM      1  C   UNL     1       4.234   3.729  -1.018  1.00  0.00     0.042 C 
ENDROOT
BRANCH   1   2
ATOM      2  C   UNL     1       4.608   3.173  -2.382  1.00  0.00     0.118 C 
BRANCH   2   3
ATOM      3  N   UNL     1       4.641   1.719  -2.396  1.00  0.00    -0.352 N 
ATOM      4  O   UNL     1       3.898  -0.359  -2.839  1.00  0.00    -0.269 OA
ATOM      5  C   UNL     1       3.874   0.838  -3.118  1.00  0.00     0.251 C 
ATOM      6  H   UNL     1       5.310   1.307  -1.802  1.00  0.00     0.163 HD
BRANCH   5   7
ATOM      7  C   UNL     1       3.020   1.331  -4.219  1.00  0.00     0.039 A 
ATOM      8  C   UNL     1       3.495   2.301  -5.105  1.00  0.00     0.014 A 
ATOM      9  C   UNL     1       1.742   0.791  -4.393  1.00  0.00     0.014 A 
ATOM     10  C   UNL     1       2.655   2.821  -6.080  1.00  0.00     0.010 A 
ATOM     11  C   UNL     1       0.932   1.244  -5.439  1.00  0.00     0.010 A 
ATOM     12  C   UNL     1       1.380   2.270  -6.285  1.00  0.00    -0.014 A 
BRANCH  12  13
ATOM     13  C   UNL     1       0.601   2.692  -7.475  1.00  0.00     0.031 A 
ATOM     14  C   UNL     1      -0.716   3.401  -7.343  1.00  0.00     0.074 A 
ATOM     15  C   UNL     1       1.118   2.425  -8.691  1.00  0.00     0.049 A 
ATOM     16  N   UNL     1      -1.512   3.829  -8.289  1.00  0.00    -0.248 NA
ATOM     17  C   UNL     1      -1.212   3.661  -5.981  1.00  0.00     0.031 C 
ATOM     18  C   UNL     1       2.381   1.716  -8.931  1.00  0.00     0.029 A 
ATOM     19  N   UNL     1       0.664   2.719  -9.951  1.00  0.00    -0.354 N 
ATOM     20  C   UNL     1      -2.609   4.388  -7.645  1.00  0.00     0.074 A 
ATOM     21  C   UNL     1      -2.384   4.235  -6.223  1.00  0.00     0.031 C 
ATOM     22  C   UNL     1       2.616   1.662 -10.249  1.00  0.00     0.029 A 
ATOM     23  C   UNL     1       1.492   2.265 -10.951  1.00  0.00     0.049 A 
ATOM     24  H   UNL     1      -0.173   3.207 -10.122  1.00  0.00     0.167 HD
ATOM     25  C   UNL     1      -3.697   4.975  -8.197  1.00  0.00     0.037 A 
ATOM     26  C   UNL     1       1.348   2.298 -12.289  1.00  0.00     0.037 A 
ATOM     27  C   UNL     1      -3.893   5.138  -9.617  1.00  0.00     0.049 A 
ATOM     28  C   UNL     1       0.119   2.938 -12.866  1.00  0.00     0.074 A 
ATOM     29  C   UNL     1      -4.931   5.779 -10.272  1.00  0.00     0.029 A 
ATOM     30  N   UNL     1      -3.045   4.649 -10.600  1.00  0.00    -0.354 N 
ATOM     31  N   UNL     1      -0.876   3.518 -12.240  1.00  0.00    -0.248 NA
ATOM     32  C   UNL     1      -0.013   2.922 -14.328  1.00  0.00     0.031 C 
ATOM     33  C   UNL     1      -4.740   5.630 -11.649  1.00  0.00     0.029 A 
ATOM     34  C   UNL     1      -3.555   4.942 -11.855  1.00  0.00     0.049 A 
ATOM     35  H   UNL     1      -2.204   4.165 -10.431  1.00  0.00     0.167 HD
ATOM     36  C   UNL     1      -1.749   3.945 -13.232  1.00  0.00     0.074 A 
ATOM     37  C   UNL     1      -1.148   3.583 -14.500  1.00  0.00     0.031 C 
ATOM     38  C   UNL     1      -2.944   4.571 -13.106  1.00  0.00     0.037 A 
BRANCH  25  39
ATOM     39  C   UNL     1      -4.780   5.482  -7.285  1.00  0.00     0.058 A 
ATOM     40  C   UNL     1      -4.627   6.659  -6.536  1.00  0.00     0.135 A 
ATOM     41  C   UNL     1      -6.032   4.844  -7.251  1.00  0.00     0.135 A 
ATOM     42  F   UNL     1      -3.448   7.301  -6.521  1.00  0.00    -0.206 F 
ATOM     43  C   UNL     1      -5.675   7.186  -5.788  1.00  0.00     0.059 A 
ATOM     44  C   UNL     1      -7.101   5.365  -6.528  1.00  0.00     0.059 A 
ATOM     45  F   UNL     1      -6.232   3.714  -7.947  1.00  0.00    -0.206 F 
ATOM     46  C   UNL     1      -6.912   6.537  -5.798  1.00  0.00     0.060 A 
BRANCH  46  47
ATOM     47  S   UNL     1      -8.278   7.269  -4.870  1.00  0.00     0.124 S 
ATOM     48  O   UNL     1      -7.861   7.020  -3.493  1.00  0.00    -0.237 OA
ATOM     49  O   UNL     1      -8.235   8.663  -5.301  1.00  0.00    -0.237 OA
ATOM     50  O   UNL     1      -9.441   6.512  -5.320  1.00  0.00    -0.744 OA
ENDBRANCH  46  47
ENDBRANCH  25  39
BRANCH  26  51
ATOM     51  C   UNL     1       2.371   1.667 -13.165  1.00  0.00     0.058 A 
ATOM     52  C   UNL     1       3.168   2.436 -14.024  1.00  0.00     0.135 A 
ATOM     53  C   UNL     1       2.562   0.276 -13.165  1.00  0.00     0.135 A 
ATOM     54  F   UNL     1       3.023   3.770 -14.060  1.00  0.00    -0.206 F 
ATOM     55  C   UNL     1       4.095   1.847 -14.877  1.00  0.00     0.059 A 
ATOM     56  C   UNL     1       3.506  -0.333 -13.984  1.00  0.00     0.059 A 
ATOM     57  F   UNL     1       1.840  -0.504 -12.345  1.00  0.00    -0.206 F 
ATOM     58  C   UNL     1       4.253   0.460 -14.852  1.00  0.00     0.060 A 
BRANCH  58  59
ATOM     59  S   UNL     1       5.462  -0.298 -15.958  1.00  0.00     0.124 S 
ATOM     60  O   UNL     1       4.773  -0.217 -17.241  1.00  0.00    -0.237 OA
ATOM     61  O   UNL     1       6.618   0.578 -15.798  1.00  0.00    -0.237 OA
ATOM     62  O   UNL     1       5.621  -1.641 -15.409  1.00  0.00    -0.744 OA
ENDBRANCH  58  59
ENDBRANCH  26  51
BRANCH  38  63
ATOM     63  C   UNL     1      -3.670   4.917 -14.375  1.00  0.00     0.058 A 
ATOM     64  C   UNL     1      -4.284   3.928 -15.160  1.00  0.00     0.135 A 
ATOM     65  C   UNL     1      -3.782   6.252 -14.793  1.00  0.00     0.135 A 
ATOM     66  F   UNL     1      -4.196   2.635 -14.810  1.00  0.00    -0.206 F 
ATOM     67  C   UNL     1      -4.963   4.249 -16.331  1.00  0.00     0.059 A 
ATOM     68  C   UNL     1      -4.481   6.599 -15.944  1.00  0.00     0.059 A 
ATOM     69  F   UNL     1      -3.219   7.236 -14.073  1.00  0.00    -0.206 F 
ATOM     70  C   UNL     1      -5.057   5.589 -16.713  1.00  0.00     0.060 A 
BRANCH  70  71
ATOM     71  S   UNL     1      -5.966   5.995 -18.218  1.00  0.00     0.124 S 
ATOM     72  O   UNL     1      -5.037   5.550 -19.252  1.00  0.00    -0.237 OA
ATOM     73  O   UNL     1      -7.181   5.200 -18.074  1.00  0.00    -0.237 OA
ATOM     74  O   UNL     1      -6.154   7.439 -18.122  1.00  0.00    -0.744 OA
ENDBRANCH  70  71
ENDBRANCH  38  63
ENDBRANCH  12  13
ENDBRANCH   5   7
ENDBRANCH   2   3
ENDBRANCH   1   2
BRANCH   1  75
ATOM     75  C   UNL     1       5.304   3.499   0.043  1.00  0.00     0.117 C 
BRANCH  75  76
ATOM     76  N   UNL     1       6.518   4.247  -0.248  1.00  0.00    -0.354 N 
ATOM     77  C   UNL     1       7.034   5.345   0.380  1.00  0.00     0.249 C 
ATOM     78  H   UNL     1       7.044   3.912  -1.009  1.00  0.00     0.163 HD
ATOM     79  O   UNL     1       8.073   5.838  -0.067  1.00  0.00    -0.272 OA
BRANCH  77  80
ATOM     80  C   UNL     1       6.324   5.961   1.595  1.00  0.00     0.207 C 
BRANCH  80  81
ATOM     81  C   UNL     1       5.037   6.679   1.172  1.00  0.00     0.077 C 
BRANCH  81  82
ATOM     82  C   UNL     1       4.288   7.287   2.334  1.00  0.00    -0.045 A 
ATOM     83  C   UNL     1       4.376   8.655   2.616  1.00  0.00     0.007 A 
ATOM     84  C   UNL     1       3.492   6.468   3.150  1.00  0.00     0.007 A 
ATOM     85  C   UNL     1       3.687   9.193   3.705  1.00  0.00     0.046 A 
ATOM     86  C   UNL     1       2.814   7.003   4.243  1.00  0.00     0.046 A 
ATOM     87  C   UNL     1       2.917   8.360   4.513  1.00  0.00     0.115 A 
BRANCH  87  88
ATOM     88  O   UNL     1       2.241   8.843   5.593  1.00  0.00    -0.508 OA
ATOM     89  H   UNL     1       2.288   9.755   5.806  1.00  0.00     0.293 HD
ENDBRANCH  87  88
ENDBRANCH  81  82
ENDBRANCH  80  81
BRANCH  80  90
ATOM     90  O   UNL     1       6.095   4.967   2.596  1.00  0.00    -0.383 OA
ATOM     91  H   UNL     1       5.520   4.274   2.237  1.00  0.00     0.211 HD
ENDBRANCH  80  90
ENDBRANCH  77  80
ENDBRANCH  75  76
ENDBRANCH   1  75
TORSDOF 17
