REMARK SMILES Cc1ccc(S(=O)(=O)N[C@@H](C)C(=O)Oc2csc(C(=O)NCCCNC(=O)c3ccc(-c4c5nc(c(-c6c(F)cc(S(=O)(=O)[O-])cc6F)c6ccc([nH]6)c(-c6c(F)cc(S(=O)(=O)[O-])cc6F)c6nc(c(-c7c(F)cc(S(=O)(=O)[O-])cc7F)c7ccc4[nH]7)C=C6)C=C5)cc3)c2C)cc1
REMARK SMILES IDX 19 1 20 2 21 3 18 5 15 6 16 7 94 8 17 9 95 10 14 11 12 12
REMARK SMILES IDX 13 13 10 14 11 15 9 16 6 18 7 19 8 20 5 21 1 22 2 23 3 24
REMARK SMILES IDX 97 25 4 26 96 27 22 28 23 29 24 30 25 31 26 32 27 34 28 35
REMARK SMILES IDX 29 36 93 37 30 38 92 39 31 40 32 41 33 42 86 43 34 44 91 45
REMARK SMILES IDX 85 46 87 47 35 48 90 49 84 50 83 51 36 53 70 54 49 55 69 56
REMARK SMILES IDX 50 57 53 58 68 59 88 60 51 61 52 62 67 64 89 65 54 66 37 67
REMARK SMILES IDX 38 68 47 69 39 70 40 71 46 72 48 73 41 74 42 75 43 76 44 77
REMARK SMILES IDX 45 78 71 79 72 80 81 81 73 82 74 83 80 84 82 85 75 86 76 87
REMARK SMILES IDX 77 88 78 89 79 90 55 91 56 92 65 93 57 94 58 95 64 96 66 97
REMARK SMILES IDX 59 98 60 99 61 100 62 101 63 102
REMARK H PARENT 21 4 9 17 25 33 87 52 53 63
REMARK Flexibility Score: inf
ROOT
ATOM      1  C   UNL     1      -6.044   8.246  -2.385  1.00  0.00     0.261 C 
ATOM      2  O   UNL     1      -6.889   9.136  -2.518  1.00  0.00    -0.268 OA
ATOM      3  N   UNL     1      -4.772   8.494  -2.880  1.00  0.00    -0.351 N 
ATOM      4  H   UNL     1      -4.726   9.278  -3.473  1.00  0.00     0.163 HD
ENDROOT
BRANCH   1   5
ATOM      5  C   UNL     1      -6.339   7.001  -1.679  1.00  0.00     0.099 A 
ATOM      6  C   UNL     1      -6.285   4.845  -0.815  1.00  0.00     0.145 A 
ATOM      7  C   UNL     1      -7.250   5.388  -0.010  1.00  0.00     0.113 A 
ATOM      8  C   UNL     1      -5.924   5.697  -1.900  1.00  0.00     0.015 A 
ATOM      9  S   UNL     1      -7.508   7.035  -0.401  1.00  0.00    -0.134 S 
ATOM     10  C   UNL     1      -5.179   5.179  -3.069  1.00  0.00     0.050 C 
BRANCH   6  11
ATOM     11  O   UNL     1      -5.821   3.581  -0.672  1.00  0.00    -0.424 OA
BRANCH  11  12
ATOM     12  C   UNL     1      -4.451   3.486  -0.593  1.00  0.00     0.329 C 
ATOM     13  O   UNL     1      -3.707   4.328  -0.095  1.00  0.00    -0.250 OA
BRANCH  12  14
ATOM     14  C   UNL     1      -3.945   2.134  -1.091  1.00  0.00     0.177 C 
ATOM     15  C   UNL     1      -4.547   1.713  -2.418  1.00  0.00     0.038 C 
BRANCH  14  16
ATOM     16  N   UNL     1      -4.184   1.197   0.010  1.00  0.00    -0.197 NA
ATOM     17  H   UNL     1      -3.870   1.677   0.853  1.00  0.00     0.142 HD
BRANCH  16  18
ATOM     18  S   UNL     1      -3.540  -0.324   0.097  1.00  0.00     0.241 S 
ATOM     19  O   UNL     1      -3.854  -1.019  -1.115  1.00  0.00    -0.207 OA
ATOM     20  O   UNL     1      -3.980  -0.838   1.395  1.00  0.00    -0.207 OA
BRANCH  18  21
ATOM     21  C   UNL     1      -1.779  -0.159   0.195  1.00  0.00     0.082 A 
ATOM     22  C   UNL     1       2.513   0.000  -0.005  1.00  0.00     0.044 C 
ATOM     23  C   UNL     1       1.016  -0.045   0.080  1.00  0.00    -0.051 A 
ATOM     24  C   UNL     1       0.354  -1.272  -0.043  1.00  0.00     0.005 A 
ATOM     25  C   UNL     1       0.266   1.119   0.297  1.00  0.00     0.005 A 
ATOM     26  C   UNL     1      -1.037  -1.329  -0.001  1.00  0.00     0.022 A 
ATOM     27  C   UNL     1      -1.130   1.063   0.376  1.00  0.00     0.022 A 
ENDBRANCH  18  21
ENDBRANCH  16  18
ENDBRANCH  14  16
ENDBRANCH  12  14
ENDBRANCH  11  12
ENDBRANCH   6  11
ENDBRANCH   1   5
BRANCH   3  28
ATOM     28  C   UNL     1      -3.469   7.811  -2.695  1.00  0.00     0.118 C 
BRANCH  28  29
ATOM     29  C   UNL     1      -2.865   6.964  -3.947  1.00  0.00     0.042 C 
BRANCH  29  30
ATOM     30  C   UNL     1      -1.733   7.729  -4.721  1.00  0.00     0.118 C 
BRANCH  30  31
ATOM     31  N   UNL     1      -0.665   7.386  -6.042  1.00  0.00    -0.352 N 
ATOM     32  C   UNL     1      -0.036   7.738  -7.482  1.00  0.00     0.251 C 
ATOM     33  H   UNL     1      -0.213   6.553  -5.777  1.00  0.00     0.163 HD
ATOM     34  O   UNL     1       1.177   7.420  -7.480  1.00  0.00    -0.269 OA
BRANCH  32  35
ATOM     35  C   UNL     1      -0.452   8.591  -8.981  1.00  0.00     0.039 A 
ATOM     36  C   UNL     1       0.252   9.717  -9.508  1.00  0.00     0.014 A 
ATOM     37  C   UNL     1      -1.589   8.468  -9.752  1.00  0.00     0.014 A 
ATOM     38  C   UNL     1      -0.490  10.935  -9.821  1.00  0.00     0.010 A 
ATOM     39  C   UNL     1      -2.355   9.638  -9.990  1.00  0.00     0.010 A 
ATOM     40  C   UNL     1      -1.875  10.907  -9.701  1.00  0.00    -0.014 A 
BRANCH  40  41
ATOM     41  C   UNL     1      -2.849  12.018  -9.325  1.00  0.00     0.031 A 
ATOM     42  C   UNL     1      -3.550  12.639 -10.436  1.00  0.00     0.074 A 
ATOM     43  C   UNL     1      -3.301  12.470  -8.108  1.00  0.00     0.049 A 
ATOM     44  N   UNL     1      -3.560  13.898 -10.715  1.00  0.00    -0.248 NA
ATOM     45  C   UNL     1      -4.236  11.797 -11.404  1.00  0.00     0.031 C 
ATOM     46  C   UNL     1      -4.241  13.550  -7.717  1.00  0.00     0.029 A 
ATOM     47  N   UNL     1      -2.887  12.100  -6.841  1.00  0.00    -0.354 N 
ATOM     48  C   UNL     1      -4.540  14.025 -11.675  1.00  0.00     0.074 A 
ATOM     49  C   UNL     1      -4.607  12.725 -12.278  1.00  0.00     0.031 C 
ATOM     50  C   UNL     1      -3.928  13.992  -6.473  1.00  0.00     0.029 A 
ATOM     51  C   UNL     1      -2.766  13.250  -6.052  1.00  0.00     0.049 A 
ATOM     52  H   UNL     1      -2.708  11.179  -6.544  1.00  0.00     0.167 HD
ATOM     53  C   UNL     1      -5.415  15.075 -11.636  1.00  0.00     0.037 A 
ATOM     54  C   UNL     1      -1.499  13.714  -5.804  1.00  0.00     0.037 A 
ATOM     55  C   UNL     1      -5.101  15.964 -10.494  1.00  0.00     0.049 A 
ATOM     56  C   UNL     1      -1.183  14.987  -6.527  1.00  0.00     0.074 A 
ATOM     57  C   UNL     1      -5.733  16.276  -9.299  1.00  0.00     0.029 A 
ATOM     58  N   UNL     1      -3.804  16.434 -10.346  1.00  0.00    -0.354 N 
ATOM     59  N   UNL     1      -2.056  15.585  -7.278  1.00  0.00    -0.248 NA
ATOM     60  C   UNL     1       0.123  15.643  -6.552  1.00  0.00     0.031 C 
ATOM     61  C   UNL     1      -4.768  16.867  -8.418  1.00  0.00     0.029 A 
ATOM     62  C   UNL     1      -3.564  16.965  -9.092  1.00  0.00     0.049 A 
ATOM     63  H   UNL     1      -3.126  16.393 -11.058  1.00  0.00     0.167 HD
ATOM     64  C   UNL     1      -1.483  16.635  -7.916  1.00  0.00     0.074 A 
ATOM     65  C   UNL     1      -0.105  16.626  -7.442  1.00  0.00     0.031 C 
ATOM     66  C   UNL     1      -2.206  17.409  -8.777  1.00  0.00     0.037 A 
BRANCH  53  67
ATOM     67  C   UNL     1      -6.710  15.161 -12.454  1.00  0.00     0.058 A 
ATOM     68  C   UNL     1      -7.598  16.241 -12.260  1.00  0.00     0.135 A 
ATOM     69  C   UNL     1      -7.156  14.246 -13.440  1.00  0.00     0.135 A 
ATOM     70  F   UNL     1      -7.306  17.237 -11.412  1.00  0.00    -0.206 F 
ATOM     71  C   UNL     1      -8.819  16.369 -12.943  1.00  0.00     0.059 A 
ATOM     72  C   UNL     1      -8.371  14.340 -14.117  1.00  0.00     0.059 A 
ATOM     73  F   UNL     1      -6.441  13.211 -13.868  1.00  0.00    -0.206 F 
ATOM     74  C   UNL     1      -9.202  15.406 -13.866  1.00  0.00     0.060 A 
BRANCH  74  75
ATOM     75  S   UNL     1     -10.744  15.578 -14.774  1.00  0.00     0.124 S 
ATOM     76  O   UNL     1     -11.735  15.524 -13.704  1.00  0.00    -0.237 OA
ATOM     77  O   UNL     1     -10.574  16.873 -15.422  1.00  0.00    -0.237 OA
ATOM     78  O   UNL     1     -10.743  14.429 -15.678  1.00  0.00    -0.744 OA
ENDBRANCH  74  75
ENDBRANCH  53  67
BRANCH  54  79
ATOM     79  C   UNL     1      -0.516  12.601  -5.612  1.00  0.00     0.058 A 
ATOM     80  C   UNL     1      -0.905  11.688  -4.648  1.00  0.00     0.135 A 
ATOM     81  C   UNL     1      -0.065  11.963  -6.749  1.00  0.00     0.135 A 
ATOM     82  F   UNL     1      -0.633  11.911  -3.356  1.00  0.00    -0.206 F 
ATOM     83  C   UNL     1      -1.376  10.415  -5.008  1.00  0.00     0.059 A 
ATOM     84  C   UNL     1      -0.517  10.653  -7.047  1.00  0.00     0.059 A 
ATOM     85  F   UNL     1       0.868  12.533  -7.528  1.00  0.00    -0.206 F 
ATOM     86  C   UNL     1      -1.503   9.996  -6.334  1.00  0.00     0.060 A 
BRANCH  86  87
ATOM     87  S   UNL     1      -3.122   8.745  -7.078  1.00  0.00     0.124 S 
ATOM     88  O   UNL     1      -3.938   8.357  -5.939  1.00  0.00    -0.237 OA
ATOM     89  O   UNL     1      -3.909   9.627  -7.913  1.00  0.00    -0.237 OA
ATOM     90  O   UNL     1      -2.563   7.553  -7.711  1.00  0.00    -0.744 OA
ENDBRANCH  86  87
ENDBRANCH  54  79
BRANCH  66  91
ATOM     91  C   UNL     1      -1.651  18.644  -9.419  1.00  0.00     0.058 A 
ATOM     92  C   UNL     1      -0.750  19.497  -8.761  1.00  0.00     0.135 A 
ATOM     93  C   UNL     1      -2.082  19.073 -10.693  1.00  0.00     0.135 A 
ATOM     94  F   UNL     1      -0.404  19.294  -7.480  1.00  0.00    -0.206 F 
ATOM     95  C   UNL     1      -0.198  20.612  -9.384  1.00  0.00     0.059 A 
ATOM     96  C   UNL     1      -1.595  20.214 -11.308  1.00  0.00     0.059 A 
ATOM     97  F   UNL     1      -2.989  18.402 -11.411  1.00  0.00    -0.206 F 
ATOM     98  C   UNL     1      -0.618  20.952 -10.666  1.00  0.00     0.060 A 
BRANCH  98  99
ATOM     99  S   UNL     1       0.096  22.385 -11.473  1.00  0.00     0.124 S 
ATOM    100  O   UNL     1       0.086  23.380 -10.405  1.00  0.00    -0.237 OA
ATOM    101  O   UNL     1       1.410  21.877 -11.854  1.00  0.00    -0.237 OA
ATOM    102  O   UNL     1      -0.822  22.648 -12.577  1.00  0.00    -0.744 OA
ENDBRANCH  98  99
ENDBRANCH  66  91
ENDBRANCH  40  41
ENDBRANCH  32  35
ENDBRANCH  30  31
ENDBRANCH  29  30
ENDBRANCH  28  29
ENDBRANCH   3  28
TORSDOF 19
