REMARK SMILES CCC(=O)Nc1cc(NC(=O)/C=C/C(=O)NCCCNC(=O)c2ccc(-c3c4nc(c(-c5c(F)cc(S(=O)(=O)[O-])cc5F)c5ccc([nH]5)c(-c5c(F)cc(S(=O)(=O)[O-])cc5F)c5nc(c(-c6c(F)cc(S(=O)(=O)[O-])cc6F)c6ccc3[nH]6)C=C5)C=C4)cc2)ccc1C
REMARK SMILES IDX 17 1 16 2 14 3 15 4 13 6 12 7 10 8 9 9 11 11 8 12 6 13 7 14
REMARK SMILES IDX 91 15 90 16 92 17 89 18 5 19 3 20 4 21 2 23 1 24 18 25 19 26
REMARK SMILES IDX 20 27 21 28 22 30 23 31 24 32 88 33 25 34 87 35 26 36 27 37
REMARK SMILES IDX 28 38 81 39 29 40 86 41 80 42 82 43 30 44 85 45 79 46 78 47
REMARK SMILES IDX 31 49 65 50 44 51 64 52 45 53 48 54 63 55 83 56 46 57 47 58
REMARK SMILES IDX 62 60 84 61 49 62 32 63 33 64 42 65 34 66 35 67 41 68 43 69
REMARK SMILES IDX 36 70 37 71 38 72 39 73 40 74 66 75 67 76 76 77 68 78 69 79
REMARK SMILES IDX 75 80 77 81 70 82 71 83 72 84 73 85 74 86 50 87 51 88 60 89
REMARK SMILES IDX 52 90 53 91 59 92 61 93 54 94 55 95 56 96 57 97 58 98
REMARK H PARENT 16 5 9 10 5 22 20 29 82 48 48 59
REMARK Flexibility Score: inf
ROOT
ATOM      1  C   UNL     1       5.262  -4.058   6.416  1.00  0.00     0.118 C 
ENDROOT
BRANCH   1   2
ATOM      2  N   UNL     1       4.384  -2.974   5.982  1.00  0.00    -0.352 N 
ATOM      3  C   UNL     1       4.499  -2.115   4.937  1.00  0.00     0.244 C 
ATOM      4  O   UNL     1       3.655  -1.247   4.723  1.00  0.00    -0.270 OA
ATOM      5  H   UNL     1       3.580  -2.845   6.536  1.00  0.00     0.163 HD
BRANCH   3   6
ATOM      6  C   UNL     1       5.655  -2.208   4.025  1.00  0.00     0.077 C 
ATOM      7  C   UNL     1       5.812  -3.306   3.272  1.00  0.00     0.077 C 
BRANCH   7   8
ATOM      8  C   UNL     1       6.723  -3.283   2.119  1.00  0.00     0.248 C 
ATOM      9  N   UNL     1       6.400  -2.573   0.994  1.00  0.00    -0.322 N 
ATOM     10  H   UNL     1       7.076  -2.633   0.281  1.00  0.00     0.170 HD
ATOM     11  O   UNL     1       7.779  -3.913   2.169  1.00  0.00    -0.270 OA
BRANCH   9  12
ATOM     12  C   UNL     1       5.289  -1.773   0.657  1.00  0.00     0.043 A 
ATOM     13  C   UNL     1       3.121  -0.763   1.128  1.00  0.00     0.046 A 
ATOM     14  C   UNL     1       4.084  -1.750   1.357  1.00  0.00     0.052 A 
ATOM     15  C   UNL     1       3.345   0.212   0.149  1.00  0.00    -0.027 A 
ATOM     16  C   UNL     1       4.482   0.089  -0.667  1.00  0.00     0.008 A 
ATOM     17  C   UNL     1       2.541   1.478   0.031  1.00  0.00     0.046 C 
ATOM     18  C   UNL     1       5.443  -0.894  -0.415  1.00  0.00     0.026 A 
BRANCH  13  19
ATOM     19  N   UNL     1       2.087  -0.672   2.069  1.00  0.00    -0.326 N 
ATOM     20  C   UNL     1       0.737  -0.765   1.879  1.00  0.00     0.224 C 
ATOM     21  O   UNL     1      -0.036  -0.387   2.762  1.00  0.00    -0.275 OA
ATOM     22  H   UNL     1       2.373  -0.521   2.999  1.00  0.00     0.169 HD
BRANCH  20  23
ATOM     23  C   UNL     1       0.201  -1.466   0.644  1.00  0.00     0.097 C 
ATOM     24  C   UNL     1       0.074  -0.607  -0.594  1.00  0.00     0.014 C 
ENDBRANCH  20  23
ENDBRANCH  13  19
ENDBRANCH   9  12
ENDBRANCH   7   8
ENDBRANCH   3   6
ENDBRANCH   1   2
BRANCH   1  25
ATOM     25  C   UNL     1       6.599  -3.570   6.966  1.00  0.00     0.042 C 
BRANCH  25  26
ATOM     26  C   UNL     1       6.452  -2.954   8.347  1.00  0.00     0.118 C 
BRANCH  26  27
ATOM     27  N   UNL     1       6.787  -3.865   9.432  1.00  0.00    -0.352 N 
ATOM     28  C   UNL     1       7.108  -3.363  10.685  1.00  0.00     0.251 C 
ATOM     29  H   UNL     1       6.786  -4.837   9.277  1.00  0.00     0.163 HD
ATOM     30  O   UNL     1       8.180  -3.531  11.254  1.00  0.00    -0.269 OA
BRANCH  28  31
ATOM     31  C   UNL     1       6.036  -2.552  11.295  1.00  0.00     0.039 A 
ATOM     32  C   UNL     1       5.093  -3.168  12.118  1.00  0.00     0.014 A 
ATOM     33  C   UNL     1       5.843  -1.257  10.811  1.00  0.00     0.014 A 
ATOM     34  C   UNL     1       3.883  -2.520  12.368  1.00  0.00     0.010 A 
ATOM     35  C   UNL     1       4.613  -0.655  10.995  1.00  0.00     0.010 A 
ATOM     36  C   UNL     1       3.619  -1.294  11.752  1.00  0.00    -0.014 A 
BRANCH  36  37
ATOM     37  C   UNL     1       2.309  -0.647  11.764  1.00  0.00     0.031 A 
ATOM     38  C   UNL     1       2.069   0.579  12.564  1.00  0.00     0.074 A 
ATOM     39  C   UNL     1       1.309  -1.117  10.986  1.00  0.00     0.049 A 
ATOM     40  N   UNL     1       0.906   0.954  12.990  1.00  0.00    -0.248 NA
ATOM     41  C   UNL     1       3.146   1.472  12.979  1.00  0.00     0.031 C 
ATOM     42  C   UNL     1       0.084  -0.411  10.619  1.00  0.00     0.029 A 
ATOM     43  N   UNL     1       1.116  -2.413  10.513  1.00  0.00    -0.354 N 
ATOM     44  C   UNL     1       1.032   2.236  13.476  1.00  0.00     0.074 A 
ATOM     45  C   UNL     1       2.456   2.490  13.501  1.00  0.00     0.031 C 
ATOM     46  C   UNL     1      -0.823  -1.302  10.194  1.00  0.00     0.029 A 
ATOM     47  C   UNL     1      -0.270  -2.627  10.413  1.00  0.00     0.049 A 
ATOM     48  H   UNL     1       1.823  -3.062  10.289  1.00  0.00     0.167 HD
ATOM     49  C   UNL     1      -0.073   3.012  13.678  1.00  0.00     0.037 A 
ATOM     50  C   UNL     1      -0.896  -3.623  11.107  1.00  0.00     0.037 A 
ATOM     51  C   UNL     1      -1.305   2.306  13.338  1.00  0.00     0.049 A 
ATOM     52  C   UNL     1      -1.951  -3.140  12.075  1.00  0.00     0.074 A 
ATOM     53  C   UNL     1      -2.083   2.299  12.192  1.00  0.00     0.029 A 
ATOM     54  N   UNL     1      -1.745   1.242  14.118  1.00  0.00    -0.354 N 
ATOM     55  N   UNL     1      -2.078  -1.901  12.458  1.00  0.00    -0.248 NA
ATOM     56  C   UNL     1      -2.924  -4.022  12.716  1.00  0.00     0.031 C 
ATOM     57  C   UNL     1      -2.973   1.203  12.266  1.00  0.00     0.029 A 
ATOM     58  C   UNL     1      -2.739   0.542  13.459  1.00  0.00     0.049 A 
ATOM     59  H   UNL     1      -1.398   1.019  15.012  1.00  0.00     0.167 HD
ATOM     60  C   UNL     1      -3.063  -1.813  13.407  1.00  0.00     0.074 A 
ATOM     61  C   UNL     1      -3.590  -3.160  13.505  1.00  0.00     0.031 C 
ATOM     62  C   UNL     1      -3.347  -0.640  14.047  1.00  0.00     0.037 A 
BRANCH  49  63
ATOM     63  C   UNL     1       0.021   4.512  13.862  1.00  0.00     0.058 A 
ATOM     64  C   UNL     1      -0.902   5.386  13.248  1.00  0.00     0.135 A 
ATOM     65  C   UNL     1       1.052   5.150  14.580  1.00  0.00     0.135 A 
ATOM     66  F   UNL     1      -1.997   4.931  12.627  1.00  0.00    -0.206 F 
ATOM     67  C   UNL     1      -0.734   6.770  13.222  1.00  0.00     0.059 A 
ATOM     68  C   UNL     1       1.272   6.531  14.526  1.00  0.00     0.059 A 
ATOM     69  F   UNL     1       1.877   4.444  15.369  1.00  0.00    -0.206 F 
ATOM     70  C   UNL     1       0.382   7.333  13.824  1.00  0.00     0.060 A 
BRANCH  70  71
ATOM     71  S   UNL     1       0.663   9.104  13.638  1.00  0.00     0.124 S 
ATOM     72  O   UNL     1       0.464   9.304  12.205  1.00  0.00    -0.237 OA
ATOM     73  O   UNL     1      -0.365   9.667  14.505  1.00  0.00    -0.237 OA
ATOM     74  O   UNL     1       2.039   9.277  14.098  1.00  0.00    -0.744 OA
ENDBRANCH  70  71
ENDBRANCH  49  63
BRANCH  50  75
ATOM     75  C   UNL     1      -0.042  -4.826  11.302  1.00  0.00     0.058 A 
ATOM     76  C   UNL     1       0.272  -5.592  10.164  1.00  0.00     0.135 A 
ATOM     77  C   UNL     1       0.798  -4.942  12.418  1.00  0.00     0.135 A 
ATOM     78  F   UNL     1      -0.518  -5.538   9.079  1.00  0.00    -0.206 F 
ATOM     79  C   UNL     1       1.468  -6.294  10.066  1.00  0.00     0.059 A 
ATOM     80  C   UNL     1       2.000  -5.647  12.344  1.00  0.00     0.059 A 
ATOM     81  F   UNL     1       0.538  -4.246  13.535  1.00  0.00    -0.206 F 
ATOM     82  C   UNL     1       2.362  -6.242  11.134  1.00  0.00     0.060 A 
BRANCH  82  83
ATOM     83  S   UNL     1       4.055  -6.819  10.853  1.00  0.00     0.124 S 
ATOM     84  O   UNL     1       3.838  -8.158  10.319  1.00  0.00    -0.237 OA
ATOM     85  O   UNL     1       4.563  -5.831   9.896  1.00  0.00    -0.237 OA
ATOM     86  O   UNL     1       4.655  -6.755  12.180  1.00  0.00    -0.744 OA
ENDBRANCH  82  83
ENDBRANCH  50  75
BRANCH  62  87
ATOM     87  C   UNL     1      -4.292  -0.481  15.212  1.00  0.00     0.058 A 
ATOM     88  C   UNL     1      -4.489  -1.460  16.200  1.00  0.00     0.135 A 
ATOM     89  C   UNL     1      -4.948   0.754  15.436  1.00  0.00     0.135 A 
ATOM     90  F   UNL     1      -3.835  -2.631  16.157  1.00  0.00    -0.206 F 
ATOM     91  C   UNL     1      -5.332  -1.261  17.296  1.00  0.00     0.059 A 
ATOM     92  C   UNL     1      -5.753   0.992  16.548  1.00  0.00     0.059 A 
ATOM     93  F   UNL     1      -4.820   1.777  14.578  1.00  0.00    -0.206 F 
ATOM     94  C   UNL     1      -5.962  -0.032  17.461  1.00  0.00     0.060 A 
BRANCH  94  95
ATOM     95  S   UNL     1      -7.008   0.266  18.899  1.00  0.00     0.124 S 
ATOM     96  O   UNL     1      -8.336   0.004  18.353  1.00  0.00    -0.237 OA
ATOM     97  O   UNL     1      -6.524  -0.714  19.868  1.00  0.00    -0.237 OA
ATOM     98  O   UNL     1      -6.721   1.657  19.231  1.00  0.00    -0.744 OA
ENDBRANCH  94  95
ENDBRANCH  62  87
ENDBRANCH  36  37
ENDBRANCH  28  31
ENDBRANCH  26  27
ENDBRANCH  25  26
ENDBRANCH   1  25
TORSDOF 17
