REMARK SMILES O=C(NCCCNC(=O)c1ccc(-c2c3nc(c(-c4c(F)cc(S(=O)(=O)[O-])cc4F)c4ccc([nH]4)c(-c4c(F)cc(S(=O)(=O)[O-])cc4F)c4nc(c(-c5c(F)cc(S(=O)(=O)[O-])cc5F)c5ccc2[nH]5)C=C4)C=C3)cc1)c1ccc(N/C=C\C(=O)c2ccco2)cc1
REMARK SMILES IDX 4 1 3 2 1 3 2 4 76 6 77 7 91 8 78 9 90 10 79 11 80 12 81 14
REMARK SMILES IDX 82 15 83 16 84 17 85 18 86 19 89 20 87 21 88 22 5 23 6 24
REMARK SMILES IDX 7 25 8 26 9 28 10 29 11 30 75 31 12 32 74 33 13 34 14 35
REMARK SMILES IDX 15 36 68 37 16 38 73 39 67 40 69 41 17 42 72 43 66 44 65 45
REMARK SMILES IDX 18 47 52 48 31 49 51 50 32 51 35 52 50 53 70 54 33 55 34 56
REMARK SMILES IDX 49 58 71 59 36 60 19 61 20 62 29 63 21 64 22 65 28 66 30 67
REMARK SMILES IDX 23 68 24 69 25 70 26 71 27 72 53 73 54 74 63 75 55 76 56 77
REMARK SMILES IDX 62 78 64 79 57 80 58 81 59 82 60 83 61 84 37 85 38 86 47 87
REMARK SMILES IDX 39 88 40 89 46 90 48 91 41 92 42 93 43 94 44 95 45 96
REMARK H PARENT 3 5 80 13 7 27 69 46 35 57
REMARK Flexibility Score: inf
ROOT
ATOM      1  C   UNL     1       4.537   0.903  -1.182  1.00  0.00     0.118 C 
ENDROOT
BRANCH   1   2
ATOM      2  N   UNL     1       3.103   0.922  -0.925  1.00  0.00    -0.352 N 
ATOM      3  O   UNL     1       1.163   0.356   0.078  1.00  0.00    -0.269 OA
ATOM      4  C   UNL     1       2.390   0.359   0.103  1.00  0.00     0.251 C 
ATOM      5  H   UNL     1       2.566   1.413  -1.588  1.00  0.00     0.163 HD
BRANCH   4   6
ATOM      6  C   UNL     1       3.099  -0.269   1.234  1.00  0.00     0.039 A 
ATOM      7  C   UNL     1       4.103   0.413   1.928  1.00  0.00     0.016 A 
ATOM      8  C   UNL     1       2.746  -1.564   1.606  1.00  0.00     0.016 A 
ATOM      9  C   UNL     1       4.829  -0.243   2.924  1.00  0.00     0.027 A 
ATOM     10  C   UNL     1       3.454  -2.201   2.626  1.00  0.00     0.027 A 
ATOM     11  C   UNL     1       4.517  -1.558   3.283  1.00  0.00     0.038 A 
BRANCH  11  12
ATOM     12  N   UNL     1       5.278  -2.307   4.193  1.00  0.00    -0.362 N 
ATOM     13  H   UNL     1       4.786  -2.995   4.697  1.00  0.00     0.166 HD
BRANCH  12  14
ATOM     14  C   UNL     1       6.616  -2.206   4.473  1.00  0.00     0.087 C 
ATOM     15  C   UNL     1       7.402  -3.022   5.191  1.00  0.00     0.074 C 
BRANCH  15  16
ATOM     16  C   UNL     1       6.990  -4.287   5.869  1.00  0.00     0.222 C 
ATOM     17  O   UNL     1       7.570  -4.586   6.913  1.00  0.00    -0.286 OA
BRANCH  16  18
ATOM     18  C   UNL     1       5.937  -5.083   5.278  1.00  0.00     0.173 A 
ATOM     19  C   UNL     1       5.705  -5.509   3.981  1.00  0.00     0.054 A 
ATOM     20  O   UNL     1       4.886  -5.457   6.071  1.00  0.00    -0.461 OA
ATOM     21  C   UNL     1       4.441  -6.149   3.982  1.00  0.00     0.043 A 
ATOM     22  C   UNL     1       3.985  -6.089   5.277  1.00  0.00     0.196 A 
ENDBRANCH  16  18
ENDBRANCH  15  16
ENDBRANCH  12  14
ENDBRANCH  11  12
ENDBRANCH   4   6
ENDBRANCH   1   2
BRANCH   1  23
ATOM     23  C   UNL     1       4.896   0.204  -2.487  1.00  0.00     0.042 C 
BRANCH  23  24
ATOM     24  C   UNL     1       4.312   0.855  -3.734  1.00  0.00     0.118 C 
BRANCH  24  25
ATOM     25  N   UNL     1       4.775   2.224  -3.932  1.00  0.00    -0.352 N 
ATOM     26  C   UNL     1       5.621   2.755  -4.876  1.00  0.00     0.251 C 
ATOM     27  H   UNL     1       4.423   2.875  -3.283  1.00  0.00     0.163 HD
ATOM     28  O   UNL     1       6.016   3.911  -4.751  1.00  0.00    -0.269 OA
BRANCH  26  29
ATOM     29  C   UNL     1       6.084   1.934  -6.017  1.00  0.00     0.039 A 
ATOM     30  C   UNL     1       7.436   1.968  -6.370  1.00  0.00     0.014 A 
ATOM     31  C   UNL     1       5.196   1.131  -6.735  1.00  0.00     0.014 A 
ATOM     32  C   UNL     1       7.915   1.115  -7.367  1.00  0.00     0.010 A 
ATOM     33  C   UNL     1       5.685   0.227  -7.674  1.00  0.00     0.010 A 
ATOM     34  C   UNL     1       7.053   0.194  -7.984  1.00  0.00    -0.014 A 
BRANCH  34  35
ATOM     35  C   UNL     1       7.558  -0.849  -8.914  1.00  0.00     0.031 A 
ATOM     36  C   UNL     1       7.090  -0.882 -10.342  1.00  0.00     0.074 A 
ATOM     37  C   UNL     1       8.356  -1.827  -8.440  1.00  0.00     0.049 A 
ATOM     38  N   UNL     1       7.282  -1.802 -11.252  1.00  0.00    -0.248 NA
ATOM     39  C   UNL     1       6.277   0.256 -10.801  1.00  0.00     0.031 C 
ATOM     40  C   UNL     1       8.851  -1.927  -7.064  1.00  0.00     0.029 A 
ATOM     41  N   UNL     1       8.874  -2.939  -9.056  1.00  0.00    -0.354 N 
ATOM     42  C   UNL     1       6.606  -1.364 -12.383  1.00  0.00     0.074 A 
ATOM     43  C   UNL     1       5.965  -0.114 -12.036  1.00  0.00     0.031 C 
ATOM     44  C   UNL     1       9.605  -3.031  -6.944  1.00  0.00     0.029 A 
ATOM     45  C   UNL     1       9.609  -3.744  -8.217  1.00  0.00     0.049 A 
ATOM     46  H   UNL     1       8.733  -3.142 -10.009  1.00  0.00     0.167 HD
ATOM     47  C   UNL     1       6.542  -1.943 -13.606  1.00  0.00     0.037 A 
ATOM     48  C   UNL     1      10.196  -4.936  -8.437  1.00  0.00     0.037 A 
ATOM     49  C   UNL     1       7.205  -3.172 -13.956  1.00  0.00     0.049 A 
ATOM     50  C   UNL     1      10.081  -5.574  -9.793  1.00  0.00     0.074 A 
ATOM     51  C   UNL     1       7.248  -3.805 -15.186  1.00  0.00     0.029 A 
ATOM     52  N   UNL     1       7.941  -3.953 -13.079  1.00  0.00    -0.354 N 
ATOM     53  N   UNL     1       9.470  -5.124 -10.863  1.00  0.00    -0.248 NA
ATOM     54  C   UNL     1      10.722  -6.884  -9.970  1.00  0.00     0.031 C 
ATOM     55  C   UNL     1       7.984  -4.987 -15.044  1.00  0.00     0.029 A 
ATOM     56  C   UNL     1       8.424  -5.073 -13.734  1.00  0.00     0.049 A 
ATOM     57  H   UNL     1       8.097  -3.742 -12.130  1.00  0.00     0.167 HD
ATOM     58  C   UNL     1       9.664  -6.091 -11.843  1.00  0.00     0.074 A 
ATOM     59  C   UNL     1      10.461  -7.141 -11.245  1.00  0.00     0.031 C 
ATOM     60  C   UNL     1       9.216  -6.109 -13.122  1.00  0.00     0.037 A 
BRANCH  47  61
ATOM     61  C   UNL     1       5.738  -1.247 -14.667  1.00  0.00     0.058 A 
ATOM     62  C   UNL     1       6.209  -0.082 -15.292  1.00  0.00     0.135 A 
ATOM     63  C   UNL     1       4.515  -1.778 -15.105  1.00  0.00     0.135 A 
ATOM     64  F   UNL     1       7.366   0.475 -14.899  1.00  0.00    -0.206 F 
ATOM     65  C   UNL     1       5.488   0.542 -16.303  1.00  0.00     0.059 A 
ATOM     66  C   UNL     1       3.786  -1.182 -16.130  1.00  0.00     0.059 A 
ATOM     67  F   UNL     1       4.019  -2.890 -14.538  1.00  0.00    -0.206 F 
ATOM     68  C   UNL     1       4.277  -0.016 -16.716  1.00  0.00     0.060 A 
BRANCH  68  69
ATOM     69  S   UNL     1       3.363   0.795 -18.045  1.00  0.00     0.124 S 
ATOM     70  O   UNL     1       2.815   1.957 -17.352  1.00  0.00    -0.237 OA
ATOM     71  O   UNL     1       4.411   1.076 -19.020  1.00  0.00    -0.237 OA
ATOM     72  O   UNL     1       2.387  -0.212 -18.450  1.00  0.00    -0.744 OA
ENDBRANCH  68  69
ENDBRANCH  47  61
BRANCH  48  73
ATOM     73  C   UNL     1      10.934  -5.619  -7.342  1.00  0.00     0.058 A 
ATOM     74  C   UNL     1      12.332  -5.716  -7.370  1.00  0.00     0.135 A 
ATOM     75  C   UNL     1      10.258  -6.194  -6.254  1.00  0.00     0.135 A 
ATOM     76  F   UNL     1      13.020  -5.188  -8.394  1.00  0.00    -0.206 F 
ATOM     77  C   UNL     1      13.037  -6.374  -6.368  1.00  0.00     0.059 A 
ATOM     78  C   UNL     1      10.942  -6.838  -5.229  1.00  0.00     0.059 A 
ATOM     79  F   UNL     1       8.921  -6.114  -6.174  1.00  0.00    -0.206 F 
ATOM     80  C   UNL     1      12.331  -6.935  -5.302  1.00  0.00     0.060 A 
BRANCH  80  81
ATOM     81  S   UNL     1      13.252  -7.758  -3.984  1.00  0.00     0.124 S 
ATOM     82  O   UNL     1      13.564  -9.040  -4.603  1.00  0.00    -0.237 OA
ATOM     83  O   UNL     1      14.380  -6.853  -3.782  1.00  0.00    -0.237 OA
ATOM     84  O   UNL     1      12.291  -7.801  -2.885  1.00  0.00    -0.744 OA
ENDBRANCH  80  81
ENDBRANCH  48  73
BRANCH  60  85
ATOM     85  C   UNL     1       9.585  -7.295 -13.965  1.00  0.00     0.058 A 
ATOM     86  C   UNL     1       8.930  -8.527 -13.813  1.00  0.00     0.135 A 
ATOM     87  C   UNL     1      10.554  -7.183 -14.973  1.00  0.00     0.135 A 
ATOM     88  F   UNL     1       8.003  -8.686 -12.855  1.00  0.00    -0.206 F 
ATOM     89  C   UNL     1       9.230  -9.612 -14.629  1.00  0.00     0.059 A 
ATOM     90  C   UNL     1      10.856  -8.249 -15.814  1.00  0.00     0.059 A 
ATOM     91  F   UNL     1      11.204  -6.023 -15.160  1.00  0.00    -0.206 F 
ATOM     92  C   UNL     1      10.192  -9.461 -15.630  1.00  0.00     0.060 A 
BRANCH  92  93
ATOM     93  S   UNL     1      10.535 -10.861 -16.719  1.00  0.00     0.124 S 
ATOM     94  O   UNL     1      11.338 -11.717 -15.852  1.00  0.00    -0.237 OA
ATOM     95  O   UNL     1       9.195 -11.352 -17.029  1.00  0.00    -0.237 OA
ATOM     96  O   UNL     1      11.247 -10.253 -17.838  1.00  0.00    -0.744 OA
ENDBRANCH  92  93
ENDBRANCH  60  85
ENDBRANCH  34  35
ENDBRANCH  26  29
ENDBRANCH  24  25
ENDBRANCH  23  24
ENDBRANCH   1  23
TORSDOF 17
