REMARK SMILES COc1ccc(-c2cc([C@@H]3CC[N@@H+](CC(=O)NCCCNC(=O)c4ccc(-c5c6nc(c(-c7c(F)cc(S(=O)(=O)[O-])cc7F)c7ccc([nH]7)c(-c7c(F)cc(S(=O)(=O)[O-])cc7F)c7nc(c(-c8c(F)cc(S(=O)(=O)[O-])cc8F)c8ccc5[nH]8)C=C7)C=C6)cc4)C3)ccn2)c2ccc(C)nc12
REMARK SMILES IDX 18 1 17 2 15 3 16 4 14 6 13 7 10 8 11 9 90 10 12 11 9 13
REMARK SMILES IDX 7 14 8 15 93 16 92 17 91 18 6 19 3 20 4 21 100 22 5 23 94 24
REMARK SMILES IDX 99 25 95 26 97 27 96 28 98 29 2 30 1 31 19 32 20 33 21 34
REMARK SMILES IDX 22 35 23 37 24 38 25 39 89 40 26 41 88 42 27 43 28 44 29 45
REMARK SMILES IDX 82 46 30 47 87 48 81 49 83 50 31 51 86 52 80 53 79 54 32 56
REMARK SMILES IDX 66 57 45 58 65 59 46 60 49 61 64 62 84 63 47 64 48 65 63 67
REMARK SMILES IDX 85 68 50 69 33 70 34 71 43 72 35 73 36 74 42 75 44 76 37 77
REMARK SMILES IDX 38 78 39 79 40 80 41 81 67 82 68 83 77 84 69 85 70 86 76 87
REMARK SMILES IDX 78 88 71 89 72 90 73 91 74 92 75 93 51 94 52 95 61 96 53 97
REMARK SMILES IDX 54 98 60 99 62 100 55 101 56 102 57 103 58 104 59 105
REMARK H PARENT 17 5 13 12 21 36 83 55 49 66
REMARK Flexibility Score: inf
ROOT
ATOM      1  C   UNL     1       1.764 -11.049  -0.101  1.00  0.00     0.118 C 
ENDROOT
BRANCH   1   2
ATOM      2  N   UNL     1       2.709 -11.532  -1.107  1.00  0.00    -0.351 N 
ATOM      3  C   UNL     1       3.974 -11.165  -1.488  1.00  0.00     0.275 C 
ATOM      4  O   UNL     1       4.498 -11.842  -2.380  1.00  0.00    -0.269 OA
ATOM      5  H   UNL     1       2.359 -12.291  -1.627  1.00  0.00     0.163 HD
BRANCH   3   6
ATOM      6  C   UNL     1       4.726  -9.970  -0.879  1.00  0.00     0.363 C 
BRANCH   6   7
ATOM      7  N   UNL     1       4.505  -8.649  -1.522  1.00  0.00    -0.327 N 
ATOM      8  C   UNL     1       3.651  -8.425  -3.818  1.00  0.00     0.080 C 
ATOM      9  C   UNL     1       2.548  -8.788  -2.820  1.00  0.00     0.075 C 
ATOM     10  C   UNL     1       4.925  -8.498  -2.937  1.00  0.00     0.271 C 
ATOM     11  C   UNL     1       3.100  -8.285  -1.491  1.00  0.00     0.263 C 
ATOM     12  H   UNL     1       5.107  -8.046  -0.962  1.00  0.00     0.348 HD
BRANCH   8  13
ATOM     13  C   UNL     1       3.157  -7.115  -4.428  1.00  0.00    -0.035 A 
ATOM     14  C   UNL     1       2.118  -4.997  -3.903  1.00  0.00     0.071 A 
ATOM     15  C   UNL     1       3.115  -5.947  -3.663  1.00  0.00     0.033 A 
ATOM     16  N   UNL     1       1.284  -5.095  -4.961  1.00  0.00    -0.256 NA
ATOM     17  C   UNL     1       1.441  -6.147  -5.791  1.00  0.00     0.112 A 
ATOM     18  C   UNL     1       2.341  -7.177  -5.564  1.00  0.00     0.024 A 
BRANCH  14  19
ATOM     19  C   UNL     1       1.764  -3.996  -2.870  1.00  0.00     0.010 A 
ATOM     20  C   UNL     1       1.025  -2.349  -0.733  1.00  0.00     0.145 A 
ATOM     21  C   UNL     1       0.059  -3.135  -1.359  1.00  0.00     0.049 A 
ATOM     22  C   UNL     1       2.376  -2.383  -1.105  1.00  0.00     0.113 A 
ATOM     23  C   UNL     1       0.430  -3.957  -2.415  1.00  0.00     0.015 A 
ATOM     24  C   UNL     1       2.732  -3.169  -2.227  1.00  0.00     0.013 A 
ATOM     25  N   UNL     1       3.307  -1.694  -0.400  1.00  0.00    -0.249 NA
ATOM     26  C   UNL     1       4.072  -3.082  -2.656  1.00  0.00     0.013 A 
ATOM     27  C   UNL     1       4.592  -1.680  -0.815  1.00  0.00     0.038 A 
ATOM     28  C   UNL     1       5.007  -2.337  -1.954  1.00  0.00     0.024 A 
ATOM     29  C   UNL     1       5.550  -0.856  -0.015  1.00  0.00     0.067 C 
BRANCH  20  30
ATOM     30  O   UNL     1       0.564  -1.553   0.297  1.00  0.00    -0.494 OA
ATOM     31  C   UNL     1       0.659  -0.171  -0.077  1.00  0.00     0.278 C 
ENDBRANCH  20  30
ENDBRANCH  14  19
ENDBRANCH   8  13
ENDBRANCH   6   7
ENDBRANCH   3   6
ENDBRANCH   1   2
BRANCH   1  32
ATOM     32  C   UNL     1       0.531 -10.262  -0.615  1.00  0.00     0.042 C 
BRANCH  32  33
ATOM     33  C   UNL     1      -0.141 -10.748  -1.904  1.00  0.00     0.118 C 
BRANCH  33  34
ATOM     34  N   UNL     1      -1.373 -11.456  -1.615  1.00  0.00    -0.352 N 
ATOM     35  C   UNL     1      -2.672 -11.103  -1.895  1.00  0.00     0.251 C 
ATOM     36  H   UNL     1      -1.263 -12.316  -1.149  1.00  0.00     0.163 HD
ATOM     37  O   UNL     1      -3.578 -11.659  -1.277  1.00  0.00    -0.269 OA
BRANCH  35  38
ATOM     38  C   UNL     1      -3.011 -10.086  -2.925  1.00  0.00     0.039 A 
ATOM     39  C   UNL     1      -4.052  -9.186  -2.660  1.00  0.00     0.014 A 
ATOM     40  C   UNL     1      -2.415 -10.089  -4.191  1.00  0.00     0.014 A 
ATOM     41  C   UNL     1      -4.478  -8.282  -3.643  1.00  0.00     0.010 A 
ATOM     42  C   UNL     1      -2.827  -9.168  -5.166  1.00  0.00     0.010 A 
ATOM     43  C   UNL     1      -3.865  -8.258  -4.905  1.00  0.00    -0.014 A 
BRANCH  43  44
ATOM     44  C   UNL     1      -4.278  -7.271  -5.944  1.00  0.00     0.031 A 
ATOM     45  C   UNL     1      -5.008  -7.710  -7.186  1.00  0.00     0.074 A 
ATOM     46  C   UNL     1      -3.938  -5.974  -5.797  1.00  0.00     0.049 A 
ATOM     47  N   UNL     1      -5.356  -7.003  -8.233  1.00  0.00    -0.248 NA
ATOM     48  C   UNL     1      -5.386  -9.129  -7.272  1.00  0.00     0.031 C 
ATOM     49  C   UNL     1      -3.207  -5.420  -4.657  1.00  0.00     0.029 A 
ATOM     50  N   UNL     1      -4.134  -4.893  -6.623  1.00  0.00    -0.354 N 
ATOM     51  C   UNL     1      -5.972  -7.890  -9.110  1.00  0.00     0.074 A 
ATOM     52  C   UNL     1      -5.939  -9.192  -8.477  1.00  0.00     0.031 C 
ATOM     53  C   UNL     1      -2.999  -4.110  -4.863  1.00  0.00     0.029 A 
ATOM     54  C   UNL     1      -3.551  -3.735  -6.162  1.00  0.00     0.049 A 
ATOM     55  H   UNL     1      -4.644  -4.942  -7.464  1.00  0.00     0.167 HD
ATOM     56  C   UNL     1      -6.517  -7.638 -10.325  1.00  0.00     0.037 A 
ATOM     57  C   UNL     1      -3.439  -2.517  -6.730  1.00  0.00     0.037 A 
ATOM     58  C   UNL     1      -6.582  -6.335 -10.938  1.00  0.00     0.049 A 
ATOM     59  C   UNL     1      -4.040  -2.269  -8.087  1.00  0.00     0.074 A 
ATOM     60  C   UNL     1      -7.209  -5.972 -12.119  1.00  0.00     0.029 A 
ATOM     61  N   UNL     1      -5.992  -5.187 -10.433  1.00  0.00    -0.354 N 
ATOM     62  N   UNL     1      -4.695  -3.101  -8.861  1.00  0.00    -0.248 NA
ATOM     63  C   UNL     1      -3.884  -0.921  -8.653  1.00  0.00     0.031 C 
ATOM     64  C   UNL     1      -6.954  -4.617 -12.355  1.00  0.00     0.029 A 
ATOM     65  C   UNL     1      -6.203  -4.126 -11.300  1.00  0.00     0.049 A 
ATOM     66  H   UNL     1      -5.496  -5.133  -9.585  1.00  0.00     0.167 HD
ATOM     67  C   UNL     1      -5.034  -2.376  -9.998  1.00  0.00     0.074 A 
ATOM     68  C   UNL     1      -4.533  -1.032  -9.804  1.00  0.00     0.031 C 
ATOM     69  C   UNL     1      -5.698  -2.791 -11.104  1.00  0.00     0.037 A 
BRANCH  56  70
ATOM     70  C   UNL     1      -7.093  -8.791 -11.101  1.00  0.00     0.058 A 
ATOM     71  C   UNL     1      -8.333  -9.358 -10.770  1.00  0.00     0.135 A 
ATOM     72  C   UNL     1      -6.445  -9.261 -12.256  1.00  0.00     0.135 A 
ATOM     73  F   UNL     1      -8.991  -8.950  -9.673  1.00  0.00    -0.206 F 
ATOM     74  C   UNL     1      -8.907 -10.356 -11.551  1.00  0.00     0.059 A 
ATOM     75  C   UNL     1      -7.010 -10.244 -13.063  1.00  0.00     0.059 A 
ATOM     76  F   UNL     1      -5.258  -8.749 -12.619  1.00  0.00    -0.206 F 
ATOM     77  C   UNL     1      -8.240 -10.790 -12.699  1.00  0.00     0.060 A 
BRANCH  77  78
ATOM     78  S   UNL     1      -9.017 -12.058 -13.723  1.00  0.00     0.124 S 
ATOM     79  O   UNL     1      -8.830 -13.250 -12.902  1.00  0.00    -0.237 OA
ATOM     80  O   UNL     1     -10.389 -11.574 -13.834  1.00  0.00    -0.237 OA
ATOM     81  O   UNL     1      -8.242 -12.021 -14.959  1.00  0.00    -0.744 OA
ENDBRANCH  77  78
ENDBRANCH  56  70
BRANCH  57  82
ATOM     82  C   UNL     1      -2.692  -1.439  -6.027  1.00  0.00     0.058 A 
ATOM     83  C   UNL     1      -3.354  -0.328  -5.487  1.00  0.00     0.135 A 
ATOM     84  C   UNL     1      -1.296  -1.502  -5.886  1.00  0.00     0.135 A 
ATOM     85  F   UNL     1      -4.686  -0.217  -5.609  1.00  0.00    -0.206 F 
ATOM     86  C   UNL     1      -2.659   0.693  -4.847  1.00  0.00     0.059 A 
ATOM     87  C   UNL     1      -0.582  -0.510  -5.222  1.00  0.00     0.059 A 
ATOM     88  F   UNL     1      -0.619  -2.545  -6.389  1.00  0.00    -0.206 F 
ATOM     89  C   UNL     1      -1.272   0.592  -4.718  1.00  0.00     0.060 A 
BRANCH  89  90
ATOM     90  S   UNL     1      -0.386   1.913  -3.863  1.00  0.00     0.124 S 
ATOM     91  O   UNL     1      -0.432   2.985  -4.850  1.00  0.00    -0.237 OA
ATOM     92  O   UNL     1      -1.201   2.108  -2.668  1.00  0.00    -0.237 OA
ATOM     93  O   UNL     1       0.933   1.335  -3.620  1.00  0.00    -0.744 OA
ENDBRANCH  89  90
ENDBRANCH  57  82
BRANCH  69  94
ATOM     94  C   UNL     1      -5.926  -1.786 -12.200  1.00  0.00     0.058 A 
ATOM     95  C   UNL     1      -4.886  -1.393 -13.056  1.00  0.00     0.135 A 
ATOM     96  C   UNL     1      -7.207  -1.266 -12.441  1.00  0.00     0.135 A 
ATOM     97  F   UNL     1      -3.641  -1.854 -12.863  1.00  0.00    -0.206 F 
ATOM     98  C   UNL     1      -5.107  -0.511 -14.110  1.00  0.00     0.059 A 
ATOM     99  C   UNL     1      -7.456  -0.400 -13.503  1.00  0.00     0.059 A 
ATOM    100  F   UNL     1      -8.238  -1.616 -11.656  1.00  0.00    -0.206 F 
ATOM    101  C   UNL     1      -6.397  -0.024 -14.329  1.00  0.00     0.060 A 
BRANCH 101 102
ATOM    102  S   UNL     1      -6.682   1.075 -15.734  1.00  0.00     0.124 S 
ATOM    103  O   UNL     1      -6.098   2.323 -15.255  1.00  0.00    -0.237 OA
ATOM    104  O   UNL     1      -5.954   0.406 -16.808  1.00  0.00    -0.237 OA
ATOM    105  O   UNL     1      -8.135   1.075 -15.876  1.00  0.00    -0.744 OA
ENDBRANCH 101 102
ENDBRANCH  69  94
ENDBRANCH  43  44
ENDBRANCH  35  38
ENDBRANCH  33  34
ENDBRANCH  32  33
ENDBRANCH   1  32
TORSDOF 17
