REMARK SMILES COc1ccc2c(c1)c(Cc1nc(-c3ccc(C(=O)NCCCNC(=O)c4ccc(-c5c6nc(c(-c7c(F)cc(S(=O)(=O)[O-])cc7F)c7ccc([nH]7)c(-c7c(F)cc(S(=O)(=O)[O-])cc7F)c7nc(c(-c8c(F)cc(S(=O)(=O)[O-])cc8F)c8ccc5[nH]8)C=C7)C=C6)cc4)cc3)cs1)c(C)n2C(=O)c1ccc(Cl)cc1
REMARK SMILES IDX 21 1 20 2 18 3 19 4 17 6 14 7 15 8 94 9 16 10 93 11 13 12
REMARK SMILES IDX 11 13 12 14 96 15 95 16 10 17 9 18 3 19 4 20 8 21 5 22 7 23
REMARK SMILES IDX 6 24 99 25 97 26 98 27 2 28 1 29 100 30 101 31 102 32 103 33
REMARK SMILES IDX 108 34 104 35 107 36 105 37 106 38 22 39 23 40 24 41 25 42
REMARK SMILES IDX 26 44 27 45 28 46 92 47 29 48 91 49 30 50 31 51 32 52 85 53
REMARK SMILES IDX 33 54 90 55 84 56 86 57 34 58 89 59 83 60 82 61 35 63 69 64
REMARK SMILES IDX 48 65 68 66 49 67 52 68 67 69 87 70 50 71 51 72 66 74 88 75
REMARK SMILES IDX 53 76 36 77 37 78 46 79 38 80 39 81 45 82 47 83 40 84 41 85
REMARK SMILES IDX 42 86 43 87 44 88 70 89 71 90 80 91 72 92 73 93 79 94 81 95
REMARK SMILES IDX 74 96 75 97 76 98 77 99 78 100 54 101 55 102 64 103 56 104
REMARK SMILES IDX 57 105 63 106 65 107 58 108 59 109 60 110 61 111 62 112
REMARK H PARENT 20 5 24 43 86 62 52 73
REMARK Flexibility Score: inf
ROOT
ATOM      1  C   UNL     1      -4.018  -5.617   1.146  1.00  0.00     0.118 C 
ENDROOT
BRANCH   1   2
ATOM      2  N   UNL     1      -3.206  -6.744   0.717  1.00  0.00    -0.352 N 
ATOM      3  C   UNL     1      -2.430  -6.967  -0.395  1.00  0.00     0.251 C 
ATOM      4  O   UNL     1      -1.858  -8.055  -0.484  1.00  0.00    -0.269 OA
ATOM      5  H   UNL     1      -3.213  -7.498   1.349  1.00  0.00     0.163 HD
BRANCH   3   6
ATOM      6  C   UNL     1      -2.306  -5.996  -1.515  1.00  0.00     0.039 A 
ATOM      7  C   UNL     1      -2.272  -4.298  -3.770  1.00  0.00     0.001 A 
ATOM      8  C   UNL     1      -2.106  -5.676  -3.927  1.00  0.00     0.011 A 
ATOM      9  C   UNL     1      -2.345  -3.776  -2.470  1.00  0.00     0.011 A 
ATOM     10  C   UNL     1      -2.131  -6.517  -2.807  1.00  0.00     0.014 A 
ATOM     11  C   UNL     1      -2.322  -4.613  -1.351  1.00  0.00     0.014 A 
BRANCH   7  12
ATOM     12  C   UNL     1      -2.345  -3.381  -4.896  1.00  0.00     0.081 A 
ATOM     13  C   UNL     1      -2.151  -1.371  -5.824  1.00  0.00     0.098 A 
ATOM     14  N   UNL     1      -2.016  -2.059  -4.713  1.00  0.00    -0.241 NA
ATOM     15  S   UNL     1      -2.724  -2.281  -7.164  1.00  0.00    -0.126 S 
ATOM     16  C   UNL     1      -2.780  -3.687  -6.170  1.00  0.00     0.095 A 
BRANCH  13  17
ATOM     17  C   UNL     1      -1.837   0.094  -5.928  1.00  0.00     0.105 C 
BRANCH  17  18
ATOM     18  C   UNL     1      -0.359   0.368  -5.756  1.00  0.00    -0.012 A 
ATOM     19  C   UNL     1       0.939  -0.238  -2.209  1.00  0.00     0.119 A 
ATOM     20  C   UNL     1       2.227   0.207  -2.440  1.00  0.00     0.048 A 
ATOM     21  C   UNL     1       0.008  -0.211  -3.244  1.00  0.00     0.057 A 
ATOM     22  C   UNL     1       2.602   0.680  -3.703  1.00  0.00     0.031 A 
ATOM     23  C   UNL     1       0.371   0.224  -4.542  1.00  0.00     0.008 A 
ATOM     24  C   UNL     1       1.686   0.633  -4.780  1.00  0.00     0.057 A 
ATOM     25  N   UNL     1       1.808   0.926  -6.152  1.00  0.00    -0.280 N 
ATOM     26  C   UNL     1       0.530   0.818  -6.726  1.00  0.00     0.028 A 
ATOM     27  C   UNL     1       0.173   1.116  -8.148  1.00  0.00     0.065 C 
BRANCH  19  28
ATOM     28  O   UNL     1       0.514  -0.770  -1.023  1.00  0.00    -0.497 OA
ATOM     29  C   UNL     1       0.934  -0.037   0.123  1.00  0.00     0.278 C 
ENDBRANCH  19  28
BRANCH  25  30
ATOM     30  C   UNL     1       3.018   1.266  -6.834  1.00  0.00     0.262 C 
ATOM     31  O   UNL     1       2.990   1.600  -8.006  1.00  0.00    -0.268 OA
BRANCH  30  32
ATOM     32  C   UNL     1       4.361   1.265  -6.220  1.00  0.00     0.040 A 
ATOM     33  C   UNL     1       4.961   0.071  -5.804  1.00  0.00     0.015 A 
ATOM     34  C   UNL     1       5.008   2.494  -6.045  1.00  0.00     0.015 A 
ATOM     35  C   UNL     1       6.184   0.122  -5.131  1.00  0.00     0.021 A 
ATOM     36  C   UNL     1       6.234   2.536  -5.380  1.00  0.00     0.021 A 
ATOM     37  C   UNL     1       6.808   1.353  -4.911  1.00  0.00     0.041 A 
ATOM     38  Cl  UNL     1       8.288   1.415  -4.037  1.00  0.00    -0.084 Cl
ENDBRANCH  30  32
ENDBRANCH  25  30
ENDBRANCH  17  18
ENDBRANCH  13  17
ENDBRANCH   7  12
ENDBRANCH   3   6
ENDBRANCH   1   2
BRANCH   1  39
ATOM     39  C   UNL     1      -5.480  -5.959   1.399  1.00  0.00     0.042 C 
BRANCH  39  40
ATOM     40  C   UNL     1      -5.758  -7.028   2.452  1.00  0.00     0.118 C 
BRANCH  40  41
ATOM     41  N   UNL     1      -5.092  -6.862   3.729  1.00  0.00    -0.352 N 
ATOM     42  C   UNL     1      -5.379  -6.194   4.889  1.00  0.00     0.251 C 
ATOM     43  H   UNL     1      -4.234  -7.341   3.773  1.00  0.00     0.163 HD
ATOM     44  O   UNL     1      -4.692  -6.499   5.868  1.00  0.00    -0.269 OA
BRANCH  42  45
ATOM     45  C   UNL     1      -6.373  -5.094   5.026  1.00  0.00     0.039 A 
ATOM     46  C   UNL     1      -7.253  -4.673   4.033  1.00  0.00     0.014 A 
ATOM     47  C   UNL     1      -6.338  -4.374   6.236  1.00  0.00     0.014 A 
ATOM     48  C   UNL     1      -7.950  -3.476   4.171  1.00  0.00     0.010 A 
ATOM     49  C   UNL     1      -7.071  -3.204   6.401  1.00  0.00     0.010 A 
ATOM     50  C   UNL     1      -7.823  -2.717   5.337  1.00  0.00    -0.014 A 
BRANCH  50  51
ATOM     51  C   UNL     1      -8.551  -1.450   5.407  1.00  0.00     0.031 A 
ATOM     52  C   UNL     1     -10.033  -1.559   5.301  1.00  0.00     0.074 A 
ATOM     53  C   UNL     1      -7.953  -0.263   5.642  1.00  0.00     0.049 A 
ATOM     54  N   UNL     1     -10.820  -1.058   4.403  1.00  0.00    -0.248 NA
ATOM     55  C   UNL     1     -10.716  -2.424   6.276  1.00  0.00     0.031 C 
ATOM     56  C   UNL     1      -6.564  -0.029   6.052  1.00  0.00     0.029 A 
ATOM     57  N   UNL     1      -8.494   0.992   5.652  1.00  0.00    -0.354 N 
ATOM     58  C   UNL     1     -12.116  -1.385   4.803  1.00  0.00     0.074 A 
ATOM     59  C   UNL     1     -11.985  -2.333   5.878  1.00  0.00     0.031 C 
ATOM     60  C   UNL     1      -6.433   1.247   6.478  1.00  0.00     0.029 A 
ATOM     61  C   UNL     1      -7.675   1.957   6.224  1.00  0.00     0.049 A 
ATOM     62  H   UNL     1      -9.385   1.194   5.286  1.00  0.00     0.167 HD
ATOM     63  C   UNL     1     -13.206  -0.699   4.362  1.00  0.00     0.037 A 
ATOM     64  C   UNL     1      -8.004   3.240   6.507  1.00  0.00     0.037 A 
ATOM     65  C   UNL     1     -12.900   0.114   3.219  1.00  0.00     0.049 A 
ATOM     66  C   UNL     1      -9.145   3.621   5.643  1.00  0.00     0.074 A 
ATOM     67  C   UNL     1     -12.736  -0.087   1.866  1.00  0.00     0.029 A 
ATOM     68  N   UNL     1     -12.393   1.352   3.512  1.00  0.00    -0.354 N 
ATOM     69  N   UNL     1      -9.073   3.716   4.345  1.00  0.00    -0.248 NA
ATOM     70  C   UNL     1     -10.496   3.636   6.194  1.00  0.00     0.031 C 
ATOM     71  C   UNL     1     -11.902   0.975   1.405  1.00  0.00     0.029 A 
ATOM     72  C   UNL     1     -11.596   1.796   2.487  1.00  0.00     0.049 A 
ATOM     73  H   UNL     1     -12.574   1.851   4.340  1.00  0.00     0.167 HD
ATOM     74  C   UNL     1     -10.339   3.392   3.903  1.00  0.00     0.074 A 
ATOM     75  C   UNL     1     -11.202   3.532   5.066  1.00  0.00     0.031 C 
ATOM     76  C   UNL     1     -10.524   2.739   2.722  1.00  0.00     0.037 A 
BRANCH  63  77
ATOM     77  C   UNL     1     -14.455  -0.460   5.183  1.00  0.00     0.058 A 
ATOM     78  C   UNL     1     -15.620   0.051   4.573  1.00  0.00     0.135 A 
ATOM     79  C   UNL     1     -14.456  -0.449   6.596  1.00  0.00     0.135 A 
ATOM     80  F   UNL     1     -15.720   0.113   3.236  1.00  0.00    -0.206 F 
ATOM     81  C   UNL     1     -16.688   0.568   5.313  1.00  0.00     0.059 A 
ATOM     82  C   UNL     1     -15.529   0.012   7.352  1.00  0.00     0.059 A 
ATOM     83  F   UNL     1     -13.373  -0.795   7.305  1.00  0.00    -0.206 F 
ATOM     84  C   UNL     1     -16.627   0.553   6.704  1.00  0.00     0.060 A 
BRANCH  84  85
ATOM     85  S   UNL     1     -17.962   1.297   7.662  1.00  0.00     0.124 S 
ATOM     86  O   UNL     1     -17.788   2.712   7.358  1.00  0.00    -0.237 OA
ATOM     87  O   UNL     1     -19.142   0.659   7.087  1.00  0.00    -0.237 OA
ATOM     88  O   UNL     1     -17.651   0.902   9.033  1.00  0.00    -0.744 OA
ENDBRANCH  84  85
ENDBRANCH  63  77
BRANCH  64  89
ATOM     89  C   UNL     1      -7.580   4.075   7.658  1.00  0.00     0.058 A 
ATOM     90  C   UNL     1      -7.805   5.464   7.659  1.00  0.00     0.135 A 
ATOM     91  C   UNL     1      -7.252   3.493   8.898  1.00  0.00     0.135 A 
ATOM     92  F   UNL     1      -8.124   6.097   6.520  1.00  0.00    -0.206 F 
ATOM     93  C   UNL     1      -7.796   6.216   8.835  1.00  0.00     0.059 A 
ATOM     94  C   UNL     1      -7.226   4.226  10.082  1.00  0.00     0.059 A 
ATOM     95  F   UNL     1      -7.050   2.171   9.009  1.00  0.00    -0.206 F 
ATOM     96  C   UNL     1      -7.539   5.579  10.048  1.00  0.00     0.060 A 
BRANCH  96  97
ATOM     97  S   UNL     1      -7.764   6.500  11.587  1.00  0.00     0.124 S 
ATOM     98  O   UNL     1      -6.670   7.463  11.525  1.00  0.00    -0.237 OA
ATOM     99  O   UNL     1      -9.106   7.047  11.421  1.00  0.00    -0.237 OA
ATOM    100  O   UNL     1      -7.635   5.473  12.618  1.00  0.00    -0.744 OA
ENDBRANCH  96  97
ENDBRANCH  64  89
BRANCH  76 101
ATOM    101  C   UNL     1      -9.442   2.868   1.691  1.00  0.00     0.058 A 
ATOM    102  C   UNL     1      -8.160   2.307   1.807  1.00  0.00     0.135 A 
ATOM    103  C   UNL     1      -9.745   3.543   0.499  1.00  0.00     0.135 A 
ATOM    104  F   UNL     1      -7.822   1.578   2.881  1.00  0.00    -0.206 F 
ATOM    105  C   UNL     1      -7.206   2.448   0.798  1.00  0.00     0.059 A 
ATOM    106  C   UNL     1      -8.821   3.669  -0.533  1.00  0.00     0.059 A 
ATOM    107  F   UNL     1     -10.972   4.058   0.312  1.00  0.00    -0.206 F 
ATOM    108  C   UNL     1      -7.547   3.131  -0.370  1.00  0.00     0.060 A 
BRANCH 108 109
ATOM    109  S   UNL     1      -6.334   3.252  -1.702  1.00  0.00     0.124 S 
ATOM    110  O   UNL     1      -5.359   4.186  -1.148  1.00  0.00    -0.237 OA
ATOM    111  O   UNL     1      -5.881   1.871  -1.844  1.00  0.00    -0.237 OA
ATOM    112  O   UNL     1      -7.113   3.760  -2.829  1.00  0.00    -0.744 OA
ENDBRANCH 108 109
ENDBRANCH  76 101
ENDBRANCH  50  51
ENDBRANCH  42  45
ENDBRANCH  40  41
ENDBRANCH  39  40
ENDBRANCH   1  39
TORSDOF 19
