REMARK SMILES COc1nc2c(cc1C(=O)NCc1ccc(C(=O)NCCCNC(=O)c3ccc(-c4c5nc(c(-c6c(F)cc(S(=O)(=O)[O-])cc6F)c6ccc([nH]6)c(-c6c(F)cc(S(=O)(=O)[O-])cc6F)c6nc(c(-c7c(F)cc(S(=O)(=O)[O-])cc7F)c7ccc4[nH]7)C=C6)C=C5)cc3)s1)CCC2
REMARK SMILES IDX 20 1 19 2 17 3 18 4 16 6 13 7 14 8 92 9 15 10 12 11 11 12
REMARK SMILES IDX 9 13 10 14 8 16 3 17 4 18 5 19 7 20 6 21 95 22 93 23 94 24
REMARK SMILES IDX 2 25 1 26 21 27 22 28 23 29 24 30 25 32 26 33 27 34 91 35
REMARK SMILES IDX 28 36 90 37 29 38 30 39 31 40 84 41 32 42 89 43 83 44 85 45
REMARK SMILES IDX 33 46 88 47 82 48 81 49 34 51 68 52 47 53 67 54 48 55 51 56
REMARK SMILES IDX 66 57 86 58 49 59 50 60 65 62 87 63 52 64 35 65 36 66 45 67
REMARK SMILES IDX 37 68 38 69 44 70 46 71 39 72 40 73 41 74 42 75 43 76 69 77
REMARK SMILES IDX 70 78 79 79 71 80 72 81 78 82 80 83 73 84 74 85 75 86 76 87
REMARK SMILES IDX 77 88 53 89 54 90 63 91 55 92 56 93 62 94 64 95 57 96 58 97
REMARK SMILES IDX 59 98 60 99 61 100
REMARK H PARENT 19 5 11 15 23 31 85 50 51 61
REMARK Flexibility Score: inf
ROOT
ATOM      1  C   UNL     1       0.568  -1.797   7.139  1.00  0.00     0.118 C 
ENDROOT
BRANCH   1   2
ATOM      2  N   UNL     1       0.668  -0.364   6.986  1.00  0.00    -0.351 N 
ATOM      3  C   UNL     1       1.072   0.430   5.944  1.00  0.00     0.261 C 
ATOM      4  O   UNL     1       1.083   1.637   6.213  1.00  0.00    -0.268 OA
ATOM      5  H   UNL     1       0.392   0.140   7.785  1.00  0.00     0.163 HD
BRANCH   3   6
ATOM      6  C   UNL     1       1.426  -0.101   4.629  1.00  0.00     0.092 A 
ATOM      7  C   UNL     1       1.956  -0.099   2.181  1.00  0.00     0.025 A 
ATOM      8  C   UNL     1       1.798  -1.371   2.681  1.00  0.00     0.018 A 
ATOM      9  S   UNL     1       1.812   1.069   3.421  1.00  0.00    -0.133 S 
ATOM     10  C   UNL     1       1.526  -1.371   4.088  1.00  0.00     0.026 A 
BRANCH   7  11
ATOM     11  C   UNL     1       2.160   0.381   0.786  1.00  0.00     0.163 C 
BRANCH  11  12
ATOM     12  N   UNL     1       3.147  -0.391   0.069  1.00  0.00    -0.347 N 
ATOM     13  C   UNL     1       3.162  -1.340  -0.909  1.00  0.00     0.257 C 
ATOM     14  O   UNL     1       4.259  -1.456  -1.471  1.00  0.00    -0.269 OA
ATOM     15  H   UNL     1       4.059  -0.170   0.367  1.00  0.00     0.164 HD
BRANCH  13  16
ATOM     16  C   UNL     1       2.083  -2.280  -1.335  1.00  0.00     0.102 A 
ATOM     17  C   UNL     1       0.698  -2.211  -1.157  1.00  0.00     0.226 A 
ATOM     18  N   UNL     1      -0.194  -3.165  -1.565  1.00  0.00    -0.218 NA
ATOM     19  C   UNL     1       0.324  -4.221  -2.207  1.00  0.00     0.048 A 
ATOM     20  C   UNL     1       2.552  -3.399  -2.064  1.00  0.00     0.025 A 
ATOM     21  C   UNL     1       1.665  -4.365  -2.499  1.00  0.00    -0.025 A 
ATOM     22  C   UNL     1      -0.470  -5.373  -2.755  1.00  0.00     0.057 C 
ATOM     23  C   UNL     1       1.923  -5.584  -3.318  1.00  0.00     0.038 C 
ATOM     24  C   UNL     1       0.643  -6.391  -3.058  1.00  0.00     0.011 C 
BRANCH  17  25
ATOM     25  O   UNL     1       0.087  -1.149  -0.560  1.00  0.00    -0.480 OA
ATOM     26  C   UNL     1      -0.379  -0.251  -1.567  1.00  0.00     0.280 C 
ENDBRANCH  17  25
ENDBRANCH  13  16
ENDBRANCH  11  12
ENDBRANCH   7  11
ENDBRANCH   3   6
ENDBRANCH   1   2
BRANCH   1  27
ATOM     27  C   UNL     1       1.898  -2.400   7.581  1.00  0.00     0.042 C 
BRANCH  27  28
ATOM     28  C   UNL     1       2.226  -2.073   9.038  1.00  0.00     0.118 C 
BRANCH  28  29
ATOM     29  N   UNL     1       1.255  -2.672   9.947  1.00  0.00    -0.352 N 
ATOM     30  C   UNL     1       1.404  -3.751  10.782  1.00  0.00     0.251 C 
ATOM     31  H   UNL     1       0.369  -2.242   9.965  1.00  0.00     0.163 HD
ATOM     32  O   UNL     1       0.418  -4.328  11.225  1.00  0.00    -0.269 OA
BRANCH  30  33
ATOM     33  C   UNL     1       2.762  -4.193  11.148  1.00  0.00     0.039 A 
ATOM     34  C   UNL     1       3.074  -5.553  11.126  1.00  0.00     0.014 A 
ATOM     35  C   UNL     1       3.713  -3.247  11.545  1.00  0.00     0.014 A 
ATOM     36  C   UNL     1       4.364  -5.964  11.465  1.00  0.00     0.010 A 
ATOM     37  C   UNL     1       5.012  -3.651  11.820  1.00  0.00     0.010 A 
ATOM     38  C   UNL     1       5.342  -5.013  11.800  1.00  0.00    -0.014 A 
BRANCH  38  39
ATOM     39  C   UNL     1       6.707  -5.426  12.195  1.00  0.00     0.031 A 
ATOM     40  C   UNL     1       7.148  -5.235  13.619  1.00  0.00     0.074 A 
ATOM     41  C   UNL     1       7.551  -5.921  11.270  1.00  0.00     0.049 A 
ATOM     42  N   UNL     1       8.312  -5.474  14.160  1.00  0.00    -0.248 NA
ATOM     43  C   UNL     1       6.153  -4.681  14.556  1.00  0.00     0.031 C 
ATOM     44  C   UNL     1       7.233  -6.116   9.853  1.00  0.00     0.029 A 
ATOM     45  N   UNL     1       8.851  -6.342  11.379  1.00  0.00    -0.354 N 
ATOM     46  C   UNL     1       8.190  -5.107  15.494  1.00  0.00     0.074 A 
ATOM     47  C   UNL     1       6.860  -4.570  15.671  1.00  0.00     0.031 C 
ATOM     48  C   UNL     1       8.305  -6.633   9.230  1.00  0.00     0.029 A 
ATOM     49  C   UNL     1       9.393  -6.778  10.193  1.00  0.00     0.049 A 
ATOM     50  H   UNL     1       9.350  -6.333  12.227  1.00  0.00     0.167 HD
ATOM     51  C   UNL     1       9.097  -5.239  16.489  1.00  0.00     0.037 A 
ATOM     52  C   UNL     1      10.629  -7.237   9.918  1.00  0.00     0.037 A 
ATOM     53  C   UNL     1      10.410  -5.796  16.304  1.00  0.00     0.049 A 
ATOM     54  C   UNL     1      11.631  -7.340  11.039  1.00  0.00     0.074 A 
ATOM     55  C   UNL     1      11.391  -6.012  17.255  1.00  0.00     0.029 A 
ATOM     56  N   UNL     1      10.923  -6.227  15.090  1.00  0.00    -0.354 N 
ATOM     57  N   UNL     1      11.480  -7.043  12.309  1.00  0.00    -0.248 NA
ATOM     58  C   UNL     1      12.967  -7.845  10.695  1.00  0.00     0.031 C 
ATOM     59  C   UNL     1      12.515  -6.533  16.607  1.00  0.00     0.029 A 
ATOM     60  C   UNL     1      12.216  -6.689  15.263  1.00  0.00     0.049 A 
ATOM     61  H   UNL     1      10.439  -6.207  14.233  1.00  0.00     0.167 HD
ATOM     62  C   UNL     1      12.692  -7.352  12.918  1.00  0.00     0.074 A 
ATOM     63  C   UNL     1      13.560  -7.870  11.881  1.00  0.00     0.031 C 
ATOM     64  C   UNL     1      13.056  -7.216  14.217  1.00  0.00     0.037 A 
BRANCH  51  65
ATOM     65  C   UNL     1       8.700  -4.803  17.870  1.00  0.00     0.058 A 
ATOM     66  C   UNL     1       7.780  -5.543  18.631  1.00  0.00     0.135 A 
ATOM     67  C   UNL     1       9.303  -3.688  18.472  1.00  0.00     0.135 A 
ATOM     68  F   UNL     1       7.157  -6.604  18.095  1.00  0.00    -0.206 F 
ATOM     69  C   UNL     1       7.474  -5.192  19.941  1.00  0.00     0.059 A 
ATOM     70  C   UNL     1       9.031  -3.334  19.791  1.00  0.00     0.059 A 
ATOM     71  F   UNL     1      10.182  -2.942  17.785  1.00  0.00    -0.206 F 
ATOM     72  C   UNL     1       8.113  -4.093  20.516  1.00  0.00     0.060 A 
BRANCH  72  73
ATOM     73  S   UNL     1       7.745  -3.693  22.237  1.00  0.00     0.124 S 
ATOM     74  O   UNL     1       6.360  -3.240  22.142  1.00  0.00    -0.237 OA
ATOM     75  O   UNL     1       7.947  -4.976  22.902  1.00  0.00    -0.237 OA
ATOM     76  O   UNL     1       8.721  -2.658  22.564  1.00  0.00    -0.744 OA
ENDBRANCH  72  73
ENDBRANCH  51  65
BRANCH  52  77
ATOM     77  C   UNL     1      10.986  -7.654   8.535  1.00  0.00     0.058 A 
ATOM     78  C   UNL     1      11.226  -9.002   8.228  1.00  0.00     0.135 A 
ATOM     79  C   UNL     1      11.102  -6.718   7.495  1.00  0.00     0.135 A 
ATOM     80  F   UNL     1      11.132  -9.934   9.188  1.00  0.00    -0.206 F 
ATOM     81  C   UNL     1      11.594  -9.405   6.949  1.00  0.00     0.059 A 
ATOM     82  C   UNL     1      11.442  -7.100   6.201  1.00  0.00     0.059 A 
ATOM     83  F   UNL     1      10.866  -5.418   7.730  1.00  0.00    -0.206 F 
ATOM     84  C   UNL     1      11.699  -8.445   5.941  1.00  0.00     0.060 A 
BRANCH  84  85
ATOM     85  S   UNL     1      12.156  -8.986   4.279  1.00  0.00     0.124 S 
ATOM     86  O   UNL     1      13.553  -9.359   4.465  1.00  0.00    -0.237 OA
ATOM     87  O   UNL     1      11.225 -10.087   4.051  1.00  0.00    -0.237 OA
ATOM     88  O   UNL     1      11.923  -7.798   3.463  1.00  0.00    -0.744 OA
ENDBRANCH  84  85
ENDBRANCH  52  77
BRANCH  64  89
ATOM     89  C   UNL     1      14.439  -7.657  14.605  1.00  0.00     0.058 A 
ATOM     90  C   UNL     1      15.572  -6.909  14.255  1.00  0.00     0.135 A 
ATOM     91  C   UNL     1      14.622  -8.790  15.414  1.00  0.00     0.135 A 
ATOM     92  F   UNL     1      15.451  -5.820  13.479  1.00  0.00    -0.206 F 
ATOM     93  C   UNL     1      16.843  -7.275  14.684  1.00  0.00     0.059 A 
ATOM     94  C   UNL     1      15.880  -9.159  15.879  1.00  0.00     0.059 A 
ATOM     95  F   UNL     1      13.568  -9.533  15.787  1.00  0.00    -0.206 F 
ATOM     96  C   UNL     1      16.986  -8.397  15.503  1.00  0.00     0.060 A 
BRANCH  96  97
ATOM     97  S   UNL     1      18.636  -8.825  16.096  1.00  0.00     0.124 S 
ATOM     98  O   UNL     1      19.276  -9.295  14.871  1.00  0.00    -0.237 OA
ATOM     99  O   UNL     1      19.119  -7.550  16.615  1.00  0.00    -0.237 OA
ATOM    100  O   UNL     1      18.381  -9.850  17.104  1.00  0.00    -0.744 OA
ENDBRANCH  96  97
ENDBRANCH  64  89
ENDBRANCH  38  39
ENDBRANCH  30  33
ENDBRANCH  28  29
ENDBRANCH  27  28
ENDBRANCH   1  27
TORSDOF 17
