REMARK SMILES C[NH2+][C@]1(C(=O)NCCCNC(=O)c2ccc(-c3c4nc(c(-c5c(F)cc(S(=O)(=O)[O-])cc5F)c5ccc([nH]5)c(-c5c(F)cc(S(=O)(=O)[O-])cc5F)c5nc(c(-c6c(F)cc(S(=O)(=O)[O-])cc6F)c6ccc3[nH]6)C=C5)C=C4)cc2)CC[C@@H]([N@@H+](C)C[C@@H]2CCCCO2)C1
REMARK SMILES IDX 8 1 7 2 6 3 4 4 5 5 3 7 79 8 91 9 80 10 81 11 2 12 1 13
REMARK SMILES IDX 82 16 83 17 84 19 85 20 86 21 90 22 87 23 89 24 88 25 9 26
REMARK SMILES IDX 10 27 11 28 12 30 13 31 14 32 78 33 15 34 77 35 16 36 17 37
REMARK SMILES IDX 18 38 71 39 19 40 76 41 70 42 72 43 20 44 75 45 69 46 68 47
REMARK SMILES IDX 21 49 55 50 34 51 54 52 35 53 38 54 53 55 73 56 36 57 37 58
REMARK SMILES IDX 52 60 74 61 39 62 22 63 23 64 32 65 24 66 25 67 31 68 33 69
REMARK SMILES IDX 26 70 27 71 28 72 29 73 30 74 56 75 57 76 66 77 58 78 59 79
REMARK SMILES IDX 65 80 67 81 60 82 61 83 62 84 63 85 64 86 40 87 41 88 50 89
REMARK SMILES IDX 42 90 43 91 49 92 51 93 44 94 45 95 46 96 47 97 48 98
REMARK H PARENT 6 6 2 14 2 15 82 18 10 29 72 48 38 59
REMARK Flexibility Score: inf
ROOT
ATOM      1  C   UNL     1       1.098   1.296  -3.079  1.00  0.00     0.042 C 
ENDROOT
BRANCH   1   2
ATOM      2  C   UNL     1       0.881  -0.207  -2.998  1.00  0.00     0.118 C 
BRANCH   2   3
ATOM      3  N   UNL     1       1.353  -0.740  -1.742  1.00  0.00    -0.351 N 
ATOM      4  C   UNL     1       0.713  -1.085  -0.590  1.00  0.00     0.281 C 
ATOM      5  O   UNL     1       1.488  -1.388   0.324  1.00  0.00    -0.268 OA
ATOM      6  H   UNL     1       2.327  -0.882  -1.712  1.00  0.00     0.163 HD
BRANCH   4   7
ATOM      7  C   UNL     1      -0.854  -1.211  -0.470  1.00  0.00     0.181 C 
ATOM      8  C   UNL     1      -1.645   0.029  -0.942  1.00  0.00     0.085 C 
ATOM      9  C   UNL     1      -1.372  -2.323  -1.413  1.00  0.00     0.144 C 
ATOM     10  C   UNL     1      -3.021  -0.495  -1.352  1.00  0.00     0.072 C 
ATOM     11  C   UNL     1      -2.808  -1.940  -1.827  1.00  0.00     0.191 C 
BRANCH   7  12
ATOM     12  N   UNL     1      -1.295  -1.388   0.951  1.00  0.00    -0.336 N 
ATOM     13  C   UNL     1      -0.766  -2.525   1.685  1.00  0.00     0.331 C 
ATOM     14  H   UNL     1      -1.029  -0.546   1.460  1.00  0.00     0.346 HD
ATOM     15  H   UNL     1      -2.298  -1.565   0.889  1.00  0.00     0.346 HD
ENDBRANCH   7  12
BRANCH  11  16
ATOM     16  N   UNL     1      -3.155  -2.311  -3.213  1.00  0.00    -0.333 N 
ATOM     17  C   UNL     1      -4.600  -2.371  -3.425  1.00  0.00     0.333 C 
ATOM     18  H   UNL     1      -2.767  -3.252  -3.273  1.00  0.00     0.348 HD
BRANCH  16  19
ATOM     19  C   UNL     1      -2.442  -1.640  -4.327  1.00  0.00     0.294 C 
BRANCH  19  20
ATOM     20  C   UNL     1      -2.960  -0.255  -4.818  1.00  0.00     0.173 C 
ATOM     21  C   UNL     1      -3.731  -0.337  -6.144  1.00  0.00     0.038 C 
ATOM     22  O   UNL     1      -1.950   0.765  -4.796  1.00  0.00    -0.372 OA
ATOM     23  C   UNL     1      -2.831  -0.221  -7.363  1.00  0.00     0.005 C 
ATOM     24  C   UNL     1      -1.146   0.911  -5.964  1.00  0.00     0.161 C 
ATOM     25  C   UNL     1      -1.978   1.025  -7.227  1.00  0.00     0.029 C 
ENDBRANCH  19  20
ENDBRANCH  16  19
ENDBRANCH  11  16
ENDBRANCH   4   7
ENDBRANCH   2   3
ENDBRANCH   1   2
BRANCH   1  26
ATOM     26  C   UNL     1       2.554   1.684  -3.276  1.00  0.00     0.118 C 
BRANCH  26  27
ATOM     27  N   UNL     1       3.092   1.192  -4.539  1.00  0.00    -0.352 N 
ATOM     28  C   UNL     1       3.626   1.878  -5.602  1.00  0.00     0.251 C 
ATOM     29  H   UNL     1       3.069   0.214  -4.647  1.00  0.00     0.163 HD
ATOM     30  O   UNL     1       3.815   1.289  -6.661  1.00  0.00    -0.269 OA
BRANCH  28  31
ATOM     31  C   UNL     1       3.954   3.315  -5.477  1.00  0.00     0.039 A 
ATOM     32  C   UNL     1       3.723   4.158  -6.568  1.00  0.00     0.014 A 
ATOM     33  C   UNL     1       4.510   3.830  -4.303  1.00  0.00     0.014 A 
ATOM     34  C   UNL     1       3.989   5.524  -6.456  1.00  0.00     0.010 A 
ATOM     35  C   UNL     1       4.685   5.202  -4.161  1.00  0.00     0.010 A 
ATOM     36  C   UNL     1       4.436   6.063  -5.239  1.00  0.00    -0.014 A 
BRANCH  36  37
ATOM     37  C   UNL     1       4.655   7.522  -5.073  1.00  0.00     0.031 A 
ATOM     38  C   UNL     1       6.029   8.048  -4.755  1.00  0.00     0.074 A 
ATOM     39  C   UNL     1       3.605   8.363  -5.142  1.00  0.00     0.049 A 
ATOM     40  N   UNL     1       6.407   9.276  -4.508  1.00  0.00    -0.248 NA
ATOM     41  C   UNL     1       7.118   7.060  -4.677  1.00  0.00     0.031 C 
ATOM     42  C   UNL     1       2.217   7.964  -5.394  1.00  0.00     0.029 A 
ATOM     43  N   UNL     1       3.535   9.725  -4.997  1.00  0.00    -0.354 N 
ATOM     44  C   UNL     1       7.767   9.206  -4.231  1.00  0.00     0.074 A 
ATOM     45  C   UNL     1       8.138   7.809  -4.284  1.00  0.00     0.031 C 
ATOM     46  C   UNL     1       1.441   9.058  -5.411  1.00  0.00     0.029 A 
ATOM     47  C   UNL     1       2.263  10.230  -5.128  1.00  0.00     0.049 A 
ATOM     48  H   UNL     1       4.322  10.288  -4.815  1.00  0.00     0.167 HD
ATOM     49  C   UNL     1       8.633  10.217  -3.979  1.00  0.00     0.037 A 
ATOM     50  C   UNL     1       1.808  11.494  -5.021  1.00  0.00     0.037 A 
ATOM     51  C   UNL     1       8.256  11.607  -3.949  1.00  0.00     0.049 A 
ATOM     52  C   UNL     1       2.787  12.599  -4.732  1.00  0.00     0.074 A 
ATOM     53  C   UNL     1       9.065  12.713  -3.763  1.00  0.00     0.029 A 
ATOM     54  N   UNL     1       6.960  12.080  -4.101  1.00  0.00    -0.354 N 
ATOM     55  N   UNL     1       4.083  12.524  -4.543  1.00  0.00    -0.248 NA
ATOM     56  C   UNL     1       2.244  13.962  -4.647  1.00  0.00     0.031 C 
ATOM     57  C   UNL     1       8.252  13.851  -3.749  1.00  0.00     0.029 A 
ATOM     58  C   UNL     1       6.944  13.461  -3.987  1.00  0.00     0.049 A 
ATOM     59  H   UNL     1       6.169  11.518  -4.266  1.00  0.00     0.167 HD
ATOM     60  C   UNL     1       4.515  13.831  -4.345  1.00  0.00     0.074 A 
ATOM     61  C   UNL     1       3.343  14.677  -4.450  1.00  0.00     0.031 C 
ATOM     62  C   UNL     1       5.768  14.289  -4.099  1.00  0.00     0.037 A 
BRANCH  49  63
ATOM     63  C   UNL     1      10.071   9.857  -3.716  1.00  0.00     0.058 A 
ATOM     64  C   UNL     1      10.902   9.342  -4.725  1.00  0.00     0.135 A 
ATOM     65  C   UNL     1      10.636  10.056  -2.446  1.00  0.00     0.135 A 
ATOM     66  F   UNL     1      10.413   9.117  -5.955  1.00  0.00    -0.206 F 
ATOM     67  C   UNL     1      12.228   9.005  -4.476  1.00  0.00     0.059 A 
ATOM     68  C   UNL     1      11.970   9.757  -2.182  1.00  0.00     0.059 A 
ATOM     69  F   UNL     1       9.890  10.546  -1.443  1.00  0.00    -0.206 F 
ATOM     70  C   UNL     1      12.753   9.216  -3.200  1.00  0.00     0.060 A 
BRANCH  70  71
ATOM     71  S   UNL     1      14.477   8.775  -2.895  1.00  0.00     0.124 S 
ATOM     72  O   UNL     1      14.410   7.316  -2.906  1.00  0.00    -0.237 OA
ATOM     73  O   UNL     1      15.161   9.385  -4.031  1.00  0.00    -0.237 OA
ATOM     74  O   UNL     1      14.760   9.379  -1.597  1.00  0.00    -0.744 OA
ENDBRANCH  70  71
ENDBRANCH  49  63
BRANCH  50  75
ATOM     75  C   UNL     1       0.360  11.780  -5.212  1.00  0.00     0.058 A 
ATOM     76  C   UNL     1      -0.094  12.477  -6.342  1.00  0.00     0.135 A 
ATOM     77  C   UNL     1      -0.599  11.347  -4.284  1.00  0.00     0.135 A 
ATOM     78  F   UNL     1       0.784  12.918  -7.255  1.00  0.00    -0.206 F 
ATOM     79  C   UNL     1      -1.444  12.749  -6.538  1.00  0.00     0.059 A 
ATOM     80  C   UNL     1      -1.958  11.581  -4.472  1.00  0.00     0.059 A 
ATOM     81  F   UNL     1      -0.220  10.660  -3.195  1.00  0.00    -0.206 F 
ATOM     82  C   UNL     1      -2.370  12.291  -5.598  1.00  0.00     0.060 A 
BRANCH  82  83
ATOM     83  S   UNL     1      -4.124  12.603  -5.891  1.00  0.00     0.124 S 
ATOM     84  O   UNL     1      -4.213  14.038  -5.647  1.00  0.00    -0.237 OA
ATOM     85  O   UNL     1      -4.282  12.179  -7.279  1.00  0.00    -0.237 OA
ATOM     86  O   UNL     1      -4.786  11.753  -4.905  1.00  0.00    -0.744 OA
ENDBRANCH  82  83
ENDBRANCH  50  75
BRANCH  62  87
ATOM     87  C   UNL     1       5.947  15.777  -3.962  1.00  0.00     0.058 A 
ATOM     88  C   UNL     1       5.482  16.479  -2.839  1.00  0.00     0.135 A 
ATOM     89  C   UNL     1       6.641  16.501  -4.946  1.00  0.00     0.135 A 
ATOM     90  F   UNL     1       4.807  15.837  -1.873  1.00  0.00    -0.206 F 
ATOM     91  C   UNL     1       5.678  17.850  -2.708  1.00  0.00     0.059 A 
ATOM     92  C   UNL     1       6.875  17.866  -4.820  1.00  0.00     0.059 A 
ATOM     93  F   UNL     1       7.116  15.877  -6.036  1.00  0.00    -0.206 F 
ATOM     94  C   UNL     1       6.379  18.534  -3.702  1.00  0.00     0.060 A 
BRANCH  94  95
ATOM     95  S   UNL     1       6.656  20.307  -3.502  1.00  0.00     0.124 S 
ATOM     96  O   UNL     1       5.322  20.843  -3.749  1.00  0.00    -0.237 OA
ATOM     97  O   UNL     1       7.130  20.394  -2.124  1.00  0.00    -0.237 OA
ATOM     98  O   UNL     1       7.654  20.613  -4.522  1.00  0.00    -0.744 OA
ENDBRANCH  94  95
ENDBRANCH  62  87
ENDBRANCH  36  37
ENDBRANCH  28  31
ENDBRANCH  26  27
ENDBRANCH   1  26
TORSDOF 17
