REMARK SMILES CCC(CC)NC(=O)NC[C@H]1CC[C@H](C(=O)NCCCNC(=O)c2ccc(-c3c4nc(c(-c5c(F)cc(S(=O)(=O)[O-])cc5F)c5ccc([nH]5)c(-c5c(F)cc(S(=O)(=O)[O-])cc5F)c5nc(c(-c6c(F)cc(S(=O)(=O)[O-])cc6F)c6ccc3[nH]6)C=C5)C=C4)cc2)O1
REMARK SMILES IDX 18 1 17 2 15 3 16 4 14 6 11 7 12 8 90 9 13 10 10 11 9 12
REMARK SMILES IDX 6 13 7 14 8 16 3 18 2 19 1 20 4 21 5 22 19 23 20 24 21 25
REMARK SMILES IDX 22 26 23 28 24 29 25 30 89 31 26 32 88 33 27 34 28 35 29 36
REMARK SMILES IDX 82 37 30 38 87 39 81 40 83 41 31 42 86 43 80 44 79 45 32 47
REMARK SMILES IDX 66 48 45 49 65 50 46 51 49 52 64 53 84 54 47 55 48 56 63 58
REMARK SMILES IDX 85 59 50 60 33 61 34 62 43 63 35 64 36 65 42 66 44 67 37 68
REMARK SMILES IDX 38 69 39 70 40 71 41 72 67 73 68 74 77 75 69 76 70 77 76 78
REMARK SMILES IDX 78 79 71 80 72 81 73 82 74 83 75 84 51 85 52 86 61 87 53 88
REMARK SMILES IDX 54 89 60 90 62 91 55 92 56 93 57 94 58 95 59 96
REMARK H PARENT 17 5 6 15 9 17 21 27 83 46 49 57
REMARK Flexibility Score: inf
ROOT
ATOM      1  C   UNL     1       1.104   4.112   0.212  1.00  0.00     0.117 C 
ENDROOT
BRANCH   1   2
ATOM      2  N   UNL     1       1.318   4.412  -1.189  1.00  0.00    -0.354 N 
ATOM      3  C   UNL     1       2.475   4.510  -1.901  1.00  0.00     0.249 C 
ATOM      4  O   UNL     1       2.374   4.730  -3.114  1.00  0.00    -0.272 OA
ATOM      5  H   UNL     1       0.497   4.571  -1.708  1.00  0.00     0.163 HD
BRANCH   3   6
ATOM      6  C   UNL     1       3.873   4.439  -1.239  1.00  0.00     0.207 C 
ATOM      7  C   UNL     1       4.569   4.118   0.984  1.00  0.00     0.138 C 
ATOM      8  C   UNL     1       4.478   5.618   0.765  1.00  0.00     0.037 C 
ATOM      9  O   UNL     1       4.092   3.480  -0.211  1.00  0.00    -0.363 OA
ATOM     10  C   UNL     1       4.328   5.793  -0.724  1.00  0.00     0.045 C 
BRANCH   7  11
ATOM     11  C   UNL     1       5.988   3.656   1.357  1.00  0.00     0.149 C 
BRANCH  11  12
ATOM     12  N   UNL     1       6.012   2.280   1.836  1.00  0.00    -0.336 N 
ATOM     13  N   UNL     1       6.938   0.939   0.123  1.00  0.00    -0.335 N 
ATOM     14  C   UNL     1       6.479   1.122   1.364  1.00  0.00     0.315 C 
ATOM     15  H   UNL     1       7.383   0.069   0.002  1.00  0.00     0.165 HD
ATOM     16  O   UNL     1       6.502   0.156   2.130  1.00  0.00    -0.249 OA
ATOM     17  H   UNL     1       5.582   2.181   2.716  1.00  0.00     0.165 HD
BRANCH  13  18
ATOM     18  C   UNL     1       6.925   1.746  -1.091  1.00  0.00     0.083 C 
BRANCH  18  19
ATOM     19  C   UNL     1       8.340   2.274  -1.371  1.00  0.00     0.021 C 
ATOM     20  C   UNL     1       8.372   3.347  -2.448  1.00  0.00     0.006 C 
ENDBRANCH  18  19
BRANCH  18  21
ATOM     21  C   UNL     1       6.279   0.961  -2.249  1.00  0.00     0.021 C 
ATOM     22  C   UNL     1       7.068  -0.241  -2.749  1.00  0.00     0.006 C 
ENDBRANCH  18  21
ENDBRANCH  13  18
ENDBRANCH  11  12
ENDBRANCH   7  11
ENDBRANCH   3   6
ENDBRANCH   1   2
BRANCH   1  23
ATOM     23  C   UNL     1       0.850   5.368   1.039  1.00  0.00     0.042 C 
BRANCH  23  24
ATOM     24  C   UNL     1      -0.602   5.837   1.020  1.00  0.00     0.118 C 
BRANCH  24  25
ATOM     25  N   UNL     1      -1.493   4.894   1.679  1.00  0.00    -0.352 N 
ATOM     26  C   UNL     1      -2.357   5.056   2.732  1.00  0.00     0.251 C 
ATOM     27  H   UNL     1      -1.473   3.984   1.304  1.00  0.00     0.163 HD
ATOM     28  O   UNL     1      -2.855   4.054   3.241  1.00  0.00    -0.269 OA
BRANCH  26  29
ATOM     29  C   UNL     1      -2.688   6.396   3.269  1.00  0.00     0.039 A 
ATOM     30  C   UNL     1      -2.912   6.522   4.645  1.00  0.00     0.014 A 
ATOM     31  C   UNL     1      -2.850   7.510   2.440  1.00  0.00     0.014 A 
ATOM     32  C   UNL     1      -3.251   7.763   5.189  1.00  0.00     0.010 A 
ATOM     33  C   UNL     1      -3.113   8.763   2.993  1.00  0.00     0.010 A 
ATOM     34  C   UNL     1      -3.328   8.902   4.371  1.00  0.00    -0.014 A 
BRANCH  34  35
ATOM     35  C   UNL     1      -3.634  10.234   4.953  1.00  0.00     0.031 A 
ATOM     36  C   UNL     1      -4.901  10.960   4.585  1.00  0.00     0.074 A 
ATOM     37  C   UNL     1      -2.745  10.808   5.788  1.00  0.00     0.049 A 
ATOM     38  N   UNL     1      -5.328  12.130   4.986  1.00  0.00    -0.248 NA
ATOM     39  C   UNL     1      -5.793  10.297   3.620  1.00  0.00     0.031 C 
ATOM     40  C   UNL     1      -1.454  10.232   6.173  1.00  0.00     0.029 A 
ATOM     41  N   UNL     1      -2.790  12.000   6.465  1.00  0.00    -0.354 N 
ATOM     42  C   UNL     1      -6.527  12.349   4.316  1.00  0.00     0.074 A 
ATOM     43  C   UNL     1      -6.734  11.214   3.444  1.00  0.00     0.031 C 
ATOM     44  C   UNL     1      -0.844  11.056   7.039  1.00  0.00     0.029 A 
ATOM     45  C   UNL     1      -1.686  12.229   7.252  1.00  0.00     0.049 A 
ATOM     46  H   UNL     1      -3.542  12.632   6.394  1.00  0.00     0.167 HD
ATOM     47  C   UNL     1      -7.388  13.389   4.435  1.00  0.00     0.037 A 
ATOM     48  C   UNL     1      -1.387  13.265   8.059  1.00  0.00     0.037 A 
ATOM     49  C   UNL     1      -7.189  14.503   5.327  1.00  0.00     0.049 A 
ATOM     50  C   UNL     1      -2.377  14.387   8.205  1.00  0.00     0.074 A 
ATOM     51  C   UNL     1      -8.028  15.579   5.564  1.00  0.00     0.029 A 
ATOM     52  N   UNL     1      -6.074  14.683   6.133  1.00  0.00    -0.354 N 
ATOM     53  N   UNL     1      -3.535  14.547   7.609  1.00  0.00    -0.248 NA
ATOM     54  C   UNL     1      -2.027  15.460   9.144  1.00  0.00     0.031 C 
ATOM     55  C   UNL     1      -7.405  16.425   6.489  1.00  0.00     0.029 A 
ATOM     56  C   UNL     1      -6.198  15.857   6.859  1.00  0.00     0.049 A 
ATOM     57  H   UNL     1      -5.308  14.067   6.182  1.00  0.00     0.167 HD
ATOM     58  C   UNL     1      -4.062  15.729   8.117  1.00  0.00     0.074 A 
ATOM     59  C   UNL     1      -3.104  16.231   9.082  1.00  0.00     0.031 C 
ATOM     60  C   UNL     1      -5.232  16.344   7.812  1.00  0.00     0.037 A 
BRANCH  47  61
ATOM     61  C   UNL     1      -8.629  13.366   3.584  1.00  0.00     0.058 A 
ATOM     62  C   UNL     1      -9.673  12.459   3.831  1.00  0.00     0.135 A 
ATOM     63  C   UNL     1      -8.792  14.277   2.528  1.00  0.00     0.135 A 
ATOM     64  F   UNL     1      -9.565  11.556   4.819  1.00  0.00    -0.206 F 
ATOM     65  C   UNL     1     -10.819  12.436   3.043  1.00  0.00     0.059 A 
ATOM     66  C   UNL     1      -9.942  14.289   1.743  1.00  0.00     0.059 A 
ATOM     67  F   UNL     1      -7.826  15.166   2.247  1.00  0.00    -0.206 F 
ATOM     68  C   UNL     1     -10.944  13.353   1.999  1.00  0.00     0.060 A 
BRANCH  68  69
ATOM     69  S   UNL     1     -12.437  13.311   0.985  1.00  0.00     0.124 S 
ATOM     70  O   UNL     1     -12.200  12.123   0.170  1.00  0.00    -0.237 OA
ATOM     71  O   UNL     1     -13.492  13.192   1.985  1.00  0.00    -0.237 OA
ATOM     72  O   UNL     1     -12.397  14.582   0.268  1.00  0.00    -0.744 OA
ENDBRANCH  68  69
ENDBRANCH  47  61
BRANCH  48  73
ATOM     73  C   UNL     1      -0.111  13.265   8.821  1.00  0.00     0.058 A 
ATOM     74  C   UNL     1      -0.100  13.054  10.208  1.00  0.00     0.135 A 
ATOM     75  C   UNL     1       1.122  13.450   8.177  1.00  0.00     0.135 A 
ATOM     76  F   UNL     1      -1.255  12.876  10.868  1.00  0.00    -0.206 F 
ATOM     77  C   UNL     1       1.086  13.042  10.934  1.00  0.00     0.059 A 
ATOM     78  C   UNL     1       2.323  13.418   8.878  1.00  0.00     0.059 A 
ATOM     79  F   UNL     1       1.166  13.634   6.849  1.00  0.00    -0.206 F 
ATOM     80  C   UNL     1       2.294  13.223  10.258  1.00  0.00     0.060 A 
BRANCH  80  81
ATOM     81  S   UNL     1       3.835  13.146  11.198  1.00  0.00     0.124 S 
ATOM     82  O   UNL     1       3.834  14.441  11.868  1.00  0.00    -0.237 OA
ATOM     83  O   UNL     1       3.617  11.983  12.052  1.00  0.00    -0.237 OA
ATOM     84  O   UNL     1       4.848  12.971  10.162  1.00  0.00    -0.744 OA
ENDBRANCH  80  81
ENDBRANCH  48  73
BRANCH  60  85
ATOM     85  C   UNL     1      -5.545  17.615   8.551  1.00  0.00     0.058 A 
ATOM     86  C   UNL     1      -4.861  18.811   8.281  1.00  0.00     0.135 A 
ATOM     87  C   UNL     1      -6.545  17.637   9.536  1.00  0.00     0.135 A 
ATOM     88  F   UNL     1      -3.893  18.841   7.352  1.00  0.00    -0.206 F 
ATOM     89  C   UNL     1      -5.130  19.976   8.992  1.00  0.00     0.059 A 
ATOM     90  C   UNL     1      -6.848  18.797  10.240  1.00  0.00     0.059 A 
ATOM     91  F   UNL     1      -7.237  16.523   9.823  1.00  0.00    -0.206 F 
ATOM     92  C   UNL     1      -6.120  19.957   9.976  1.00  0.00     0.060 A 
BRANCH  92  93
ATOM     93  S   UNL     1      -6.457  21.471  10.898  1.00  0.00     0.124 S 
ATOM     94  O   UNL     1      -5.340  21.496  11.836  1.00  0.00    -0.237 OA
ATOM     95  O   UNL     1      -6.431  22.490   9.854  1.00  0.00    -0.237 OA
ATOM     96  O   UNL     1      -7.769  21.222  11.489  1.00  0.00    -0.744 OA
ENDBRANCH  92  93
ENDBRANCH  60  85
ENDBRANCH  34  35
ENDBRANCH  26  29
ENDBRANCH  24  25
ENDBRANCH  23  24
ENDBRANCH   1  23
TORSDOF 18
