REMARK SMILES CC(C)Cc1ccc([C@H](C)C(=O)NCCCNC(=O)c2ccc(-c3c4nc(c(-c5c(F)cc(S(=O)(=O)[O-])cc5F)c5ccc([nH]5)c(-c5c(F)cc(S(=O)(=O)[O-])cc5F)c5nc(c(-c6c(F)cc(S(=O)(=O)[O-])cc6F)c6ccc3[nH]6)C=C5)C=C4)cc2)cc1
REMARK SMILES IDX 15 1 14 2 13 3 11 4 12 5 9 7 10 8 8 9 5 10 6 11 87 12 7 13
REMARK SMILES IDX 86 14 4 15 2 16 1 17 3 18 16 19 17 20 18 21 19 23 20 24
REMARK SMILES IDX 21 25 85 26 22 27 84 28 23 29 24 30 25 31 78 32 26 33 83 34
REMARK SMILES IDX 77 35 79 36 27 37 82 38 76 39 75 40 28 42 62 43 41 44 61 45
REMARK SMILES IDX 42 46 45 47 60 48 80 49 43 50 44 51 59 53 81 54 46 55 29 56
REMARK SMILES IDX 30 57 39 58 31 59 32 60 38 61 40 62 33 63 34 64 35 65 36 66
REMARK SMILES IDX 37 67 63 68 64 69 73 70 65 71 66 72 72 73 74 74 67 75 68 76
REMARK SMILES IDX 69 77 70 78 71 79 47 80 48 81 57 82 49 83 50 84 56 85 58 86
REMARK SMILES IDX 51 87 52 88 53 89 54 90 55 91
REMARK H PARENT 13 6 17 22 79 41 45 52
REMARK Flexibility Score: inf
ROOT
ATOM      1  C   UNL     1      -3.521   1.743   4.874  1.00  0.00     0.042 C 
ENDROOT
BRANCH   1   2
ATOM      2  C   UNL     1      -3.014   0.493   5.571  1.00  0.00     0.117 C 
BRANCH   2   3
ATOM      3  N   UNL     1      -3.881  -0.655   5.355  1.00  0.00    -0.356 N 
ATOM      4  C   UNL     1      -3.549  -1.937   5.022  1.00  0.00     0.227 C 
ATOM      5  O   UNL     1      -4.447  -2.783   5.027  1.00  0.00    -0.274 OA
ATOM      6  H   UNL     1      -4.845  -0.484   5.465  1.00  0.00     0.163 HD
BRANCH   4   7
ATOM      7  C   UNL     1      -2.115  -2.306   4.641  1.00  0.00     0.105 C 
ATOM      8  C   UNL     1      -1.742  -1.605   3.323  1.00  0.00     0.023 C 
BRANCH   7   9
ATOM      9  C   UNL     1      -1.086  -2.158   5.761  1.00  0.00    -0.036 A 
ATOM     10  C   UNL     1       0.850  -1.851   7.802  1.00  0.00    -0.048 A 
ATOM     11  C   UNL     1      -0.511  -1.744   8.094  1.00  0.00     0.004 A 
ATOM     12  C   UNL     1       1.241  -2.126   6.489  1.00  0.00     0.004 A 
ATOM     13  C   UNL     1      -1.464  -1.928   7.094  1.00  0.00     0.005 A 
ATOM     14  C   UNL     1       0.284  -2.283   5.482  1.00  0.00     0.005 A 
BRANCH  10  15
ATOM     15  C   UNL     1       1.867  -1.752   8.911  1.00  0.00     0.038 C 
BRANCH  15  16
ATOM     16  C   UNL     1       1.830  -2.979   9.845  1.00  0.00    -0.013 C 
ATOM     17  C   UNL     1       2.215  -4.267   9.111  1.00  0.00     0.008 C 
ATOM     18  C   UNL     1       2.756  -2.760  11.040  1.00  0.00     0.008 C 
ENDBRANCH  15  16
ENDBRANCH  10  15
ENDBRANCH   7   9
ENDBRANCH   4   7
ENDBRANCH   2   3
ENDBRANCH   1   2
BRANCH   1  19
ATOM     19  C   UNL     1      -4.884   2.213   5.364  1.00  0.00     0.118 C 
BRANCH  19  20
ATOM     20  N   UNL     1      -4.876   2.644   6.758  1.00  0.00    -0.352 N 
ATOM     21  C   UNL     1      -5.079   3.895   7.292  1.00  0.00     0.251 C 
ATOM     22  H   UNL     1      -4.698   1.933   7.415  1.00  0.00     0.163 HD
ATOM     23  O   UNL     1      -4.880   4.093   8.488  1.00  0.00    -0.269 OA
BRANCH  21  24
ATOM     24  C   UNL     1      -5.501   5.006   6.414  1.00  0.00     0.039 A 
ATOM     25  C   UNL     1      -4.817   6.222   6.477  1.00  0.00     0.014 A 
ATOM     26  C   UNL     1      -6.536   4.827   5.493  1.00  0.00     0.014 A 
ATOM     27  C   UNL     1      -5.096   7.219   5.540  1.00  0.00     0.010 A 
ATOM     28  C   UNL     1      -6.750   5.783   4.508  1.00  0.00     0.010 A 
ATOM     29  C   UNL     1      -6.020   6.981   4.510  1.00  0.00    -0.014 A 
BRANCH  29  30
ATOM     30  C   UNL     1      -6.218   7.944   3.396  1.00  0.00     0.031 A 
ATOM     31  C   UNL     1      -7.569   8.562   3.168  1.00  0.00     0.074 A 
ATOM     32  C   UNL     1      -5.212   8.171   2.527  1.00  0.00     0.049 A 
ATOM     33  N   UNL     1      -7.981   9.298   2.169  1.00  0.00    -0.248 NA
ATOM     34  C   UNL     1      -8.602   8.290   4.181  1.00  0.00     0.031 C 
ATOM     35  C   UNL     1      -3.870   7.590   2.612  1.00  0.00     0.029 A 
ATOM     36  N   UNL     1      -5.168   8.933   1.385  1.00  0.00    -0.354 N 
ATOM     37  C   UNL     1      -9.323   9.557   2.419  1.00  0.00     0.074 A 
ATOM     38  C   UNL     1      -9.668   8.864   3.642  1.00  0.00     0.031 C 
ATOM     39  C   UNL     1      -3.133   8.026   1.578  1.00  0.00     0.029 A 
ATOM     40  C   UNL     1      -3.960   8.877   0.730  1.00  0.00     0.049 A 
ATOM     41  H   UNL     1      -5.930   9.468   1.066  1.00  0.00     0.167 HD
ATOM     42  C   UNL     1     -10.184  10.320   1.705  1.00  0.00     0.037 A 
ATOM     43  C   UNL     1      -3.568   9.431  -0.434  1.00  0.00     0.037 A 
ATOM     44  C   UNL     1      -9.825  11.035   0.509  1.00  0.00     0.049 A 
ATOM     45  C   UNL     1      -4.545  10.265  -1.215  1.00  0.00     0.074 A 
ATOM     46  C   UNL     1     -10.602  11.900  -0.241  1.00  0.00     0.029 A 
ATOM     47  N   UNL     1      -8.588  10.967  -0.113  1.00  0.00    -0.354 N 
ATOM     48  N   UNL     1      -5.793  10.553  -0.929  1.00  0.00    -0.248 NA
ATOM     49  C   UNL     1      -4.067  10.844  -2.479  1.00  0.00     0.031 C 
ATOM     50  C   UNL     1      -9.847  12.325  -1.339  1.00  0.00     0.029 A 
ATOM     51  C   UNL     1      -8.587  11.753  -1.253  1.00  0.00     0.049 A 
ATOM     52  H   UNL     1      -7.822  10.438   0.209  1.00  0.00     0.167 HD
ATOM     53  C   UNL     1      -6.245  11.356  -1.970  1.00  0.00     0.074 A 
ATOM     54  C   UNL     1      -5.134  11.521  -2.885  1.00  0.00     0.031 C 
ATOM     55  C   UNL     1      -7.471  11.904  -2.153  1.00  0.00     0.037 A 
BRANCH  42  56
ATOM     56  C   UNL     1     -11.598  10.426   2.204  1.00  0.00     0.058 A 
ATOM     57  C   UNL     1     -11.915  11.158   3.359  1.00  0.00     0.135 A 
ATOM     58  C   UNL     1     -12.650   9.813   1.506  1.00  0.00     0.135 A 
ATOM     59  F   UNL     1     -10.945  11.750   4.073  1.00  0.00    -0.206 F 
ATOM     60  C   UNL     1     -13.223  11.255   3.821  1.00  0.00     0.059 A 
ATOM     61  C   UNL     1     -13.970   9.918   1.935  1.00  0.00     0.059 A 
ATOM     62  F   UNL     1     -12.401   9.100   0.396  1.00  0.00    -0.206 F 
ATOM     63  C   UNL     1     -14.244  10.629   3.103  1.00  0.00     0.060 A 
BRANCH  63  64
ATOM     64  S   UNL     1     -15.937  10.765   3.716  1.00  0.00     0.124 S 
ATOM     65  O   UNL     1     -15.909   9.846   4.851  1.00  0.00    -0.237 OA
ATOM     66  O   UNL     1     -16.037  12.182   4.051  1.00  0.00    -0.237 OA
ATOM     67  O   UNL     1     -16.745  10.334   2.580  1.00  0.00    -0.744 OA
ENDBRANCH  63  64
ENDBRANCH  42  56
BRANCH  43  68
ATOM     68  C   UNL     1      -2.184   9.213  -0.930  1.00  0.00     0.058 A 
ATOM     69  C   UNL     1      -1.240  10.250  -0.904  1.00  0.00     0.135 A 
ATOM     70  C   UNL     1      -1.771   7.964  -1.418  1.00  0.00     0.135 A 
ATOM     71  F   UNL     1      -1.591  11.464  -0.453  1.00  0.00    -0.206 F 
ATOM     72  C   UNL     1       0.063  10.060  -1.351  1.00  0.00     0.059 A 
ATOM     73  C   UNL     1      -0.467   7.744  -1.851  1.00  0.00     0.059 A 
ATOM     74  F   UNL     1      -2.632   6.935  -1.450  1.00  0.00    -0.206 F 
ATOM     75  C   UNL     1       0.441   8.801  -1.821  1.00  0.00     0.060 A 
BRANCH  75  76
ATOM     76  S   UNL     1       2.152   8.549  -2.344  1.00  0.00     0.124 S 
ATOM     77  O   UNL     1       2.166   9.223  -3.637  1.00  0.00    -0.237 OA
ATOM     78  O   UNL     1       2.901   9.201  -1.274  1.00  0.00    -0.237 OA
ATOM     79  O   UNL     1       2.276   7.094  -2.388  1.00  0.00    -0.744 OA
ENDBRANCH  75  76
ENDBRANCH  43  68
BRANCH  55  80
ATOM     80  C   UNL     1      -7.680  12.740  -3.383  1.00  0.00     0.058 A 
ATOM     81  C   UNL     1      -7.843  12.151  -4.645  1.00  0.00     0.135 A 
ATOM     82  C   UNL     1      -7.792  14.136  -3.286  1.00  0.00     0.135 A 
ATOM     83  F   UNL     1      -7.734  10.821  -4.790  1.00  0.00    -0.206 F 
ATOM     84  C   UNL     1      -8.106  12.919  -5.774  1.00  0.00     0.059 A 
ATOM     85  C   UNL     1      -8.076  14.922  -4.398  1.00  0.00     0.059 A 
ATOM     86  F   UNL     1      -7.649  14.745  -2.099  1.00  0.00    -0.206 F 
ATOM     87  C   UNL     1      -8.227  14.304  -5.639  1.00  0.00     0.060 A 
BRANCH  87  88
ATOM     88  S   UNL     1      -8.630  15.284  -7.102  1.00  0.00     0.124 S 
ATOM     89  O   UNL     1      -7.357  15.282  -7.816  1.00  0.00    -0.237 OA
ATOM     90  O   UNL     1      -9.702  14.505  -7.715  1.00  0.00    -0.237 OA
ATOM     91  O   UNL     1      -9.037  16.571  -6.546  1.00  0.00    -0.744 OA
ENDBRANCH  87  88
ENDBRANCH  55  80
ENDBRANCH  29  30
ENDBRANCH  21  24
ENDBRANCH  19  20
ENDBRANCH   1  19
TORSDOF 16
