REMARK SMILES CCCCCCNC(=O)Oc1cccc(-c2ccc([C@@H](C)C(=O)NCCCNC(=O)c3ccc(-c4c5nc(c(-c6c(F)cc(S(=O)(=O)[O-])cc6F)c6ccc([nH]6)c(-c6c(F)cc(S(=O)(=O)[O-])cc6F)c6nc(c(-c7c(F)cc(S(=O)(=O)[O-])cc7F)c7ccc4[nH]7)C=C6)C=C5)cc3)cc2C(F)(F)F)c1
REMARK SMILES IDX 20 1 21 2 19 3 16 4 17 5 98 6 18 7 97 8 15 9 11 10 12 11
REMARK SMILES IDX 103 12 13 13 14 14 10 15 8 16 7 17 9 19 6 20 5 21 4 22 3 23
REMARK SMILES IDX 2 24 1 25 99 26 100 27 101 28 102 29 22 30 23 31 24 32 25 34
REMARK SMILES IDX 26 35 27 36 28 37 29 38 30 40 31 41 32 42 96 43 33 44 95 45
REMARK SMILES IDX 34 46 35 47 36 48 89 49 37 50 94 51 88 52 90 53 38 54 93 55
REMARK SMILES IDX 87 56 86 57 39 59 73 60 52 61 72 62 53 63 56 64 71 65 91 66
REMARK SMILES IDX 54 67 55 68 70 70 92 71 57 72 40 73 41 74 50 75 42 76 43 77
REMARK SMILES IDX 49 78 51 79 44 80 45 81 46 82 47 83 48 84 74 85 75 86 84 87
REMARK SMILES IDX 76 88 77 89 83 90 85 91 78 92 79 93 80 94 81 95 82 96 58 97
REMARK SMILES IDX 59 98 68 99 60 100 61 101 67 102 69 103 62 104 63 105 64 106
REMARK SMILES IDX 65 107 66 108
REMARK H PARENT 7 18 24 33 28 39 90 58 56 69
REMARK Flexibility Score: inf
ROOT
ATOM      1  C   UNL     1      -5.158   9.917   9.166  1.00  0.00     0.105 C 
ATOM      2  C   UNL     1      -6.456  10.571   9.635  1.00  0.00     0.023 C 
ENDROOT
BRANCH   1   3
ATOM      3  C   UNL     1      -5.300   8.486   8.672  1.00  0.00    -0.035 A 
ATOM      4  C   UNL     1      -5.380   5.774   7.737  1.00  0.00    -0.006 A 
ATOM      5  C   UNL     1      -5.890   6.157   8.993  1.00  0.00     0.009 A 
ATOM      6  C   UNL     1      -4.901   6.803   6.900  1.00  0.00     0.064 A 
ATOM      7  C   UNL     1      -5.906   7.486   9.422  1.00  0.00     0.005 A 
ATOM      8  C   UNL     1      -4.814   8.128   7.407  1.00  0.00     0.018 A 
BRANCH   4   9
ATOM      9  C   UNL     1      -5.394   4.333   7.395  1.00  0.00    -0.014 A 
ATOM     10  C   UNL     1      -4.333   2.329   6.524  1.00  0.00     0.133 A 
ATOM     11  C   UNL     1      -5.475   1.573   6.772  1.00  0.00     0.047 A 
ATOM     12  C   UNL     1      -4.271   3.685   6.854  1.00  0.00     0.056 A 
ATOM     13  C   UNL     1      -6.579   2.184   7.351  1.00  0.00     0.004 A 
ATOM     14  C   UNL     1      -6.543   3.551   7.640  1.00  0.00     0.009 A 
BRANCH  10  15
ATOM     15  O   UNL     1      -3.330   1.693   5.767  1.00  0.00    -0.410 OA
BRANCH  15  16
ATOM     16  C   UNL     1      -1.984   1.906   6.014  1.00  0.00     0.412 C 
ATOM     17  N   UNL     1      -1.181   1.381   5.038  1.00  0.00    -0.321 N 
ATOM     18  H   UNL     1      -0.210   1.425   5.192  1.00  0.00     0.167 HD
ATOM     19  O   UNL     1      -1.512   2.498   6.976  1.00  0.00    -0.224 OA
BRANCH  17  20
ATOM     20  C   UNL     1      -1.619   0.765   3.800  1.00  0.00     0.119 C 
BRANCH  20  21
ATOM     21  C   UNL     1      -1.056   1.492   2.578  1.00  0.00     0.021 C 
BRANCH  21  22
ATOM     22  C   UNL     1       0.472   1.443   2.450  1.00  0.00     0.002 C 
BRANCH  22  23
ATOM     23  C   UNL     1       1.078   0.038   2.366  1.00  0.00    -0.000 C 
BRANCH  23  24
ATOM     24  C   UNL     1       0.592  -0.816   1.192  1.00  0.00    -0.003 C 
ATOM     25  C   UNL     1       0.959  -0.235  -0.164  1.00  0.00     0.004 C 
ENDBRANCH  23  24
ENDBRANCH  22  23
ENDBRANCH  21  22
ENDBRANCH  20  21
ENDBRANCH  17  20
ENDBRANCH  15  16
ENDBRANCH  10  15
ENDBRANCH   4   9
BRANCH   6  26
ATOM     26  C   UNL     1      -4.503   6.627   5.449  1.00  0.00     0.417 C 
ATOM     27  F   UNL     1      -5.096   7.572   4.654  1.00  0.00    -0.166 F 
ATOM     28  F   UNL     1      -3.164   6.789   5.253  1.00  0.00    -0.166 F 
ATOM     29  F   UNL     1      -4.829   5.444   4.867  1.00  0.00    -0.166 F 
ENDBRANCH   6  26
ENDBRANCH   1   3
BRANCH   1  30
ATOM     30  C   UNL     1      -3.953  10.150  10.091  1.00  0.00     0.227 C 
ATOM     31  O   UNL     1      -2.945  10.717   9.651  1.00  0.00    -0.274 OA
ATOM     32  N   UNL     1      -3.911   9.795  11.404  1.00  0.00    -0.356 N 
ATOM     33  H   UNL     1      -3.088  10.075  11.866  1.00  0.00     0.163 HD
BRANCH  32  34
ATOM     34  C   UNL     1      -4.847   9.082  12.251  1.00  0.00     0.117 C 
BRANCH  34  35
ATOM     35  C   UNL     1      -4.491   7.604  12.390  1.00  0.00     0.042 C 
BRANCH  35  36
ATOM     36  C   UNL     1      -3.434   7.317  13.446  1.00  0.00     0.118 C 
BRANCH  36  37
ATOM     37  N   UNL     1      -3.935   7.539  14.796  1.00  0.00    -0.352 N 
ATOM     38  C   UNL     1      -4.113   6.662  15.837  1.00  0.00     0.251 C 
ATOM     39  H   UNL     1      -4.188   8.470  14.993  1.00  0.00     0.163 HD
ATOM     40  O   UNL     1      -4.765   7.027  16.813  1.00  0.00    -0.269 OA
BRANCH  38  41
ATOM     41  C   UNL     1      -3.546   5.293  15.797  1.00  0.00     0.039 A 
ATOM     42  C   UNL     1      -4.270   4.247  16.379  1.00  0.00     0.014 A 
ATOM     43  C   UNL     1      -2.289   5.037  15.244  1.00  0.00     0.014 A 
ATOM     44  C   UNL     1      -3.759   2.946  16.357  1.00  0.00     0.010 A 
ATOM     45  C   UNL     1      -1.822   3.729  15.143  1.00  0.00     0.010 A 
ATOM     46  C   UNL     1      -2.543   2.670  15.711  1.00  0.00    -0.014 A 
BRANCH  46  47
ATOM     47  C   UNL     1      -2.002   1.288  15.635  1.00  0.00     0.031 A 
ATOM     48  C   UNL     1      -0.683   0.955  16.282  1.00  0.00     0.074 A 
ATOM     49  C   UNL     1      -2.663   0.351  14.927  1.00  0.00     0.049 A 
ATOM     50  N   UNL     1      -0.011  -0.167  16.260  1.00  0.00    -0.248 NA
ATOM     51  C   UNL     1      -0.018   2.035  17.029  1.00  0.00     0.031 C 
ATOM     52  C   UNL     1      -3.922   0.566  14.210  1.00  0.00     0.029 A 
ATOM     53  N   UNL     1      -2.363  -0.965  14.680  1.00  0.00    -0.354 N 
ATOM     54  C   UNL     1       1.161   0.077  16.967  1.00  0.00     0.074 A 
ATOM     55  C   UNL     1       1.132   1.468  17.363  1.00  0.00     0.031 C 
ATOM     56  C   UNL     1      -4.295  -0.581  13.621  1.00  0.00     0.029 A 
ATOM     57  C   UNL     1      -3.285  -1.602  13.883  1.00  0.00     0.049 A 
ATOM     58  H   UNL     1      -1.562  -1.411  15.039  1.00  0.00     0.167 HD
ATOM     59  C   UNL     1       2.160  -0.784  17.277  1.00  0.00     0.037 A 
ATOM     60  C   UNL     1      -3.310  -2.862  13.408  1.00  0.00     0.037 A 
ATOM     61  C   UNL     1       2.166  -2.175  16.904  1.00  0.00     0.049 A 
ATOM     62  C   UNL     1      -2.198  -3.805  13.776  1.00  0.00     0.074 A 
ATOM     63  C   UNL     1       3.097  -3.147  17.224  1.00  0.00     0.029 A 
ATOM     64  N   UNL     1       1.197  -2.790  16.124  1.00  0.00    -0.354 N 
ATOM     65  N   UNL     1      -1.130  -3.576  14.503  1.00  0.00    -0.248 NA
ATOM     66  C   UNL     1      -2.295  -5.180  13.268  1.00  0.00     0.031 C 
ATOM     67  C   UNL     1       2.713  -4.340  16.602  1.00  0.00     0.029 A 
ATOM     68  C   UNL     1       1.517  -4.125  15.937  1.00  0.00     0.049 A 
ATOM     69  H   UNL     1       0.400  -2.344  15.758  1.00  0.00     0.167 HD
ATOM     70  C   UNL     1      -0.442  -4.782  14.562  1.00  0.00     0.074 A 
ATOM     71  C   UNL     1      -1.220  -5.742  13.805  1.00  0.00     0.031 C 
ATOM     72  C   UNL     1       0.727  -5.070  15.187  1.00  0.00     0.037 A 
BRANCH  59  73
ATOM     73  C   UNL     1       3.327  -0.246  18.061  1.00  0.00     0.058 A 
ATOM     74  C   UNL     1       3.200   0.136  19.407  1.00  0.00     0.135 A 
ATOM     75  C   UNL     1       4.596  -0.137  17.470  1.00  0.00     0.135 A 
ATOM     76  F   UNL     1       2.008   0.066  20.021  1.00  0.00    -0.206 F 
ATOM     77  C   UNL     1       4.279   0.641  20.126  1.00  0.00     0.059 A 
ATOM     78  C   UNL     1       5.697   0.337  18.179  1.00  0.00     0.059 A 
ATOM     79  F   UNL     1       4.778  -0.490  16.188  1.00  0.00    -0.206 F 
ATOM     80  C   UNL     1       5.524   0.740  19.503  1.00  0.00     0.060 A 
BRANCH  80  81
ATOM     81  S   UNL     1       6.912   1.399  20.449  1.00  0.00     0.124 S 
ATOM     82  O   UNL     1       6.577   2.819  20.507  1.00  0.00    -0.237 OA
ATOM     83  O   UNL     1       6.804   0.672  21.710  1.00  0.00    -0.237 OA
ATOM     84  O   UNL     1       8.073   1.062  19.632  1.00  0.00    -0.744 OA
ENDBRANCH  80  81
ENDBRANCH  59  73
BRANCH  60  85
ATOM     85  C   UNL     1      -4.443  -3.307  12.552  1.00  0.00     0.058 A 
ATOM     86  C   UNL     1      -5.405  -4.205  13.036  1.00  0.00     0.135 A 
ATOM     87  C   UNL     1      -4.605  -2.818  11.246  1.00  0.00     0.135 A 
ATOM     88  F   UNL     1      -5.290  -4.706  14.276  1.00  0.00    -0.206 F 
ATOM     89  C   UNL     1      -6.481  -4.612  12.255  1.00  0.00     0.059 A 
ATOM     90  C   UNL     1      -5.687  -3.190  10.455  1.00  0.00     0.059 A 
ATOM     91  F   UNL     1      -3.721  -1.943  10.741  1.00  0.00    -0.206 F 
ATOM     92  C   UNL     1      -6.617  -4.094  10.966  1.00  0.00     0.060 A 
BRANCH  92  93
ATOM     93  S   UNL     1      -8.052  -4.579   9.982  1.00  0.00     0.124 S 
ATOM     94  O   UNL     1      -7.713  -5.950   9.622  1.00  0.00    -0.237 OA
ATOM     95  O   UNL     1      -9.146  -4.420  10.936  1.00  0.00    -0.237 OA
ATOM     96  O   UNL     1      -8.046  -3.617   8.884  1.00  0.00    -0.744 OA
ENDBRANCH  92  93
ENDBRANCH  60  85
BRANCH  72  97
ATOM     97  C   UNL     1       1.222  -6.488  15.113  1.00  0.00     0.058 A 
ATOM     98  C   UNL     1       1.762  -7.021  13.933  1.00  0.00     0.135 A 
ATOM     99  C   UNL     1       1.206  -7.304  16.256  1.00  0.00     0.135 A 
ATOM    100  F   UNL     1       1.795  -6.286  12.810  1.00  0.00    -0.206 F 
ATOM    101  C   UNL     1       2.252  -8.323  13.883  1.00  0.00     0.059 A 
ATOM    102  C   UNL     1       1.715  -8.598  16.236  1.00  0.00     0.059 A 
ATOM    103  F   UNL     1       0.709  -6.838  17.413  1.00  0.00    -0.206 F 
ATOM    104  C   UNL     1       2.226  -9.103  15.041  1.00  0.00     0.060 A 
BRANCH 104 105
ATOM    105  S   UNL     1       2.898 -10.777  14.973  1.00  0.00     0.124 S 
ATOM    106  O   UNL     1       1.857 -11.481  14.233  1.00  0.00    -0.237 OA
ATOM    107  O   UNL     1       4.158 -10.579  14.262  1.00  0.00    -0.237 OA
ATOM    108  O   UNL     1       3.031 -11.148  16.378  1.00  0.00    -0.744 OA
ENDBRANCH 104 105
ENDBRANCH  72  97
ENDBRANCH  46  47
ENDBRANCH  38  41
ENDBRANCH  36  37
ENDBRANCH  35  36
ENDBRANCH  34  35
ENDBRANCH  32  34
ENDBRANCH   1  30
TORSDOF 23
