REMARK SMILES C[C@](NC(=O)[C@](C)([NH3+])C(F)(F)F)(C(=O)NCCCNC(=O)c1ccc(-c2c3nc(c(-c4c(F)cc(S(=O)(=O)[O-])cc4F)c4ccc([nH]4)c(-c4c(F)cc(S(=O)(=O)[O-])cc4F)c4nc(c(-c5c(F)cc(S(=O)(=O)[O-])cc5F)c5ccc2[nH]5)C=C4)C=C3)cc1)c1ccccc1
REMARK SMILES IDX 17 1 16 2 15 3 13 4 14 5 2 7 1 8 88 9 89 10 93 11 90 12
REMARK SMILES IDX 92 13 91 14 3 15 4 16 5 18 6 19 7 20 8 21 9 25 10 26 11 27
REMARK SMILES IDX 12 28 18 29 19 30 20 31 21 33 22 34 23 35 87 36 24 37 86 38
REMARK SMILES IDX 25 39 26 40 27 41 80 42 28 43 85 44 79 45 81 46 29 47 84 48
REMARK SMILES IDX 78 49 77 50 30 52 64 53 43 54 63 55 44 56 47 57 62 58 82 59
REMARK SMILES IDX 45 60 46 61 61 63 83 64 48 65 31 66 32 67 41 68 33 69 34 70
REMARK SMILES IDX 40 71 42 72 35 73 36 74 37 75 38 76 39 77 65 78 66 79 75 80
REMARK SMILES IDX 67 81 68 82 74 83 76 84 69 85 70 86 71 87 72 88 73 89 49 90
REMARK SMILES IDX 50 91 59 92 51 93 52 94 58 95 60 96 53 97 54 98 55 99 56 100
REMARK SMILES IDX 57 101
REMARK H PARENT 15 6 3 17 8 22 8 23 8 24 19 32 81 51 47 62
REMARK Flexibility Score: inf
ROOT
ATOM      1  C   UNL     1       1.595  -1.791   1.831  1.00  0.00     0.042 C 
ENDROOT
BRANCH   1   2
ATOM      2  C   UNL     1       0.397  -0.856   1.905  1.00  0.00     0.117 C 
BRANCH   2   3
ATOM      3  N   UNL     1       0.284  -0.160   3.178  1.00  0.00    -0.354 N 
ATOM      4  C   UNL     1       0.169   1.165   3.508  1.00  0.00     0.250 C 
ATOM      5  O   UNL     1       0.077   1.389   4.719  1.00  0.00    -0.272 OA
ATOM      6  H   UNL     1       0.294  -0.761   3.958  1.00  0.00     0.163 HD
BRANCH   4   7
ATOM      7  C   UNL     1       0.162   2.296   2.418  1.00  0.00     0.142 C 
ATOM      8  C   UNL     1      -0.984   1.974   1.407  1.00  0.00     0.051 C 
BRANCH   7   9
ATOM      9  C   UNL     1      -0.146   3.742   2.855  1.00  0.00    -0.013 A 
ATOM     10  C   UNL     1      -0.741   4.085   4.079  1.00  0.00     0.007 A 
ATOM     11  C   UNL     1       0.141   4.800   1.958  1.00  0.00     0.007 A 
ATOM     12  C   UNL     1      -0.927   5.424   4.441  1.00  0.00     0.000 A 
ATOM     13  C   UNL     1      -0.074   6.134   2.306  1.00  0.00     0.000 A 
ATOM     14  C   UNL     1      -0.586   6.446   3.560  1.00  0.00     0.000 A 
ENDBRANCH   7   9
BRANCH   7  15
ATOM     15  N   UNL     1       1.488   2.218   1.747  1.00  0.00    -0.332 N 
ATOM     16  C   UNL     1       2.782   2.465   2.055  1.00  0.00     0.291 C 
ATOM     17  H   UNL     1       1.399   1.897   0.820  1.00  0.00     0.165 HD
ATOM     18  O   UNL     1       3.549   2.182   1.117  1.00  0.00    -0.267 OA
BRANCH  16  19
ATOM     19  C   UNL     1       3.419   3.048   3.354  1.00  0.00     0.267 C 
ATOM     20  C   UNL     1       2.590   3.941   4.259  1.00  0.00     0.100 C 
BRANCH  19  21
ATOM     21  N   UNL     1       4.544   3.962   2.880  1.00  0.00    -0.337 N 
ATOM     22  H   UNL     1       5.006   4.380   3.688  1.00  0.00     0.345 HD
ATOM     23  H   UNL     1       4.158   4.700   2.291  1.00  0.00     0.345 HD
ATOM     24  H   UNL     1       5.221   3.419   2.345  1.00  0.00     0.345 HD
ENDBRANCH  19  21
BRANCH  19  25
ATOM     25  C   UNL     1       3.922   1.832   4.168  1.00  0.00     0.453 C 
ATOM     26  F   UNL     1       4.454   2.217   5.357  1.00  0.00    -0.164 F 
ATOM     27  F   UNL     1       2.929   0.960   4.449  1.00  0.00    -0.164 F 
ATOM     28  F   UNL     1       4.886   1.144   3.514  1.00  0.00    -0.164 F 
ENDBRANCH  19  25
ENDBRANCH  16  19
ENDBRANCH   7  15
ENDBRANCH   4   7
ENDBRANCH   2   3
ENDBRANCH   1   2
BRANCH   1  29
ATOM     29  C   UNL     1       1.600  -2.916   2.858  1.00  0.00     0.118 C 
BRANCH  29  30
ATOM     30  N   UNL     1       0.489  -3.845   2.701  1.00  0.00    -0.352 N 
ATOM     31  C   UNL     1       0.477  -5.175   2.340  1.00  0.00     0.251 C 
ATOM     32  H   UNL     1      -0.399  -3.460   2.882  1.00  0.00     0.163 HD
ATOM     33  O   UNL     1      -0.591  -5.731   2.125  1.00  0.00    -0.269 OA
BRANCH  31  34
ATOM     34  C   UNL     1       1.748  -5.920   2.177  1.00  0.00     0.039 A 
ATOM     35  C   UNL     1       1.901  -6.760   1.070  1.00  0.00     0.014 A 
ATOM     36  C   UNL     1       2.786  -5.795   3.103  1.00  0.00     0.014 A 
ATOM     37  C   UNL     1       3.127  -7.390   0.839  1.00  0.00     0.010 A 
ATOM     38  C   UNL     1       4.032  -6.353   2.827  1.00  0.00     0.010 A 
ATOM     39  C   UNL     1       4.221  -7.146   1.686  1.00  0.00    -0.014 A 
BRANCH  39  40
ATOM     40  C   UNL     1       5.576  -7.679   1.384  1.00  0.00     0.031 A 
ATOM     41  C   UNL     1       6.251  -8.625   2.340  1.00  0.00     0.074 A 
ATOM     42  C   UNL     1       6.235  -7.238   0.293  1.00  0.00     0.049 A 
ATOM     43  N   UNL     1       7.468  -9.103   2.307  1.00  0.00    -0.248 NA
ATOM     44  C   UNL     1       5.463  -9.070   3.501  1.00  0.00     0.031 C 
ATOM     45  C   UNL     1       5.709  -6.284  -0.686  1.00  0.00     0.029 A 
ATOM     46  N   UNL     1       7.498  -7.518  -0.167  1.00  0.00    -0.354 N 
ATOM     47  C   UNL     1       7.599  -9.888   3.446  1.00  0.00     0.074 A 
ATOM     48  C   UNL     1       6.353  -9.785   4.174  1.00  0.00     0.031 C 
ATOM     49  C   UNL     1       6.633  -6.070  -1.636  1.00  0.00     0.029 A 
ATOM     50  C   UNL     1       7.833  -6.835  -1.313  1.00  0.00     0.049 A 
ATOM     51  H   UNL     1       8.107  -8.149   0.281  1.00  0.00     0.167 HD
ATOM     52  C   UNL     1       8.654 -10.642   3.839  1.00  0.00     0.037 A 
ATOM     53  C   UNL     1       8.983  -6.810  -2.016  1.00  0.00     0.037 A 
ATOM     54  C   UNL     1       9.883 -10.759   3.098  1.00  0.00     0.049 A 
ATOM     55  C   UNL     1      10.144  -7.647  -1.553  1.00  0.00     0.074 A 
ATOM     56  C   UNL     1      10.985 -11.549   3.379  1.00  0.00     0.029 A 
ATOM     57  N   UNL     1      10.177 -10.066   1.933  1.00  0.00    -0.354 N 
ATOM     58  N   UNL     1      10.226  -8.435  -0.508  1.00  0.00    -0.248 NA
ATOM     59  C   UNL     1      11.369  -7.591  -2.364  1.00  0.00     0.031 C 
ATOM     60  C   UNL     1      11.961 -11.300   2.409  1.00  0.00     0.029 A 
ATOM     61  C   UNL     1      11.451 -10.391   1.497  1.00  0.00     0.049 A 
ATOM     62  H   UNL     1       9.570  -9.435   1.483  1.00  0.00     0.167 HD
ATOM     63  C   UNL     1      11.503  -8.985  -0.547  1.00  0.00     0.074 A 
ATOM     64  C   UNL     1      12.152  -8.451  -1.726  1.00  0.00     0.031 C 
ATOM     65  C   UNL     1      12.085  -9.853   0.318  1.00  0.00     0.037 A 
BRANCH  52  66
ATOM     66  C   UNL     1       8.524 -11.404   5.130  1.00  0.00     0.058 A 
ATOM     67  C   UNL     1       7.674 -12.515   5.246  1.00  0.00     0.135 A 
ATOM     68  C   UNL     1       9.285 -11.043   6.254  1.00  0.00     0.135 A 
ATOM     69  F   UNL     1       6.913 -12.896   4.207  1.00  0.00    -0.206 F 
ATOM     70  C   UNL     1       7.559 -13.222   6.438  1.00  0.00     0.059 A 
ATOM     71  C   UNL     1       9.207 -11.753   7.448  1.00  0.00     0.059 A 
ATOM     72  F   UNL     1      10.115  -9.989   6.198  1.00  0.00    -0.206 F 
ATOM     73  C   UNL     1       8.329 -12.833   7.535  1.00  0.00     0.060 A 
BRANCH  73  74
ATOM     74  S   UNL     1       8.170 -13.764   9.073  1.00  0.00     0.124 S 
ATOM     75  O   UNL     1       6.863 -13.319   9.548  1.00  0.00    -0.237 OA
ATOM     76  O   UNL     1       8.238 -15.147   8.610  1.00  0.00    -0.237 OA
ATOM     77  O   UNL     1       9.311 -13.314   9.863  1.00  0.00    -0.744 OA
ENDBRANCH  73  74
ENDBRANCH  52  66
BRANCH  53  78
ATOM     78  C   UNL     1       9.088  -5.971  -3.240  1.00  0.00     0.058 A 
ATOM     79  C   UNL     1       9.144  -6.558  -4.512  1.00  0.00     0.135 A 
ATOM     80  C   UNL     1       9.119  -4.569  -3.164  1.00  0.00     0.135 A 
ATOM     81  F   UNL     1       9.125  -7.894  -4.635  1.00  0.00    -0.206 F 
ATOM     82  C   UNL     1       9.241  -5.788  -5.667  1.00  0.00     0.059 A 
ATOM     83  C   UNL     1       9.190  -3.777  -4.306  1.00  0.00     0.059 A 
ATOM     84  F   UNL     1       9.052  -3.958  -1.971  1.00  0.00    -0.206 F 
ATOM     85  C   UNL     1       9.260  -4.396  -5.553  1.00  0.00     0.060 A 
BRANCH  85  86
ATOM     86  S   UNL     1       9.331  -3.406  -7.062  1.00  0.00     0.124 S 
ATOM     87  O   UNL     1      10.717  -3.595  -7.473  1.00  0.00    -0.237 OA
ATOM     88  O   UNL     1       8.323  -4.049  -7.899  1.00  0.00    -0.237 OA
ATOM     89  O   UNL     1       8.986  -2.065  -6.599  1.00  0.00    -0.744 OA
ENDBRANCH  85  86
ENDBRANCH  53  78
BRANCH  65  90
ATOM     90  C   UNL     1      13.487 -10.300   0.012  1.00  0.00     0.058 A 
ATOM     91  C   UNL     1      14.587  -9.448   0.193  1.00  0.00     0.135 A 
ATOM     92  C   UNL     1      13.738 -11.616  -0.412  1.00  0.00     0.135 A 
ATOM     93  F   UNL     1      14.401  -8.179   0.587  1.00  0.00    -0.206 F 
ATOM     94  C   UNL     1      15.887  -9.879  -0.052  1.00  0.00     0.059 A 
ATOM     95  C   UNL     1      15.031 -12.076  -0.637  1.00  0.00     0.059 A 
ATOM     96  F   UNL     1      12.721 -12.474  -0.592  1.00  0.00    -0.206 F 
ATOM     97  C   UNL     1      16.099 -11.197  -0.463  1.00  0.00     0.060 A 
BRANCH  97  98
ATOM     98  S   UNL     1      17.794 -11.756  -0.735  1.00  0.00     0.124 S 
ATOM     99  O   UNL     1      18.122 -11.099  -1.996  1.00  0.00    -0.237 OA
ATOM    100  O   UNL     1      18.485 -11.245   0.444  1.00  0.00    -0.237 OA
ATOM    101  O   UNL     1      17.666 -13.209  -0.799  1.00  0.00    -0.744 OA
ENDBRANCH  97  98
ENDBRANCH  65  90
ENDBRANCH  39  40
ENDBRANCH  31  34
ENDBRANCH  29  30
ENDBRANCH   1  29
TORSDOF 18
