REMARK SMILES CC(C)[C@H](NC(=O)OCc1ccccc1)C(=O)NCC(=O)NCCCNC(=O)c1ccc(-c2c3nc(c(-c4c(F)cc(S(=O)(=O)[O-])cc4F)c4ccc([nH]4)c(-c4c(F)cc(S(=O)(=O)[O-])cc4F)c4nc(c(-c5c(F)cc(S(=O)(=O)[O-])cc5F)c5ccc2[nH]5)C=C4)C=C3)cc1
REMARK SMILES IDX 20 1 21 2 22 3 19 5 18 6 16 7 17 8 4 10 2 11 1 12 3 13 5 14
REMARK SMILES IDX 6 15 7 17 8 18 9 19 10 20 11 21 15 22 12 23 14 24 13 25
REMARK SMILES IDX 23 26 24 27 25 28 26 29 27 30 28 32 29 33 30 34 94 35 31 36
REMARK SMILES IDX 93 37 32 38 33 39 34 40 87 41 35 42 92 43 86 44 88 45 36 46
REMARK SMILES IDX 91 47 85 48 84 49 37 51 71 52 50 53 70 54 51 55 54 56 69 57
REMARK SMILES IDX 89 58 52 59 53 60 68 62 90 63 55 64 38 65 39 66 48 67 40 68
REMARK SMILES IDX 41 69 47 70 49 71 42 72 43 73 44 74 45 75 46 76 72 77 73 78
REMARK SMILES IDX 82 79 74 80 75 81 81 82 83 83 76 84 77 85 78 86 79 87 80 88
REMARK SMILES IDX 56 89 57 90 66 91 58 92 59 93 65 94 67 95 60 96 61 97 62 98
REMARK SMILES IDX 63 99 64 100
REMARK H PARENT 22 4 18 9 5 16 26 31 88 50 54 61
REMARK Flexibility Score: inf
ROOT
ATOM      1  C   UNL     1       0.422   1.379   5.029  1.00  0.00     0.239 C 
ATOM      2  O   UNL     1       0.703   0.932   6.148  1.00  0.00    -0.273 OA
ATOM      3  N   UNL     1       1.381   2.126   4.421  1.00  0.00    -0.355 N 
ATOM      4  H   UNL     1       2.119   2.406   5.010  1.00  0.00     0.163 HD
ENDROOT
BRANCH   1   5
ATOM      5  C   UNL     1      -0.893   0.940   4.350  1.00  0.00     0.216 C 
BRANCH   5   6
ATOM      6  N   UNL     1      -1.466   1.727   3.280  1.00  0.00    -0.345 N 
ATOM      7  C   UNL     1      -1.571   1.540   1.940  1.00  0.00     0.243 C 
ATOM      8  O   UNL     1      -2.215   2.411   1.339  1.00  0.00    -0.273 OA
ATOM      9  H   UNL     1      -1.862   2.574   3.588  1.00  0.00     0.164 HD
BRANCH   7  10
ATOM     10  C   UNL     1      -0.964   0.353   1.126  1.00  0.00     0.177 C 
BRANCH  10  11
ATOM     11  C   UNL     1      -1.704  -0.990   1.270  1.00  0.00     0.015 C 
ATOM     12  C   UNL     1      -3.172  -0.831   0.847  1.00  0.00     0.010 C 
ATOM     13  C   UNL     1      -1.069  -2.078   0.388  1.00  0.00     0.010 C 
ENDBRANCH  10  11
BRANCH  10  14
ATOM     14  N   UNL     1       0.500   0.280   1.099  1.00  0.00    -0.309 N 
ATOM     15  C   UNL     1       1.394  -0.345   1.911  1.00  0.00     0.408 C 
ATOM     16  H   UNL     1       0.913   0.775   0.355  1.00  0.00     0.167 HD
ATOM     17  O   UNL     1       2.591  -0.142   1.776  1.00  0.00    -0.225 OA
BRANCH  15  18
ATOM     18  O   UNL     1       0.825  -1.102   2.872  1.00  0.00    -0.445 OA
BRANCH  18  19
ATOM     19  C   UNL     1       1.701  -1.524   3.929  1.00  0.00     0.270 C 
BRANCH  19  20
ATOM     20  C   UNL     1       2.551  -2.694   3.523  1.00  0.00    -0.011 A 
ATOM     21  C   UNL     1       1.988  -3.962   3.346  1.00  0.00     0.007 A 
ATOM     22  C   UNL     1       3.918  -2.508   3.280  1.00  0.00     0.007 A 
ATOM     23  C   UNL     1       2.785  -5.027   2.927  1.00  0.00     0.000 A 
ATOM     24  C   UNL     1       4.711  -3.570   2.856  1.00  0.00     0.000 A 
ATOM     25  C   UNL     1       4.143  -4.829   2.678  1.00  0.00     0.000 A 
ENDBRANCH  19  20
ENDBRANCH  18  19
ENDBRANCH  15  18
ENDBRANCH  10  14
ENDBRANCH   7  10
ENDBRANCH   5   6
ENDBRANCH   1   5
BRANCH   3  26
ATOM     26  C   UNL     1       1.496   2.579   3.054  1.00  0.00     0.117 C 
BRANCH  26  27
ATOM     27  C   UNL     1       1.512   4.077   2.895  1.00  0.00     0.042 C 
BRANCH  27  28
ATOM     28  C   UNL     1       2.856   4.665   3.275  1.00  0.00     0.118 C 
BRANCH  28  29
ATOM     29  N   UNL     1       3.932   4.274   2.362  1.00  0.00    -0.352 N 
ATOM     30  C   UNL     1       4.740   5.056   1.569  1.00  0.00     0.251 C 
ATOM     31  H   UNL     1       4.103   3.307   2.308  1.00  0.00     0.163 HD
ATOM     32  O   UNL     1       5.494   4.537   0.753  1.00  0.00    -0.269 OA
BRANCH  30  33
ATOM     33  C   UNL     1       4.658   6.526   1.684  1.00  0.00     0.039 A 
ATOM     34  C   UNL     1       4.616   7.301   0.525  1.00  0.00     0.014 A 
ATOM     35  C   UNL     1       4.545   7.125   2.939  1.00  0.00     0.014 A 
ATOM     36  C   UNL     1       4.356   8.668   0.629  1.00  0.00     0.010 A 
ATOM     37  C   UNL     1       4.145   8.449   3.029  1.00  0.00     0.010 A 
ATOM     38  C   UNL     1       4.057   9.241   1.877  1.00  0.00    -0.014 A 
BRANCH  38  39
ATOM     39  C   UNL     1       3.657  10.664   2.005  1.00  0.00     0.031 A 
ATOM     40  C   UNL     1       4.461  11.593   2.876  1.00  0.00     0.074 A 
ATOM     41  C   UNL     1       2.533  11.099   1.400  1.00  0.00     0.049 A 
ATOM     42  N   UNL     1       4.240  12.848   3.167  1.00  0.00    -0.248 NA
ATOM     43  C   UNL     1       5.649  11.028   3.539  1.00  0.00     0.031 C 
ATOM     44  C   UNL     1       1.633  10.275   0.588  1.00  0.00     0.029 A 
ATOM     45  N   UNL     1       1.951  12.341   1.376  1.00  0.00    -0.354 N 
ATOM     46  C   UNL     1       5.247  13.214   4.052  1.00  0.00     0.074 A 
ATOM     47  C   UNL     1       6.035  12.031   4.311  1.00  0.00     0.031 C 
ATOM     48  C   UNL     1       0.639  11.043   0.114  1.00  0.00     0.029 A 
ATOM     49  C   UNL     1       0.800  12.399   0.625  1.00  0.00     0.049 A 
ATOM     50  H   UNL     1       2.322  13.119   1.852  1.00  0.00     0.167 HD
ATOM     51  C   UNL     1       5.513  14.433   4.575  1.00  0.00     0.037 A 
ATOM     52  C   UNL     1      -0.035  13.429   0.380  1.00  0.00     0.037 A 
ATOM     53  C   UNL     1       4.739  15.611   4.288  1.00  0.00     0.049 A 
ATOM     54  C   UNL     1       0.281  14.776   0.972  1.00  0.00     0.074 A 
ATOM     55  C   UNL     1       4.959  16.908   4.713  1.00  0.00     0.029 A 
ATOM     56  N   UNL     1       3.593  15.633   3.506  1.00  0.00    -0.354 N 
ATOM     57  N   UNL     1       1.284  15.122   1.745  1.00  0.00    -0.248 NA
ATOM     58  C   UNL     1      -0.641  15.874   0.656  1.00  0.00     0.031 C 
ATOM     59  C   UNL     1       3.913  17.705   4.236  1.00  0.00     0.029 A 
ATOM     60  C   UNL     1       3.078  16.918   3.458  1.00  0.00     0.049 A 
ATOM     61  H   UNL     1       3.203  14.852   3.051  1.00  0.00     0.167 HD
ATOM     62  C   UNL     1       1.130  16.483   1.982  1.00  0.00     0.074 A 
ATOM     63  C   UNL     1      -0.056  16.899   1.260  1.00  0.00     0.031 C 
ATOM     64  C   UNL     1       1.900  17.315   2.727  1.00  0.00     0.037 A 
BRANCH  51  65
ATOM     65  C   UNL     1       6.692  14.554   5.504  1.00  0.00     0.058 A 
ATOM     66  C   UNL     1       8.013  14.401   5.048  1.00  0.00     0.135 A 
ATOM     67  C   UNL     1       6.502  14.857   6.862  1.00  0.00     0.135 A 
ATOM     68  F   UNL     1       8.255  14.092   3.764  1.00  0.00    -0.206 F 
ATOM     69  C   UNL     1       9.098  14.512   5.910  1.00  0.00     0.059 A 
ATOM     70  C   UNL     1       7.576  15.008   7.735  1.00  0.00     0.059 A 
ATOM     71  F   UNL     1       5.263  15.011   7.353  1.00  0.00    -0.206 F 
ATOM     72  C   UNL     1       8.870  14.819   7.252  1.00  0.00     0.060 A 
BRANCH  72  73
ATOM     73  S   UNL     1      10.291  14.970   8.354  1.00  0.00     0.124 S 
ATOM     74  O   UNL     1      10.726  13.581   8.461  1.00  0.00    -0.237 OA
ATOM     75  O   UNL     1      11.175  15.854   7.600  1.00  0.00    -0.237 OA
ATOM     76  O   UNL     1       9.722  15.545   9.568  1.00  0.00    -0.744 OA
ENDBRANCH  72  73
ENDBRANCH  51  65
BRANCH  52  77
ATOM     77  C   UNL     1      -1.230  13.230  -0.484  1.00  0.00     0.058 A 
ATOM     78  C   UNL     1      -1.312  13.822  -1.754  1.00  0.00     0.135 A 
ATOM     79  C   UNL     1      -2.307  12.432  -0.067  1.00  0.00     0.135 A 
ATOM     80  F   UNL     1      -0.312  14.598  -2.197  1.00  0.00    -0.206 F 
ATOM     81  C   UNL     1      -2.425  13.647  -2.571  1.00  0.00     0.059 A 
ATOM     82  C   UNL     1      -3.418  12.217  -0.878  1.00  0.00     0.059 A 
ATOM     83  F   UNL     1      -2.273  11.827   1.131  1.00  0.00    -0.206 F 
ATOM     84  C   UNL     1      -3.472  12.838  -2.125  1.00  0.00     0.060 A 
BRANCH  84  85
ATOM     85  S   UNL     1      -4.890  12.582  -3.213  1.00  0.00     0.124 S 
ATOM     86  O   UNL     1      -5.532  13.891  -3.174  1.00  0.00    -0.237 OA
ATOM     87  O   UNL     1      -4.247  12.223  -4.473  1.00  0.00    -0.237 OA
ATOM     88  O   UNL     1      -5.623  11.500  -2.561  1.00  0.00    -0.744 OA
ENDBRANCH  84  85
ENDBRANCH  52  77
BRANCH  64  89
ATOM     89  C   UNL     1       1.512  18.767   2.772  1.00  0.00     0.058 A 
ATOM     90  C   UNL     1       0.375  19.211   3.464  1.00  0.00     0.135 A 
ATOM     91  C   UNL     1       2.327  19.735   2.162  1.00  0.00     0.135 A 
ATOM     92  F   UNL     1      -0.442  18.327   4.060  1.00  0.00    -0.206 F 
ATOM     93  C   UNL     1       0.046  20.561   3.530  1.00  0.00     0.059 A 
ATOM     94  C   UNL     1       2.036  21.093   2.243  1.00  0.00     0.059 A 
ATOM     95  F   UNL     1       3.434  19.367   1.496  1.00  0.00    -0.206 F 
ATOM     96  C   UNL     1       0.886  21.495   2.920  1.00  0.00     0.060 A 
BRANCH  96  97
ATOM     97  S   UNL     1       0.467  23.246   3.046  1.00  0.00     0.124 S 
ATOM     98  O   UNL     1      -0.690  23.336   2.162  1.00  0.00    -0.237 OA
ATOM     99  O   UNL     1       0.190  23.396   4.472  1.00  0.00    -0.237 OA
ATOM    100  O   UNL     1       1.672  23.920   2.574  1.00  0.00    -0.744 OA
ENDBRANCH  96  97
ENDBRANCH  64  89
ENDBRANCH  38  39
ENDBRANCH  30  33
ENDBRANCH  28  29
ENDBRANCH  27  28
ENDBRANCH  26  27
ENDBRANCH   3  26
TORSDOF 20
