REMARK SMILES O=C(CN1CC2(CCC1=O)CC[NH+](Cc1nc3ccccc3[nH]1)CC2)NCCCNC(=O)c1ccc(-c2c3nc(c(-c4c(F)cc(S(=O)(=O)[O-])cc4F)c4ccc([nH]4)c(-c4c(F)cc(S(=O)(=O)[O-])cc4F)c4nc(c(-c5c(F)cc(S(=O)(=O)[O-])cc5F)c5ccc2[nH]5)C=C4)C=C3)cc1
REMARK SMILES IDX 28 1 27 2 26 3 1 4 2 5 3 7 4 8 5 9 9 10 6 11 8 12 10 13 7 14
REMARK SMILES IDX 11 15 25 16 12 17 24 18 13 19 14 21 15 22 16 23 23 24 17 25
REMARK SMILES IDX 22 26 18 28 21 29 19 30 20 31 29 32 30 33 31 34 32 36 33 37
REMARK SMILES IDX 34 38 98 39 35 40 97 41 36 42 37 43 38 44 91 45 39 46 96 47
REMARK SMILES IDX 90 48 92 49 40 50 95 51 89 52 88 53 41 55 75 56 54 57 74 58
REMARK SMILES IDX 55 59 58 60 73 61 93 62 56 63 57 64 72 66 94 67 59 68 42 69
REMARK SMILES IDX 43 70 52 71 44 72 45 73 51 74 53 75 46 76 47 77 48 78 49 79
REMARK SMILES IDX 50 80 76 81 77 82 86 83 78 84 79 85 85 86 87 87 80 88 81 89
REMARK SMILES IDX 82 90 83 91 84 92 60 93 61 94 70 95 62 96 63 97 69 98 71 99
REMARK SMILES IDX 64 100 65 101 66 102 67 103 68 104
REMARK H PARENT 26 6 13 20 23 27 30 35 92 54 58 65
REMARK Flexibility Score: inf
ROOT
ATOM      1  C   UNL     1       2.375  -2.201   2.761  1.00  0.00     0.042 C 
ENDROOT
BRANCH   1   2
ATOM      2  C   UNL     1       2.022  -0.737   2.527  1.00  0.00     0.117 C 
BRANCH   2   3
ATOM      3  N   UNL     1       2.644  -0.218   1.333  1.00  0.00    -0.354 N 
ATOM      4  O   UNL     1       0.875  -0.661  -0.064  1.00  0.00    -0.273 OA
ATOM      5  C   UNL     1       2.005  -0.215   0.116  1.00  0.00     0.239 C 
ATOM      6  H   UNL     1       3.556   0.147   1.392  1.00  0.00     0.163 HD
BRANCH   5   7
ATOM      7  C   UNL     1       2.884   0.229  -1.040  1.00  0.00     0.219 C 
BRANCH   7   8
ATOM      8  N   UNL     1       3.739   1.376  -0.729  1.00  0.00    -0.333 N 
ATOM      9  C   UNL     1       3.110   2.682  -0.558  1.00  0.00     0.127 C 
ATOM     10  C   UNL     1       5.108   1.210  -0.647  1.00  0.00     0.223 C 
ATOM     11  C   UNL     1       3.783   3.714  -1.469  1.00  0.00    -0.001 C 
ATOM     12  C   UNL     1       5.952   2.395  -1.085  1.00  0.00     0.101 C 
ATOM     13  O   UNL     1       5.622   0.122  -0.396  1.00  0.00    -0.275 OA
ATOM     14  C   UNL     1       5.265   3.751  -1.022  1.00  0.00     0.019 C 
ATOM     15  C   UNL     1       3.636   3.260  -2.942  1.00  0.00     0.070 C 
ATOM     16  C   UNL     1       3.189   5.127  -1.264  1.00  0.00     0.070 C 
ATOM     17  C   UNL     1       2.271   3.575  -3.554  1.00  0.00     0.263 C 
ATOM     18  C   UNL     1       1.864   5.380  -1.987  1.00  0.00     0.263 C 
ATOM     19  N   UNL     1       1.828   4.949  -3.382  1.00  0.00    -0.329 N 
ATOM     20  H   UNL     1       0.838   4.924  -3.628  1.00  0.00     0.348 HD
BRANCH  19  21
ATOM     21  C   UNL     1       2.287   5.931  -4.379  1.00  0.00     0.338 C 
BRANCH  21  22
ATOM     22  C   UNL     1       3.736   6.306  -4.335  1.00  0.00     0.162 A 
ATOM     23  N   UNL     1       4.283   7.327  -3.700  1.00  0.00    -0.227 NA
ATOM     24  N   UNL     1       4.711   5.553  -4.947  1.00  0.00    -0.337 N 
ATOM     25  C   UNL     1       5.628   7.045  -3.659  1.00  0.00     0.089 A 
ATOM     26  C   UNL     1       5.912   5.887  -4.370  1.00  0.00     0.066 A 
ATOM     27  H   UNL     1       4.574   4.896  -5.667  1.00  0.00     0.168 HD
ATOM     28  C   UNL     1       6.659   7.690  -2.963  1.00  0.00     0.030 A 
ATOM     29  C   UNL     1       7.163   5.267  -4.368  1.00  0.00     0.028 A 
ATOM     30  C   UNL     1       7.925   7.090  -2.939  1.00  0.00     0.002 A 
ATOM     31  C   UNL     1       8.164   5.888  -3.612  1.00  0.00     0.002 A 
ENDBRANCH  21  22
ENDBRANCH  19  21
ENDBRANCH   7   8
ENDBRANCH   5   7
ENDBRANCH   2   3
ENDBRANCH   1   2
BRANCH   1  32
ATOM     32  C   UNL     1       3.870  -2.461   2.922  1.00  0.00     0.118 C 
BRANCH  32  33
ATOM     33  N   UNL     1       4.451  -1.745   4.051  1.00  0.00    -0.352 N 
ATOM     34  C   UNL     1       5.120  -2.220   5.154  1.00  0.00     0.251 C 
ATOM     35  H   UNL     1       4.348  -0.767   4.018  1.00  0.00     0.163 HD
ATOM     36  O   UNL     1       5.386  -1.457   6.074  1.00  0.00    -0.269 OA
BRANCH  34  37
ATOM     37  C   UNL     1       5.493  -3.649   5.241  1.00  0.00     0.039 A 
ATOM     38  C   UNL     1       5.290  -4.324   6.447  1.00  0.00     0.014 A 
ATOM     39  C   UNL     1       6.048  -4.320   4.149  1.00  0.00     0.014 A 
ATOM     40  C   UNL     1       5.573  -5.690   6.534  1.00  0.00     0.010 A 
ATOM     41  C   UNL     1       6.255  -5.696   4.213  1.00  0.00     0.010 A 
ATOM     42  C   UNL     1       6.018  -6.397   5.405  1.00  0.00    -0.014 A 
BRANCH  42  43
ATOM     43  C   UNL     1       6.226  -7.869   5.447  1.00  0.00     0.031 A 
ATOM     44  C   UNL     1       7.594  -8.450   5.212  1.00  0.00     0.074 A 
ATOM     45  C   UNL     1       5.168  -8.685   5.629  1.00  0.00     0.049 A 
ATOM     46  N   UNL     1       7.956  -9.705   5.135  1.00  0.00    -0.248 NA
ATOM     47  C   UNL     1       8.697  -7.495   5.012  1.00  0.00     0.031 C 
ATOM     48  C   UNL     1       3.784  -8.246   5.821  1.00  0.00     0.029 A 
ATOM     49  N   UNL     1       5.088 -10.055   5.670  1.00  0.00    -0.354 N 
ATOM     50  C   UNL     1       9.319  -9.692   4.864  1.00  0.00     0.074 A 
ATOM     51  C   UNL     1       9.710  -8.304   4.739  1.00  0.00     0.031 C 
ATOM     52  C   UNL     1       2.998  -9.322   5.979  1.00  0.00     0.029 A 
ATOM     53  C   UNL     1       3.810 -10.528   5.858  1.00  0.00     0.049 A 
ATOM     54  H   UNL     1       5.871 -10.643   5.574  1.00  0.00     0.167 HD
ATOM     55  C   UNL     1      10.171 -10.739   4.752  1.00  0.00     0.037 A 
ATOM     56  C   UNL     1       3.341 -11.791   5.915  1.00  0.00     0.037 A 
ATOM     57  C   UNL     1       9.779 -12.117   4.899  1.00  0.00     0.049 A 
ATOM     58  C   UNL     1       4.306 -12.938   5.781  1.00  0.00     0.074 A 
ATOM     59  C   UNL     1      10.577 -13.247   4.858  1.00  0.00     0.029 A 
ATOM     60  N   UNL     1       8.479 -12.554   5.111  1.00  0.00    -0.354 N 
ATOM     61  N   UNL     1       5.604 -12.905   5.589  1.00  0.00    -0.248 NA
ATOM     62  C   UNL     1       3.747 -14.294   5.878  1.00  0.00     0.031 C 
ATOM     63  C   UNL     1       9.755 -14.369   4.998  1.00  0.00     0.029 A 
ATOM     64  C   UNL     1       8.451 -13.938   5.183  1.00  0.00     0.049 A 
ATOM     65  H   UNL     1       7.693 -11.968   5.198  1.00  0.00     0.167 HD
ATOM     66  C   UNL     1       6.020 -14.232   5.575  1.00  0.00     0.074 A 
ATOM     67  C   UNL     1       4.838 -15.043   5.785  1.00  0.00     0.031 C 
ATOM     68  C   UNL     1       7.269 -14.733   5.407  1.00  0.00     0.037 A 
BRANCH  55  69
ATOM     69  C   UNL     1      11.616 -10.437   4.457  1.00  0.00     0.058 A 
ATOM     70  C   UNL     1      12.452  -9.829   5.408  1.00  0.00     0.135 A 
ATOM     71  C   UNL     1      12.184 -10.797   3.224  1.00  0.00     0.135 A 
ATOM     72  F   UNL     1      11.960  -9.452   6.598  1.00  0.00    -0.206 F 
ATOM     73  C   UNL     1      13.790  -9.561   5.136  1.00  0.00     0.059 A 
ATOM     74  C   UNL     1      13.528 -10.566   2.942  1.00  0.00     0.059 A 
ATOM     75  F   UNL     1      11.433 -11.382   2.278  1.00  0.00    -0.206 F 
ATOM     76  C   UNL     1      14.319  -9.933   3.900  1.00  0.00     0.060 A 
BRANCH  76  77
ATOM     77  S   UNL     1      16.058  -9.583   3.567  1.00  0.00     0.124 S 
ATOM     78  O   UNL     1      16.035  -8.133   3.395  1.00  0.00    -0.237 OA
ATOM     79  O   UNL     1      16.712 -10.066   4.779  1.00  0.00    -0.237 OA
ATOM     80  O   UNL     1      16.336 -10.353   2.358  1.00  0.00    -0.744 OA
ENDBRANCH  76  77
ENDBRANCH  55  69
BRANCH  56  81
ATOM     81  C   UNL     1       1.889 -12.036   6.129  1.00  0.00     0.058 A 
ATOM     82  C   UNL     1       1.418 -12.569   7.338  1.00  0.00     0.135 A 
ATOM     83  C   UNL     1       0.944 -11.729   5.138  1.00  0.00     0.135 A 
ATOM     84  F   UNL     1       2.282 -12.885   8.314  1.00  0.00    -0.206 F 
ATOM     85  C   UNL     1       0.064 -12.809   7.551  1.00  0.00     0.059 A 
ATOM     86  C   UNL     1      -0.418 -11.934   5.337  1.00  0.00     0.059 A 
ATOM     87  F   UNL     1       1.341 -11.201   3.970  1.00  0.00    -0.206 F 
ATOM     88  C   UNL     1      -0.847 -12.485   6.544  1.00  0.00     0.060 A 
BRANCH  88  89
ATOM     89  S   UNL     1      -2.607 -12.758   6.849  1.00  0.00     0.124 S 
ATOM     90  O   UNL     1      -2.695 -14.211   6.779  1.00  0.00    -0.237 OA
ATOM     91  O   UNL     1      -2.783 -12.169   8.173  1.00  0.00    -0.237 OA
ATOM     92  O   UNL     1      -3.252 -12.032   5.758  1.00  0.00    -0.744 OA
ENDBRANCH  88  89
ENDBRANCH  56  81
BRANCH  68  93
ATOM     93  C   UNL     1       7.439 -16.225   5.489  1.00  0.00     0.058 A 
ATOM     94  C   UNL     1       7.000 -17.079   4.467  1.00  0.00     0.135 A 
ATOM     95  C   UNL     1       8.113 -16.800   6.580  1.00  0.00     0.135 A 
ATOM     96  F   UNL     1       6.344 -16.583   3.406  1.00  0.00    -0.206 F 
ATOM     97  C   UNL     1       7.208 -18.454   4.530  1.00  0.00     0.059 A 
ATOM     98  C   UNL     1       8.357 -18.168   6.650  1.00  0.00     0.059 A 
ATOM     99  F   UNL     1       8.562 -16.027   7.582  1.00  0.00    -0.206 F 
ATOM    100  C   UNL     1       7.892 -18.988   5.624  1.00  0.00     0.060 A 
BRANCH 100 101
ATOM    101  S   UNL     1       8.197 -20.767   5.670  1.00  0.00     0.124 S 
ATOM    102  O   UNL     1       6.867 -21.286   5.970  1.00  0.00    -0.237 OA
ATOM    103  O   UNL     1       8.692 -21.034   4.322  1.00  0.00    -0.237 OA
ATOM    104  O   UNL     1       9.184 -20.916   6.734  1.00  0.00    -0.744 OA
ENDBRANCH 100 101
ENDBRANCH  68  93
ENDBRANCH  42  43
ENDBRANCH  34  37
ENDBRANCH  32  33
ENDBRANCH   1  32
TORSDOF 16
