REMARK SMILES CC(C)C[C@H](C(=O)NCCCNC(=O)c1ccc(-c2c3nc(c(-c4c(F)cc(S(=O)(=O)[O-])cc4F)c4ccc([nH]4)c(-c4c(F)cc(S(=O)(=O)[O-])cc4F)c4nc(c(-c5c(F)cc(S(=O)(=O)[O-])cc5F)c5ccc2[nH]5)C=C4)C=C3)cc1)N1C(=O)/C(=C2\C(=O)Nc3ccc(Br)cc32)SC1=S
REMARK SMILES IDX 10 1 9 2 8 3 6 4 7 5 5 7 4 8 2 9 1 10 3 11 81 12 82 13 97 14
REMARK SMILES IDX 83 15 84 16 96 17 98 18 85 19 86 20 95 21 87 22 88 23 89 24
REMARK SMILES IDX 94 25 90 27 92 28 91 29 93 30 11 31 12 32 13 33 14 35 15 36
REMARK SMILES IDX 16 37 80 38 17 39 79 40 18 41 19 42 20 43 73 44 21 45 78 46
REMARK SMILES IDX 72 47 74 48 22 49 77 50 71 51 70 52 23 54 57 55 36 56 56 57
REMARK SMILES IDX 37 58 40 59 55 60 75 61 38 62 39 63 54 65 76 66 41 67 24 68
REMARK SMILES IDX 25 69 34 70 26 71 27 72 33 73 35 74 28 75 29 76 30 77 31 78
REMARK SMILES IDX 32 79 58 80 59 81 68 82 60 83 61 84 67 85 69 86 62 87 63 88
REMARK SMILES IDX 64 89 65 90 66 91 42 92 43 93 52 94 44 95 45 96 51 97 53 98
REMARK SMILES IDX 46 99 47 100 48 101 49 102 50 103
REMARK H PARENT 8 6 88 26 12 34 74 53 40 64
REMARK Flexibility Score: inf
ROOT
ATOM      1  C   UNL     1      -3.220  -3.930   0.026  1.00  0.00     0.042 C 
ENDROOT
BRANCH   1   2
ATOM      2  C   UNL     1      -3.037  -2.614   0.791  1.00  0.00     0.117 C 
BRANCH   2   3
ATOM      3  N   UNL     1      -1.837  -1.892   0.411  1.00  0.00    -0.354 N 
ATOM      4  C   UNL     1      -1.589  -0.800  -0.343  1.00  0.00     0.243 C 
ATOM      5  O   UNL     1      -0.452  -0.328  -0.140  1.00  0.00    -0.273 OA
ATOM      6  H   UNL     1      -1.018  -2.288   0.788  1.00  0.00     0.163 HD
BRANCH   4   7
ATOM      7  C   UNL     1      -2.392  -0.200  -1.550  1.00  0.00     0.181 C 
BRANCH   7   8
ATOM      8  C   UNL     1      -1.608  -0.606  -2.848  1.00  0.00     0.038 C 
BRANCH   8   9
ATOM      9  C   UNL     1      -1.652   0.439  -3.991  1.00  0.00    -0.015 C 
ATOM     10  C   UNL     1      -0.877   1.716  -3.655  1.00  0.00     0.007 C 
ATOM     11  C   UNL     1      -1.084  -0.157  -5.282  1.00  0.00     0.007 C 
ENDBRANCH   8   9
ENDBRANCH   7   8
BRANCH   7  12
ATOM     12  N   UNL     1      -3.845  -0.183  -1.861  1.00  0.00    -0.280 N 
ATOM     13  C   UNL     1      -4.523  -1.336  -2.114  1.00  0.00     0.267 C 
ATOM     14  C   UNL     1      -4.575   0.931  -2.226  1.00  0.00     0.149 C 
ATOM     15  O   UNL     1      -4.671  -2.238  -1.309  1.00  0.00    -0.268 OA
ATOM     16  C   UNL     1      -5.474  -1.199  -3.231  1.00  0.00     0.093 C 
ATOM     17  S   UNL     1      -5.917   0.453  -3.301  1.00  0.00    -0.053 SA
ATOM     18  S   UNL     1      -4.312   2.528  -1.819  1.00  0.00    -0.052 S 
ATOM     19  C   UNL     1      -5.954  -2.285  -3.851  1.00  0.00     0.069 C 
ATOM     20  C   UNL     1      -5.358  -3.661  -3.629  1.00  0.00     0.257 C 
ATOM     21  C   UNL     1      -7.136  -2.486  -4.694  1.00  0.00     0.013 A 
ATOM     22  O   UNL     1      -4.228  -3.936  -3.258  1.00  0.00    -0.269 OA
ATOM     23  N   UNL     1      -6.315  -4.545  -4.074  1.00  0.00    -0.321 N 
ATOM     24  C   UNL     1      -7.348  -3.875  -4.719  1.00  0.00     0.049 A 
ATOM     25  C   UNL     1      -7.981  -1.646  -5.392  1.00  0.00     0.026 A 
ATOM     26  H   UNL     1      -6.274  -5.521  -3.952  1.00  0.00     0.170 HD
ATOM     27  C   UNL     1      -8.413  -4.464  -5.366  1.00  0.00     0.028 A 
ATOM     28  C   UNL     1      -9.052  -2.230  -6.080  1.00  0.00     0.018 A 
ATOM     29  C   UNL     1      -9.281  -3.618  -6.056  1.00  0.00     0.018 A 
ATOM     30  Br  UNL     1     -10.214  -1.121  -7.083  1.00  0.00    -0.051 Br
ENDBRANCH   7  12
ENDBRANCH   4   7
ENDBRANCH   2   3
ENDBRANCH   1   2
BRANCH   1  31
ATOM     31  C   UNL     1      -2.681  -5.170   0.724  1.00  0.00     0.118 C 
BRANCH  31  32
ATOM     32  N   UNL     1      -3.502  -5.532   1.875  1.00  0.00    -0.352 N 
ATOM     33  C   UNL     1      -4.460  -6.504   2.039  1.00  0.00     0.251 C 
ATOM     34  H   UNL     1      -3.341  -4.984   2.677  1.00  0.00     0.163 HD
ATOM     35  O   UNL     1      -5.229  -6.406   2.995  1.00  0.00    -0.269 OA
BRANCH  33  36
ATOM     36  C   UNL     1      -4.590  -7.663   1.119  1.00  0.00     0.039 A 
ATOM     37  C   UNL     1      -5.854  -8.242   0.942  1.00  0.00     0.014 A 
ATOM     38  C   UNL     1      -3.482  -8.261   0.516  1.00  0.00     0.014 A 
ATOM     39  C   UNL     1      -6.008  -9.381   0.141  1.00  0.00     0.010 A 
ATOM     40  C   UNL     1      -3.646  -9.347  -0.347  1.00  0.00     0.010 A 
ATOM     41  C   UNL     1      -4.907  -9.931  -0.531  1.00  0.00    -0.014 A 
BRANCH  41  42
ATOM     42  C   UNL     1      -5.044 -11.129  -1.404  1.00  0.00     0.031 A 
ATOM     43  C   UNL     1      -4.324 -12.408  -1.056  1.00  0.00     0.074 A 
ATOM     44  C   UNL     1      -5.760 -11.050  -2.543  1.00  0.00     0.049 A 
ATOM     45  N   UNL     1      -4.230 -13.518  -1.743  1.00  0.00    -0.248 NA
ATOM     46  C   UNL     1      -3.590 -12.431   0.220  1.00  0.00     0.031 C 
ATOM     47  C   UNL     1      -6.470  -9.860  -3.017  1.00  0.00     0.029 A 
ATOM     48  N   UNL     1      -5.998 -11.986  -3.519  1.00  0.00    -0.354 N 
ATOM     49  C   UNL     1      -3.410 -14.359  -0.998  1.00  0.00     0.074 A 
ATOM     50  C   UNL     1      -2.999 -13.617   0.174  1.00  0.00     0.031 C 
ATOM     51  C   UNL     1      -7.073 -10.141  -4.183  1.00  0.00     0.029 A 
ATOM     52  C   UNL     1      -6.765 -11.518  -4.559  1.00  0.00     0.049 A 
ATOM     53  H   UNL     1      -5.652 -12.907  -3.478  1.00  0.00     0.167 HD
ATOM     54  C   UNL     1      -3.048 -15.640  -1.255  1.00  0.00     0.037 A 
ATOM     55  C   UNL     1      -7.168 -12.123  -5.693  1.00  0.00     0.037 A 
ATOM     56  C   UNL     1      -3.493 -16.391  -2.400  1.00  0.00     0.049 A 
ATOM     57  C   UNL     1      -6.778 -13.555  -5.942  1.00  0.00     0.074 A 
ATOM     58  C   UNL     1      -3.228 -17.712  -2.720  1.00  0.00     0.029 A 
ATOM     59  N   UNL     1      -4.306 -15.892  -3.407  1.00  0.00    -0.354 N 
ATOM     60  N   UNL     1      -6.036 -14.345  -5.205  1.00  0.00    -0.248 NA
ATOM     61  C   UNL     1      -7.286 -14.178  -7.172  1.00  0.00     0.031 C 
ATOM     62  C   UNL     1      -3.860 -18.004  -3.934  1.00  0.00     0.029 A 
ATOM     63  C   UNL     1      -4.546 -16.876  -4.352  1.00  0.00     0.049 A 
ATOM     64  H   UNL     1      -4.659 -14.974  -3.445  1.00  0.00     0.167 HD
ATOM     65  C   UNL     1      -6.004 -15.565  -5.870  1.00  0.00     0.074 A 
ATOM     66  C   UNL     1      -6.814 -15.413  -7.062  1.00  0.00     0.031 C 
ATOM     67  C   UNL     1      -5.361 -16.708  -5.528  1.00  0.00     0.037 A 
BRANCH  54  68
ATOM     68  C   UNL     1      -2.136 -16.319  -0.271  1.00  0.00     0.058 A 
ATOM     69  C   UNL     1      -2.591 -16.723   0.994  1.00  0.00     0.135 A 
ATOM     70  C   UNL     1      -0.805 -16.611  -0.611  1.00  0.00     0.135 A 
ATOM     71  F   UNL     1      -3.850 -16.456   1.375  1.00  0.00    -0.206 F 
ATOM     72  C   UNL     1      -1.754 -17.370   1.897  1.00  0.00     0.059 A 
ATOM     73  C   UNL     1       0.044 -17.279   0.267  1.00  0.00     0.059 A 
ATOM     74  F   UNL     1      -0.318 -16.248  -1.808  1.00  0.00    -0.206 F 
ATOM     75  C   UNL     1      -0.436 -17.643   1.525  1.00  0.00     0.060 A 
BRANCH  75  76
ATOM     76  S   UNL     1       0.635 -18.495   2.702  1.00  0.00     0.124 S 
ATOM     77  O   UNL     1       0.935 -17.425   3.648  1.00  0.00    -0.237 OA
ATOM     78  O   UNL     1      -0.231 -19.558   3.203  1.00  0.00    -0.237 OA
ATOM     79  O   UNL     1       1.756 -18.939   1.881  1.00  0.00    -0.744 OA
ENDBRANCH  75  76
ENDBRANCH  54  68
BRANCH  55  80
ATOM     80  C   UNL     1      -8.003 -11.382  -6.674  1.00  0.00     0.058 A 
ATOM     81  C   UNL     1      -9.364 -11.682  -6.833  1.00  0.00     0.135 A 
ATOM     82  C   UNL     1      -7.462 -10.354  -7.460  1.00  0.00     0.135 A 
ATOM     83  F   UNL     1      -9.923 -12.661  -6.107  1.00  0.00    -0.206 F 
ATOM     84  C   UNL     1     -10.158 -10.998  -7.747  1.00  0.00     0.059 A 
ATOM     85  C   UNL     1      -8.241  -9.641  -8.366  1.00  0.00     0.059 A 
ATOM     86  F   UNL     1      -6.170 -10.014  -7.329  1.00  0.00    -0.206 F 
ATOM     87  C   UNL     1      -9.587  -9.976  -8.508  1.00  0.00     0.060 A 
BRANCH  87  88
ATOM     88  S   UNL     1     -10.637  -9.044  -9.644  1.00  0.00     0.124 S 
ATOM     89  O   UNL     1     -10.746  -9.967 -10.767  1.00  0.00    -0.237 OA
ATOM     90  O   UNL     1     -11.849  -8.849  -8.854  1.00  0.00    -0.237 OA
ATOM     91  O   UNL     1      -9.862  -7.832  -9.889  1.00  0.00    -0.744 OA
ENDBRANCH  87  88
ENDBRANCH  55  80
BRANCH  67  92
ATOM     92  C   UNL     1      -5.530 -17.890  -6.438  1.00  0.00     0.058 A 
ATOM     93  C   UNL     1      -4.871 -17.964  -7.675  1.00  0.00     0.135 A 
ATOM     94  C   UNL     1      -6.329 -18.978  -6.051  1.00  0.00     0.135 A 
ATOM     95  F   UNL     1      -4.102 -16.946  -8.092  1.00  0.00    -0.206 F 
ATOM     96  C   UNL     1      -5.017 -19.067  -8.509  1.00  0.00     0.059 A 
ATOM     97  C   UNL     1      -6.471 -20.101  -6.859  1.00  0.00     0.059 A 
ATOM     98  F   UNL     1      -6.972 -18.959  -4.873  1.00  0.00    -0.206 F 
ATOM     99  C   UNL     1      -5.821 -20.131  -8.093  1.00  0.00     0.060 A 
BRANCH  99 100
ATOM    100  S   UNL     1      -5.984 -21.569  -9.171  1.00  0.00     0.124 S 
ATOM    101  O   UNL     1      -6.923 -21.078 -10.174  1.00  0.00    -0.237 OA
ATOM    102  O   UNL     1      -4.614 -21.775  -9.633  1.00  0.00    -0.237 OA
ATOM    103  O   UNL     1      -6.499 -22.604  -8.279  1.00  0.00    -0.744 OA
ENDBRANCH  99 100
ENDBRANCH  67  92
ENDBRANCH  41  42
ENDBRANCH  33  36
ENDBRANCH  31  32
ENDBRANCH   1  31
TORSDOF 16
