REMARK SMILES Cc1nccn1C1(C(=O)NCCCNC(=O)c2ccc(-c3c4nc(c(-c5c(F)cc(S(=O)(=O)[O-])cc5F)c5ccc([nH]5)c(-c5c(F)cc(S(=O)(=O)[O-])cc5F)c5nc(c(-c6c(F)cc(S(=O)(=O)[O-])cc6F)c6ccc3[nH]6)C=C5)C=C4)cc2)CCN(c2nccc3occc23)CC1
REMARK SMILES IDX 13 1 12 2 11 3 10 4 8 5 9 6 7 8 83 9 96 10 84 11 95 12 85 13
REMARK SMILES IDX 6 14 1 15 2 16 3 17 4 18 5 19 86 20 87 21 94 22 88 23 90 24
REMARK SMILES IDX 93 25 89 26 91 27 92 28 14 29 15 30 16 32 17 33 18 34 82 35
REMARK SMILES IDX 19 36 81 37 20 38 21 39 22 40 75 41 23 42 80 43 74 44 76 45
REMARK SMILES IDX 24 46 79 47 73 48 72 49 25 51 59 52 38 53 58 54 39 55 42 56
REMARK SMILES IDX 57 57 77 58 40 59 41 60 56 62 78 63 43 64 26 65 27 66 36 67
REMARK SMILES IDX 28 68 29 69 35 70 37 71 30 72 31 73 32 74 33 75 34 76 60 77
REMARK SMILES IDX 61 78 70 79 62 80 63 81 69 82 71 83 64 84 65 85 66 86 67 87
REMARK SMILES IDX 68 88 44 89 45 90 54 91 46 92 47 93 53 94 55 95 48 96 49 97
REMARK SMILES IDX 50 98 51 99 52 100
REMARK H PARENT 10 7 14 31 76 50 42 61
REMARK Flexibility Score: inf
ROOT
ATOM      1  C   UNL     1      -1.990   6.562   1.987  1.00  0.00     0.118 C 
ENDROOT
BRANCH   1   2
ATOM      2  C   UNL     1      -1.112   5.791   1.012  1.00  0.00     0.042 C 
BRANCH   2   3
ATOM      3  C   UNL     1       0.092   5.118   1.679  1.00  0.00     0.117 C 
BRANCH   3   4
ATOM      4  N   UNL     1      -0.317   4.045   2.572  1.00  0.00    -0.354 N 
ATOM      5  C   UNL     1      -0.488   2.709   2.364  1.00  0.00     0.246 C 
ATOM      6  O   UNL     1      -1.383   2.223   3.065  1.00  0.00    -0.272 OA
ATOM      7  H   UNL     1      -0.503   4.336   3.494  1.00  0.00     0.163 HD
BRANCH   5   8
ATOM      8  C   UNL     1       0.306   1.865   1.279  1.00  0.00     0.127 C 
ATOM      9  C   UNL     1      -0.448   2.161  -0.054  1.00  0.00     0.060 C 
ATOM     10  C   UNL     1       1.797   2.260   1.291  1.00  0.00     0.060 C 
ATOM     11  C   UNL     1       0.344   2.548  -1.325  1.00  0.00     0.121 C 
ATOM     12  C   UNL     1       2.474   2.132  -0.059  1.00  0.00     0.121 C 
ATOM     13  N   UNL     1       1.745   2.842  -1.090  1.00  0.00    -0.356 N 
BRANCH   8  14
ATOM     14  N   UNL     1       0.264   0.407   1.673  1.00  0.00    -0.320 N 
ATOM     15  C   UNL     1       0.813  -0.861  -0.512  1.00  0.00     0.087 C 
ATOM     16  C   UNL     1       0.460  -0.747   0.920  1.00  0.00     0.106 A 
ATOM     17  N   UNL     1       0.359  -1.829   1.670  1.00  0.00    -0.242 NA
ATOM     18  C   UNL     1       0.180  -1.403   2.945  1.00  0.00     0.131 A 
ATOM     19  C   UNL     1       0.213  -0.037   2.988  1.00  0.00     0.108 A 
ENDBRANCH   8  14
BRANCH  13  20
ATOM     20  C   UNL     1       2.499   3.696  -1.887  1.00  0.00     0.139 A 
ATOM     21  N   UNL     1       3.455   4.410  -1.229  1.00  0.00    -0.238 NA
ATOM     22  C   UNL     1       2.148   4.288  -3.121  1.00  0.00     0.063 A 
ATOM     23  C   UNL     1       3.347   5.750  -1.263  1.00  0.00     0.117 A 
ATOM     24  C   UNL     1       2.075   5.676  -3.102  1.00  0.00     0.139 A 
ATOM     25  C   UNL     1       2.219   3.949  -4.505  1.00  0.00     0.054 A 
ATOM     26  C   UNL     1       2.369   6.417  -1.976  1.00  0.00     0.068 A 
ATOM     27  O   UNL     1       1.839   6.167  -4.350  1.00  0.00    -0.464 OA
ATOM     28  C   UNL     1       2.052   5.128  -5.207  1.00  0.00     0.196 A 
ENDBRANCH  13  20
ENDBRANCH   5   8
ENDBRANCH   3   4
ENDBRANCH   2   3
ENDBRANCH   1   2
BRANCH   1  29
ATOM     29  N   UNL     1      -1.391   7.813   2.433  1.00  0.00    -0.352 N 
ATOM     30  C   UNL     1      -2.006   8.876   3.076  1.00  0.00     0.251 C 
ATOM     31  H   UNL     1      -0.428   7.916   2.255  1.00  0.00     0.163 HD
ATOM     32  O   UNL     1      -1.466   9.960   3.112  1.00  0.00    -0.269 OA
BRANCH  30  33
ATOM     33  C   UNL     1      -3.334   8.666   3.702  1.00  0.00     0.039 A 
ATOM     34  C   UNL     1      -4.300   9.675   3.653  1.00  0.00     0.014 A 
ATOM     35  C   UNL     1      -3.612   7.457   4.338  1.00  0.00     0.014 A 
ATOM     36  C   UNL     1      -5.566   9.425   4.181  1.00  0.00     0.010 A 
ATOM     37  C   UNL     1      -4.894   7.165   4.745  1.00  0.00     0.010 A 
ATOM     38  C   UNL     1      -5.866   8.157   4.706  1.00  0.00    -0.014 A 
BRANCH  38  39
ATOM     39  C   UNL     1      -7.244   7.813   5.056  1.00  0.00     0.031 A 
ATOM     40  C   UNL     1      -8.205   8.041   3.943  1.00  0.00     0.074 A 
ATOM     41  C   UNL     1      -7.599   7.145   6.176  1.00  0.00     0.049 A 
ATOM     42  N   UNL     1      -9.097   8.970   3.851  1.00  0.00    -0.248 NA
ATOM     43  C   UNL     1      -8.030   7.267   2.701  1.00  0.00     0.031 C 
ATOM     44  C   UNL     1      -6.706   6.578   7.195  1.00  0.00     0.029 A 
ATOM     45  N   UNL     1      -8.829   6.729   6.596  1.00  0.00    -0.354 N 
ATOM     46  C   UNL     1      -9.782   8.712   2.666  1.00  0.00     0.074 A 
ATOM     47  C   UNL     1      -8.939   7.833   1.904  1.00  0.00     0.031 C 
ATOM     48  C   UNL     1      -7.391   5.707   7.967  1.00  0.00     0.029 A 
ATOM     49  C   UNL     1      -8.797   5.783   7.620  1.00  0.00     0.049 A 
ATOM     50  H   UNL     1      -9.668   7.068   6.209  1.00  0.00     0.167 HD
ATOM     51  C   UNL     1     -11.114   8.981   2.568  1.00  0.00     0.037 A 
ATOM     52  C   UNL     1      -9.848   5.104   8.146  1.00  0.00     0.037 A 
ATOM     53  C   UNL     1     -11.539   9.816   3.666  1.00  0.00     0.049 A 
ATOM     54  C   UNL     1     -11.063   5.900   7.855  1.00  0.00     0.074 A 
ATOM     55  C   UNL     1     -11.302  11.106   4.089  1.00  0.00     0.029 A 
ATOM     56  N   UNL     1     -12.038   9.121   4.738  1.00  0.00    -0.354 N 
ATOM     57  N   UNL     1     -11.291   7.080   8.363  1.00  0.00    -0.248 NA
ATOM     58  C   UNL     1     -11.887   5.548   6.706  1.00  0.00     0.031 C 
ATOM     59  C   UNL     1     -11.422  11.077   5.511  1.00  0.00     0.029 A 
ATOM     60  C   UNL     1     -11.783   9.788   5.905  1.00  0.00     0.049 A 
ATOM     61  H   UNL     1     -12.514   8.262   4.676  1.00  0.00     0.167 HD
ATOM     62  C   UNL     1     -11.937   7.769   7.354  1.00  0.00     0.074 A 
ATOM     63  C   UNL     1     -12.434   6.739   6.451  1.00  0.00     0.031 C 
ATOM     64  C   UNL     1     -11.727   9.107   7.184  1.00  0.00     0.037 A 
BRANCH  51  65
ATOM     65  C   UNL     1     -12.123   8.122   1.818  1.00  0.00     0.058 A 
ATOM     66  C   UNL     1     -13.470   8.547   1.761  1.00  0.00     0.135 A 
ATOM     67  C   UNL     1     -11.902   6.781   1.431  1.00  0.00     0.135 A 
ATOM     68  F   UNL     1     -13.806   9.800   2.110  1.00  0.00    -0.206 F 
ATOM     69  C   UNL     1     -14.518   7.688   1.425  1.00  0.00     0.059 A 
ATOM     70  C   UNL     1     -12.926   5.923   1.043  1.00  0.00     0.059 A 
ATOM     71  F   UNL     1     -10.701   6.198   1.497  1.00  0.00    -0.206 F 
ATOM     72  C   UNL     1     -14.235   6.371   1.080  1.00  0.00     0.060 A 
BRANCH  72  73
ATOM     73  S   UNL     1     -15.583   5.234   0.717  1.00  0.00     0.124 S 
ATOM     74  O   UNL     1     -16.193   5.076   2.032  1.00  0.00    -0.237 OA
ATOM     75  O   UNL     1     -16.357   5.988  -0.263  1.00  0.00    -0.237 OA
ATOM     76  O   UNL     1     -14.896   4.058   0.192  1.00  0.00    -0.744 OA
ENDBRANCH  72  73
ENDBRANCH  51  65
BRANCH  52  77
ATOM     77  C   UNL     1      -9.914   3.719   8.683  1.00  0.00     0.058 A 
ATOM     78  C   UNL     1     -11.042   3.268   9.395  1.00  0.00     0.135 A 
ATOM     79  C   UNL     1      -9.017   2.722   8.250  1.00  0.00     0.135 A 
ATOM     80  F   UNL     1     -11.952   4.145   9.845  1.00  0.00    -0.206 F 
ATOM     81  C   UNL     1     -11.307   1.909   9.595  1.00  0.00     0.059 A 
ATOM     82  C   UNL     1      -9.255   1.361   8.446  1.00  0.00     0.059 A 
ATOM     83  F   UNL     1      -7.927   3.038   7.535  1.00  0.00    -0.206 F 
ATOM     84  C   UNL     1     -10.420   0.960   9.090  1.00  0.00     0.060 A 
BRANCH  84  85
ATOM     85  S   UNL     1     -10.864  -0.793   9.155  1.00  0.00     0.124 S 
ATOM     86  O   UNL     1     -10.736  -1.085  10.579  1.00  0.00    -0.237 OA
ATOM     87  O   UNL     1     -12.225  -0.787   8.627  1.00  0.00    -0.237 OA
ATOM     88  O   UNL     1      -9.869  -1.427   8.295  1.00  0.00    -0.744 OA
ENDBRANCH  84  85
ENDBRANCH  52  77
BRANCH  64  89
ATOM     89  C   UNL     1     -11.262   9.896   8.377  1.00  0.00     0.058 A 
ATOM     90  C   UNL     1     -10.024   9.743   9.023  1.00  0.00     0.135 A 
ATOM     91  C   UNL     1     -12.103  10.922   8.835  1.00  0.00     0.135 A 
ATOM     92  F   UNL     1      -9.123   8.848   8.594  1.00  0.00    -0.206 F 
ATOM     93  C   UNL     1      -9.660  10.547  10.107  1.00  0.00     0.059 A 
ATOM     94  C   UNL     1     -11.747  11.756   9.889  1.00  0.00     0.059 A 
ATOM     95  F   UNL     1     -13.279  11.150   8.227  1.00  0.00    -0.206 F 
ATOM     96  C   UNL     1     -10.530  11.551  10.533  1.00  0.00     0.060 A 
BRANCH  96  97
ATOM     97  S   UNL     1     -10.041  12.627  11.897  1.00  0.00     0.124 S 
ATOM     98  O   UNL     1     -10.130  11.729  13.043  1.00  0.00    -0.237 OA
ATOM     99  O   UNL     1      -8.692  13.033  11.513  1.00  0.00    -0.237 OA
ATOM    100  O   UNL     1     -11.036  13.696  11.863  1.00  0.00    -0.744 OA
ENDBRANCH  96  97
ENDBRANCH  64  89
ENDBRANCH  38  39
ENDBRANCH  30  33
ENDBRANCH   1  29
TORSDOF 15
