REMARK SMILES O=C(NCCCNC(=O)c1ccc(-c2c3nc(c(-c4c(F)cc(S(=O)(=O)[O-])cc4F)c4ccc([nH]4)c(-c4c(F)cc(S(=O)(=O)[O-])cc4F)c4nc(c(-c5c(F)cc(S(=O)(=O)[O-])cc5F)c5ccc2[nH]5)C=C4)C=C3)cc1)C1=Cc2cc(Cl)cc(Cl)c2O[C@@H]1C(F)(F)F
REMARK SMILES IDX 6 1 5 2 4 3 3 4 1 5 2 6 76 8 77 9 87 10 78 11 86 12 79 13
REMARK SMILES IDX 85 14 80 15 83 16 81 17 82 18 84 19 88 20 89 21 90 22 91 23
REMARK SMILES IDX 7 24 8 25 9 27 10 28 11 29 75 30 12 31 74 32 13 33 14 34
REMARK SMILES IDX 15 35 68 36 16 37 73 38 67 39 69 40 17 41 72 42 66 43 65 44
REMARK SMILES IDX 18 46 52 47 31 48 51 49 32 50 35 51 50 52 70 53 33 54 34 55
REMARK SMILES IDX 49 57 71 58 36 59 19 60 20 61 29 62 21 63 22 64 28 65 30 66
REMARK SMILES IDX 23 67 24 68 25 69 26 70 27 71 53 72 54 73 63 74 55 75 56 76
REMARK SMILES IDX 62 77 64 78 57 79 58 80 59 81 60 82 61 83 37 84 38 85 47 86
REMARK SMILES IDX 39 87 40 88 46 89 48 90 41 91 42 92 43 93 44 94 45 95
REMARK H PARENT 3 7 7 26 69 45 35 56
REMARK Flexibility Score: inf
ROOT
ATOM      1  C   UNL     1       4.161   1.157   3.985  1.00  0.00     0.118 C 
ENDROOT
BRANCH   1   2
ATOM      2  C   UNL     1       4.163   1.429   2.486  1.00  0.00     0.042 C 
BRANCH   2   3
ATOM      3  C   UNL     1       3.372   0.390   1.702  1.00  0.00     0.118 C 
BRANCH   3   4
ATOM      4  N   UNL     1       2.402   0.982   0.778  1.00  0.00    -0.352 N 
ATOM      5  O   UNL     1       1.266   1.240  -1.167  1.00  0.00    -0.270 OA
ATOM      6  C   UNL     1       2.270   0.858  -0.583  1.00  0.00     0.251 C 
ATOM      7  H   UNL     1       1.733   1.565   1.203  1.00  0.00     0.163 HD
BRANCH   6   8
ATOM      8  C   UNL     1       3.350   0.161  -1.304  1.00  0.00     0.067 C 
ATOM      9  C   UNL     1       4.545   0.758  -1.382  1.00  0.00     0.025 C 
ATOM     10  C   UNL     1       3.157  -1.298  -1.562  1.00  0.00     0.314 C 
ATOM     11  C   UNL     1       5.636  -0.125  -0.943  1.00  0.00     0.020 A 
ATOM     12  O   UNL     1       4.198  -2.105  -0.964  1.00  0.00    -0.474 OA
ATOM     13  C   UNL     1       6.789   0.494  -0.445  1.00  0.00     0.032 A 
ATOM     14  C   UNL     1       5.370  -1.472  -0.619  1.00  0.00     0.146 A 
ATOM     15  C   UNL     1       7.613  -0.193   0.444  1.00  0.00     0.043 A 
ATOM     16  C   UNL     1       6.227  -2.154   0.258  1.00  0.00     0.085 A 
ATOM     17  Cl  UNL     1       8.921   0.636   1.192  1.00  0.00    -0.084 Cl
ATOM     18  C   UNL     1       7.331  -1.506   0.811  1.00  0.00     0.045 A 
ATOM     19  Cl  UNL     1       5.845  -3.743   0.821  1.00  0.00    -0.080 Cl
BRANCH  10  20
ATOM     20  C   UNL     1       3.051  -1.575  -3.070  1.00  0.00     0.429 C 
ATOM     21  F   UNL     1       2.732  -2.871  -3.308  1.00  0.00    -0.167 F 
ATOM     22  F   UNL     1       2.091  -0.823  -3.658  1.00  0.00    -0.167 F 
ATOM     23  F   UNL     1       4.213  -1.324  -3.720  1.00  0.00    -0.167 F 
ENDBRANCH  10  20
ENDBRANCH   6   8
ENDBRANCH   3   4
ENDBRANCH   2   3
ENDBRANCH   1   2
BRANCH   1  24
ATOM     24  N   UNL     1       4.819  -0.083   4.377  1.00  0.00    -0.352 N 
ATOM     25  C   UNL     1       5.673  -0.342   5.434  1.00  0.00     0.251 C 
ATOM     26  H   UNL     1       4.626  -0.857   3.799  1.00  0.00     0.163 HD
ATOM     27  O   UNL     1       6.164  -1.452   5.548  1.00  0.00    -0.269 OA
BRANCH  25  28
ATOM     28  C   UNL     1       6.024   0.736   6.397  1.00  0.00     0.039 A 
ATOM     29  C   UNL     1       7.326   0.800   6.901  1.00  0.00     0.014 A 
ATOM     30  C   UNL     1       5.090   1.694   6.785  1.00  0.00     0.014 A 
ATOM     31  C   UNL     1       7.702   1.868   7.724  1.00  0.00     0.010 A 
ATOM     32  C   UNL     1       5.501   2.825   7.476  1.00  0.00     0.010 A 
ATOM     33  C   UNL     1       6.804   2.916   7.982  1.00  0.00    -0.014 A 
BRANCH  33  34
ATOM     34  C   UNL     1       7.174   4.090   8.817  1.00  0.00     0.031 A 
ATOM     35  C   UNL     1       6.354   4.424  10.041  1.00  0.00     0.074 A 
ATOM     36  C   UNL     1       8.185   4.898   8.438  1.00  0.00     0.049 A 
ATOM     37  N   UNL     1       6.438   5.456  10.840  1.00  0.00    -0.248 NA
ATOM     38  C   UNL     1       5.253   3.504  10.377  1.00  0.00     0.031 C 
ATOM     39  C   UNL     1       8.999   4.735   7.231  1.00  0.00     0.029 A 
ATOM     40  N   UNL     1       8.698   6.025   9.029  1.00  0.00    -0.354 N 
ATOM     41  C   UNL     1       5.384   5.327  11.738  1.00  0.00     0.074 A 
ATOM     42  C   UNL     1       4.625   4.165  11.336  1.00  0.00     0.031 C 
ATOM     43  C   UNL     1       9.935   5.697   7.195  1.00  0.00     0.029 A 
ATOM     44  C   UNL     1       9.769   6.565   8.355  1.00  0.00     0.049 A 
ATOM     45  H   UNL     1       8.334   6.411   9.858  1.00  0.00     0.167 HD
ATOM     46  C   UNL     1       5.095   6.079  12.827  1.00  0.00     0.037 A 
ATOM     47  C   UNL     1      10.534   7.634   8.648  1.00  0.00     0.037 A 
ATOM     48  C   UNL     1       5.899   7.189  13.262  1.00  0.00     0.049 A 
ATOM     49  C   UNL     1      10.248   8.406   9.908  1.00  0.00     0.074 A 
ATOM     50  C   UNL     1       5.751   7.973  14.392  1.00  0.00     0.029 A 
ATOM     51  N   UNL     1       7.020   7.658  12.592  1.00  0.00    -0.354 N 
ATOM     52  N   UNL     1       9.283   8.233  10.780  1.00  0.00    -0.248 NA
ATOM     53  C   UNL     1      11.166   9.505  10.234  1.00  0.00     0.031 C 
ATOM     54  C   UNL     1       6.767   8.935  14.390  1.00  0.00     0.029 A 
ATOM     55  C   UNL     1       7.574   8.722  13.283  1.00  0.00     0.049 A 
ATOM     56  H   UNL     1       7.370   7.288  11.749  1.00  0.00     0.167 HD
ATOM     57  C   UNL     1       9.493   9.182  11.774  1.00  0.00     0.074 A 
ATOM     58  C   UNL     1      10.688   9.914  11.401  1.00  0.00     0.031 C 
ATOM     59  C   UNL     1       8.768   9.428  12.893  1.00  0.00     0.037 A 
BRANCH  46  60
ATOM     60  C   UNL     1       3.877   5.702  13.629  1.00  0.00     0.058 A 
ATOM     61  C   UNL     1       3.815   4.504  14.361  1.00  0.00     0.135 A 
ATOM     62  C   UNL     1       2.756   6.547  13.668  1.00  0.00     0.135 A 
ATOM     63  F   UNL     1       4.849   3.648  14.346  1.00  0.00    -0.206 F 
ATOM     64  C   UNL     1       2.672   4.136  15.063  1.00  0.00     0.059 A 
ATOM     65  C   UNL     1       1.614   6.215  14.393  1.00  0.00     0.059 A 
ATOM     66  F   UNL     1       2.757   7.705  12.989  1.00  0.00    -0.206 F 
ATOM     67  C   UNL     1       1.575   4.997  15.070  1.00  0.00     0.060 A 
BRANCH  67  68
ATOM     68  S   UNL     1       0.096   4.501  15.979  1.00  0.00     0.124 S 
ATOM     69  O   UNL     1      -0.458   3.479  15.096  1.00  0.00    -0.237 OA
ATOM     70  O   UNL     1       0.651   4.015  17.238  1.00  0.00    -0.237 OA
ATOM     71  O   UNL     1      -0.675   5.736  16.072  1.00  0.00    -0.744 OA
ENDBRANCH  67  68
ENDBRANCH  46  60
BRANCH  47  72
ATOM     72  C   UNL     1      11.679   7.995   7.769  1.00  0.00     0.058 A 
ATOM     73  C   UNL     1      13.002   7.782   8.187  1.00  0.00     0.135 A 
ATOM     74  C   UNL     1      11.479   8.536   6.490  1.00  0.00     0.135 A 
ATOM     75  F   UNL     1      13.246   7.268   9.402  1.00  0.00    -0.206 F 
ATOM     76  C   UNL     1      14.086   8.111   7.380  1.00  0.00     0.059 A 
ATOM     77  C   UNL     1      12.547   8.851   5.654  1.00  0.00     0.059 A 
ATOM     78  F   UNL     1      10.234   8.739   6.033  1.00  0.00    -0.206 F 
ATOM     79  C   UNL     1      13.848   8.644   6.112  1.00  0.00     0.060 A 
BRANCH  79  80
ATOM     80  S   UNL     1      15.261   9.021   5.051  1.00  0.00     0.124 S 
ATOM     81  O   UNL     1      15.789  10.225   5.682  1.00  0.00    -0.237 OA
ATOM     82  O   UNL     1      16.076   7.818   5.188  1.00  0.00    -0.237 OA
ATOM     83  O   UNL     1      14.652   9.209   3.738  1.00  0.00    -0.744 OA
ENDBRANCH  79  80
ENDBRANCH  47  72
BRANCH  59  84
ATOM     84  C   UNL     1       9.274  10.505  13.811  1.00  0.00     0.058 A 
ATOM     85  C   UNL     1       9.198  11.864  13.470  1.00  0.00     0.135 A 
ATOM     86  C   UNL     1       9.828  10.168  15.057  1.00  0.00     0.135 A 
ATOM     87  F   UNL     1       8.677  12.236  12.291  1.00  0.00    -0.206 F 
ATOM     88  C   UNL     1       9.695  12.851  14.314  1.00  0.00     0.059 A 
ATOM     89  C   UNL     1      10.305  11.141  15.929  1.00  0.00     0.059 A 
ATOM     90  F   UNL     1       9.909   8.883  15.438  1.00  0.00    -0.206 F 
ATOM     91  C   UNL     1      10.254  12.478  15.538  1.00  0.00     0.060 A 
BRANCH  91  92
ATOM     92  S   UNL     1      10.904  13.766  16.622  1.00  0.00     0.124 S 
ATOM     93  O   UNL     1      12.168  14.088  15.967  1.00  0.00    -0.237 OA
ATOM     94  O   UNL     1       9.870  14.793  16.546  1.00  0.00    -0.237 OA
ATOM     95  O   UNL     1      11.018  13.095  17.914  1.00  0.00    -0.744 OA
ENDBRANCH  91  92
ENDBRANCH  59  84
ENDBRANCH  33  34
ENDBRANCH  25  28
ENDBRANCH   1  24
TORSDOF 14
