REMARK SMILES CC1=C2C(=O)CC(C)(C)CC2=N[C@@H]1C(=O)NCCCNC(=O)c1ccc(-c2c3nc(c(-c4c(F)cc(S(=O)(=O)[O-])cc4F)c4ccc([nH]4)c(-c4c(F)cc(S(=O)(=O)[O-])cc4F)c4nc(c(-c5c(F)cc(S(=O)(=O)[O-])cc5F)c5ccc2[nH]5)C=C4)C=C3)cc1
REMARK SMILES IDX 20 1 21 2 22 3 19 5 18 6 17 7 16 8 14 9 15 10 13 12 1 13
REMARK SMILES IDX 2 14 3 15 4 16 11 17 12 18 5 19 6 20 10 21 7 22 8 23 9 24
REMARK SMILES IDX 23 25 24 26 88 27 25 28 87 29 26 30 27 31 28 32 81 33 29 34
REMARK SMILES IDX 86 35 80 36 82 37 30 38 85 39 79 40 78 41 31 43 65 44 44 45
REMARK SMILES IDX 64 46 45 47 48 48 63 49 83 50 46 51 47 52 62 54 84 55 49 56
REMARK SMILES IDX 32 57 33 58 42 59 34 60 35 61 41 62 43 63 36 64 37 65 38 66
REMARK SMILES IDX 39 67 40 68 66 69 67 70 76 71 68 72 69 73 75 74 77 75 70 76
REMARK SMILES IDX 71 77 72 78 73 79 74 80 50 81 51 82 60 83 52 84 53 85 59 86
REMARK SMILES IDX 61 87 54 88 55 89 56 90 57 91 58 92
REMARK H PARENT 20 4 16 11 82 42 48 53
REMARK Flexibility Score: inf
ROOT
ATOM      1  N   UNL     1       3.837   6.448  -4.077  1.00  0.00    -0.352 N 
ATOM      2  C   UNL     1       5.066   6.912  -4.538  1.00  0.00     0.251 C 
ATOM      3  O   UNL     1       5.261   7.127  -5.716  1.00  0.00    -0.269 OA
ATOM      4  H   UNL     1       3.254   6.023  -4.747  1.00  0.00     0.163 HD
ENDROOT
BRANCH   1   5
ATOM      5  C   UNL     1       3.307   6.518  -2.709  1.00  0.00     0.118 C 
BRANCH   5   6
ATOM      6  C   UNL     1       1.933   5.904  -2.556  1.00  0.00     0.042 C 
BRANCH   6   7
ATOM      7  C   UNL     1       1.942   4.384  -2.686  1.00  0.00     0.117 C 
BRANCH   7   8
ATOM      8  N   UNL     1       2.516   3.689  -1.531  1.00  0.00    -0.354 N 
ATOM      9  C   UNL     1       1.949   2.679  -0.776  1.00  0.00     0.249 C 
ATOM     10  O   UNL     1       2.618   2.146   0.108  1.00  0.00    -0.272 OA
ATOM     11  H   UNL     1       3.417   3.978  -1.258  1.00  0.00     0.163 HD
BRANCH   9  12
ATOM     12  C   UNL     1       0.483   2.267  -1.104  1.00  0.00     0.221 C 
ATOM     13  C   UNL     1       0.074   0.621   0.938  1.00  0.00     0.043 C 
ATOM     14  C   UNL     1      -0.096   1.005  -0.490  1.00  0.00    -0.027 C 
ATOM     15  C   UNL     1      -0.614   0.221  -1.443  1.00  0.00     0.040 C 
ATOM     16  C   UNL     1      -1.286  -1.084  -1.534  1.00  0.00     0.165 C 
ATOM     17  C   UNL     1       0.195   0.694  -2.548  1.00  0.00     0.048 C 
ATOM     18  N   UNL     1       0.539   1.935  -2.566  1.00  0.00    -0.271 NA
ATOM     19  O   UNL     1      -2.371  -1.275  -0.992  1.00  0.00    -0.294 OA
ATOM     20  C   UNL     1      -0.645  -2.109  -2.464  1.00  0.00     0.088 C 
ATOM     21  C   UNL     1       0.797  -0.300  -3.483  1.00  0.00     0.063 C 
ATOM     22  C   UNL     1       0.803  -1.720  -2.852  1.00  0.00    -0.023 C 
ATOM     23  C   UNL     1       1.704  -1.852  -1.593  1.00  0.00     0.012 C 
ATOM     24  C   UNL     1       1.379  -2.672  -3.910  1.00  0.00     0.012 C 
ENDBRANCH   9  12
ENDBRANCH   7   8
ENDBRANCH   6   7
ENDBRANCH   5   6
ENDBRANCH   1   5
BRANCH   2  25
ATOM     25  C   UNL     1       6.128   7.127  -3.534  1.00  0.00     0.039 A 
ATOM     26  C   UNL     1       6.964   8.246  -3.541  1.00  0.00     0.014 A 
ATOM     27  C   UNL     1       6.193   6.197  -2.507  1.00  0.00     0.014 A 
ATOM     28  C   UNL     1       7.798   8.457  -2.443  1.00  0.00     0.010 A 
ATOM     29  C   UNL     1       6.800   6.544  -1.338  1.00  0.00     0.010 A 
ATOM     30  C   UNL     1       7.688   7.608  -1.331  1.00  0.00    -0.014 A 
BRANCH  30  31
ATOM     31  C   UNL     1       8.406   7.843  -0.085  1.00  0.00     0.031 A 
ATOM     32  C   UNL     1       8.154   9.178   0.510  1.00  0.00     0.074 A 
ATOM     33  C   UNL     1       9.002   6.840   0.602  1.00  0.00     0.049 A 
ATOM     34  N   UNL     1       8.942  10.202   0.512  1.00  0.00    -0.248 NA
ATOM     35  C   UNL     1       6.790   9.484   0.977  1.00  0.00     0.031 C 
ATOM     36  C   UNL     1       9.007   5.402   0.288  1.00  0.00     0.029 A 
ATOM     37  N   UNL     1       9.632   6.871   1.805  1.00  0.00    -0.354 N 
ATOM     38  C   UNL     1       8.281  11.171   1.261  1.00  0.00     0.074 A 
ATOM     39  C   UNL     1       6.896  10.787   1.253  1.00  0.00     0.031 C 
ATOM     40  C   UNL     1       9.378   4.696   1.377  1.00  0.00     0.029 A 
ATOM     41  C   UNL     1       9.815   5.624   2.401  1.00  0.00     0.049 A 
ATOM     42  H   UNL     1       9.935   7.709   2.224  1.00  0.00     0.167 HD
ATOM     43  C   UNL     1       8.976  11.991   2.102  1.00  0.00     0.037 A 
ATOM     44  C   UNL     1      10.274   5.378   3.655  1.00  0.00     0.037 A 
ATOM     45  C   UNL     1      10.395  11.920   1.817  1.00  0.00     0.049 A 
ATOM     46  C   UNL     1      10.994   6.604   4.089  1.00  0.00     0.074 A 
ATOM     47  C   UNL     1      11.180  12.104   0.694  1.00  0.00     0.029 A 
ATOM     48  N   UNL     1      11.178  11.221   2.706  1.00  0.00    -0.354 N 
ATOM     49  N   UNL     1      12.091   7.039   3.527  1.00  0.00    -0.248 NA
ATOM     50  C   UNL     1      10.239   7.602   4.830  1.00  0.00     0.031 C 
ATOM     51  C   UNL     1      12.196  11.105   0.784  1.00  0.00     0.029 A 
ATOM     52  C   UNL     1      12.030  10.424   1.991  1.00  0.00     0.049 A 
ATOM     53  H   UNL     1      11.133  11.284   3.688  1.00  0.00     0.167 HD
ATOM     54  C   UNL     1      11.934   8.416   3.462  1.00  0.00     0.074 A 
ATOM     55  C   UNL     1      10.823   8.710   4.367  1.00  0.00     0.031 C 
ATOM     56  C   UNL     1      12.515   9.143   2.461  1.00  0.00     0.037 A 
BRANCH  43  57
ATOM     57  C   UNL     1       8.468  12.486   3.448  1.00  0.00     0.058 A 
ATOM     58  C   UNL     1       9.300  13.348   4.197  1.00  0.00     0.135 A 
ATOM     59  C   UNL     1       7.385  11.931   4.165  1.00  0.00     0.135 A 
ATOM     60  F   UNL     1      10.342  13.967   3.619  1.00  0.00    -0.206 F 
ATOM     61  C   UNL     1       9.155  13.525   5.573  1.00  0.00     0.059 A 
ATOM     62  C   UNL     1       7.191  12.136   5.527  1.00  0.00     0.059 A 
ATOM     63  F   UNL     1       6.500  11.091   3.621  1.00  0.00    -0.206 F 
ATOM     64  C   UNL     1       8.111  12.888   6.233  1.00  0.00     0.060 A 
BRANCH  64  65
ATOM     65  S   UNL     1       7.992  13.005   8.024  1.00  0.00     0.124 S 
ATOM     66  O   UNL     1       9.151  12.222   8.438  1.00  0.00    -0.237 OA
ATOM     67  O   UNL     1       8.081  14.446   8.236  1.00  0.00    -0.237 OA
ATOM     68  O   UNL     1       6.690  12.412   8.311  1.00  0.00    -0.744 OA
ENDBRANCH  64  65
ENDBRANCH  43  57
BRANCH  44  69
ATOM     69  C   UNL     1       9.861   4.306   4.604  1.00  0.00     0.058 A 
ATOM     70  C   UNL     1      10.579   4.070   5.791  1.00  0.00     0.135 A 
ATOM     71  C   UNL     1       8.597   3.688   4.515  1.00  0.00     0.135 A 
ATOM     72  F   UNL     1      11.787   4.627   5.971  1.00  0.00    -0.206 F 
ATOM     73  C   UNL     1      10.051   3.320   6.850  1.00  0.00     0.059 A 
ATOM     74  C   UNL     1       8.055   2.928   5.553  1.00  0.00     0.059 A 
ATOM     75  F   UNL     1       7.805   3.882   3.450  1.00  0.00    -0.206 F 
ATOM     76  C   UNL     1       8.775   2.771   6.730  1.00  0.00     0.060 A 
BRANCH  76  77
ATOM     77  S   UNL     1       8.013   1.960   8.158  1.00  0.00     0.124 S 
ATOM     78  O   UNL     1       8.804   0.740   8.271  1.00  0.00    -0.237 OA
ATOM     79  O   UNL     1       8.209   2.946   9.216  1.00  0.00    -0.237 OA
ATOM     80  O   UNL     1       6.627   1.769   7.740  1.00  0.00    -0.744 OA
ENDBRANCH  76  77
ENDBRANCH  44  69
BRANCH  56  81
ATOM     81  C   UNL     1      13.610   8.498   1.649  1.00  0.00     0.058 A 
ATOM     82  C   UNL     1      13.443   7.383   0.808  1.00  0.00     0.135 A 
ATOM     83  C   UNL     1      14.858   9.137   1.620  1.00  0.00     0.135 A 
ATOM     84  F   UNL     1      12.255   6.773   0.695  1.00  0.00    -0.206 F 
ATOM     85  C   UNL     1      14.483   6.903   0.008  1.00  0.00     0.059 A 
ATOM     86  C   UNL     1      15.898   8.696   0.808  1.00  0.00     0.059 A 
ATOM     87  F   UNL     1      15.063  10.243   2.354  1.00  0.00    -0.206 F 
ATOM     88  C   UNL     1      15.709   7.568   0.015  1.00  0.00     0.060 A 
BRANCH  88  89
ATOM     89  S   UNL     1      17.036   6.988  -1.064  1.00  0.00     0.124 S 
ATOM     90  O   UNL     1      17.420   5.731  -0.430  1.00  0.00    -0.237 OA
ATOM     91  O   UNL     1      16.366   6.868  -2.356  1.00  0.00    -0.237 OA
ATOM     92  O   UNL     1      18.032   8.055  -0.986  1.00  0.00    -0.744 OA
ENDBRANCH  88  89
ENDBRANCH  56  81
ENDBRANCH  30  31
ENDBRANCH   2  25
TORSDOF 13
