REMARK SMILES O=C(NCCCNC(=O)c1c(C(=O)N2CCc3ccccc32)cccc1[N+](=O)[O-])c1ccc(-c2c3nc(c(-c4c(F)cc(S(=O)(=O)[O-])cc4F)c4ccc([nH]4)c(-c4c(F)cc(S(=O)(=O)[O-])cc4F)c4nc(c(-c5c(F)cc(S(=O)(=O)[O-])cc5F)c5ccc2[nH]5)C=C4)C=C3)cc1
REMARK SMILES IDX 4 1 3 2 1 3 2 4 30 6 31 7 95 8 32 9 94 10 33 11 34 12 35 13
REMARK SMILES IDX 88 14 36 15 93 16 87 17 89 18 37 19 92 20 86 21 85 22 38 24
REMARK SMILES IDX 72 25 51 26 71 27 52 28 55 29 70 30 90 31 53 32 54 33 69 35
REMARK SMILES IDX 91 36 56 37 39 38 40 39 49 40 41 41 42 42 48 43 50 44 43 45
REMARK SMILES IDX 44 46 45 47 46 48 47 49 73 50 74 51 83 52 75 53 76 54 82 55
REMARK SMILES IDX 84 56 77 57 78 58 79 59 80 60 81 61 57 62 58 63 67 64 59 65
REMARK SMILES IDX 60 66 66 67 68 68 61 69 62 70 63 71 64 72 65 73 5 74 6 75
REMARK SMILES IDX 7 76 8 77 9 79 10 80 11 81 26 82 23 83 25 84 24 85 12 86
REMARK SMILES IDX 13 87 14 88 15 89 22 90 16 91 17 92 21 93 18 94 20 95 19 96
REMARK SMILES IDX 27 97 28 98 29 99
REMARK H PARENT 3 5 89 23 55 34 7 78
REMARK Flexibility Score: inf
ROOT
ATOM      1  C   UNL     1       4.701   0.821  -1.198  1.00  0.00     0.118 C 
ENDROOT
BRANCH   1   2
ATOM      2  N   UNL     1       3.262   0.690  -0.996  1.00  0.00    -0.352 N 
ATOM      3  O   UNL     1       1.322  -0.003  -0.088  1.00  0.00    -0.269 OA
ATOM      4  C   UNL     1       2.544   0.068   0.004  1.00  0.00     0.251 C 
ATOM      5  H   UNL     1       2.711   1.118  -1.690  1.00  0.00     0.163 HD
BRANCH   4   6
ATOM      6  C   UNL     1       3.233  -0.547   1.163  1.00  0.00     0.039 A 
ATOM      7  C   UNL     1       4.327   0.076   1.757  1.00  0.00     0.014 A 
ATOM      8  C   UNL     1       2.781  -1.772   1.668  1.00  0.00     0.014 A 
ATOM      9  C   UNL     1       5.097  -0.615   2.681  1.00  0.00     0.010 A 
ATOM     10  C   UNL     1       3.482  -2.408   2.702  1.00  0.00     0.010 A 
ATOM     11  C   UNL     1       4.678  -1.859   3.184  1.00  0.00    -0.014 A 
BRANCH  11  12
ATOM     12  C   UNL     1       5.497  -2.502   4.249  1.00  0.00     0.031 A 
ATOM     13  C   UNL     1       6.146  -3.846   4.046  1.00  0.00     0.074 A 
ATOM     14  C   UNL     1       5.723  -1.808   5.384  1.00  0.00     0.049 A 
ATOM     15  N   UNL     1       6.960  -4.492   4.844  1.00  0.00    -0.248 NA
ATOM     16  C   UNL     1       5.843  -4.564   2.799  1.00  0.00     0.031 C 
ATOM     17  C   UNL     1       5.123  -0.509   5.708  1.00  0.00     0.029 A 
ATOM     18  N   UNL     1       6.544  -2.065   6.451  1.00  0.00    -0.354 N 
ATOM     19  C   UNL     1       7.255  -5.692   4.207  1.00  0.00     0.074 A 
ATOM     20  C   UNL     1       6.509  -5.700   2.967  1.00  0.00     0.031 C 
ATOM     21  C   UNL     1       5.653  -0.049   6.849  1.00  0.00     0.029 A 
ATOM     22  C   UNL     1       6.571  -1.049   7.378  1.00  0.00     0.049 A 
ATOM     23  H   UNL     1       7.063  -2.896   6.545  1.00  0.00     0.167 HD
ATOM     24  C   UNL     1       8.080  -6.688   4.614  1.00  0.00     0.037 A 
ATOM     25  C   UNL     1       7.248  -0.933   8.535  1.00  0.00     0.037 A 
ATOM     26  C   UNL     1       8.828  -6.668   5.846  1.00  0.00     0.049 A 
ATOM     27  C   UNL     1       8.165  -2.044   8.953  1.00  0.00     0.074 A 
ATOM     28  C   UNL     1       9.689  -7.630   6.348  1.00  0.00     0.029 A 
ATOM     29  N   UNL     1       8.813  -5.631   6.768  1.00  0.00    -0.354 N 
ATOM     30  N   UNL     1       8.431  -3.167   8.330  1.00  0.00    -0.248 NA
ATOM     31  C   UNL     1       8.870  -1.877  10.229  1.00  0.00     0.031 C 
ATOM     32  C   UNL     1      10.170  -7.188   7.586  1.00  0.00     0.029 A 
ATOM     33  C   UNL     1       9.643  -5.932   7.837  1.00  0.00     0.049 A 
ATOM     34  H   UNL     1       8.289  -4.802   6.677  1.00  0.00     0.167 HD
ATOM     35  C   UNL     1       9.332  -3.844   9.141  1.00  0.00     0.074 A 
ATOM     36  C   UNL     1       9.595  -2.986  10.280  1.00  0.00     0.031 C 
ATOM     37  C   UNL     1       9.883  -5.070   8.966  1.00  0.00     0.037 A 
BRANCH  24  38
ATOM     38  C   UNL     1       8.220  -7.892   3.721  1.00  0.00     0.058 A 
ATOM     39  C   UNL     1       8.945  -7.835   2.520  1.00  0.00     0.135 A 
ATOM     40  C   UNL     1       7.676  -9.132   4.097  1.00  0.00     0.135 A 
ATOM     41  F   UNL     1       9.474  -6.673   2.104  1.00  0.00    -0.206 F 
ATOM     42  C   UNL     1       9.111  -8.959   1.716  1.00  0.00     0.059 A 
ATOM     43  C   UNL     1       7.849 -10.274   3.319  1.00  0.00     0.059 A 
ATOM     44  F   UNL     1       6.974  -9.244   5.236  1.00  0.00    -0.206 F 
ATOM     45  C   UNL     1       8.560 -10.175   2.124  1.00  0.00     0.060 A 
BRANCH  45  46
ATOM     46  S   UNL     1       8.798 -11.625   1.075  1.00  0.00     0.124 S 
ATOM     47  O   UNL     1       7.895 -11.332  -0.035  1.00  0.00    -0.237 OA
ATOM     48  O   UNL     1      10.222 -11.557   0.765  1.00  0.00    -0.237 OA
ATOM     49  O   UNL     1       8.398 -12.736   1.932  1.00  0.00    -0.744 OA
ENDBRANCH  45  46
ENDBRANCH  24  38
BRANCH  25  50
ATOM     50  C   UNL     1       7.058   0.273   9.383  1.00  0.00     0.058 A 
ATOM     51  C   UNL     1       8.081   1.216   9.551  1.00  0.00     0.135 A 
ATOM     52  C   UNL     1       5.831   0.514  10.022  1.00  0.00     0.135 A 
ATOM     53  F   UNL     1       9.271   1.029   8.962  1.00  0.00    -0.206 F 
ATOM     54  C   UNL     1       7.901   2.350  10.337  1.00  0.00     0.059 A 
ATOM     55  C   UNL     1       5.617   1.655  10.787  1.00  0.00     0.059 A 
ATOM     56  F   UNL     1       4.814  -0.348   9.873  1.00  0.00    -0.206 F 
ATOM     57  C   UNL     1       6.664   2.560  10.950  1.00  0.00     0.060 A 
BRANCH  57  58
ATOM     58  S   UNL     1       6.417   4.056  11.931  1.00  0.00     0.124 S 
ATOM     59  O   UNL     1       7.096   3.705  13.172  1.00  0.00    -0.237 OA
ATOM     60  O   UNL     1       7.067   5.074  11.112  1.00  0.00    -0.237 OA
ATOM     61  O   UNL     1       4.963   4.163  12.013  1.00  0.00    -0.744 OA
ENDBRANCH  57  58
ENDBRANCH  25  50
BRANCH  37  62
ATOM     62  C   UNL     1      10.829  -5.543  10.033  1.00  0.00     0.058 A 
ATOM     63  C   UNL     1      10.367  -5.949  11.294  1.00  0.00     0.135 A 
ATOM     64  C   UNL     1      12.211  -5.593   9.790  1.00  0.00     0.135 A 
ATOM     65  F   UNL     1       9.055  -5.911  11.577  1.00  0.00    -0.206 F 
ATOM     66  C   UNL     1      11.245  -6.354  12.293  1.00  0.00     0.059 A 
ATOM     67  C   UNL     1      13.105  -6.019  10.766  1.00  0.00     0.059 A 
ATOM     68  F   UNL     1      12.702  -5.224   8.597  1.00  0.00    -0.206 F 
ATOM     69  C   UNL     1      12.614  -6.379  12.021  1.00  0.00     0.060 A 
BRANCH  69  70
ATOM     70  S   UNL     1      13.748  -6.905  13.323  1.00  0.00     0.124 S 
ATOM     71  O   UNL     1      13.792  -5.718  14.170  1.00  0.00    -0.237 OA
ATOM     72  O   UNL     1      13.062  -8.063  13.889  1.00  0.00    -0.237 OA
ATOM     73  O   UNL     1      14.979  -7.207  12.599  1.00  0.00    -0.744 OA
ENDBRANCH  69  70
ENDBRANCH  37  62
ENDBRANCH  11  12
ENDBRANCH   4   6
ENDBRANCH   1   2
BRANCH   1  74
ATOM     74  C   UNL     1       5.223   0.085  -2.420  1.00  0.00     0.042 C 
BRANCH  74  75
ATOM     75  C   UNL     1       4.766   0.653  -3.751  1.00  0.00     0.118 C 
BRANCH  75  76
ATOM     76  N   UNL     1       5.181   2.033  -3.985  1.00  0.00    -0.352 N 
ATOM     77  C   UNL     1       5.833   2.627  -5.045  1.00  0.00     0.259 C 
ATOM     78  H   UNL     1       4.954   2.652  -3.254  1.00  0.00     0.163 HD
ATOM     79  O   UNL     1       6.059   3.825  -5.014  1.00  0.00    -0.269 OA
BRANCH  77  80
ATOM     80  C   UNL     1       6.298   1.806  -6.182  1.00  0.00     0.130 A 
ATOM     81  C   UNL     1       7.652   1.801  -6.555  1.00  0.00     0.060 A 
ATOM     82  C   UNL     1       5.419   0.970  -6.882  1.00  0.00     0.282 A 
ATOM     83  C   UNL     1       8.107   0.864  -7.499  1.00  0.00     0.015 A 
ATOM     84  C   UNL     1       5.880  -0.002  -7.780  1.00  0.00     0.086 A 
ATOM     85  C   UNL     1       7.239  -0.073  -8.060  1.00  0.00     0.008 A 
BRANCH  81  86
ATOM     86  C   UNL     1       8.609   2.837  -6.078  1.00  0.00     0.259 C 
ATOM     87  O   UNL     1       8.694   3.892  -6.696  1.00  0.00    -0.269 OA
BRANCH  86  88
ATOM     88  N   UNL     1       9.345   2.513  -4.966  1.00  0.00    -0.308 N 
ATOM     89  C   UNL     1       9.053   2.986  -3.611  1.00  0.00     0.131 C 
ATOM     90  C   UNL     1      10.355   1.551  -4.905  1.00  0.00     0.047 A 
ATOM     91  C   UNL     1       9.721   1.983  -2.651  1.00  0.00     0.059 C 
ATOM     92  C   UNL     1      10.542   1.150  -3.587  1.00  0.00    -0.022 A 
ATOM     93  C   UNL     1      11.095   1.015  -5.942  1.00  0.00     0.026 A 
ATOM     94  C   UNL     1      11.365   0.076  -3.295  1.00  0.00     0.006 A 
ATOM     95  C   UNL     1      11.947  -0.050  -5.657  1.00  0.00     0.002 A 
ATOM     96  C   UNL     1      12.053  -0.540  -4.347  1.00  0.00     0.000 A 
ENDBRANCH  86  88
ENDBRANCH  81  86
BRANCH  82  97
ATOM     97  N   UNL     1       3.979   1.125  -6.743  1.00  0.00     0.063 N 
ATOM     98  O   UNL     1       3.313   0.088  -6.617  1.00  0.00    -0.258 OA
ATOM     99  O   UNL     1       3.517   2.270  -6.792  1.00  0.00    -0.258 OA
ENDBRANCH  82  97
ENDBRANCH  77  80
ENDBRANCH  75  76
ENDBRANCH  74  75
ENDBRANCH   1  74
TORSDOF 16
