REMARK SMILES C[C@@H](CC(=O)NCCCNC(=O)c1ccc(-c2c3nc(c(-c4c(F)cc(S(=O)(=O)[O-])cc4F)c4ccc([nH]4)c(-c4c(F)cc(S(=O)(=O)[O-])cc4F)c4nc(c(-c5c(F)cc(S(=O)(=O)[O-])cc5F)c5ccc2[nH]5)C=C4)C=C3)cc1)CC(=O)N1C[C@H](C)[C@@H](C)C1
REMARK SMILES IDX 8 1 7 2 6 3 4 4 5 5 3 7 2 8 1 9 79 10 80 11 81 12 82 13
REMARK SMILES IDX 83 14 88 15 84 16 86 17 85 18 87 19 9 20 10 21 11 22 12 24
REMARK SMILES IDX 13 25 14 26 78 27 15 28 77 29 16 30 17 31 18 32 71 33 19 34
REMARK SMILES IDX 76 35 70 36 72 37 20 38 75 39 69 40 68 41 21 43 55 44 34 45
REMARK SMILES IDX 54 46 35 47 38 48 53 49 73 50 36 51 37 52 52 54 74 55 39 56
REMARK SMILES IDX 22 57 23 58 32 59 24 60 25 61 31 62 33 63 26 64 27 65 28 66
REMARK SMILES IDX 29 67 30 68 56 69 57 70 66 71 58 72 59 73 65 74 67 75 60 76
REMARK SMILES IDX 61 77 62 78 63 79 64 80 40 81 41 82 50 83 42 84 43 85 49 86
REMARK SMILES IDX 51 87 44 88 45 89 46 90 47 91 48 92
REMARK H PARENT 6 6 10 23 72 42 38 53
REMARK Flexibility Score: inf
ROOT
ATOM      1  C   UNL     1       1.311   1.810   1.721  1.00  0.00     0.042 C 
ENDROOT
BRANCH   1   2
ATOM      2  C   UNL     1       1.841   0.580   2.456  1.00  0.00     0.117 C 
BRANCH   2   3
ATOM      3  N   UNL     1       0.770  -0.250   2.980  1.00  0.00    -0.356 N 
ATOM      4  C   UNL     1       0.277  -1.444   2.550  1.00  0.00     0.220 C 
ATOM      5  O   UNL     1      -0.664  -1.937   3.174  1.00  0.00    -0.275 OA
ATOM      6  H   UNL     1       0.327   0.111   3.781  1.00  0.00     0.163 HD
BRANCH   4   7
ATOM      7  C   UNL     1       0.869  -2.160   1.346  1.00  0.00     0.103 C 
BRANCH   7   8
ATOM      8  C   UNL     1       0.410  -1.708  -0.065  1.00  0.00     0.004 C 
ATOM      9  C   UNL     1       1.581  -1.075  -0.815  1.00  0.00     0.009 C 
BRANCH   8  10
ATOM     10  C   UNL     1      -0.870  -0.863  -0.037  1.00  0.00     0.104 C 
BRANCH  10  11
ATOM     11  C   UNL     1      -1.429  -0.359  -1.359  1.00  0.00     0.222 C 
ATOM     12  O   UNL     1      -2.104  -1.081  -2.088  1.00  0.00    -0.275 OA
ATOM     13  N   UNL     1      -1.261   1.000  -1.570  1.00  0.00    -0.342 N 
ATOM     14  C   UNL     1      -2.353   1.823  -2.067  1.00  0.00     0.123 C 
ATOM     15  C   UNL     1       0.020   1.555  -1.970  1.00  0.00     0.123 C 
ATOM     16  C   UNL     1      -1.711   2.858  -2.994  1.00  0.00     0.010 C 
ATOM     17  C   UNL     1      -0.270   2.968  -2.466  1.00  0.00     0.010 C 
ATOM     18  C   UNL     1      -1.749   2.377  -4.444  1.00  0.00     0.010 C 
ATOM     19  C   UNL     1      -0.139   3.984  -1.333  1.00  0.00     0.010 C 
ENDBRANCH  10  11
ENDBRANCH   8  10
ENDBRANCH   7   8
ENDBRANCH   4   7
ENDBRANCH   2   3
ENDBRANCH   1   2
BRANCH   1  20
ATOM     20  C   UNL     1       0.686   2.876   2.616  1.00  0.00     0.118 C 
BRANCH  20  21
ATOM     21  N   UNL     1       1.691   3.662   3.311  1.00  0.00    -0.352 N 
ATOM     22  C   UNL     1       1.990   5.002   3.235  1.00  0.00     0.251 C 
ATOM     23  H   UNL     1       2.251   3.151   3.939  1.00  0.00     0.163 HD
ATOM     24  O   UNL     1       3.029   5.400   3.758  1.00  0.00    -0.269 OA
BRANCH  22  25
ATOM     25  C   UNL     1       1.109   5.966   2.527  1.00  0.00     0.039 A 
ATOM     26  C   UNL     1       1.707   7.018   1.822  1.00  0.00     0.014 A 
ATOM     27  C   UNL     1      -0.284   5.896   2.597  1.00  0.00     0.014 A 
ATOM     28  C   UNL     1       0.917   7.953   1.144  1.00  0.00     0.010 A 
ATOM     29  C   UNL     1      -1.071   6.788   1.863  1.00  0.00     0.010 A 
ATOM     30  C   UNL     1      -0.480   7.826   1.125  1.00  0.00    -0.014 A 
BRANCH  30  31
ATOM     31  C   UNL     1      -1.331   8.743   0.318  1.00  0.00     0.031 A 
ATOM     32  C   UNL     1      -2.330   9.653   0.980  1.00  0.00     0.074 A 
ATOM     33  C   UNL     1      -1.255   8.707  -1.028  1.00  0.00     0.049 A 
ATOM     34  N   UNL     1      -3.203  10.461   0.431  1.00  0.00    -0.248 NA
ATOM     35  C   UNL     1      -2.361   9.646   2.450  1.00  0.00     0.031 C 
ATOM     36  C   UNL     1      -0.340   7.863  -1.797  1.00  0.00     0.029 A 
ATOM     37  N   UNL     1      -1.969   9.379  -1.988  1.00  0.00    -0.354 N 
ATOM     38  C   UNL     1      -3.888  11.055   1.484  1.00  0.00     0.074 A 
ATOM     39  C   UNL     1      -3.365  10.475   2.703  1.00  0.00     0.031 C 
ATOM     40  C   UNL     1      -0.551   8.061  -3.107  1.00  0.00     0.029 A 
ATOM     41  C   UNL     1      -1.631   9.027  -3.274  1.00  0.00     0.049 A 
ATOM     42  H   UNL     1      -2.658  10.050  -1.777  1.00  0.00     0.167 HD
ATOM     43  C   UNL     1      -4.848  12.012   1.441  1.00  0.00     0.037 A 
ATOM     44  C   UNL     1      -2.135   9.427  -4.458  1.00  0.00     0.037 A 
ATOM     45  C   UNL     1      -5.359  12.595   0.226  1.00  0.00     0.049 A 
ATOM     46  C   UNL     1      -3.235  10.450  -4.484  1.00  0.00     0.074 A 
ATOM     47  C   UNL     1      -6.281  13.618   0.083  1.00  0.00     0.029 A 
ATOM     48  N   UNL     1      -5.006  12.197  -1.055  1.00  0.00    -0.354 N 
ATOM     49  N   UNL     1      -3.821  11.051  -3.478  1.00  0.00    -0.248 NA
ATOM     50  C   UNL     1      -3.737  10.852  -5.805  1.00  0.00     0.031 C 
ATOM     51  C   UNL     1      -6.520  13.805  -1.284  1.00  0.00     0.029 A 
ATOM     52  C   UNL     1      -5.716  12.929  -1.994  1.00  0.00     0.049 A 
ATOM     53  H   UNL     1      -4.346  11.498  -1.267  1.00  0.00     0.167 HD
ATOM     54  C   UNL     1      -4.749  11.918  -4.042  1.00  0.00     0.074 A 
ATOM     55  C   UNL     1      -4.638  11.770  -5.480  1.00  0.00     0.031 C 
ATOM     56  C   UNL     1      -5.611  12.763  -3.424  1.00  0.00     0.037 A 
BRANCH  43  57
ATOM     57  C   UNL     1      -5.411  12.484   2.755  1.00  0.00     0.058 A 
ATOM     58  C   UNL     1      -4.649  13.255   3.648  1.00  0.00     0.135 A 
ATOM     59  C   UNL     1      -6.728  12.167   3.125  1.00  0.00     0.135 A 
ATOM     60  F   UNL     1      -3.381  13.580   3.349  1.00  0.00    -0.206 F 
ATOM     61  C   UNL     1      -5.155  13.653   4.882  1.00  0.00     0.059 A 
ATOM     62  C   UNL     1      -7.264  12.578   4.342  1.00  0.00     0.059 A 
ATOM     63  F   UNL     1      -7.504  11.439   2.307  1.00  0.00    -0.206 F 
ATOM     64  C   UNL     1      -6.461  13.300   5.224  1.00  0.00     0.060 A 
BRANCH  64  65
ATOM     65  S   UNL     1      -7.091  13.790   6.844  1.00  0.00     0.124 S 
ATOM     66  O   UNL     1      -6.405  12.844   7.718  1.00  0.00    -0.237 OA
ATOM     67  O   UNL     1      -6.654  15.178   6.946  1.00  0.00    -0.237 OA
ATOM     68  O   UNL     1      -8.533  13.597   6.720  1.00  0.00    -0.744 OA
ENDBRANCH  64  65
ENDBRANCH  43  57
BRANCH  44  69
ATOM     69  C   UNL     1      -1.569   8.873  -5.715  1.00  0.00     0.058 A 
ATOM     70  C   UNL     1      -0.737   9.654  -6.529  1.00  0.00     0.135 A 
ATOM     71  C   UNL     1      -1.800   7.542  -6.096  1.00  0.00     0.135 A 
ATOM     72  F   UNL     1      -0.493  10.934  -6.207  1.00  0.00    -0.206 F 
ATOM     73  C   UNL     1      -0.147   9.135  -7.676  1.00  0.00     0.059 A 
ATOM     74  C   UNL     1      -1.206   6.994  -7.228  1.00  0.00     0.059 A 
ATOM     75  F   UNL     1      -2.575   6.750  -5.339  1.00  0.00    -0.206 F 
ATOM     76  C   UNL     1      -0.380   7.800  -8.012  1.00  0.00     0.060 A 
BRANCH  76  77
ATOM     77  S   UNL     1       0.467   7.112  -9.452  1.00  0.00     0.124 S 
ATOM     78  O   UNL     1      -0.260   7.739 -10.549  1.00  0.00    -0.237 OA
ATOM     79  O   UNL     1       1.837   7.570  -9.247  1.00  0.00    -0.237 OA
ATOM     80  O   UNL     1       0.267   5.673  -9.300  1.00  0.00    -0.744 OA
ENDBRANCH  76  77
ENDBRANCH  44  69
BRANCH  56  81
ATOM     81  C   UNL     1      -6.505  13.599  -4.297  1.00  0.00     0.058 A 
ATOM     82  C   UNL     1      -7.605  13.039  -4.966  1.00  0.00     0.135 A 
ATOM     83  C   UNL     1      -6.291  14.980  -4.427  1.00  0.00     0.135 A 
ATOM     84  F   UNL     1      -7.846  11.721  -4.884  1.00  0.00    -0.206 F 
ATOM     85  C   UNL     1      -8.454  13.819  -5.744  1.00  0.00     0.059 A 
ATOM     86  C   UNL     1      -7.142  15.783  -5.181  1.00  0.00     0.059 A 
ATOM     87  F   UNL     1      -5.256  15.566  -3.803  1.00  0.00    -0.206 F 
ATOM     88  C   UNL     1      -8.217  15.191  -5.843  1.00  0.00     0.060 A 
BRANCH  88  89
ATOM     89  S   UNL     1      -9.353  16.198  -6.821  1.00  0.00     0.124 S 
ATOM     90  O   UNL     1      -8.967  15.838  -8.182  1.00  0.00    -0.237 OA
ATOM     91  O   UNL     1     -10.658  15.713  -6.383  1.00  0.00    -0.237 OA
ATOM     92  O   UNL     1      -9.030  17.563  -6.417  1.00  0.00    -0.744 OA
ENDBRANCH  88  89
ENDBRANCH  56  81
ENDBRANCH  30  31
ENDBRANCH  22  25
ENDBRANCH  20  21
ENDBRANCH   1  20
TORSDOF 16
