REMARK SMILES COc1ccc(NS(=O)(=O)c2ccc(NC(=O)[C@H]3CCCC[C@@H]3C(=O)NCCCNC(=O)c3ccc(-c4c5nc(c(-c6c(F)cc(S(=O)(=O)[O-])cc6F)c6ccc([nH]6)c(-c6c(F)cc(S(=O)(=O)[O-])cc6F)c6nc(c(-c7c(F)cc(S(=O)(=O)[O-])cc7F)c7ccc4[nH]7)C=C6)C=C5)cc3)cc2)cc1
REMARK SMILES IDX 24 1 25 2 26 3 23 5 18 6 19 7 20 8 22 9 21 10 16 11 15 12
REMARK SMILES IDX 17 14 14 15 11 16 12 17 100 18 13 19 99 20 8 21 9 22 10 23
REMARK SMILES IDX 7 24 6 26 3 27 4 28 102 29 5 30 101 31 2 32 1 33 27 34 28 35
REMARK SMILES IDX 29 36 30 37 31 38 32 40 33 41 34 42 98 43 35 44 97 45 36 46
REMARK SMILES IDX 37 47 38 48 91 49 39 50 96 51 90 52 92 53 40 54 95 55 89 56
REMARK SMILES IDX 88 57 41 59 75 60 54 61 74 62 55 63 58 64 73 65 93 66 56 67
REMARK SMILES IDX 57 68 72 70 94 71 59 72 42 73 43 74 52 75 44 76 45 77 51 78
REMARK SMILES IDX 53 79 46 80 47 81 48 82 49 83 50 84 76 85 77 86 86 87 78 88
REMARK SMILES IDX 79 89 85 90 87 91 80 92 81 93 82 94 83 95 84 96 60 97 61 98
REMARK SMILES IDX 70 99 62 100 63 101 69 102 71 103 64 104 65 105 66 106
REMARK SMILES IDX 67 107 68 108
REMARK H PARENT 26 4 15 13 7 25 30 39 92 58 58 69
REMARK Flexibility Score: inf
ROOT
ATOM      1  C   UNL     1      -6.373   7.826   0.282  1.00  0.00     0.223 C 
ATOM      2  O   UNL     1      -6.377   7.503  -0.912  1.00  0.00    -0.275 OA
ATOM      3  N   UNL     1      -7.490   7.490   1.002  1.00  0.00    -0.356 N 
ATOM      4  H   UNL     1      -8.352   7.800   0.641  1.00  0.00     0.163 HD
ENDROOT
BRANCH   1   5
ATOM      5  C   UNL     1      -5.306   8.819   0.796  1.00  0.00     0.091 C 
ATOM      6  C   UNL     1      -4.445   8.444   2.013  1.00  0.00     0.091 C 
ATOM      7  C   UNL     1      -5.023   8.805   3.379  1.00  0.00     0.014 C 
ATOM      8  C   UNL     1      -5.884  10.062   3.468  1.00  0.00     0.001 C 
ATOM      9  C   UNL     1      -5.981  10.189   0.867  1.00  0.00     0.014 C 
ATOM     10  C   UNL     1      -6.610  10.530   2.207  1.00  0.00     0.001 C 
BRANCH   6  11
ATOM     11  C   UNL     1      -2.906   8.692   1.844  1.00  0.00     0.228 C 
ATOM     12  N   UNL     1      -2.195   9.559   2.642  1.00  0.00    -0.326 N 
ATOM     13  H   UNL     1      -1.300   9.248   2.909  1.00  0.00     0.169 HD
ATOM     14  O   UNL     1      -2.264   7.977   1.064  1.00  0.00    -0.274 OA
BRANCH  12  15
ATOM     15  C   UNL     1      -2.563  10.821   3.127  1.00  0.00     0.041 A 
ATOM     16  C   UNL     1      -3.577  13.198   4.186  1.00  0.00     0.087 A 
ATOM     17  C   UNL     1      -3.970  12.770   2.922  1.00  0.00     0.024 A 
ATOM     18  C   UNL     1      -2.607  12.484   4.895  1.00  0.00     0.024 A 
ATOM     19  C   UNL     1      -3.387  11.635   2.367  1.00  0.00     0.027 A 
ATOM     20  C   UNL     1      -2.099  11.286   4.361  1.00  0.00     0.027 A 
BRANCH  16  21
ATOM     21  S   UNL     1      -4.330  14.659   4.860  1.00  0.00     0.261 S 
ATOM     22  O   UNL     1      -3.509  15.143   5.942  1.00  0.00    -0.201 OA
ATOM     23  O   UNL     1      -5.738  14.362   5.053  1.00  0.00    -0.201 OA
BRANCH  21  24
ATOM     24  N   UNL     1      -4.254  15.847   3.611  1.00  0.00    -0.280 N 
ATOM     25  H   UNL     1      -5.038  16.376   3.339  1.00  0.00     0.180 HD
BRANCH  24  26
ATOM     26  C   UNL     1      -2.969  16.010   2.998  1.00  0.00     0.049 A 
ATOM     27  C   UNL     1      -0.362  15.849   2.010  1.00  0.00     0.119 A 
ATOM     28  C   UNL     1      -1.397  15.179   1.365  1.00  0.00     0.048 A 
ATOM     29  C   UNL     1      -0.650  16.662   3.110  1.00  0.00     0.048 A 
ATOM     30  C   UNL     1      -2.702  15.302   1.828  1.00  0.00     0.030 A 
ATOM     31  C   UNL     1      -1.952  16.723   3.622  1.00  0.00     0.030 A 
BRANCH  27  32
ATOM     32  O   UNL     1       0.872  15.615   1.472  1.00  0.00    -0.497 OA
ATOM     33  C   UNL     1       1.972  16.258   2.096  1.00  0.00     0.278 C 
ENDBRANCH  27  32
ENDBRANCH  24  26
ENDBRANCH  21  24
ENDBRANCH  16  21
ENDBRANCH  12  15
ENDBRANCH   6  11
ENDBRANCH   1   5
BRANCH   3  34
ATOM     34  C   UNL     1      -7.546   6.724   2.241  1.00  0.00     0.117 C 
BRANCH  34  35
ATOM     35  C   UNL     1      -8.139   7.469   3.436  1.00  0.00     0.042 C 
BRANCH  35  36
ATOM     36  C   UNL     1      -9.652   7.603   3.505  1.00  0.00     0.118 C 
BRANCH  36  37
ATOM     37  N   UNL     1     -10.278   6.390   3.992  1.00  0.00    -0.352 N 
ATOM     38  C   UNL     1     -10.708   6.018   5.242  1.00  0.00     0.251 C 
ATOM     39  H   UNL     1     -10.422   5.707   3.298  1.00  0.00     0.163 HD
ATOM     40  O   UNL     1     -10.928   4.820   5.426  1.00  0.00    -0.269 OA
BRANCH  38  41
ATOM     41  C   UNL     1     -10.917   6.972   6.369  1.00  0.00     0.039 A 
ATOM     42  C   UNL     1     -10.783   6.475   7.674  1.00  0.00     0.014 A 
ATOM     43  C   UNL     1     -11.366   8.285   6.201  1.00  0.00     0.014 A 
ATOM     44  C   UNL     1     -11.081   7.278   8.784  1.00  0.00     0.010 A 
ATOM     45  C   UNL     1     -11.589   9.113   7.312  1.00  0.00     0.010 A 
ATOM     46  C   UNL     1     -11.475   8.614   8.618  1.00  0.00    -0.014 A 
BRANCH  46  47
ATOM     47  C   UNL     1     -11.800   9.465   9.801  1.00  0.00     0.031 A 
ATOM     48  C   UNL     1     -13.200   9.994  10.009  1.00  0.00     0.074 A 
ATOM     49  C   UNL     1     -10.834   9.770  10.693  1.00  0.00     0.049 A 
ATOM     50  N   UNL     1     -13.664  10.750  10.973  1.00  0.00    -0.248 NA
ATOM     51  C   UNL     1     -14.205   9.644   8.994  1.00  0.00     0.031 C 
ATOM     52  C   UNL     1      -9.432   9.360  10.591  1.00  0.00     0.029 A 
ATOM     53  N   UNL     1     -10.881  10.494  11.860  1.00  0.00    -0.354 N 
ATOM     54  C   UNL     1     -15.006  10.973  10.677  1.00  0.00     0.074 A 
ATOM     55  C   UNL     1     -15.270  10.313   9.417  1.00  0.00     0.031 C 
ATOM     56  C   UNL     1      -8.759   9.816  11.660  1.00  0.00     0.029 A 
ATOM     57  C   UNL     1      -9.670  10.577  12.509  1.00  0.00     0.049 A 
ATOM     58  H   UNL     1     -11.704  10.914  12.200  1.00  0.00     0.167 HD
ATOM     59  C   UNL     1     -15.939  11.642  11.397  1.00  0.00     0.037 A 
ATOM     60  C   UNL     1      -9.329  11.197  13.656  1.00  0.00     0.037 A 
ATOM     61  C   UNL     1     -15.684  12.274  12.667  1.00  0.00     0.049 A 
ATOM     62  C   UNL     1     -10.386  11.926  14.441  1.00  0.00     0.074 A 
ATOM     63  C   UNL     1     -16.576  12.933  13.496  1.00  0.00     0.029 A 
ATOM     64  N   UNL     1     -14.449  12.322  13.295  1.00  0.00    -0.354 N 
ATOM     65  N   UNL     1     -11.661  12.075  14.168  1.00  0.00    -0.248 NA
ATOM     66  C   UNL     1      -9.962  12.563  15.696  1.00  0.00     0.031 C 
ATOM     67  C   UNL     1     -15.873  13.411  14.607  1.00  0.00     0.029 A 
ATOM     68  C   UNL     1     -14.552  13.012  14.493  1.00  0.00     0.049 A 
ATOM     69  H   UNL     1     -13.620  11.924  12.943  1.00  0.00     0.167 HD
ATOM     70  C   UNL     1     -12.193  12.806  15.225  1.00  0.00     0.074 A 
ATOM     71  C   UNL     1     -11.108  13.047  16.154  1.00  0.00     0.031 C 
ATOM     72  C   UNL     1     -13.463  13.242  15.408  1.00  0.00     0.037 A 
BRANCH  59  73
ATOM     73  C   UNL     1     -17.338  11.715  10.842  1.00  0.00     0.058 A 
ATOM     74  C   UNL     1     -18.179  10.591  10.819  1.00  0.00     0.135 A 
ATOM     75  C   UNL     1     -17.868  12.935  10.389  1.00  0.00     0.135 A 
ATOM     76  F   UNL     1     -17.721   9.397  11.228  1.00  0.00    -0.206 F 
ATOM     77  C   UNL     1     -19.486  10.667  10.348  1.00  0.00     0.059 A 
ATOM     78  C   UNL     1     -19.181  13.040   9.937  1.00  0.00     0.059 A 
ATOM     79  F   UNL     1     -17.110  14.043  10.390  1.00  0.00    -0.206 F 
ATOM     80  C   UNL     1     -19.980  11.897   9.911  1.00  0.00     0.060 A 
BRANCH  80  81
ATOM     81  S   UNL     1     -21.686  11.982   9.325  1.00  0.00     0.124 S 
ATOM     82  O   UNL     1     -21.586  11.303   8.037  1.00  0.00    -0.237 OA
ATOM     83  O   UNL     1     -22.410  11.262  10.367  1.00  0.00    -0.237 OA
ATOM     84  O   UNL     1     -21.952  13.416   9.258  1.00  0.00    -0.744 OA
ENDBRANCH  80  81
ENDBRANCH  59  73
BRANCH  60  85
ATOM     85  C   UNL     1      -7.923  11.149  14.144  1.00  0.00     0.058 A 
ATOM     86  C   UNL     1      -7.578  10.424  15.294  1.00  0.00     0.135 A 
ATOM     87  C   UNL     1      -6.898  11.836  13.475  1.00  0.00     0.135 A 
ATOM     88  F   UNL     1      -8.523   9.755  15.973  1.00  0.00    -0.206 F 
ATOM     89  C   UNL     1      -6.274  10.402  15.780  1.00  0.00     0.059 A 
ATOM     90  C   UNL     1      -5.582  11.808  13.926  1.00  0.00     0.059 A 
ATOM     91  F   UNL     1      -7.170  12.532  12.360  1.00  0.00    -0.206 F 
ATOM     92  C   UNL     1      -5.282  11.100  15.089  1.00  0.00     0.060 A 
BRANCH  92  93
ATOM     93  S   UNL     1      -3.587  11.042  15.708  1.00  0.00     0.124 S 
ATOM     94  O   UNL     1      -3.660  11.947  16.849  1.00  0.00    -0.237 OA
ATOM     95  O   UNL     1      -3.421   9.627  16.025  1.00  0.00    -0.237 OA
ATOM     96  O   UNL     1      -2.800  11.517  14.574  1.00  0.00    -0.744 OA
ENDBRANCH  92  93
ENDBRANCH  60  85
BRANCH  72  97
ATOM     97  C   UNL     1     -13.752  14.004  16.673  1.00  0.00     0.058 A 
ATOM     98  C   UNL     1     -13.291  15.316  16.863  1.00  0.00     0.135 A 
ATOM     99  C   UNL     1     -14.518  13.423  17.696  1.00  0.00     0.135 A 
ATOM    100  F   UNL     1     -12.551  15.915  15.917  1.00  0.00    -0.206 F 
ATOM    101  C   UNL     1     -13.550  16.014  18.038  1.00  0.00     0.059 A 
ATOM    102  C   UNL     1     -14.812  14.112  18.869  1.00  0.00     0.059 A 
ATOM    103  F   UNL     1     -14.994  12.175  17.560  1.00  0.00    -0.206 F 
ATOM    104  C   UNL     1     -14.309  15.401  19.037  1.00  0.00     0.060 A 
BRANCH 104 105
ATOM    105  S   UNL     1     -14.646  16.320  20.554  1.00  0.00     0.124 S 
ATOM    106  O   UNL     1     -13.362  16.233  21.242  1.00  0.00    -0.237 OA
ATOM    107  O   UNL     1     -15.006  17.641  20.049  1.00  0.00    -0.237 OA
ATOM    108  O   UNL     1     -15.739  15.571  21.168  1.00  0.00    -0.744 OA
ENDBRANCH 104 105
ENDBRANCH  72  97
ENDBRANCH  46  47
ENDBRANCH  38  41
ENDBRANCH  36  37
ENDBRANCH  35  36
ENDBRANCH  34  35
ENDBRANCH   3  34
TORSDOF 19
