REMARK SMILES CC[C@H](C)[C@@H](NC(=O)[C@@H]1CCCN1C(=O)C1CC1)C(=O)NCCCNC(=O)c1ccc(-c2c3nc(c(-c4c(F)cc(S(=O)(=O)[O-])cc4F)c4ccc([nH]4)c(-c4c(F)cc(S(=O)(=O)[O-])cc4F)c4nc(c(-c5c(F)cc(S(=O)(=O)[O-])cc5F)c5ccc2[nH]5)C=C4)C=C3)cc1
REMARK SMILES IDX 22 1 21 2 19 3 20 4 5 6 3 7 4 8 2 9 1 10 6 11 7 12 8 14 9 15
REMARK SMILES IDX 10 16 13 17 11 18 12 19 14 20 15 21 16 22 17 23 18 24 23 25
REMARK SMILES IDX 24 26 25 27 26 28 27 30 28 31 29 32 93 33 30 34 92 35 31 36
REMARK SMILES IDX 32 37 33 38 86 39 34 40 91 41 85 42 87 43 35 44 90 45 84 46
REMARK SMILES IDX 83 47 36 49 70 50 49 51 69 52 50 53 53 54 68 55 88 56 51 57
REMARK SMILES IDX 52 58 67 60 89 61 54 62 37 63 38 64 47 65 39 66 40 67 46 68
REMARK SMILES IDX 48 69 41 70 42 71 43 72 44 73 45 74 71 75 72 76 81 77 73 78
REMARK SMILES IDX 74 79 80 80 82 81 75 82 76 83 77 84 78 85 79 86 55 87 56 88
REMARK SMILES IDX 65 89 57 90 58 91 64 92 66 93 59 94 60 95 61 96 62 97 63 98
REMARK H PARENT 21 5 6 13 25 29 87 48 53 59
REMARK Flexibility Score: inf
ROOT
ATOM      1  C   UNL     1       2.961   0.510   5.513  1.00  0.00     0.117 C 
ENDROOT
BRANCH   1   2
ATOM      2  N   UNL     1       1.613   0.503   4.961  1.00  0.00    -0.354 N 
ATOM      3  C   UNL     1       0.690  -0.494   5.205  1.00  0.00     0.242 C 
ATOM      4  O   UNL     1       0.389  -0.812   6.357  1.00  0.00    -0.273 OA
ATOM      5  H   UNL     1       1.344   1.252   4.382  1.00  0.00     0.163 HD
BRANCH   3   6
ATOM      6  C   UNL     1      -0.089  -1.071   3.977  1.00  0.00     0.174 C 
BRANCH   6   7
ATOM      7  C   UNL     1       0.197  -0.376   2.600  1.00  0.00     0.018 C 
ATOM      8  C   UNL     1      -0.237  -1.183   1.366  1.00  0.00     0.010 C 
BRANCH   7   9
ATOM      9  C   UNL     1      -0.452   1.042   2.502  1.00  0.00     0.002 C 
ATOM     10  C   UNL     1      -1.946   1.121   2.812  1.00  0.00     0.004 C 
ENDBRANCH   7   9
ENDBRANCH   6   7
BRANCH   6  11
ATOM     11  N   UNL     1      -0.477  -2.515   3.875  1.00  0.00    -0.342 N 
ATOM     12  C   UNL     1       0.028  -3.767   3.815  1.00  0.00     0.243 C 
ATOM     13  H   UNL     1      -1.460  -2.573   3.840  1.00  0.00     0.164 HD
ATOM     14  O   UNL     1      -0.733  -4.575   3.248  1.00  0.00    -0.273 OA
BRANCH  12  15
ATOM     15  C   UNL     1       1.231  -4.371   4.571  1.00  0.00     0.174 C 
ATOM     16  C   UNL     1       0.771  -4.776   5.986  1.00  0.00     0.037 C 
ATOM     17  N   UNL     1       2.393  -3.556   4.765  1.00  0.00    -0.330 N 
ATOM     18  C   UNL     1       1.724  -4.110   6.969  1.00  0.00     0.024 C 
ATOM     19  C   UNL     1       2.514  -3.127   6.140  1.00  0.00     0.120 C 
BRANCH  17  20
ATOM     20  C   UNL     1       3.052  -2.918   3.746  1.00  0.00     0.226 C 
ATOM     21  O   UNL     1       3.270  -1.723   3.815  1.00  0.00    -0.275 OA
BRANCH  20  22
ATOM     22  C   UNL     1       3.617  -3.601   2.563  1.00  0.00     0.079 C 
ATOM     23  C   UNL     1       3.507  -5.016   2.099  1.00  0.00     0.014 C 
ATOM     24  C   UNL     1       2.747  -3.936   1.381  1.00  0.00     0.014 C 
ENDBRANCH  20  22
ENDBRANCH  17  20
ENDBRANCH  12  15
ENDBRANCH   6  11
ENDBRANCH   3   6
ENDBRANCH   1   2
BRANCH   1  25
ATOM     25  C   UNL     1       3.999   0.900   4.452  1.00  0.00     0.042 C 
BRANCH  25  26
ATOM     26  C   UNL     1       5.422   0.838   4.982  1.00  0.00     0.118 C 
BRANCH  26  27
ATOM     27  N   UNL     1       5.965  -0.476   5.324  1.00  0.00    -0.352 N 
ATOM     28  C   UNL     1       7.293  -0.752   5.633  1.00  0.00     0.251 C 
ATOM     29  H   UNL     1       5.335  -1.233   5.336  1.00  0.00     0.163 HD
ATOM     30  O   UNL     1       7.692  -1.896   5.819  1.00  0.00    -0.269 OA
BRANCH  28  31
ATOM     31  C   UNL     1       8.239   0.393   5.659  1.00  0.00     0.039 A 
ATOM     32  C   UNL     1       9.346   0.409   4.807  1.00  0.00     0.014 A 
ATOM     33  C   UNL     1       7.890   1.535   6.375  1.00  0.00     0.014 A 
ATOM     34  C   UNL     1      10.010   1.620   4.569  1.00  0.00     0.010 A 
ATOM     35  C   UNL     1       8.444   2.753   6.017  1.00  0.00     0.010 A 
ATOM     36  C   UNL     1       9.514   2.818   5.111  1.00  0.00    -0.014 A 
BRANCH  36  37
ATOM     37  C   UNL     1      10.083   4.155   4.778  1.00  0.00     0.031 A 
ATOM     38  C   UNL     1      10.525   5.066   5.898  1.00  0.00     0.074 A 
ATOM     39  C   UNL     1      10.084   4.606   3.506  1.00  0.00     0.049 A 
ATOM     40  N   UNL     1      10.862   6.329   5.858  1.00  0.00    -0.248 NA
ATOM     41  C   UNL     1      10.520   4.493   7.255  1.00  0.00     0.031 C 
ATOM     42  C   UNL     1       9.604   3.866   2.336  1.00  0.00     0.029 A 
ATOM     43  N   UNL     1      10.492   5.810   2.983  1.00  0.00    -0.354 N 
ATOM     44  C   UNL     1      11.050   6.708   7.183  1.00  0.00     0.074 A 
ATOM     45  C   UNL     1      10.714   5.567   8.003  1.00  0.00     0.031 C 
ATOM     46  C   UNL     1       9.780   4.614   1.234  1.00  0.00     0.029 A 
ATOM     47  C   UNL     1      10.348   5.902   1.617  1.00  0.00     0.049 A 
ATOM     48  H   UNL     1      10.853   6.540   3.536  1.00  0.00     0.167 HD
ATOM     49  C   UNL     1      11.504   7.885   7.676  1.00  0.00     0.037 A 
ATOM     50  C   UNL     1      10.643   6.910   0.772  1.00  0.00     0.037 A 
ATOM     51  C   UNL     1      11.923   8.984   6.850  1.00  0.00     0.049 A 
ATOM     52  C   UNL     1      11.232   8.179   1.329  1.00  0.00     0.074 A 
ATOM     53  C   UNL     1      12.487  10.186   7.235  1.00  0.00     0.029 A 
ATOM     54  N   UNL     1      11.845   9.001   5.465  1.00  0.00    -0.354 N 
ATOM     55  N   UNL     1      11.461   8.500   2.581  1.00  0.00    -0.248 NA
ATOM     56  C   UNL     1      11.613   9.219   0.362  1.00  0.00     0.031 C 
ATOM     57  C   UNL     1      12.732  10.940   6.082  1.00  0.00     0.029 A 
ATOM     58  C   UNL     1      12.352  10.192   4.978  1.00  0.00     0.049 A 
ATOM     59  H   UNL     1      11.481   8.273   4.911  1.00  0.00     0.167 HD
ATOM     60  C   UNL     1      12.036   9.765   2.551  1.00  0.00     0.074 A 
ATOM     61  C   UNL     1      12.129  10.148   1.156  1.00  0.00     0.031 C 
ATOM     62  C   UNL     1      12.449  10.542   3.583  1.00  0.00     0.037 A 
BRANCH  49  63
ATOM     63  C   UNL     1      11.596   8.018   9.172  1.00  0.00     0.058 A 
ATOM     64  C   UNL     1      12.519   7.271   9.924  1.00  0.00     0.135 A 
ATOM     65  C   UNL     1      10.741   8.888   9.868  1.00  0.00     0.135 A 
ATOM     66  F   UNL     1      13.351   6.412   9.312  1.00  0.00    -0.206 F 
ATOM     67  C   UNL     1      12.552   7.336  11.312  1.00  0.00     0.059 A 
ATOM     68  C   UNL     1      10.780   8.995  11.256  1.00  0.00     0.059 A 
ATOM     69  F   UNL     1       9.842   9.630   9.203  1.00  0.00    -0.206 F 
ATOM     70  C   UNL     1      11.672   8.196  11.970  1.00  0.00     0.060 A 
BRANCH  70  71
ATOM     71  S   UNL     1      11.708   8.251  13.774  1.00  0.00     0.124 S 
ATOM     72  O   UNL     1      11.012   7.014  14.115  1.00  0.00    -0.237 OA
ATOM     73  O   UNL     1      13.139   8.271  14.060  1.00  0.00    -0.237 OA
ATOM     74  O   UNL     1      10.992   9.482  14.090  1.00  0.00    -0.744 OA
ENDBRANCH  70  71
ENDBRANCH  49  63
BRANCH  50  75
ATOM     75  C   UNL     1      10.442   6.738  -0.693  1.00  0.00     0.058 A 
ATOM     76  C   UNL     1      11.540   6.566  -1.551  1.00  0.00     0.135 A 
ATOM     77  C   UNL     1       9.161   6.714  -1.264  1.00  0.00     0.135 A 
ATOM     78  F   UNL     1      12.787   6.589  -1.054  1.00  0.00    -0.206 F 
ATOM     79  C   UNL     1      11.378   6.385  -2.921  1.00  0.00     0.059 A 
ATOM     80  C   UNL     1       8.972   6.513  -2.630  1.00  0.00     0.059 A 
ATOM     81  F   UNL     1       8.076   6.858  -0.488  1.00  0.00    -0.206 F 
ATOM     82  C   UNL     1      10.088   6.355  -3.451  1.00  0.00     0.060 A 
BRANCH  82  83
ATOM     83  S   UNL     1       9.886   6.053  -5.222  1.00  0.00     0.124 S 
ATOM     84  O   UNL     1      10.303   7.330  -5.788  1.00  0.00    -0.237 OA
ATOM     85  O   UNL     1      10.790   4.929  -5.446  1.00  0.00    -0.237 OA
ATOM     86  O   UNL     1       8.466   5.739  -5.348  1.00  0.00    -0.744 OA
ENDBRANCH  82  83
ENDBRANCH  50  75
BRANCH  62  87
ATOM     87  C   UNL     1      13.074  11.865   3.247  1.00  0.00     0.058 A 
ATOM     88  C   UNL     1      12.301  12.959   2.832  1.00  0.00     0.135 A 
ATOM     89  C   UNL     1      14.455  12.059   3.417  1.00  0.00     0.135 A 
ATOM     90  F   UNL     1      10.978  12.821   2.652  1.00  0.00    -0.206 F 
ATOM     91  C   UNL     1      12.877  14.199   2.580  1.00  0.00     0.059 A 
ATOM     92  C   UNL     1      15.049  13.296   3.194  1.00  0.00     0.059 A 
ATOM     93  F   UNL     1      15.235  11.045   3.824  1.00  0.00    -0.206 F 
ATOM     94  C   UNL     1      14.252  14.358   2.768  1.00  0.00     0.060 A 
BRANCH  94  95
ATOM     95  S   UNL     1      14.981  15.985   2.485  1.00  0.00     0.124 S 
ATOM     96  O   UNL     1      15.006  16.046   1.027  1.00  0.00    -0.237 OA
ATOM     97  O   UNL     1      14.027  16.875   3.140  1.00  0.00    -0.237 OA
ATOM     98  O   UNL     1      16.286  15.889   3.133  1.00  0.00    -0.744 OA
ENDBRANCH  94  95
ENDBRANCH  62  87
ENDBRANCH  36  37
ENDBRANCH  28  31
ENDBRANCH  26  27
ENDBRANCH  25  26
ENDBRANCH   1  25
TORSDOF 19
