REMARK SMILES CCOc1ccccc1N1CCN(c2ncc(N)cc2C(=O)NCCCNC(=O)c2ccc(-c3c4nc(c(-c5c(F)cc(S(=O)(=O)[O-])cc5F)c5ccc([nH]5)c(-c5c(F)cc(S(=O)(=O)[O-])cc5F)c5nc(c(-c6c(F)cc(S(=O)(=O)[O-])cc6F)c6ccc3[nH]6)C=C5)C=C4)cc2)CC1
REMARK SMILES IDX 24 1 23 2 21 3 22 4 20 6 14 7 15 8 16 9 19 10 17 11 13 12
REMARK SMILES IDX 10 13 11 14 97 15 12 16 96 17 9 18 4 19 5 20 6 21 8 22 7 23
REMARK SMILES IDX 3 24 2 25 1 26 18 27 25 30 26 31 27 32 28 33 29 35 30 36
REMARK SMILES IDX 31 37 95 38 32 39 94 40 33 41 34 42 35 43 88 44 36 45 93 46
REMARK SMILES IDX 87 47 89 48 37 49 92 50 86 51 85 52 38 54 72 55 51 56 71 57
REMARK SMILES IDX 52 58 55 59 70 60 90 61 53 62 54 63 69 65 91 66 56 67 39 68
REMARK SMILES IDX 40 69 49 70 41 71 42 72 48 73 50 74 43 75 44 76 45 77 46 78
REMARK SMILES IDX 47 79 73 80 74 81 83 82 75 83 76 84 82 85 84 86 77 87 78 88
REMARK SMILES IDX 79 89 80 90 81 91 57 92 58 93 67 94 59 95 60 96 66 97 68 98
REMARK SMILES IDX 61 99 62 100 63 101 64 102 65 103
REMARK H PARENT 23 5 18 28 18 29 27 34 89 53 55 64
REMARK Flexibility Score: inf
ROOT
ATOM      1  C   UNL     1       0.648   5.927  -4.415  1.00  0.00     0.118 C 
ENDROOT
BRANCH   1   2
ATOM      2  N   UNL     1       1.408   5.025  -3.577  1.00  0.00    -0.352 N 
ATOM      3  C   UNL     1       1.413   3.695  -3.264  1.00  0.00     0.255 C 
ATOM      4  O   UNL     1       2.339   3.406  -2.499  1.00  0.00    -0.269 OA
ATOM      5  H   UNL     1       2.123   5.504  -3.099  1.00  0.00     0.163 HD
BRANCH   3   6
ATOM      6  C   UNL     1       0.459   2.650  -3.777  1.00  0.00     0.084 A 
ATOM      7  C   UNL     1       0.488   1.358  -3.208  1.00  0.00     0.141 A 
ATOM      8  N   UNL     1      -0.194   0.309  -3.739  1.00  0.00    -0.236 NA
ATOM      9  C   UNL     1      -0.976   0.540  -4.813  1.00  0.00     0.139 A 
ATOM     10  C   UNL     1      -0.395   2.832  -4.872  1.00  0.00     0.044 A 
ATOM     11  C   UNL     1      -1.161   1.786  -5.389  1.00  0.00     0.051 A 
BRANCH   7  12
ATOM     12  N   UNL     1       1.199   1.089  -2.057  1.00  0.00    -0.352 N 
ATOM     13  N   UNL     1       2.423   0.256   0.361  1.00  0.00    -0.365 N 
ATOM     14  C   UNL     1       3.117   0.054  -0.918  1.00  0.00     0.138 C 
ATOM     15  C   UNL     1       1.546   1.443   0.393  1.00  0.00     0.138 C 
ATOM     16  C   UNL     1       2.085  -0.070  -2.060  1.00  0.00     0.139 C 
ATOM     17  C   UNL     1       0.546   1.433  -0.787  1.00  0.00     0.139 C 
BRANCH  13  18
ATOM     18  C   UNL     1       2.994  -0.158   1.554  1.00  0.00     0.079 A 
ATOM     19  C   UNL     1       2.210  -0.714   2.586  1.00  0.00     0.142 A 
ATOM     20  C   UNL     1       2.781  -1.148   3.787  1.00  0.00     0.048 A 
ATOM     21  C   UNL     1       4.157  -1.054   3.974  1.00  0.00     0.004 A 
ATOM     22  C   UNL     1       4.376  -0.065   1.777  1.00  0.00     0.030 A 
ATOM     23  C   UNL     1       4.954  -0.506   2.972  1.00  0.00     0.002 A 
BRANCH  19  24
ATOM     24  O   UNL     1       0.844  -0.798   2.448  1.00  0.00    -0.492 OA
BRANCH  24  25
ATOM     25  C   UNL     1       0.425  -2.111   2.063  1.00  0.00     0.226 C 
ATOM     26  C   UNL     1       0.053  -2.142   0.592  1.00  0.00     0.049 C 
ENDBRANCH  24  25
ENDBRANCH  19  24
ENDBRANCH  13  18
ENDBRANCH   7  12
BRANCH  11  27
ATOM     27  N   UNL     1      -1.927   1.968  -6.532  1.00  0.00    -0.397 N 
ATOM     28  H   UNL     1      -2.464   1.224  -6.889  1.00  0.00     0.156 HD
ATOM     29  H   UNL     1      -1.934   2.842  -6.985  1.00  0.00     0.156 HD
ENDBRANCH  11  27
ENDBRANCH   3   6
ENDBRANCH   1   2
BRANCH   1  30
ATOM     30  C   UNL     1      -0.477   6.616  -3.655  1.00  0.00     0.042 C 
BRANCH  30  31
ATOM     31  C   UNL     1       0.021   7.508  -2.515  1.00  0.00     0.118 C 
BRANCH  31  32
ATOM     32  N   UNL     1       1.031   8.461  -2.962  1.00  0.00    -0.352 N 
ATOM     33  C   UNL     1       0.927   9.791  -3.279  1.00  0.00     0.251 C 
ATOM     34  H   UNL     1       1.937   8.087  -3.051  1.00  0.00     0.163 HD
ATOM     35  O   UNL     1       1.803  10.315  -3.961  1.00  0.00    -0.269 OA
BRANCH  33  36
ATOM     36  C   UNL     1      -0.215  10.592  -2.796  1.00  0.00     0.039 A 
ATOM     37  C   UNL     1      -0.750  11.584  -3.623  1.00  0.00     0.014 A 
ATOM     38  C   UNL     1      -0.708  10.420  -1.500  1.00  0.00     0.014 A 
ATOM     39  C   UNL     1      -1.814  12.366  -3.167  1.00  0.00     0.010 A 
ATOM     40  C   UNL     1      -1.817  11.145  -1.076  1.00  0.00     0.010 A 
ATOM     41  C   UNL     1      -2.373  12.133  -1.900  1.00  0.00    -0.014 A 
BRANCH  41  42
ATOM     42  C   UNL     1      -3.541  12.911  -1.418  1.00  0.00     0.031 A 
ATOM     43  C   UNL     1      -3.416  13.796  -0.207  1.00  0.00     0.074 A 
ATOM     44  C   UNL     1      -4.732  12.754  -2.026  1.00  0.00     0.049 A 
ATOM     45  N   UNL     1      -4.338  14.497   0.401  1.00  0.00    -0.248 NA
ATOM     46  C   UNL     1      -2.088  13.876   0.423  1.00  0.00     0.031 C 
ATOM     47  C   UNL     1      -4.988  11.869  -3.164  1.00  0.00     0.029 A 
ATOM     48  N   UNL     1      -5.953  13.318  -1.763  1.00  0.00    -0.354 N 
ATOM     49  C   UNL     1      -3.710  15.081   1.495  1.00  0.00     0.074 A 
ATOM     50  C   UNL     1      -2.341  14.613   1.495  1.00  0.00     0.031 C 
ATOM     51  C   UNL     1      -6.280  11.964  -3.514  1.00  0.00     0.029 A 
ATOM     52  C   UNL     1      -6.950  12.891  -2.607  1.00  0.00     0.049 A 
ATOM     53  H   UNL     1      -6.102  13.968  -1.039  1.00  0.00     0.167 HD
ATOM     54  C   UNL     1      -4.223  15.945   2.404  1.00  0.00     0.037 A 
ATOM     55  C   UNL     1      -8.259  13.206  -2.643  1.00  0.00     0.037 A 
ATOM     56  C   UNL     1      -5.579  16.429   2.374  1.00  0.00     0.049 A 
ATOM     57  C   UNL     1      -8.798  14.198  -1.652  1.00  0.00     0.074 A 
ATOM     58  C   UNL     1      -6.177  17.370   3.194  1.00  0.00     0.029 A 
ATOM     59  N   UNL     1      -6.550  16.006   1.477  1.00  0.00    -0.354 N 
ATOM     60  N   UNL     1      -8.171  14.806  -0.673  1.00  0.00    -0.248 NA
ATOM     61  C   UNL     1     -10.216  14.557  -1.776  1.00  0.00     0.031 C 
ATOM     62  C   UNL     1      -7.520  17.486   2.818  1.00  0.00     0.029 A 
ATOM     63  C   UNL     1      -7.748  16.651   1.736  1.00  0.00     0.049 A 
ATOM     64  H   UNL     1      -6.408  15.345   0.762  1.00  0.00     0.167 HD
ATOM     65  C   UNL     1      -9.114  15.630  -0.071  1.00  0.00     0.074 A 
ATOM     66  C   UNL     1     -10.349  15.456  -0.810  1.00  0.00     0.031 C 
ATOM     67  C   UNL     1      -8.971  16.456   0.995  1.00  0.00     0.037 A 
BRANCH  54  68
ATOM     68  C   UNL     1      -3.311  16.417   3.504  1.00  0.00     0.058 A 
ATOM     69  C   UNL     1      -2.232  17.280   3.251  1.00  0.00     0.135 A 
ATOM     70  C   UNL     1      -3.521  16.009   4.831  1.00  0.00     0.135 A 
ATOM     71  F   UNL     1      -1.976  17.692   1.999  1.00  0.00    -0.206 F 
ATOM     72  C   UNL     1      -1.369  17.685   4.263  1.00  0.00     0.059 A 
ATOM     73  C   UNL     1      -2.687  16.425   5.866  1.00  0.00     0.059 A 
ATOM     74  F   UNL     1      -4.539  15.187   5.133  1.00  0.00    -0.206 F 
ATOM     75  C   UNL     1      -1.601  17.246   5.568  1.00  0.00     0.060 A 
BRANCH  75  76
ATOM     76  S   UNL     1      -0.461  17.764   6.869  1.00  0.00     0.124 S 
ATOM     77  O   UNL     1       0.696  16.918   6.595  1.00  0.00    -0.237 OA
ATOM     78  O   UNL     1      -0.287  19.185   6.587  1.00  0.00    -0.237 OA
ATOM     79  O   UNL     1      -1.187  17.457   8.098  1.00  0.00    -0.744 OA
ENDBRANCH  75  76
ENDBRANCH  54  68
BRANCH  55  80
ATOM     80  C   UNL     1      -9.129  12.596  -3.682  1.00  0.00     0.058 A 
ATOM     81  C   UNL     1      -9.570  13.346  -4.781  1.00  0.00     0.135 A 
ATOM     82  C   UNL     1      -9.483  11.239  -3.629  1.00  0.00     0.135 A 
ATOM     83  F   UNL     1      -9.259  14.648  -4.872  1.00  0.00    -0.206 F 
ATOM     84  C   UNL     1     -10.333  12.774  -5.793  1.00  0.00     0.059 A 
ATOM     85  C   UNL     1     -10.227  10.639  -4.640  1.00  0.00     0.059 A 
ATOM     86  F   UNL     1      -9.067  10.475  -2.608  1.00  0.00    -0.206 F 
ATOM     87  C   UNL     1     -10.650  11.416  -5.718  1.00  0.00     0.060 A 
BRANCH  87  88
ATOM     88  S   UNL     1     -11.564  10.662  -7.082  1.00  0.00     0.124 S 
ATOM     89  O   UNL     1     -12.909  11.176  -6.853  1.00  0.00    -0.237 OA
ATOM     90  O   UNL     1     -10.866  11.193  -8.249  1.00  0.00    -0.237 OA
ATOM     91  O   UNL     1     -11.385   9.232  -6.853  1.00  0.00    -0.744 OA
ENDBRANCH  87  88
ENDBRANCH  55  80
BRANCH  67  92
ATOM     92  C   UNL     1     -10.179  17.242   1.419  1.00  0.00     0.058 A 
ATOM     93  C   UNL     1     -11.257  16.632   2.079  1.00  0.00     0.135 A 
ATOM     94  C   UNL     1     -10.242  18.627   1.198  1.00  0.00     0.135 A 
ATOM     95  F   UNL     1     -11.248  15.309   2.308  1.00  0.00    -0.206 F 
ATOM     96  C   UNL     1     -12.368  17.364   2.483  1.00  0.00     0.059 A 
ATOM     97  C   UNL     1     -11.332  19.383   1.616  1.00  0.00     0.059 A 
ATOM     98  F   UNL     1      -9.232  19.260   0.580  1.00  0.00    -0.206 F 
ATOM     99  C   UNL     1     -12.397  18.739   2.246  1.00  0.00     0.060 A 
BRANCH  99 100
ATOM    100  S   UNL     1     -13.835  19.683   2.794  1.00  0.00     0.124 S 
ATOM    101  O   UNL     1     -14.825  19.321   1.786  1.00  0.00    -0.237 OA
ATOM    102  O   UNL     1     -14.069  19.150   4.133  1.00  0.00    -0.237 OA
ATOM    103  O   UNL     1     -13.369  21.066   2.750  1.00  0.00    -0.744 OA
ENDBRANCH  99 100
ENDBRANCH  67  92
ENDBRANCH  41  42
ENDBRANCH  33  36
ENDBRANCH  31  32
ENDBRANCH  30  31
ENDBRANCH   1  30
TORSDOF 18
