REMARK SMILES CO[C@H](C)c1noc(C[C@](C)(C(=O)NCCCNC(=O)c2ccc(-c3c4nc(c(-c5c(F)cc(S(=O)(=O)[O-])cc5F)c5ccc([nH]5)c(-c5c(F)cc(S(=O)(=O)[O-])cc5F)c5nc(c(-c6c(F)cc(S(=O)(=O)[O-])cc6F)c6ccc3[nH]6)C=C5)C=C4)cc2)c2ccccc2)n1
REMARK SMILES IDX 15 1 14 2 12 3 13 4 10 6 11 7 9 8 8 9 5 10 6 11 93 12 7 13
REMARK SMILES IDX 3 14 4 15 2 16 1 17 87 18 88 19 92 20 89 21 91 22 90 23
REMARK SMILES IDX 16 24 17 25 18 26 19 27 20 29 21 30 22 31 86 32 23 33 85 34
REMARK SMILES IDX 24 35 25 36 26 37 79 38 27 39 84 40 78 41 80 42 28 43 83 44
REMARK SMILES IDX 77 45 76 46 29 48 63 49 42 50 62 51 43 52 46 53 61 54 81 55
REMARK SMILES IDX 44 56 45 57 60 59 82 60 47 61 30 62 31 63 40 64 32 65 33 66
REMARK SMILES IDX 39 67 41 68 34 69 35 70 36 71 37 72 38 73 64 74 65 75 74 76
REMARK SMILES IDX 66 77 67 78 73 79 75 80 68 81 69 82 70 83 71 84 72 85 48 86
REMARK SMILES IDX 49 87 58 88 50 89 51 90 57 91 59 92 52 93 53 94 54 95 55 96
REMARK SMILES IDX 56 97
REMARK H PARENT 14 5 18 28 80 47 46 58
REMARK Flexibility Score: inf
ROOT
ATOM      1  C   UNL     1       8.672   3.437  -1.390  1.00  0.00     0.117 C 
ENDROOT
BRANCH   1   2
ATOM      2  N   UNL     1       8.633   4.258  -0.189  1.00  0.00    -0.355 N 
ATOM      3  C   UNL     1       7.810   4.324   0.896  1.00  0.00     0.230 C 
ATOM      4  O   UNL     1       8.211   5.093   1.776  1.00  0.00    -0.274 OA
ATOM      5  H   UNL     1       9.366   4.914  -0.151  1.00  0.00     0.163 HD
BRANCH   3   6
ATOM      6  C   UNL     1       6.507   3.475   1.038  1.00  0.00     0.080 C 
ATOM      7  C   UNL     1       5.590   3.742  -0.180  1.00  0.00     0.027 C 
BRANCH   6   8
ATOM      8  C   UNL     1       6.945   1.982   1.081  1.00  0.00     0.122 C 
BRANCH   8   9
ATOM      9  C   UNL     1       7.519   1.506   2.372  1.00  0.00     0.228 A 
ATOM     10  C   UNL     1       8.024   0.492   4.132  1.00  0.00     0.200 A 
ATOM     11  N   UNL     1       8.605   1.691   4.287  1.00  0.00    -0.060 NA
ATOM     12  N   UNL     1       7.375   0.325   2.929  1.00  0.00    -0.193 NA
ATOM     13  O   UNL     1       8.272   2.366   3.113  1.00  0.00    -0.339 OA
BRANCH  10  14
ATOM     14  C   UNL     1       8.088  -0.610   5.154  1.00  0.00     0.186 C 
ATOM     15  C   UNL     1       9.040  -0.295   6.311  1.00  0.00     0.047 C 
BRANCH  14  16
ATOM     16  O   UNL     1       6.769  -0.904   5.658  1.00  0.00    -0.374 OA
ATOM     17  C   UNL     1       6.684  -2.132   6.364  1.00  0.00     0.195 C 
ENDBRANCH  14  16
ENDBRANCH  10  14
ENDBRANCH   8   9
ENDBRANCH   6   8
BRANCH   6  18
ATOM     18  C   UNL     1       5.620   3.868   2.265  1.00  0.00    -0.032 A 
ATOM     19  C   UNL     1       5.524   5.197   2.716  1.00  0.00     0.005 A 
ATOM     20  C   UNL     1       4.835   2.910   2.942  1.00  0.00     0.005 A 
ATOM     21  C   UNL     1       4.777   5.529   3.851  1.00  0.00     0.000 A 
ATOM     22  C   UNL     1       4.095   3.239   4.080  1.00  0.00     0.000 A 
ATOM     23  C   UNL     1       4.079   4.547   4.545  1.00  0.00     0.000 A 
ENDBRANCH   6  18
ENDBRANCH   3   6
ENDBRANCH   1   2
BRANCH   1  24
ATOM     24  C   UNL     1       8.601   4.262  -2.667  1.00  0.00     0.042 C 
BRANCH  24  25
ATOM     25  C   UNL     1       9.796   5.186  -2.879  1.00  0.00     0.118 C 
BRANCH  25  26
ATOM     26  N   UNL     1      11.052   4.461  -3.038  1.00  0.00    -0.352 N 
ATOM     27  C   UNL     1      11.856   4.309  -4.142  1.00  0.00     0.251 C 
ATOM     28  H   UNL     1      11.375   4.010  -2.225  1.00  0.00     0.163 HD
ATOM     29  O   UNL     1      12.778   3.497  -4.116  1.00  0.00    -0.269 OA
BRANCH  27  30
ATOM     30  C   UNL     1      11.597   5.096  -5.366  1.00  0.00     0.039 A 
ATOM     31  C   UNL     1      11.614   4.452  -6.606  1.00  0.00     0.014 A 
ATOM     32  C   UNL     1      11.326   6.464  -5.290  1.00  0.00     0.014 A 
ATOM     33  C   UNL     1      11.253   5.158  -7.757  1.00  0.00     0.010 A 
ATOM     34  C   UNL     1      10.892   7.145  -6.423  1.00  0.00     0.010 A 
ATOM     35  C   UNL     1      10.833   6.494  -7.665  1.00  0.00    -0.014 A 
BRANCH  35  36
ATOM     36  C   UNL     1      10.279   7.224  -8.834  1.00  0.00     0.031 A 
ATOM     37  C   UNL     1      10.963   8.459  -9.348  1.00  0.00     0.074 A 
ATOM     38  C   UNL     1       9.100   6.832  -9.359  1.00  0.00     0.049 A 
ATOM     39  N   UNL     1      10.557   9.310 -10.255  1.00  0.00    -0.248 NA
ATOM     40  C   UNL     1      12.262   8.798  -8.744  1.00  0.00     0.031 C 
ATOM     41  C   UNL     1       8.319   5.675  -8.917  1.00  0.00     0.029 A 
ATOM     42  N   UNL     1       8.339   7.379 -10.363  1.00  0.00    -0.354 N 
ATOM     43  C   UNL     1      11.537  10.293 -10.318  1.00  0.00     0.074 A 
ATOM     44  C   UNL     1      12.538   9.956  -9.328  1.00  0.00     0.031 C 
ATOM     45  C   UNL     1       7.197   5.593  -9.650  1.00  0.00     0.029 A 
ATOM     46  C   UNL     1       7.153   6.716 -10.580  1.00  0.00     0.049 A 
ATOM     47  H   UNL     1       8.616   8.170 -10.878  1.00  0.00     0.167 HD
ATOM     48  C   UNL     1      11.604  11.367 -11.139  1.00  0.00     0.037 A 
ATOM     49  C   UNL     1       6.133   6.994 -11.415  1.00  0.00     0.037 A 
ATOM     50  C   UNL     1      10.617  11.681 -12.139  1.00  0.00     0.049 A 
ATOM     51  C   UNL     1       6.218   8.208 -12.298  1.00  0.00     0.074 A 
ATOM     52  C   UNL     1      10.632  12.704 -13.071  1.00  0.00     0.029 A 
ATOM     53  N   UNL     1       9.435  10.981 -12.332  1.00  0.00    -0.354 N 
ATOM     54  N   UNL     1       7.184   9.090 -12.391  1.00  0.00    -0.248 NA
ATOM     55  C   UNL     1       5.074   8.471 -13.182  1.00  0.00     0.031 C 
ATOM     56  C   UNL     1       9.439  12.649 -13.799  1.00  0.00     0.029 A 
ATOM     57  C   UNL     1       8.698  11.568 -13.348  1.00  0.00     0.049 A 
ATOM     58  H   UNL     1       9.160  10.185 -11.823  1.00  0.00     0.167 HD
ATOM     59  C   UNL     1       6.771  10.005 -13.352  1.00  0.00     0.074 A 
ATOM     60  C   UNL     1       5.475   9.561 -13.823  1.00  0.00     0.031 C 
ATOM     61  C   UNL     1       7.407  11.115 -13.802  1.00  0.00     0.037 A 
BRANCH  48  62
ATOM     62  C   UNL     1      12.788  12.282 -10.996  1.00  0.00     0.058 A 
ATOM     63  C   UNL     1      14.073  11.892 -11.407  1.00  0.00     0.135 A 
ATOM     64  C   UNL     1      12.633  13.578 -10.476  1.00  0.00     0.135 A 
ATOM     65  F   UNL     1      14.280  10.660 -11.898  1.00  0.00    -0.206 F 
ATOM     66  C   UNL     1      15.166  12.743 -11.283  1.00  0.00     0.059 A 
ATOM     67  C   UNL     1      13.708  14.455 -10.366  1.00  0.00     0.059 A 
ATOM     68  F   UNL     1      11.426  14.001 -10.067  1.00  0.00    -0.206 F 
ATOM     69  C   UNL     1      14.973  14.022 -10.759  1.00  0.00     0.060 A 
BRANCH  69  70
ATOM     70  S   UNL     1      16.403  15.115 -10.608  1.00  0.00     0.124 S 
ATOM     71  O   UNL     1      17.102  14.521  -9.472  1.00  0.00    -0.237 OA
ATOM     72  O   UNL     1      17.055  14.958 -11.904  1.00  0.00    -0.237 OA
ATOM     73  O   UNL     1      15.806  16.424 -10.363  1.00  0.00    -0.744 OA
ENDBRANCH  69  70
ENDBRANCH  48  62
BRANCH  49  74
ATOM     74  C   UNL     1       4.941   6.106 -11.451  1.00  0.00     0.058 A 
ATOM     75  C   UNL     1       4.701   5.271 -12.551  1.00  0.00     0.135 A 
ATOM     76  C   UNL     1       4.034   6.057 -10.381  1.00  0.00     0.135 A 
ATOM     77  F   UNL     1       5.536   5.288 -13.601  1.00  0.00    -0.206 F 
ATOM     78  C   UNL     1       3.598   4.424 -12.596  1.00  0.00     0.059 A 
ATOM     79  C   UNL     1       2.936   5.202 -10.392  1.00  0.00     0.059 A 
ATOM     80  F   UNL     1       4.229   6.825  -9.297  1.00  0.00    -0.206 F 
ATOM     81  C   UNL     1       2.723   4.394 -11.508  1.00  0.00     0.060 A 
BRANCH  81  82
ATOM     82  S   UNL     1       1.327   3.248 -11.550  1.00  0.00     0.124 S 
ATOM     83  O   UNL     1       0.433   3.909 -12.492  1.00  0.00    -0.237 OA
ATOM     84  O   UNL     1       1.955   2.017 -12.021  1.00  0.00    -0.237 OA
ATOM     85  O   UNL     1       0.877   3.220 -10.162  1.00  0.00    -0.744 OA
ENDBRANCH  81  82
ENDBRANCH  49  74
BRANCH  61  86
ATOM     86  C   UNL     1       6.718  11.928 -14.860  1.00  0.00     0.058 A 
ATOM     87  C   UNL     1       5.632  12.760 -14.549  1.00  0.00     0.135 A 
ATOM     88  C   UNL     1       7.194  11.933 -16.181  1.00  0.00     0.135 A 
ATOM     89  F   UNL     1       5.132  12.782 -13.303  1.00  0.00    -0.206 F 
ATOM     90  C   UNL     1       5.038  13.567 -15.513  1.00  0.00     0.059 A 
ATOM     91  C   UNL     1       6.630  12.750 -17.156  1.00  0.00     0.059 A 
ATOM     92  F   UNL     1       8.234  11.158 -16.527  1.00  0.00    -0.206 F 
ATOM     93  C   UNL     1       5.549  13.560 -16.813  1.00  0.00     0.060 A 
BRANCH  93  94
ATOM     94  S   UNL     1       4.808  14.660 -18.038  1.00  0.00     0.124 S 
ATOM     95  O   UNL     1       3.545  13.984 -18.315  1.00  0.00    -0.237 OA
ATOM     96  O   UNL     1       4.707  15.919 -17.307  1.00  0.00    -0.237 OA
ATOM     97  O   UNL     1       5.777  14.653 -19.130  1.00  0.00    -0.744 OA
ENDBRANCH  93  94
ENDBRANCH  61  86
ENDBRANCH  35  36
ENDBRANCH  27  30
ENDBRANCH  25  26
ENDBRANCH  24  25
ENDBRANCH   1  24
TORSDOF 18
