REMARK SMILES Cc1ccccc1/[NH+]=C1\S[C@@H](CC(=O)Nc2ccc(C(=O)NCCCNC(=O)c3ccc(-c4c5nc(c(-c6c(F)cc(S(=O)(=O)[O-])cc6F)c6ccc([nH]6)c(-c6c(F)cc(S(=O)(=O)[O-])cc6F)c6nc(c(-c7c(F)cc(S(=O)(=O)[O-])cc7F)c7ccc4[nH]7)C=C6)C=C5)cc3)cc2)C(=O)N1C
REMARK SMILES IDX 23 1 22 2 20 3 21 4 19 6 16 7 17 8 96 9 18 10 95 11 15 12
REMARK SMILES IDX 13 13 14 14 12 16 11 17 8 18 9 19 10 21 99 22 97 23 100 24
REMARK SMILES IDX 98 25 7 26 1 27 2 28 3 29 4 30 6 31 5 32 24 33 25 34 26 35
REMARK SMILES IDX 27 36 28 38 29 39 30 40 94 41 31 42 93 43 32 44 33 45 34 46
REMARK SMILES IDX 87 47 35 48 92 49 86 50 88 51 36 52 91 53 85 54 84 55 37 57
REMARK SMILES IDX 71 58 50 59 70 60 51 61 54 62 69 63 89 64 52 65 53 66 68 68
REMARK SMILES IDX 90 69 55 70 38 71 39 72 48 73 40 74 41 75 47 76 49 77 42 78
REMARK SMILES IDX 43 79 44 80 45 81 46 82 72 83 73 84 82 85 74 86 75 87 81 88
REMARK SMILES IDX 83 89 76 90 77 91 78 92 79 93 80 94 56 95 57 96 66 97 58 98
REMARK SMILES IDX 59 99 65 100 67 101 60 102 61 103 62 104 63 105 64 106
REMARK H PARENT 22 5 15 15 8 20 26 37 88 56 54 67
REMARK Flexibility Score: inf
ROOT
ATOM      1  C   UNL     1       3.148   4.922  -3.021  1.00  0.00     0.118 C 
ENDROOT
BRANCH   1   2
ATOM      2  N   UNL     1       4.056   5.960  -3.502  1.00  0.00    -0.352 N 
ATOM      3  C   UNL     1       5.399   6.146  -3.250  1.00  0.00     0.251 C 
ATOM      4  O   UNL     1       6.071   6.861  -3.990  1.00  0.00    -0.269 OA
ATOM      5  H   UNL     1       3.646   6.629  -4.097  1.00  0.00     0.163 HD
BRANCH   3   6
ATOM      6  C   UNL     1       6.071   5.493  -2.100  1.00  0.00     0.039 A 
ATOM      7  C   UNL     1       7.322   4.168   0.019  1.00  0.00     0.041 A 
ATOM      8  C   UNL     1       6.079   4.771   0.194  1.00  0.00     0.027 A 
ATOM      9  C   UNL     1       8.025   4.371  -1.163  1.00  0.00     0.027 A 
ATOM     10  C   UNL     1       5.456   5.431  -0.856  1.00  0.00     0.016 A 
ATOM     11  C   UNL     1       7.389   5.023  -2.231  1.00  0.00     0.016 A 
BRANCH   7  12
ATOM     12  N   UNL     1       7.827   3.327   1.018  1.00  0.00    -0.326 N 
ATOM     13  C   UNL     1       7.182   2.212   1.514  1.00  0.00     0.226 C 
ATOM     14  O   UNL     1       7.563   1.669   2.550  1.00  0.00    -0.275 OA
ATOM     15  H   UNL     1       8.708   3.548   1.396  1.00  0.00     0.169 HD
BRANCH  13  16
ATOM     16  C   UNL     1       6.132   1.559   0.624  1.00  0.00     0.128 C 
BRANCH  16  17
ATOM     17  C   UNL     1       4.731   1.480   1.191  1.00  0.00     0.183 C 
ATOM     18  N   UNL     1       1.032   1.769   0.784  1.00  0.00    -0.234 N 
ATOM     19  C   UNL     1       2.295   1.977   0.701  1.00  0.00     0.319 C 
ATOM     20  H   UNL     1       0.527   2.426   1.315  1.00  0.00     0.313 HD
ATOM     21  S   UNL     1       3.538   1.126  -0.156  1.00  0.00    -0.022 SA
ATOM     22  N   UNL     1       2.877   2.979   1.422  1.00  0.00    -0.193 N 
ATOM     23  C   UNL     1       4.165   2.728   1.843  1.00  0.00     0.324 C 
ATOM     24  C   UNL     1       2.149   4.137   1.899  1.00  0.00     0.301 C 
ATOM     25  O   UNL     1       4.738   3.358   2.726  1.00  0.00    -0.245 OA
BRANCH  18  26
ATOM     26  C   UNL     1       0.272   0.733   0.222  1.00  0.00     0.128 A 
ATOM     27  C   UNL     1       1.762  -1.268   0.896  1.00  0.00     0.049 C 
ATOM     28  C   UNL     1       0.516  -0.654   0.327  1.00  0.00    -0.004 A 
ATOM     29  C   UNL     1      -0.462  -1.564  -0.129  1.00  0.00     0.008 A 
ATOM     30  C   UNL     1      -1.694  -1.127  -0.607  1.00  0.00     0.001 A 
ATOM     31  C   UNL     1      -0.977   1.145  -0.278  1.00  0.00     0.052 A 
ATOM     32  C   UNL     1      -1.954   0.233  -0.678  1.00  0.00     0.004 A 
ENDBRANCH  18  26
ENDBRANCH  16  17
ENDBRANCH  13  16
ENDBRANCH   7  12
ENDBRANCH   3   6
ENDBRANCH   1   2
BRANCH   1  33
ATOM     33  C   UNL     1       2.126   5.403  -1.988  1.00  0.00     0.042 C 
BRANCH  33  34
ATOM     34  C   UNL     1       0.902   6.086  -2.592  1.00  0.00     0.118 C 
BRANCH  34  35
ATOM     35  N   UNL     1      -0.342   5.633  -1.965  1.00  0.00    -0.352 N 
ATOM     36  C   UNL     1      -1.621   6.165  -2.091  1.00  0.00     0.251 C 
ATOM     37  H   UNL     1      -0.262   4.848  -1.377  1.00  0.00     0.163 HD
ATOM     38  O   UNL     1      -2.569   5.686  -1.523  1.00  0.00    -0.269 OA
BRANCH  36  39
ATOM     39  C   UNL     1      -1.764   7.336  -2.984  1.00  0.00     0.039 A 
ATOM     40  C   UNL     1      -2.424   7.172  -4.205  1.00  0.00     0.014 A 
ATOM     41  C   UNL     1      -1.007   8.471  -2.717  1.00  0.00     0.014 A 
ATOM     42  C   UNL     1      -2.162   8.063  -5.246  1.00  0.00     0.010 A 
ATOM     43  C   UNL     1      -0.682   9.299  -3.774  1.00  0.00     0.010 A 
ATOM     44  C   UNL     1      -1.218   9.073  -5.054  1.00  0.00    -0.014 A 
BRANCH  44  45
ATOM     45  C   UNL     1      -0.615   9.862  -6.130  1.00  0.00     0.031 A 
ATOM     46  C   UNL     1      -0.764  11.341  -6.167  1.00  0.00     0.074 A 
ATOM     47  C   UNL     1       0.230   9.275  -7.010  1.00  0.00     0.049 A 
ATOM     48  N   UNL     1      -0.404  12.086  -7.158  1.00  0.00    -0.248 NA
ATOM     49  C   UNL     1      -1.372  12.104  -5.080  1.00  0.00     0.031 C 
ATOM     50  C   UNL     1       1.264   9.939  -7.801  1.00  0.00     0.029 A 
ATOM     51  N   UNL     1       0.216   7.975  -7.502  1.00  0.00    -0.354 N 
ATOM     52  C   UNL     1      -0.494  13.401  -6.766  1.00  0.00     0.074 A 
ATOM     53  C   UNL     1      -1.121  13.359  -5.465  1.00  0.00     0.031 C 
ATOM     54  C   UNL     1       1.631   9.137  -8.810  1.00  0.00     0.029 A 
ATOM     55  C   UNL     1       0.740   7.993  -8.808  1.00  0.00     0.049 A 
ATOM     56  H   UNL     1      -0.104   7.179  -7.019  1.00  0.00     0.167 HD
ATOM     57  C   UNL     1       0.051  14.380  -7.543  1.00  0.00     0.037 A 
ATOM     58  C   UNL     1      -0.013   7.598  -9.879  1.00  0.00     0.037 A 
ATOM     59  C   UNL     1       0.588  13.851  -8.792  1.00  0.00     0.049 A 
ATOM     60  C   UNL     1      -0.333   8.695 -10.876  1.00  0.00     0.074 A 
ATOM     61  C   UNL     1       1.843  13.455  -9.223  1.00  0.00     0.029 A 
ATOM     62  N   UNL     1      -0.302  13.408  -9.749  1.00  0.00    -0.354 N 
ATOM     63  N   UNL     1       0.099   9.923 -10.794  1.00  0.00    -0.248 NA
ATOM     64  C   UNL     1      -1.251   8.507 -12.005  1.00  0.00     0.031 C 
ATOM     65  C   UNL     1       1.685  12.731 -10.439  1.00  0.00     0.029 A 
ATOM     66  C   UNL     1       0.336  12.692 -10.742  1.00  0.00     0.049 A 
ATOM     67  H   UNL     1      -1.271  13.580  -9.726  1.00  0.00     0.167 HD
ATOM     68  C   UNL     1      -0.553  10.690 -11.723  1.00  0.00     0.074 A 
ATOM     69  C   UNL     1      -1.349   9.755 -12.493  1.00  0.00     0.031 C 
ATOM     70  C   UNL     1      -0.468  12.047 -11.761  1.00  0.00     0.037 A 
BRANCH  57  71
ATOM     71  C   UNL     1       0.257  15.803  -7.089  1.00  0.00     0.058 A 
ATOM     72  C   UNL     1       1.375  16.542  -7.531  1.00  0.00     0.135 A 
ATOM     73  C   UNL     1      -0.595  16.486  -6.200  1.00  0.00     0.135 A 
ATOM     74  F   UNL     1       2.233  16.043  -8.431  1.00  0.00    -0.206 F 
ATOM     75  C   UNL     1       1.678  17.816  -7.053  1.00  0.00     0.059 A 
ATOM     76  C   UNL     1      -0.281  17.737  -5.659  1.00  0.00     0.059 A 
ATOM     77  F   UNL     1      -1.786  15.979  -5.851  1.00  0.00    -0.206 F 
ATOM     78  C   UNL     1       0.865  18.393  -6.088  1.00  0.00     0.060 A 
BRANCH  78  79
ATOM     79  S   UNL     1       1.337  19.990  -5.399  1.00  0.00     0.124 S 
ATOM     80  O   UNL     1       2.730  19.766  -5.025  1.00  0.00    -0.237 OA
ATOM     81  O   UNL     1       1.120  20.884  -6.531  1.00  0.00    -0.237 OA
ATOM     82  O   UNL     1       0.417  20.161  -4.278  1.00  0.00    -0.744 OA
ENDBRANCH  78  79
ENDBRANCH  57  71
BRANCH  58  83
ATOM     83  C   UNL     1      -0.908   6.458  -9.552  1.00  0.00     0.058 A 
ATOM     84  C   UNL     1      -0.297   5.224  -9.259  1.00  0.00     0.135 A 
ATOM     85  C   UNL     1      -2.208   6.678  -9.078  1.00  0.00     0.135 A 
ATOM     86  F   UNL     1       0.940   4.962  -9.712  1.00  0.00    -0.206 F 
ATOM     87  C   UNL     1      -0.867   4.332  -8.363  1.00  0.00     0.059 A 
ATOM     88  C   UNL     1      -2.805   5.790  -8.187  1.00  0.00     0.059 A 
ATOM     89  F   UNL     1      -2.839   7.832  -9.341  1.00  0.00    -0.206 F 
ATOM     90  C   UNL     1      -2.086   4.667  -7.775  1.00  0.00     0.060 A 
BRANCH  90  91
ATOM     91  S   UNL     1      -2.578   3.745  -6.301  1.00  0.00     0.124 S 
ATOM     92  O   UNL     1      -2.641   2.377  -6.801  1.00  0.00    -0.237 OA
ATOM     93  O   UNL     1      -1.467   4.043  -5.398  1.00  0.00    -0.237 OA
ATOM     94  O   UNL     1      -3.856   4.348  -5.940  1.00  0.00    -0.744 OA
ENDBRANCH  90  91
ENDBRANCH  58  83
BRANCH  70  95
ATOM     95  C   UNL     1      -1.189  12.869 -12.781  1.00  0.00     0.058 A 
ATOM     96  C   UNL     1      -0.980  12.673 -14.154  1.00  0.00     0.135 A 
ATOM     97  C   UNL     1      -2.003  13.957 -12.410  1.00  0.00     0.135 A 
ATOM     98  F   UNL     1      -0.205  11.664 -14.586  1.00  0.00    -0.206 F 
ATOM     99  C   UNL     1      -1.550  13.509 -15.111  1.00  0.00     0.059 A 
ATOM    100  C   UNL     1      -2.551  14.828 -13.345  1.00  0.00     0.059 A 
ATOM    101  F   UNL     1      -2.299  14.188 -11.121  1.00  0.00    -0.206 F 
ATOM    102  C   UNL     1      -2.329  14.589 -14.697  1.00  0.00     0.060 A 
BRANCH 102 103
ATOM    103  S   UNL     1      -3.026  15.709 -15.927  1.00  0.00     0.124 S 
ATOM    104  O   UNL     1      -2.038  15.669 -17.000  1.00  0.00    -0.237 OA
ATOM    105  O   UNL     1      -4.301  15.061 -16.219  1.00  0.00    -0.237 OA
ATOM    106  O   UNL     1      -3.112  16.978 -15.211  1.00  0.00    -0.744 OA
ENDBRANCH 102 103
ENDBRANCH  70  95
ENDBRANCH  44  45
ENDBRANCH  36  39
ENDBRANCH  34  35
ENDBRANCH  33  34
ENDBRANCH   1  33
TORSDOF 17
