REMARK SMILES C[C@H]1[C@H](C(=O)NCCCNC(=O)c2ccc(-c3c4nc(c(-c5c(F)cc(S(=O)(=O)[O-])cc5F)c5ccc([nH]5)c(-c5c(F)cc(S(=O)(=O)[O-])cc5F)c5nc(c(-c6c(F)cc(S(=O)(=O)[O-])cc6F)c6ccc3[nH]6)C=C5)C=C4)cc2)CCN1C(=O)Nc1ccc(F)c(Cl)c1
REMARK SMILES IDX 8 1 7 2 6 3 4 4 5 5 3 7 1 8 2 9 81 10 79 11 80 12 82 13
REMARK SMILES IDX 83 14 84 15 85 17 86 18 92 19 87 20 90 21 88 22 91 23 89 24
REMARK SMILES IDX 9 25 10 26 11 27 12 29 13 30 14 31 78 32 15 33 77 34 16 35
REMARK SMILES IDX 17 36 18 37 71 38 19 39 76 40 70 41 72 42 20 43 75 44 69 45
REMARK SMILES IDX 68 46 21 48 55 49 34 50 54 51 35 52 38 53 53 54 73 55 36 56
REMARK SMILES IDX 37 57 52 59 74 60 39 61 22 62 23 63 32 64 24 65 25 66 31 67
REMARK SMILES IDX 33 68 26 69 27 70 28 71 29 72 30 73 56 74 57 75 66 76 58 77
REMARK SMILES IDX 59 78 65 79 67 80 60 81 61 82 62 83 63 84 64 85 40 86 41 87
REMARK SMILES IDX 50 88 42 89 43 90 49 91 51 92 44 93 45 94 46 95 47 96 48 97
REMARK H PARENT 6 6 84 16 10 28 72 47 38 58
REMARK Flexibility Score: inf
ROOT
ATOM      1  C   UNL     1      -0.578   0.253   4.173  1.00  0.00     0.042 C 
ENDROOT
BRANCH   1   2
ATOM      2  C   UNL     1      -1.306   0.745   2.927  1.00  0.00     0.117 C 
BRANCH   2   3
ATOM      3  N   UNL     1      -0.703   1.931   2.334  1.00  0.00    -0.356 N 
ATOM      4  C   UNL     1      -0.329   2.243   1.067  1.00  0.00     0.225 C 
ATOM      5  O   UNL     1       0.063   3.400   0.877  1.00  0.00    -0.275 OA
ATOM      6  H   UNL     1      -0.532   2.652   2.983  1.00  0.00     0.163 HD
BRANCH   4   7
ATOM      7  C   UNL     1      -0.314   1.258  -0.097  1.00  0.00     0.102 C 
ATOM      8  C   UNL     1       1.750   0.261  -1.167  1.00  0.00     0.032 C 
ATOM      9  C   UNL     1       0.813   0.223   0.042  1.00  0.00     0.096 C 
ATOM     10  N   UNL     1       0.144  -1.073   0.174  1.00  0.00    -0.321 N 
ATOM     11  C   UNL     1      -1.605   0.488  -0.333  1.00  0.00     0.037 C 
ATOM     12  C   UNL     1      -1.213  -0.980  -0.343  1.00  0.00     0.122 C 
BRANCH  10  13
ATOM     13  C   UNL     1       0.633  -2.331   0.423  1.00  0.00     0.322 C 
ATOM     14  O   UNL     1      -0.079  -3.324   0.236  1.00  0.00    -0.248 OA
ATOM     15  N   UNL     1       1.932  -2.576   0.729  1.00  0.00    -0.308 N 
ATOM     16  H   UNL     1       2.226  -3.471   0.441  1.00  0.00     0.171 HD
BRANCH  15  17
ATOM     17  C   UNL     1       2.950  -1.853   1.359  1.00  0.00     0.044 A 
ATOM     18  C   UNL     1       4.277  -2.161   1.047  1.00  0.00     0.029 A 
ATOM     19  C   UNL     1       2.694  -0.877   2.313  1.00  0.00     0.049 A 
ATOM     20  C   UNL     1       5.319  -1.389   1.570  1.00  0.00     0.043 A 
ATOM     21  C   UNL     1       3.724  -0.088   2.825  1.00  0.00     0.078 A 
ATOM     22  C   UNL     1       5.033  -0.335   2.433  1.00  0.00     0.141 A 
ATOM     23  Cl  UNL     1       3.344   1.208   3.892  1.00  0.00    -0.081 Cl
ATOM     24  F   UNL     1       6.038   0.438   2.868  1.00  0.00    -0.205 F 
ENDBRANCH  15  17
ENDBRANCH  10  13
ENDBRANCH   4   7
ENDBRANCH   2   3
ENDBRANCH   1   2
BRANCH   1  25
ATOM     25  C   UNL     1      -0.561   1.212   5.355  1.00  0.00     0.118 C 
BRANCH  25  26
ATOM     26  N   UNL     1      -1.768   1.131   6.156  1.00  0.00    -0.352 N 
ATOM     27  C   UNL     1      -2.007   0.531   7.370  1.00  0.00     0.251 C 
ATOM     28  H   UNL     1      -2.549   1.583   5.763  1.00  0.00     0.163 HD
ATOM     29  O   UNL     1      -3.174   0.437   7.749  1.00  0.00    -0.269 OA
BRANCH  27  30
ATOM     30  C   UNL     1      -0.917  -0.024   8.216  1.00  0.00     0.039 A 
ATOM     31  C   UNL     1      -1.188  -1.171   8.973  1.00  0.00     0.014 A 
ATOM     32  C   UNL     1       0.330   0.591   8.348  1.00  0.00     0.014 A 
ATOM     33  C   UNL     1      -0.207  -1.716   9.811  1.00  0.00     0.010 A 
ATOM     34  C   UNL     1       1.339  -0.006   9.111  1.00  0.00     0.010 A 
ATOM     35  C   UNL     1       1.079  -1.156   9.868  1.00  0.00    -0.014 A 
BRANCH  35  36
ATOM     36  C   UNL     1       2.137  -1.750  10.735  1.00  0.00     0.031 A 
ATOM     37  C   UNL     1       2.735  -0.958  11.871  1.00  0.00     0.074 A 
ATOM     38  C   UNL     1       2.589  -2.995  10.484  1.00  0.00     0.049 A 
ATOM     39  N   UNL     1       3.677  -1.302  12.714  1.00  0.00    -0.248 NA
ATOM     40  C   UNL     1       2.226   0.408  12.073  1.00  0.00     0.031 C 
ATOM     41  C   UNL     1       2.140  -3.852   9.384  1.00  0.00     0.029 A 
ATOM     42  N   UNL     1       3.527  -3.759  11.134  1.00  0.00    -0.354 N 
ATOM     43  C   UNL     1       3.881  -0.196  13.534  1.00  0.00     0.074 A 
ATOM     44  C   UNL     1       3.005   0.849  13.050  1.00  0.00     0.031 C 
ATOM     45  C   UNL     1       2.784  -5.028   9.451  1.00  0.00     0.029 A 
ATOM     46  C   UNL     1       3.713  -5.002  10.577  1.00  0.00     0.049 A 
ATOM     47  H   UNL     1       4.022  -3.445  11.926  1.00  0.00     0.167 HD
ATOM     48  C   UNL     1       4.699  -0.068  14.607  1.00  0.00     0.037 A 
ATOM     49  C   UNL     1       4.537  -6.009  10.928  1.00  0.00     0.037 A 
ATOM     50  C   UNL     1       5.552  -1.116  15.106  1.00  0.00     0.049 A 
ATOM     51  C   UNL     1       5.420  -5.855  12.135  1.00  0.00     0.074 A 
ATOM     52  C   UNL     1       6.377  -1.099  16.218  1.00  0.00     0.029 A 
ATOM     53  N   UNL     1       5.689  -2.370  14.529  1.00  0.00    -0.354 N 
ATOM     54  N   UNL     1       5.553  -4.821  12.932  1.00  0.00    -0.248 NA
ATOM     55  C   UNL     1       6.257  -7.007  12.498  1.00  0.00     0.031 C 
ATOM     56  C   UNL     1       7.040  -2.330  16.292  1.00  0.00     0.029 A 
ATOM     57  C   UNL     1       6.595  -3.129  15.252  1.00  0.00     0.049 A 
ATOM     58  H   UNL     1       5.213  -2.675  13.723  1.00  0.00     0.167 HD
ATOM     59  C   UNL     1       6.475  -5.204  13.900  1.00  0.00     0.074 A 
ATOM     60  C   UNL     1       6.851  -6.570  13.601  1.00  0.00     0.031 C 
ATOM     61  C   UNL     1       6.966  -4.487  14.942  1.00  0.00     0.037 A 
BRANCH  48  62
ATOM     62  C   UNL     1       4.701   1.256  15.324  1.00  0.00     0.058 A 
ATOM     63  C   UNL     1       3.602   1.679  16.089  1.00  0.00     0.135 A 
ATOM     64  C   UNL     1       5.822   2.101  15.269  1.00  0.00     0.135 A 
ATOM     65  F   UNL     1       2.499   0.918  16.166  1.00  0.00    -0.206 F 
ATOM     66  C   UNL     1       3.598   2.907  16.743  1.00  0.00     0.059 A 
ATOM     67  C   UNL     1       5.851   3.321  15.939  1.00  0.00     0.059 A 
ATOM     68  F   UNL     1       6.902   1.746  14.556  1.00  0.00    -0.206 F 
ATOM     69  C   UNL     1       4.727   3.724  16.659  1.00  0.00     0.060 A 
BRANCH  69  70
ATOM     70  S   UNL     1       4.704   5.316  17.508  1.00  0.00     0.124 S 
ATOM     71  O   UNL     1       3.828   6.096  16.640  1.00  0.00    -0.237 OA
ATOM     72  O   UNL     1       4.154   4.968  18.814  1.00  0.00    -0.237 OA
ATOM     73  O   UNL     1       6.107   5.721  17.511  1.00  0.00    -0.744 OA
ENDBRANCH  69  70
ENDBRANCH  48  62
BRANCH  49  74
ATOM     74  C   UNL     1       4.544  -7.267  10.133  1.00  0.00     0.058 A 
ATOM     75  C   UNL     1       3.991  -8.450  10.644  1.00  0.00     0.135 A 
ATOM     76  C   UNL     1       5.082  -7.303   8.838  1.00  0.00     0.135 A 
ATOM     77  F   UNL     1       3.471  -8.467  11.881  1.00  0.00    -0.206 F 
ATOM     78  C   UNL     1       3.980  -9.628   9.905  1.00  0.00     0.059 A 
ATOM     79  C   UNL     1       5.062  -8.463   8.070  1.00  0.00     0.059 A 
ATOM     80  F   UNL     1       5.609  -6.193   8.297  1.00  0.00    -0.206 F 
ATOM     81  C   UNL     1       4.515  -9.623   8.616  1.00  0.00     0.060 A 
BRANCH  81  82
ATOM     82  S   UNL     1       4.442 -11.140   7.638  1.00  0.00     0.124 S 
ATOM     83  O   UNL     1       5.491 -11.941   8.258  1.00  0.00    -0.237 OA
ATOM     84  O   UNL     1       3.073 -11.590   7.871  1.00  0.00    -0.237 OA
ATOM     85  O   UNL     1       4.718 -10.677   6.282  1.00  0.00    -0.744 OA
ENDBRANCH  81  82
ENDBRANCH  49  74
BRANCH  61  86
ATOM     86  C   UNL     1       7.951  -5.175  15.847  1.00  0.00     0.058 A 
ATOM     87  C   UNL     1       9.267  -5.439  15.438  1.00  0.00     0.135 A 
ATOM     88  C   UNL     1       7.582  -5.549  17.149  1.00  0.00     0.135 A 
ATOM     89  F   UNL     1       9.670  -5.106  14.201  1.00  0.00    -0.206 F 
ATOM     90  C   UNL     1      10.175  -6.077  16.276  1.00  0.00     0.059 A 
ATOM     91  C   UNL     1       8.481  -6.166  18.014  1.00  0.00     0.059 A 
ATOM     92  F   UNL     1       6.338  -5.310  17.595  1.00  0.00    -0.206 F 
ATOM     93  C   UNL     1       9.771  -6.440  17.562  1.00  0.00     0.060 A 
BRANCH  93  94
ATOM     94  S   UNL     1      10.961  -7.258  18.647  1.00  0.00     0.124 S 
ATOM     95  O   UNL     1      10.982  -8.608  18.095  1.00  0.00    -0.237 OA
ATOM     96  O   UNL     1      12.171  -6.468  18.439  1.00  0.00    -0.237 OA
ATOM     97  O   UNL     1      10.357  -7.129  19.970  1.00  0.00    -0.744 OA
ENDBRANCH  93  94
ENDBRANCH  61  86
ENDBRANCH  35  36
ENDBRANCH  27  30
ENDBRANCH  25  26
ENDBRANCH   1  25
TORSDOF 15
