REMARK SMILES C[C@H]1C[C@](C(=O)NCCCNC(=O)c2ccc(-c3c4nc(c(-c5c(F)cc(S(=O)(=O)[O-])cc5F)c5ccc([nH]5)c(-c5c(F)cc(S(=O)(=O)[O-])cc5F)c5nc(c(-c6c(F)cc(S(=O)(=O)[O-])cc6F)c6ccc3[nH]6)C=C5)C=C4)cc2)(N(C=O)C2CC2)CS1
REMARK SMILES IDX 9 1 8 2 7 3 5 4 6 5 4 7 1 8 2 9 3 10 87 11 86 12 80 13 81 14
REMARK SMILES IDX 82 15 83 16 84 17 85 18 10 19 11 20 12 21 13 23 14 24 15 25
REMARK SMILES IDX 79 26 16 27 78 28 17 29 18 30 19 31 72 32 20 33 77 34 71 35
REMARK SMILES IDX 73 36 21 37 76 38 70 39 69 40 22 42 56 43 35 44 55 45 36 46
REMARK SMILES IDX 39 47 54 48 74 49 37 50 38 51 53 53 75 54 40 55 23 56 24 57
REMARK SMILES IDX 33 58 25 59 26 60 32 61 34 62 27 63 28 64 29 65 30 66 31 67
REMARK SMILES IDX 57 68 58 69 67 70 59 71 60 72 66 73 68 74 61 75 62 76 63 77
REMARK SMILES IDX 64 78 65 79 41 80 42 81 51 82 43 83 44 84 50 85 52 86 45 87
REMARK SMILES IDX 46 88 47 89 48 90 49 91
REMARK H PARENT 7 6 11 22 73 41 39 52
REMARK Flexibility Score: inf
ROOT
ATOM      1  C   UNL     1      -0.598   4.680   1.645  1.00  0.00     0.042 C 
ENDROOT
BRANCH   1   2
ATOM      2  C   UNL     1       0.499   4.269   2.620  1.00  0.00     0.117 C 
BRANCH   2   3
ATOM      3  N   UNL     1      -0.040   3.495   3.728  1.00  0.00    -0.354 N 
ATOM      4  C   UNL     1       0.176   2.209   4.131  1.00  0.00     0.246 C 
ATOM      5  O   UNL     1      -0.352   1.905   5.205  1.00  0.00    -0.272 OA
ATOM      6  H   UNL     1      -0.677   3.991   4.291  1.00  0.00     0.163 HD
BRANCH   4   7
ATOM      7  C   UNL     1       1.138   1.231   3.365  1.00  0.00     0.131 C 
ATOM      8  C   UNL     1      -1.415  -0.213   1.410  1.00  0.00     0.019 C 
ATOM      9  C   UNL     1       0.108  -0.210   1.488  1.00  0.00     0.046 C 
ATOM     10  C   UNL     1       0.672   1.154   1.883  1.00  0.00     0.054 C 
ATOM     11  S   UNL     1       0.711  -1.398   2.703  1.00  0.00    -0.156 SA
ATOM     12  C   UNL     1       0.974  -0.171   4.010  1.00  0.00     0.108 C 
BRANCH   7  13
ATOM     13  N   UNL     1       2.574   1.714   3.490  1.00  0.00    -0.327 N 
BRANCH  13  14
ATOM     14  C   UNL     1       2.960   2.711   4.394  1.00  0.00     0.341 C 
ATOM     15  O   UNL     1       4.110   3.095   4.586  1.00  0.00    -0.279 OA
ENDBRANCH  13  14
BRANCH  13  16
ATOM     16  C   UNL     1       3.687   0.922   2.977  1.00  0.00     0.086 C 
ATOM     17  C   UNL     1       3.748  -0.044   1.832  1.00  0.00     0.027 C 
ATOM     18  C   UNL     1       4.340   1.320   1.674  1.00  0.00     0.027 C 
ENDBRANCH  13  16
ENDBRANCH   7  13
ENDBRANCH   4   7
ENDBRANCH   2   3
ENDBRANCH   1   2
BRANCH   1  19
ATOM     19  C   UNL     1      -1.629   5.628   2.248  1.00  0.00     0.118 C 
BRANCH  19  20
ATOM     20  N   UNL     1      -1.078   6.945   2.530  1.00  0.00    -0.352 N 
ATOM     21  C   UNL     1      -1.473   8.172   2.044  1.00  0.00     0.251 C 
ATOM     22  H   UNL     1      -0.317   6.962   3.154  1.00  0.00     0.163 HD
ATOM     23  O   UNL     1      -0.778   9.159   2.234  1.00  0.00    -0.269 OA
BRANCH  21  24
ATOM     24  C   UNL     1      -2.729   8.274   1.270  1.00  0.00     0.039 A 
ATOM     25  C   UNL     1      -2.727   8.968   0.058  1.00  0.00     0.014 A 
ATOM     26  C   UNL     1      -3.897   7.661   1.731  1.00  0.00     0.014 A 
ATOM     27  C   UNL     1      -3.880   8.979  -0.732  1.00  0.00     0.010 A 
ATOM     28  C   UNL     1      -5.016   7.605   0.908  1.00  0.00     0.010 A 
ATOM     29  C   UNL     1      -5.019   8.260  -0.334  1.00  0.00    -0.014 A 
BRANCH  29  30
ATOM     30  C   UNL     1      -6.226   8.165  -1.194  1.00  0.00     0.031 A 
ATOM     31  C   UNL     1      -7.540   8.707  -0.701  1.00  0.00     0.074 A 
ATOM     32  C   UNL     1      -6.162   7.506  -2.368  1.00  0.00     0.049 A 
ATOM     33  N   UNL     1      -8.730   8.596  -1.231  1.00  0.00    -0.248 NA
ATOM     34  C   UNL     1      -7.516   9.444   0.573  1.00  0.00     0.031 C 
ATOM     35  C   UNL     1      -4.954   6.903  -2.936  1.00  0.00     0.029 A 
ATOM     36  N   UNL     1      -7.139   7.212  -3.287  1.00  0.00    -0.354 N 
ATOM     37  C   UNL     1      -9.598   9.227  -0.347  1.00  0.00     0.074 A 
ATOM     38  C   UNL     1      -8.804   9.676   0.776  1.00  0.00     0.031 C 
ATOM     39  C   UNL     1      -5.260   6.321  -4.107  1.00  0.00     0.029 A 
ATOM     40  C   UNL     1      -6.691   6.466  -4.352  1.00  0.00     0.049 A 
ATOM     41  H   UNL     1      -8.073   7.508  -3.191  1.00  0.00     0.167 HD
ATOM     42  C   UNL     1     -10.931   9.430  -0.470  1.00  0.00     0.037 A 
ATOM     43  C   UNL     1      -7.360   5.940  -5.397  1.00  0.00     0.037 A 
ATOM     44  C   UNL     1     -11.707   9.002  -1.605  1.00  0.00     0.049 A 
ATOM     45  C   UNL     1      -8.843   6.171  -5.510  1.00  0.00     0.074 A 
ATOM     46  C   UNL     1     -13.053   9.210  -1.852  1.00  0.00     0.029 A 
ATOM     47  N   UNL     1     -11.209   8.278  -2.679  1.00  0.00    -0.354 N 
ATOM     48  N   UNL     1      -9.639   6.818  -4.692  1.00  0.00    -0.248 NA
ATOM     49  C   UNL     1      -9.520   5.605  -6.685  1.00  0.00     0.031 C 
ATOM     50  C   UNL     1     -13.379   8.569  -3.051  1.00  0.00     0.029 A 
ATOM     51  C   UNL     1     -12.226   8.013  -3.581  1.00  0.00     0.049 A 
ATOM     52  H   UNL     1     -10.272   7.995  -2.784  1.00  0.00     0.167 HD
ATOM     53  C   UNL     1     -10.902   6.768  -5.271  1.00  0.00     0.074 A 
ATOM     54  C   UNL     1     -10.765   6.029  -6.509  1.00  0.00     0.031 C 
ATOM     55  C   UNL     1     -12.068   7.292  -4.821  1.00  0.00     0.037 A 
BRANCH  42  56
ATOM     56  C   UNL     1     -11.637  10.144   0.650  1.00  0.00     0.058 A 
ATOM     57  C   UNL     1     -11.426  11.509   0.906  1.00  0.00     0.135 A 
ATOM     58  C   UNL     1     -12.564   9.464   1.457  1.00  0.00     0.135 A 
ATOM     59  F   UNL     1     -10.540  12.205   0.177  1.00  0.00    -0.206 F 
ATOM     60  C   UNL     1     -12.084  12.165   1.941  1.00  0.00     0.059 A 
ATOM     61  C   UNL     1     -13.257  10.108   2.478  1.00  0.00     0.059 A 
ATOM     62  F   UNL     1     -12.805   8.159   1.257  1.00  0.00    -0.206 F 
ATOM     63  C   UNL     1     -12.998  11.456   2.722  1.00  0.00     0.060 A 
BRANCH  63  64
ATOM     64  S   UNL     1     -13.844  12.324   4.059  1.00  0.00     0.124 S 
ATOM     65  O   UNL     1     -12.765  12.484   5.030  1.00  0.00    -0.237 OA
ATOM     66  O   UNL     1     -14.291  13.548   3.402  1.00  0.00    -0.237 OA
ATOM     67  O   UNL     1     -14.905  11.400   4.447  1.00  0.00    -0.744 OA
ENDBRANCH  63  64
ENDBRANCH  42  56
BRANCH  43  68
ATOM     68  C   UNL     1      -6.628   5.155  -6.427  1.00  0.00     0.058 A 
ATOM     69  C   UNL     1      -6.437   5.662  -7.721  1.00  0.00     0.135 A 
ATOM     70  C   UNL     1      -6.087   3.893  -6.134  1.00  0.00     0.135 A 
ATOM     71  F   UNL     1      -6.940   6.861  -8.052  1.00  0.00    -0.206 F 
ATOM     72  C   UNL     1      -5.749   4.942  -8.693  1.00  0.00     0.059 A 
ATOM     73  C   UNL     1      -5.372   3.165  -7.081  1.00  0.00     0.059 A 
ATOM     74  F   UNL     1      -6.225   3.369  -4.906  1.00  0.00    -0.206 F 
ATOM     75  C   UNL     1      -5.216   3.695  -8.361  1.00  0.00     0.060 A 
BRANCH  75  76
ATOM     76  S   UNL     1      -4.279   2.793  -9.614  1.00  0.00     0.124 S 
ATOM     77  O   UNL     1      -5.337   2.361 -10.519  1.00  0.00    -0.237 OA
ATOM     78  O   UNL     1      -3.381   3.825 -10.125  1.00  0.00    -0.237 OA
ATOM     79  O   UNL     1      -3.630   1.733  -8.847  1.00  0.00    -0.744 OA
ENDBRANCH  75  76
ENDBRANCH  43  68
BRANCH  55  80
ATOM     80  C   UNL     1     -13.287   7.139  -5.688  1.00  0.00     0.058 A 
ATOM     81  C   UNL     1     -13.956   5.913  -5.818  1.00  0.00     0.135 A 
ATOM     82  C   UNL     1     -13.841   8.260  -6.328  1.00  0.00     0.135 A 
ATOM     83  F   UNL     1     -13.464   4.809  -5.234  1.00  0.00    -0.206 F 
ATOM     84  C   UNL     1     -15.128   5.801  -6.559  1.00  0.00     0.059 A 
ATOM     85  C   UNL     1     -15.026   8.178  -7.051  1.00  0.00     0.059 A 
ATOM     86  F   UNL     1     -13.245   9.459  -6.228  1.00  0.00    -0.206 F 
ATOM     87  C   UNL     1     -15.660   6.941  -7.165  1.00  0.00     0.060 A 
BRANCH  87  88
ATOM     88  S   UNL     1     -17.215   6.795  -8.070  1.00  0.00     0.124 S 
ATOM     89  O   UNL     1     -16.792   6.079  -9.269  1.00  0.00    -0.237 OA
ATOM     90  O   UNL     1     -18.047   6.037  -7.140  1.00  0.00    -0.237 OA
ATOM     91  O   UNL     1     -17.621   8.182  -8.277  1.00  0.00    -0.744 OA
ENDBRANCH  87  88
ENDBRANCH  55  80
ENDBRANCH  29  30
ENDBRANCH  21  24
ENDBRANCH  19  20
ENDBRANCH   1  19
TORSDOF 16
