REMARK SMILES O=C(NCCCNC(=O)c1cc(NC(=O)c2ccccc2Cl)ccc1N1CCC[C@H](C[NH+]2CCCC2)C1)c1ccc(-c2c3nc(c(-c4c(F)cc(S(=O)(=O)[O-])cc4F)c4ccc([nH]4)c(-c4c(F)cc(S(=O)(=O)[O-])cc4F)c4nc(c(-c5c(F)cc(S(=O)(=O)[O-])cc5F)c5ccc2[nH]5)C=C4)C=C3)cc1
REMARK SMILES IDX 5 1 4 2 3 3 1 4 2 5 38 7 39 8 103 9 40 10 102 11 41 12 42 13
REMARK SMILES IDX 43 14 96 15 44 16 101 17 95 18 97 19 45 20 100 21 94 22
REMARK SMILES IDX 93 23 46 25 80 26 59 27 79 28 60 29 63 30 78 31 98 32 61 33
REMARK SMILES IDX 62 34 77 36 99 37 64 38 47 39 48 40 57 41 49 42 50 43 56 44
REMARK SMILES IDX 58 45 51 46 52 47 53 48 54 49 55 50 81 51 82 52 91 53 83 54
REMARK SMILES IDX 84 55 90 56 92 57 85 58 86 59 87 60 88 61 89 62 65 63 66 64
REMARK SMILES IDX 75 65 67 66 68 67 74 68 76 69 69 70 70 71 71 72 72 73 73 74
REMARK SMILES IDX 6 75 7 76 8 77 9 79 10 80 11 81 25 82 12 83 24 84 23 85
REMARK SMILES IDX 26 86 27 87 37 88 28 89 30 90 29 91 31 92 32 93 33 94 36 95
REMARK SMILES IDX 34 97 35 98 13 99 14 100 15 102 16 103 17 104 21 105 18 106
REMARK SMILES IDX 20 107 22 108 19 109
REMARK H PARENT 3 6 97 24 63 35 7 78 32 96 13 101
REMARK Flexibility Score: inf
ROOT
ATOM      1  C   UNL     1       5.631  -1.510  -1.263  1.00  0.00     0.042 C 
ENDROOT
BRANCH   1   2
ATOM      2  C   UNL     1       4.916  -0.172  -1.379  1.00  0.00     0.118 C 
BRANCH   2   3
ATOM      3  N   UNL     1       3.469  -0.242  -1.190  1.00  0.00    -0.352 N 
ATOM      4  O   UNL     1       1.459  -0.146  -0.188  1.00  0.00    -0.269 OA
ATOM      5  C   UNL     1       2.656   0.109  -0.132  1.00  0.00     0.251 C 
ATOM      6  H   UNL     1       2.982  -0.610  -1.963  1.00  0.00     0.163 HD
BRANCH   5   7
ATOM      7  C   UNL     1       3.223   0.738   1.085  1.00  0.00     0.039 A 
ATOM      8  C   UNL     1       4.249   1.669   0.998  1.00  0.00     0.014 A 
ATOM      9  C   UNL     1       2.729   0.380   2.345  1.00  0.00     0.014 A 
ATOM     10  C   UNL     1       4.961   2.019   2.136  1.00  0.00     0.010 A 
ATOM     11  C   UNL     1       3.350   0.863   3.505  1.00  0.00     0.010 A 
ATOM     12  C   UNL     1       4.519   1.632   3.411  1.00  0.00    -0.014 A 
BRANCH  12  13
ATOM     13  C   UNL     1       5.301   2.071   4.601  1.00  0.00     0.031 A 
ATOM     14  C   UNL     1       5.904   1.073   5.557  1.00  0.00     0.074 A 
ATOM     15  C   UNL     1       5.543   3.389   4.765  1.00  0.00     0.049 A 
ATOM     16  N   UNL     1       6.673   1.292   6.595  1.00  0.00    -0.248 NA
ATOM     17  C   UNL     1       5.600  -0.349   5.335  1.00  0.00     0.031 C 
ATOM     18  C   UNL     1       5.003   4.456   3.916  1.00  0.00     0.029 A 
ATOM     19  N   UNL     1       6.340   4.056   5.659  1.00  0.00    -0.354 N 
ATOM     20  C   UNL     1       6.907   0.048   7.172  1.00  0.00     0.074 A 
ATOM     21  C   UNL     1       6.188  -0.923   6.376  1.00  0.00     0.031 C 
ATOM     22  C   UNL     1       5.563   5.623   4.262  1.00  0.00     0.029 A 
ATOM     23  C   UNL     1       6.431   5.406   5.412  1.00  0.00     0.049 A 
ATOM     24  H   UNL     1       6.803   3.612   6.406  1.00  0.00     0.167 HD
ATOM     25  C   UNL     1       7.654  -0.257   8.261  1.00  0.00     0.037 A 
ATOM     26  C   UNL     1       7.127   6.371   6.041  1.00  0.00     0.037 A 
ATOM     27  C   UNL     1       8.406   0.708   9.022  1.00  0.00     0.049 A 
ATOM     28  C   UNL     1       7.965   6.003   7.229  1.00  0.00     0.074 A 
ATOM     29  C   UNL     1       9.227   0.491  10.116  1.00  0.00     0.029 A 
ATOM     30  N   UNL     1       8.436   2.071   8.766  1.00  0.00    -0.354 N 
ATOM     31  N   UNL     1       8.174   4.819   7.752  1.00  0.00    -0.248 NA
ATOM     32  C   UNL     1       8.647   7.102   7.923  1.00  0.00     0.031 C 
ATOM     33  C   UNL     1       9.725   1.728  10.542  1.00  0.00     0.029 A 
ATOM     34  C   UNL     1       9.247   2.710   9.690  1.00  0.00     0.049 A 
ATOM     35  H   UNL     1       7.952   2.518   8.034  1.00  0.00     0.167 HD
ATOM     36  C   UNL     1       9.018   5.029   8.835  1.00  0.00     0.074 A 
ATOM     37  C   UNL     1       9.299   6.451   8.876  1.00  0.00     0.031 C 
ATOM     38  C   UNL     1       9.511   4.127   9.718  1.00  0.00     0.037 A 
BRANCH  25  39
ATOM     39  C   UNL     1       7.673  -1.692   8.717  1.00  0.00     0.058 A 
ATOM     40  C   UNL     1       8.371  -2.688   8.018  1.00  0.00     0.135 A 
ATOM     41  C   UNL     1       7.003  -2.068   9.894  1.00  0.00     0.135 A 
ATOM     42  F   UNL     1       9.016  -2.388   6.879  1.00  0.00    -0.206 F 
ATOM     43  C   UNL     1       8.380  -4.011   8.450  1.00  0.00     0.059 A 
ATOM     44  C   UNL     1       7.018  -3.380  10.358  1.00  0.00     0.059 A 
ATOM     45  F   UNL     1       6.322  -1.155  10.604  1.00  0.00    -0.206 F 
ATOM     46  C   UNL     1       7.695  -4.349   9.619  1.00  0.00     0.060 A 
BRANCH  46  47
ATOM     47  S   UNL     1       7.701  -6.071  10.163  1.00  0.00     0.124 S 
ATOM     48  O   UNL     1       6.756  -6.673   9.228  1.00  0.00    -0.237 OA
ATOM     49  O   UNL     1       9.098  -6.453   9.983  1.00  0.00    -0.237 OA
ATOM     50  O   UNL     1       7.250  -5.992  11.549  1.00  0.00    -0.744 OA
ENDBRANCH  46  47
ENDBRANCH  25  39
BRANCH  26  51
ATOM     51  C   UNL     1       7.054   7.772   5.551  1.00  0.00     0.058 A 
ATOM     52  C   UNL     1       8.154   8.377   4.927  1.00  0.00     0.135 A 
ATOM     53  C   UNL     1       5.870   8.518   5.658  1.00  0.00     0.135 A 
ATOM     54  F   UNL     1       9.310   7.705   4.806  1.00  0.00    -0.206 F 
ATOM     55  C   UNL     1       8.085   9.673   4.428  1.00  0.00     0.059 A 
ATOM     56  C   UNL     1       5.767   9.804   5.143  1.00  0.00     0.059 A 
ATOM     57  F   UNL     1       4.783   7.976   6.231  1.00  0.00    -0.206 F 
ATOM     58  C   UNL     1       6.884  10.377   4.536  1.00  0.00     0.060 A 
BRANCH  58  59
ATOM     59  S   UNL     1       6.776  12.032   3.821  1.00  0.00     0.124 S 
ATOM     60  O   UNL     1       7.476  12.828   4.822  1.00  0.00    -0.237 OA
ATOM     61  O   UNL     1       7.463  11.863   2.544  1.00  0.00    -0.237 OA
ATOM     62  O   UNL     1       5.337  12.259   3.723  1.00  0.00    -0.744 OA
ENDBRANCH  58  59
ENDBRANCH  26  51
BRANCH  38  63
ATOM     63  C   UNL     1      10.420   4.655  10.790  1.00  0.00     0.058 A 
ATOM     64  C   UNL     1       9.923   5.386  11.880  1.00  0.00     0.135 A 
ATOM     65  C   UNL     1      11.802   4.415  10.732  1.00  0.00     0.135 A 
ATOM     66  F   UNL     1       8.610   5.648  11.974  1.00  0.00    -0.206 F 
ATOM     67  C   UNL     1      10.769   5.888  12.862  1.00  0.00     0.059 A 
ATOM     68  C   UNL     1      12.664   4.888  11.716  1.00  0.00     0.059 A 
ATOM     69  F   UNL     1      12.325   3.715   9.713  1.00  0.00    -0.206 F 
ATOM     70  C   UNL     1      12.139   5.637  12.769  1.00  0.00     0.060 A 
BRANCH  70  71
ATOM     71  S   UNL     1      13.230   6.284  14.053  1.00  0.00     0.124 S 
ATOM     72  O   UNL     1      13.333   7.688  13.670  1.00  0.00    -0.237 OA
ATOM     73  O   UNL     1      12.476   6.013  15.274  1.00  0.00    -0.237 OA
ATOM     74  O   UNL     1      14.448   5.496  13.890  1.00  0.00    -0.744 OA
ENDBRANCH  70  71
ENDBRANCH  38  63
ENDBRANCH  12  13
ENDBRANCH   5   7
ENDBRANCH   2   3
ENDBRANCH   1   2
BRANCH   1  75
ATOM     75  C   UNL     1       5.258  -2.500  -2.348  1.00  0.00     0.118 C 
BRANCH  75  76
ATOM     76  N   UNL     1       5.518  -2.044  -3.700  1.00  0.00    -0.352 N 
ATOM     77  C   UNL     1       5.742  -2.807  -4.819  1.00  0.00     0.253 C 
ATOM     78  H   UNL     1       5.536  -1.069  -3.830  1.00  0.00     0.163 HD
ATOM     79  O   UNL     1       5.791  -2.261  -5.920  1.00  0.00    -0.269 OA
BRANCH  77  80
ATOM     80  C   UNL     1       6.038  -4.255  -4.704  1.00  0.00     0.065 A 
ATOM     81  C   UNL     1       7.316  -4.585  -5.190  1.00  0.00     0.042 A 
ATOM     82  C   UNL     1       5.194  -5.233  -4.142  1.00  0.00     0.050 A 
ATOM     83  C   UNL     1       7.856  -5.851  -5.018  1.00  0.00     0.042 A 
ATOM     84  C   UNL     1       5.745  -6.523  -4.021  1.00  0.00     0.029 A 
ATOM     85  C   UNL     1       7.048  -6.829  -4.443  1.00  0.00     0.028 A 
BRANCH  82  86
ATOM     86  N   UNL     1       3.861  -5.045  -3.787  1.00  0.00    -0.370 N 
ATOM     87  C   UNL     1       3.412  -5.410  -2.435  1.00  0.00     0.116 C 
ATOM     88  C   UNL     1       3.045  -4.119  -4.577  1.00  0.00     0.126 C 
ATOM     89  C   UNL     1       1.918  -5.724  -2.392  1.00  0.00     0.022 C 
ATOM     90  C   UNL     1       1.591  -4.597  -4.637  1.00  0.00     0.064 C 
ATOM     91  C   UNL     1       1.089  -4.724  -3.192  1.00  0.00     0.013 C 
BRANCH  90  92
ATOM     92  C   UNL     1       1.514  -5.881  -5.505  1.00  0.00     0.267 C 
BRANCH  92  93
ATOM     93  N   UNL     1       0.220  -6.331  -6.027  1.00  0.00    -0.335 N 
ATOM     94  C   UNL     1      -0.470  -5.360  -6.871  1.00  0.00     0.262 C 
ATOM     95  C   UNL     1      -0.735  -6.828  -5.043  1.00  0.00     0.262 C 
ATOM     96  H   UNL     1       0.527  -7.122  -6.593  1.00  0.00     0.348 HD
ATOM     97  C   UNL     1      -1.537  -4.744  -5.990  1.00  0.00     0.067 C 
ATOM     98  C   UNL     1      -1.906  -5.852  -5.021  1.00  0.00     0.067 C 
ENDBRANCH  92  93
ENDBRANCH  90  92
ENDBRANCH  82  86
BRANCH  83  99
ATOM     99  N   UNL     1       9.165  -6.215  -5.395  1.00  0.00    -0.322 N 
ATOM    100  C   UNL     1      10.271  -5.459  -5.728  1.00  0.00     0.257 C 
ATOM    101  H   UNL     1       9.318  -7.187  -5.426  1.00  0.00     0.170 HD
ATOM    102  O   UNL     1      11.270  -5.998  -6.201  1.00  0.00    -0.269 OA
BRANCH 100 103
ATOM    103  C   UNL     1      10.294  -3.999  -5.528  1.00  0.00     0.058 A 
ATOM    104  C   UNL     1      10.361  -3.197  -6.678  1.00  0.00     0.015 A 
ATOM    105  C   UNL     1      10.183  -3.410  -4.262  1.00  0.00     0.053 A 
ATOM    106  C   UNL     1      10.233  -1.813  -6.566  1.00  0.00     0.001 A 
ATOM    107  C   UNL     1      10.048  -2.022  -4.161  1.00  0.00     0.021 A 
ATOM    108  Cl  UNL     1      10.173  -4.331  -2.802  1.00  0.00    -0.083 Cl
ATOM    109  C   UNL     1      10.058  -1.228  -5.311  1.00  0.00     0.002 A 
ENDBRANCH 100 103
ENDBRANCH  83  99
ENDBRANCH  77  80
ENDBRANCH  75  76
ENDBRANCH   1  75
TORSDOF 18
