REMARK SMILES O=C(NCCCNC(=O)c1cccc(-c2c(F)cc(F)cc2F)c1)c1ccc(-c2c3nc(c(-c4c(F)cc(S(=O)(=O)[O-])cc4F)c4ccc([nH]4)c(-c4c(F)cc(S(=O)(=O)[O-])cc4F)c4nc(c(-c5c(F)cc(S(=O)(=O)[O-])cc5F)c5ccc2[nH]5)C=C4)C=C3)cc1
REMARK SMILES IDX 4 1 3 2 1 3 2 4 25 6 26 7 90 8 27 9 89 10 28 11 29 12 30 13
REMARK SMILES IDX 83 14 31 15 88 16 82 17 84 18 32 19 87 20 81 21 80 22 33 24
REMARK SMILES IDX 67 25 46 26 66 27 47 28 50 29 65 30 85 31 48 32 49 33 64 35
REMARK SMILES IDX 86 36 51 37 34 38 35 39 44 40 36 41 37 42 43 43 45 44 38 45
REMARK SMILES IDX 39 46 40 47 41 48 42 49 68 50 69 51 78 52 70 53 71 54 77 55
REMARK SMILES IDX 79 56 72 57 73 58 74 59 75 60 76 61 52 62 53 63 62 64 54 65
REMARK SMILES IDX 55 66 61 67 63 68 56 69 57 70 58 71 59 72 60 73 5 74 6 75
REMARK SMILES IDX 7 76 8 77 9 79 10 80 11 81 24 82 12 83 14 84 13 85 15 86
REMARK SMILES IDX 16 87 22 88 17 89 18 90 21 91 23 92 19 93 20 94
REMARK H PARENT 3 5 84 23 50 34 7 78
REMARK Flexibility Score: inf
ROOT
ATOM      1  C   UNL     1       4.464  -0.400  -1.296  1.00  0.00     0.118 C 
ENDROOT
BRANCH   1   2
ATOM      2  N   UNL     1       3.026  -0.212  -1.141  1.00  0.00    -0.352 N 
ATOM      3  O   UNL     1       1.065   0.097  -0.076  1.00  0.00    -0.269 OA
ATOM      4  C   UNL     1       2.291   0.155  -0.036  1.00  0.00     0.251 C 
ATOM      5  H   UNL     1       2.496  -0.372  -1.955  1.00  0.00     0.163 HD
BRANCH   4   6
ATOM      6  C   UNL     1       2.977   0.585   1.202  1.00  0.00     0.039 A 
ATOM      7  C   UNL     1       4.099   1.409   1.139  1.00  0.00     0.014 A 
ATOM      8  C   UNL     1       2.499   0.152   2.442  1.00  0.00     0.014 A 
ATOM      9  C   UNL     1       4.862   1.623   2.279  1.00  0.00     0.010 A 
ATOM     10  C   UNL     1       3.198   0.482   3.609  1.00  0.00     0.010 A 
ATOM     11  C   UNL     1       4.411   1.182   3.533  1.00  0.00    -0.014 A 
BRANCH  11  12
ATOM     12  C   UNL     1       5.204   1.528   4.742  1.00  0.00     0.031 A 
ATOM     13  C   UNL     1       5.799   0.462   5.623  1.00  0.00     0.074 A 
ATOM     14  C   UNL     1       5.422   2.831   5.014  1.00  0.00     0.049 A 
ATOM     15  N   UNL     1       6.549   0.600   6.687  1.00  0.00    -0.248 NA
ATOM     16  C   UNL     1       5.511  -0.937   5.274  1.00  0.00     0.031 C 
ATOM     17  C   UNL     1       4.889   3.953   4.235  1.00  0.00     0.029 A 
ATOM     18  N   UNL     1       6.165   3.436   5.993  1.00  0.00    -0.354 N 
ATOM     19  C   UNL     1       6.804  -0.687   7.148  1.00  0.00     0.074 A 
ATOM     20  C   UNL     1       6.104  -1.593   6.263  1.00  0.00     0.031 C 
ATOM     21  C   UNL     1       5.375   5.102   4.723  1.00  0.00     0.029 A 
ATOM     22  C   UNL     1       6.186   4.808   5.897  1.00  0.00     0.049 A 
ATOM     23  H   UNL     1       6.639   2.937   6.697  1.00  0.00     0.167 HD
ATOM     24  C   UNL     1       7.558  -1.074   8.207  1.00  0.00     0.037 A 
ATOM     25  C   UNL     1       6.777   5.733   6.676  1.00  0.00     0.037 A 
ATOM     26  C   UNL     1       8.259  -0.159   9.074  1.00  0.00     0.049 A 
ATOM     27  C   UNL     1       7.575   5.277   7.862  1.00  0.00     0.074 A 
ATOM     28  C   UNL     1       9.079  -0.451  10.152  1.00  0.00     0.029 A 
ATOM     29  N   UNL     1       8.218   1.225   8.973  1.00  0.00    -0.354 N 
ATOM     30  N   UNL     1       7.833   4.054   8.261  1.00  0.00    -0.248 NA
ATOM     31  C   UNL     1       8.160   6.325   8.706  1.00  0.00     0.031 C 
ATOM     32  C   UNL     1       9.483   0.754  10.736  1.00  0.00     0.029 A 
ATOM     33  C   UNL     1       8.971   1.800   9.985  1.00  0.00     0.049 A 
ATOM     34  H   UNL     1       7.725   1.726   8.283  1.00  0.00     0.167 HD
ATOM     35  C   UNL     1       8.633   4.186   9.390  1.00  0.00     0.074 A 
ATOM     36  C   UNL     1       8.828   5.607   9.597  1.00  0.00     0.031 C 
ATOM     37  C   UNL     1       9.159   3.217  10.180  1.00  0.00     0.037 A 
BRANCH  24  38
ATOM     38  C   UNL     1       7.641  -2.549   8.509  1.00  0.00     0.058 A 
ATOM     39  C   UNL     1       8.325  -3.445   7.671  1.00  0.00     0.135 A 
ATOM     40  C   UNL     1       7.054  -3.069   9.675  1.00  0.00     0.135 A 
ATOM     41  F   UNL     1       8.897  -3.009   6.537  1.00  0.00    -0.206 F 
ATOM     42  C   UNL     1       8.392  -4.806   7.959  1.00  0.00     0.059 A 
ATOM     43  C   UNL     1       7.135  -4.421   9.998  1.00  0.00     0.059 A 
ATOM     44  F   UNL     1       6.391  -2.260  10.517  1.00  0.00    -0.206 F 
ATOM     45  C   UNL     1       7.790  -5.285   9.123  1.00  0.00     0.060 A 
BRANCH  45  46
ATOM     46  S   UNL     1       7.872  -7.055   9.472  1.00  0.00     0.124 S 
ATOM     47  O   UNL     1       6.962  -7.592   8.466  1.00  0.00    -0.237 OA
ATOM     48  O   UNL     1       9.287  -7.348   9.266  1.00  0.00    -0.237 OA
ATOM     49  O   UNL     1       7.409  -7.153  10.853  1.00  0.00    -0.744 OA
ENDBRANCH  45  46
ENDBRANCH  24  38
BRANCH  25  50
ATOM     50  C   UNL     1       6.629   7.176   6.352  1.00  0.00     0.058 A 
ATOM     51  C   UNL     1       7.726   7.936   5.920  1.00  0.00     0.135 A 
ATOM     52  C   UNL     1       5.383   7.819   6.443  1.00  0.00     0.135 A 
ATOM     53  F   UNL     1       8.937   7.367   5.819  1.00  0.00    -0.206 F 
ATOM     54  C   UNL     1       7.599   9.284   5.606  1.00  0.00     0.059 A 
ATOM     55  C   UNL     1       5.225   9.158   6.103  1.00  0.00     0.059 A 
ATOM     56  F   UNL     1       4.298   7.133   6.833  1.00  0.00    -0.206 F 
ATOM     57  C   UNL     1       6.342   9.885   5.697  1.00  0.00     0.060 A 
BRANCH  57  58
ATOM     58  S   UNL     1       6.180  11.625   5.243  1.00  0.00     0.124 S 
ATOM     59  O   UNL     1       6.849  12.282   6.360  1.00  0.00    -0.237 OA
ATOM     60  O   UNL     1       6.878  11.673   3.962  1.00  0.00    -0.237 OA
ATOM     61  O   UNL     1       4.735  11.820   5.169  1.00  0.00    -0.744 OA
ENDBRANCH  57  58
ENDBRANCH  25  50
BRANCH  37  62
ATOM     62  C   UNL     1      10.033   3.664  11.321  1.00  0.00     0.058 A 
ATOM     63  C   UNL     1       9.508   4.316  12.448  1.00  0.00     0.135 A 
ATOM     64  C   UNL     1      11.415   3.413  11.293  1.00  0.00     0.135 A 
ATOM     65  F   UNL     1       8.196   4.590  12.522  1.00  0.00    -0.206 F 
ATOM     66  C   UNL     1      10.327   4.734  13.492  1.00  0.00     0.059 A 
ATOM     67  C   UNL     1      12.247   3.792  12.341  1.00  0.00     0.059 A 
ATOM     68  F   UNL     1      11.968   2.785  10.244  1.00  0.00    -0.206 F 
ATOM     69  C   UNL     1      11.696   4.466  13.430  1.00  0.00     0.060 A 
BRANCH  69  70
ATOM     70  S   UNL     1      12.745   4.995  14.800  1.00  0.00     0.124 S 
ATOM     71  O   UNL     1      12.788   6.439  14.598  1.00  0.00    -0.237 OA
ATOM     72  O   UNL     1      11.990   4.540  15.964  1.00  0.00    -0.237 OA
ATOM     73  O   UNL     1      14.000   4.290  14.560  1.00  0.00    -0.744 OA
ENDBRANCH  69  70
ENDBRANCH  37  62
ENDBRANCH  11  12
ENDBRANCH   4   6
ENDBRANCH   1   2
BRANCH   1  74
ATOM     74  C   UNL     1       4.851  -1.847  -1.547  1.00  0.00     0.042 C 
BRANCH  74  75
ATOM     75  C   UNL     1       4.340  -2.397  -2.867  1.00  0.00     0.118 C 
BRANCH  75  76
ATOM     76  N   UNL     1       4.885  -1.683  -4.017  1.00  0.00    -0.352 N 
ATOM     77  C   UNL     1       5.746  -2.115  -4.993  1.00  0.00     0.251 C 
ATOM     78  H   UNL     1       4.588  -0.748  -4.105  1.00  0.00     0.163 HD
ATOM     79  O   UNL     1       6.248  -1.310  -5.775  1.00  0.00    -0.269 OA
BRANCH  77  80
ATOM     80  C   UNL     1       6.076  -3.549  -5.104  1.00  0.00     0.040 A 
ATOM     81  C   UNL     1       7.407  -3.934  -5.262  1.00  0.00     0.014 A 
ATOM     82  C   UNL     1       5.063  -4.512  -5.059  1.00  0.00     0.022 A 
ATOM     83  C   UNL     1       7.724  -5.290  -5.299  1.00  0.00     0.001 A 
ATOM     84  C   UNL     1       5.365  -5.880  -5.040  1.00  0.00    -0.012 A 
ATOM     85  C   UNL     1       6.714  -6.252  -5.168  1.00  0.00     0.009 A 
BRANCH  84  86
ATOM     86  C   UNL     1       4.294  -6.871  -4.841  1.00  0.00     0.053 A 
ATOM     87  C   UNL     1       4.381  -7.857  -3.844  1.00  0.00     0.136 A 
ATOM     88  C   UNL     1       3.111  -6.842  -5.597  1.00  0.00     0.136 A 
ATOM     89  F   UNL     1       5.467  -7.928  -3.059  1.00  0.00    -0.206 F 
ATOM     90  C   UNL     1       3.353  -8.769  -3.614  1.00  0.00     0.079 A 
ATOM     91  C   UNL     1       2.073  -7.745  -5.383  1.00  0.00     0.079 A 
ATOM     92  F   UNL     1       2.948  -5.920  -6.559  1.00  0.00    -0.206 F 
ATOM     93  C   UNL     1       2.207  -8.703  -4.391  1.00  0.00     0.129 A 
ATOM     94  F   UNL     1       1.214  -9.576  -4.180  1.00  0.00    -0.207 F 
ENDBRANCH  84  86
ENDBRANCH  77  80
ENDBRANCH  75  76
ENDBRANCH  74  75
ENDBRANCH   1  74
TORSDOF 14
