REMARK SMILES Cc1ccccc1NC(=O)NC[C@@H]1CC[C@@H](C(=O)NCCCNC(=O)c2ccc(-c3c4nc(c(-c5c(F)cc(S(=O)(=O)[O-])cc5F)c5ccc([nH]5)c(-c5c(F)cc(S(=O)(=O)[O-])cc5F)c5nc(c(-c6c(F)cc(S(=O)(=O)[O-])cc6F)c6ccc3[nH]6)C=C5)C=C4)cc2)O1
REMARK SMILES IDX 21 1 20 2 19 3 17 4 18 5 16 7 13 8 14 9 92 10 15 11 12 12
REMARK SMILES IDX 11 13 8 14 9 15 10 17 7 19 1 20 2 21 3 22 4 23 6 24 5 25
REMARK SMILES IDX 22 26 23 27 24 28 25 30 26 31 27 32 91 33 28 34 90 35 29 36
REMARK SMILES IDX 30 37 31 38 84 39 32 40 89 41 83 42 85 43 33 44 88 45 82 46
REMARK SMILES IDX 81 47 34 49 68 50 47 51 67 52 48 53 51 54 66 55 86 56 49 57
REMARK SMILES IDX 50 58 65 60 87 61 52 62 35 63 36 64 45 65 37 66 38 67 44 68
REMARK SMILES IDX 46 69 39 70 40 71 41 72 42 73 43 74 69 75 70 76 79 77 71 78
REMARK SMILES IDX 72 79 78 80 80 81 73 82 74 83 75 84 76 85 77 86 53 87 54 88
REMARK SMILES IDX 63 89 55 90 56 91 62 92 64 93 57 94 58 95 59 96 60 97 61 98
REMARK H PARENT 19 6 8 16 11 18 23 29 85 48 51 59
REMARK Flexibility Score: inf
ROOT
ATOM      1  C   UNL     1      -7.178   0.978   3.942  1.00  0.00     0.042 C 
ENDROOT
BRANCH   1   2
ATOM      2  C   UNL     1      -7.682   2.255   3.262  1.00  0.00     0.117 C 
BRANCH   2   3
ATOM      3  N   UNL     1      -6.815   3.405   3.493  1.00  0.00    -0.354 N 
ATOM      4  C   UNL     1      -5.798   3.927   2.736  1.00  0.00     0.249 C 
ATOM      5  O   UNL     1      -5.252   4.954   3.147  1.00  0.00    -0.272 OA
ATOM      6  H   UNL     1      -6.989   3.887   4.333  1.00  0.00     0.163 HD
BRANCH   4   7
ATOM      7  C   UNL     1      -5.389   3.272   1.393  1.00  0.00     0.207 C 
ATOM      8  C   UNL     1      -3.188   2.828   0.707  1.00  0.00     0.138 C 
ATOM      9  C   UNL     1      -4.013   1.581   0.478  1.00  0.00     0.037 C 
ATOM     10  O   UNL     1      -4.195   3.860   0.796  1.00  0.00    -0.363 OA
ATOM     11  C   UNL     1      -5.084   1.786   1.510  1.00  0.00     0.045 C 
BRANCH   8  12
ATOM     12  C   UNL     1      -2.138   3.083  -0.390  1.00  0.00     0.149 C 
BRANCH  12  13
ATOM     13  N   UNL     1      -0.925   3.684   0.165  1.00  0.00    -0.335 N 
ATOM     14  N   UNL     1       0.932   2.151   0.144  1.00  0.00    -0.308 N 
ATOM     15  C   UNL     1       0.361   3.354   0.296  1.00  0.00     0.319 C 
ATOM     16  H   UNL     1       1.905   2.245   0.033  1.00  0.00     0.171 HD
ATOM     17  O   UNL     1       1.139   4.288   0.535  1.00  0.00    -0.249 OA
ATOM     18  H   UNL     1      -1.107   4.574   0.544  1.00  0.00     0.165 HD
BRANCH  14  19
ATOM     19  C   UNL     1       0.563   0.795   0.094  1.00  0.00     0.045 A 
ATOM     20  C   UNL     1       2.987   0.076  -0.429  1.00  0.00     0.046 C 
ATOM     21  C   UNL     1       1.512  -0.189  -0.269  1.00  0.00    -0.027 A 
ATOM     22  C   UNL     1       1.111  -1.538  -0.383  1.00  0.00     0.005 A 
ATOM     23  C   UNL     1      -0.199  -1.923  -0.124  1.00  0.00     0.000 A 
ATOM     24  C   UNL     1      -0.698   0.357   0.473  1.00  0.00     0.026 A 
ATOM     25  C   UNL     1      -1.099  -0.976   0.333  1.00  0.00     0.002 A 
ENDBRANCH  14  19
ENDBRANCH  12  13
ENDBRANCH   8  12
ENDBRANCH   4   7
ENDBRANCH   2   3
ENDBRANCH   1   2
BRANCH   1  26
ATOM     26  C   UNL     1      -7.603   0.857   5.402  1.00  0.00     0.118 C 
BRANCH  26  27
ATOM     27  N   UNL     1      -8.212  -0.438   5.713  1.00  0.00    -0.352 N 
ATOM     28  C   UNL     1      -8.550  -0.914   6.965  1.00  0.00     0.251 C 
ATOM     29  H   UNL     1      -8.401  -1.031   4.950  1.00  0.00     0.163 HD
ATOM     30  O   UNL     1      -9.028  -2.029   7.149  1.00  0.00    -0.269 OA
BRANCH  28  31
ATOM     31  C   UNL     1      -8.345   0.017   8.086  1.00  0.00     0.039 A 
ATOM     32  C   UNL     1      -9.446   0.769   8.508  1.00  0.00     0.014 A 
ATOM     33  C   UNL     1      -7.039   0.385   8.402  1.00  0.00     0.014 A 
ATOM     34  C   UNL     1      -9.229   2.012   9.093  1.00  0.00     0.010 A 
ATOM     35  C   UNL     1      -6.829   1.647   8.928  1.00  0.00     0.010 A 
ATOM     36  C   UNL     1      -7.921   2.486   9.208  1.00  0.00    -0.014 A 
BRANCH  36  37
ATOM     37  C   UNL     1      -7.599   3.882   9.497  1.00  0.00     0.031 A 
ATOM     38  C   UNL     1      -7.022   4.258  10.807  1.00  0.00     0.074 A 
ATOM     39  C   UNL     1      -7.775   4.830   8.550  1.00  0.00     0.049 A 
ATOM     40  N   UNL     1      -6.904   5.468  11.242  1.00  0.00    -0.248 NA
ATOM     41  C   UNL     1      -6.623   3.255  11.787  1.00  0.00     0.031 C 
ATOM     42  C   UNL     1      -7.211   6.176   8.536  1.00  0.00     0.029 A 
ATOM     43  N   UNL     1      -8.714   4.834   7.513  1.00  0.00    -0.354 N 
ATOM     44  C   UNL     1      -6.190   5.430  12.417  1.00  0.00     0.074 A 
ATOM     45  C   UNL     1      -6.156   4.032  12.767  1.00  0.00     0.031 C 
ATOM     46  C   UNL     1      -7.966   6.954   7.748  1.00  0.00     0.029 A 
ATOM     47  C   UNL     1      -9.122   6.177   7.343  1.00  0.00     0.049 A 
ATOM     48  H   UNL     1      -9.028   4.055   7.000  1.00  0.00     0.167 HD
ATOM     49  C   UNL     1      -5.618   6.581  12.881  1.00  0.00     0.037 A 
ATOM     50  C   UNL     1     -10.421   6.543   7.553  1.00  0.00     0.037 A 
ATOM     51  C   UNL     1      -6.219   7.753  12.230  1.00  0.00     0.049 A 
ATOM     52  C   UNL     1     -10.634   7.496   8.710  1.00  0.00     0.074 A 
ATOM     53  C   UNL     1      -5.837   8.628  11.226  1.00  0.00     0.029 A 
ATOM     54  N   UNL     1      -7.564   8.005  12.458  1.00  0.00    -0.354 N 
ATOM     55  N   UNL     1      -9.681   7.966   9.467  1.00  0.00    -0.248 NA
ATOM     56  C   UNL     1     -11.960   7.934   9.153  1.00  0.00     0.031 C 
ATOM     57  C   UNL     1      -6.997   9.342  10.796  1.00  0.00     0.029 A 
ATOM     58  C   UNL     1      -8.075   8.914  11.550  1.00  0.00     0.049 A 
ATOM     59  H   UNL     1      -8.090   7.588  13.178  1.00  0.00     0.167 HD
ATOM     60  C   UNL     1     -10.233   8.665  10.505  1.00  0.00     0.074 A 
ATOM     61  C   UNL     1     -11.661   8.648  10.252  1.00  0.00     0.031 C 
ATOM     62  C   UNL     1      -9.505   9.169  11.540  1.00  0.00     0.037 A 
BRANCH  49  63
ATOM     63  C   UNL     1      -4.383   6.648  13.777  1.00  0.00     0.058 A 
ATOM     64  C   UNL     1      -3.670   7.863  13.918  1.00  0.00     0.135 A 
ATOM     65  C   UNL     1      -3.767   5.554  14.424  1.00  0.00     0.135 A 
ATOM     66  F   UNL     1      -4.133   9.009  13.398  1.00  0.00    -0.206 F 
ATOM     67  C   UNL     1      -2.433   7.960  14.572  1.00  0.00     0.059 A 
ATOM     68  C   UNL     1      -2.538   5.626  15.082  1.00  0.00     0.059 A 
ATOM     69  F   UNL     1      -4.304   4.336  14.463  1.00  0.00    -0.206 F 
ATOM     70  C   UNL     1      -1.861   6.828  15.134  1.00  0.00     0.060 A 
BRANCH  70  71
ATOM     71  S   UNL     1      -0.240   6.923  15.911  1.00  0.00     0.124 S 
ATOM     72  O   UNL     1       0.609   7.317  14.791  1.00  0.00    -0.237 OA
ATOM     73  O   UNL     1      -0.450   7.934  16.941  1.00  0.00    -0.237 OA
ATOM     74  O   UNL     1      -0.019   5.567  16.407  1.00  0.00    -0.744 OA
ENDBRANCH  70  71
ENDBRANCH  49  63
BRANCH  50  75
ATOM     75  C   UNL     1     -11.387   5.515   7.083  1.00  0.00     0.058 A 
ATOM     76  C   UNL     1     -11.445   5.267   5.698  1.00  0.00     0.135 A 
ATOM     77  C   UNL     1     -11.889   4.531   7.944  1.00  0.00     0.135 A 
ATOM     78  F   UNL     1     -10.988   6.185   4.830  1.00  0.00    -0.206 F 
ATOM     79  C   UNL     1     -11.821   4.029   5.195  1.00  0.00     0.059 A 
ATOM     80  C   UNL     1     -12.281   3.282   7.459  1.00  0.00     0.059 A 
ATOM     81  F   UNL     1     -11.864   4.717   9.272  1.00  0.00    -0.206 F 
ATOM     82  C   UNL     1     -12.172   3.022   6.091  1.00  0.00     0.060 A 
BRANCH  82  83
ATOM     83  S   UNL     1     -12.267   1.334   5.452  1.00  0.00     0.124 S 
ATOM     84  O   UNL     1     -13.408   1.417   4.548  1.00  0.00    -0.237 OA
ATOM     85  O   UNL     1     -10.961   1.187   4.809  1.00  0.00    -0.237 OA
ATOM     86  O   UNL     1     -12.466   0.532   6.654  1.00  0.00    -0.744 OA
ENDBRANCH  82  83
ENDBRANCH  50  75
BRANCH  62  87
ATOM     87  C   UNL     1     -10.143   9.948  12.643  1.00  0.00     0.058 A 
ATOM     88  C   UNL     1     -10.862  11.125  12.382  1.00  0.00     0.135 A 
ATOM     89  C   UNL     1      -9.951   9.602  13.993  1.00  0.00     0.135 A 
ATOM     90  F   UNL     1     -11.077  11.525  11.118  1.00  0.00    -0.206 F 
ATOM     91  C   UNL     1     -11.369  11.920  13.408  1.00  0.00     0.059 A 
ATOM     92  C   UNL     1     -10.420  10.397  15.034  1.00  0.00     0.059 A 
ATOM     93  F   UNL     1      -9.314   8.469  14.327  1.00  0.00    -0.206 F 
ATOM     94  C   UNL     1     -11.138  11.551  14.732  1.00  0.00     0.060 A 
BRANCH  94  95
ATOM     95  S   UNL     1     -11.739  12.604  16.068  1.00  0.00     0.124 S 
ATOM     96  O   UNL     1     -11.700  13.938  15.475  1.00  0.00    -0.237 OA
ATOM     97  O   UNL     1     -13.072  12.055  16.294  1.00  0.00    -0.237 OA
ATOM     98  O   UNL     1     -10.770  12.373  17.135  1.00  0.00    -0.744 OA
ENDBRANCH  94  95
ENDBRANCH  62  87
ENDBRANCH  36  37
ENDBRANCH  28  31
ENDBRANCH  26  27
ENDBRANCH   1  26
TORSDOF 16
