REMARK SMILES Cc1nn(C)c(N[C@@H]2C=C[C@H](C(=O)NCCCNC(=O)c3ccc(-c4c5nc(c(-c6c(F)cc(S(=O)(=O)[O-])cc6F)c6ccc([nH]6)c(-c6c(F)cc(S(=O)(=O)[O-])cc6F)c6nc(c(-c7c(F)cc(S(=O)(=O)[O-])cc7F)c7ccc4[nH]7)C=C6)C=C5)cc3)C2)c1C#N
REMARK SMILES IDX 16 1 15 2 14 3 12 4 13 5 11 7 8 8 9 9 87 10 10 11 7 12 6 14
REMARK SMILES IDX 1 15 2 16 3 17 88 18 4 19 5 20 89 21 90 22 17 23 18 24 19 25
REMARK SMILES IDX 20 27 21 28 22 29 86 30 23 31 85 32 24 33 25 34 26 35 79 36
REMARK SMILES IDX 27 37 84 38 78 39 80 40 28 41 83 42 77 43 76 44 29 46 63 47
REMARK SMILES IDX 42 48 62 49 43 50 46 51 61 52 81 53 44 54 45 55 60 57 82 58
REMARK SMILES IDX 47 59 30 60 31 61 40 62 32 63 33 64 39 65 41 66 34 67 35 68
REMARK SMILES IDX 36 69 37 70 38 71 64 72 65 73 74 74 66 75 67 76 73 77 75 78
REMARK SMILES IDX 68 79 69 80 70 81 71 82 72 83 48 84 49 85 58 86 50 87 51 88
REMARK SMILES IDX 57 89 59 90 52 91 53 92 54 93 55 94 56 95
REMARK H PARENT 14 6 7 13 18 26 80 45 46 56
REMARK Flexibility Score: inf
ROOT
ATOM      1  C   UNL     1      -4.193  10.421   2.261  1.00  0.00     0.042 C 
ENDROOT
BRANCH   1   2
ATOM      2  C   UNL     1      -3.182   9.317   1.939  1.00  0.00     0.117 C 
BRANCH   2   3
ATOM      3  N   UNL     1      -2.290   8.981   3.053  1.00  0.00    -0.356 N 
ATOM      4  C   UNL     1      -1.425   7.944   3.269  1.00  0.00     0.227 C 
ATOM      5  O   UNL     1      -0.750   8.012   4.304  1.00  0.00    -0.274 OA
ATOM      6  H   UNL     1      -2.320   9.630   3.792  1.00  0.00     0.163 HD
BRANCH   4   7
ATOM      7  C   UNL     1      -1.230   6.727   2.325  1.00  0.00     0.103 C 
ATOM      8  C   UNL     1       0.482   6.436   0.529  1.00  0.00     0.104 C 
ATOM      9  C   UNL     1      -0.877   6.674  -0.022  1.00  0.00    -0.006 C 
ATOM     10  C   UNL     1       0.284   6.436   2.053  1.00  0.00     0.046 C 
ATOM     11  C   UNL     1      -1.803   6.753   0.942  1.00  0.00    -0.016 C 
BRANCH   8  12
ATOM     12  N   UNL     1       1.552   7.247  -0.053  1.00  0.00    -0.363 N 
ATOM     13  H   UNL     1       2.315   6.707  -0.363  1.00  0.00     0.162 HD
BRANCH  12  14
ATOM     14  C   UNL     1       1.731   8.594  -0.264  1.00  0.00     0.142 A 
ATOM     15  C   UNL     1       3.239  11.832  -1.293  1.00  0.00     0.070 C 
ATOM     16  C   UNL     1       2.461  10.648  -0.865  1.00  0.00     0.079 A 
ATOM     17  N   UNL     1       1.363  10.854  -0.148  1.00  0.00    -0.175 NA
ATOM     18  C   UNL     1       2.699   9.258  -1.023  1.00  0.00     0.117 A 
ATOM     19  N   UNL     1       1.063   9.640   0.328  1.00  0.00    -0.251 N 
ATOM     20  C   UNL     1       0.246   9.629   1.493  1.00  0.00     0.176 C 
BRANCH  18  21
ATOM     21  C   UNL     1       3.756   8.673  -1.768  1.00  0.00     0.105 C 
ATOM     22  N   UNL     1       4.628   8.203  -2.389  1.00  0.00    -0.192 NA
ENDBRANCH  18  21
ENDBRANCH  12  14
ENDBRANCH   8  12
ENDBRANCH   4   7
ENDBRANCH   2   3
ENDBRANCH   1   2
BRANCH   1  23
ATOM     23  C   UNL     1      -3.585  11.816   2.331  1.00  0.00     0.118 C 
BRANCH  23  24
ATOM     24  N   UNL     1      -3.506  12.532   1.048  1.00  0.00    -0.352 N 
ATOM     25  C   UNL     1      -3.461  13.914   0.850  1.00  0.00     0.251 C 
ATOM     26  H   UNL     1      -3.483  11.974   0.238  1.00  0.00     0.163 HD
ATOM     27  O   UNL     1      -3.704  14.403  -0.247  1.00  0.00    -0.269 OA
BRANCH  25  28
ATOM     28  C   UNL     1      -3.076  14.772   1.996  1.00  0.00     0.039 A 
ATOM     29  C   UNL     1      -3.643  16.020   2.279  1.00  0.00     0.014 A 
ATOM     30  C   UNL     1      -2.144  14.221   2.863  1.00  0.00     0.014 A 
ATOM     31  C   UNL     1      -3.268  16.668   3.464  1.00  0.00     0.010 A 
ATOM     32  C   UNL     1      -2.061  14.689   4.138  1.00  0.00     0.010 A 
ATOM     33  C   UNL     1      -2.464  15.984   4.393  1.00  0.00    -0.014 A 
BRANCH  33  34
ATOM     34  C   UNL     1      -2.165  16.458   5.742  1.00  0.00     0.031 A 
ATOM     35  C   UNL     1      -3.412  16.665   6.522  1.00  0.00     0.074 A 
ATOM     36  C   UNL     1      -0.912  16.426   6.274  1.00  0.00     0.049 A 
ATOM     37  N   UNL     1      -3.979  17.794   6.790  1.00  0.00    -0.248 NA
ATOM     38  C   UNL     1      -4.277  15.501   6.802  1.00  0.00     0.031 C 
ATOM     39  C   UNL     1       0.337  15.961   5.647  1.00  0.00     0.029 A 
ATOM     40  N   UNL     1      -0.485  16.744   7.536  1.00  0.00    -0.354 N 
ATOM     41  C   UNL     1      -5.085  17.472   7.569  1.00  0.00     0.074 A 
ATOM     42  C   UNL     1      -5.370  16.093   7.293  1.00  0.00     0.031 C 
ATOM     43  C   UNL     1       1.313  15.824   6.579  1.00  0.00     0.029 A 
ATOM     44  C   UNL     1       0.829  16.336   7.846  1.00  0.00     0.049 A 
ATOM     45  H   UNL     1      -1.054  17.222   8.181  1.00  0.00     0.167 HD
ATOM     46  C   UNL     1      -5.427  18.265   8.624  1.00  0.00     0.037 A 
ATOM     47  C   UNL     1       1.466  16.452   9.051  1.00  0.00     0.037 A 
ATOM     48  C   UNL     1      -4.724  19.526   8.536  1.00  0.00     0.049 A 
ATOM     49  C   UNL     1       0.731  17.501   9.802  1.00  0.00     0.074 A 
ATOM     50  C   UNL     1      -4.685  20.574   7.639  1.00  0.00     0.029 A 
ATOM     51  N   UNL     1      -3.573  19.607   9.278  1.00  0.00    -0.354 N 
ATOM     52  N   UNL     1       0.691  18.751   9.429  1.00  0.00    -0.248 NA
ATOM     53  C   UNL     1      -0.363  17.059  10.647  1.00  0.00     0.031 C 
ATOM     54  C   UNL     1      -3.318  20.987   7.607  1.00  0.00     0.029 A 
ATOM     55  C   UNL     1      -2.607  20.258   8.562  1.00  0.00     0.049 A 
ATOM     56  H   UNL     1      -3.459  19.250  10.189  1.00  0.00     0.167 HD
ATOM     57  C   UNL     1      -0.635  19.121   9.597  1.00  0.00     0.074 A 
ATOM     58  C   UNL     1      -1.220  18.058  10.418  1.00  0.00     0.031 C 
ATOM     59  C   UNL     1      -1.190  20.080   8.796  1.00  0.00     0.037 A 
BRANCH  46  60
ATOM     60  C   UNL     1      -5.975  17.762   9.948  1.00  0.00     0.058 A 
ATOM     61  C   UNL     1      -6.327  18.709  10.935  1.00  0.00     0.135 A 
ATOM     62  C   UNL     1      -5.906  16.424  10.402  1.00  0.00     0.135 A 
ATOM     63  F   UNL     1      -6.423  20.012  10.627  1.00  0.00    -0.206 F 
ATOM     64  C   UNL     1      -6.518  18.367  12.275  1.00  0.00     0.059 A 
ATOM     65  C   UNL     1      -6.138  16.055  11.723  1.00  0.00     0.059 A 
ATOM     66  F   UNL     1      -5.528  15.411   9.617  1.00  0.00    -0.206 F 
ATOM     67  C   UNL     1      -6.412  17.035  12.660  1.00  0.00     0.060 A 
BRANCH  67  68
ATOM     68  S   UNL     1      -6.617  16.596  14.394  1.00  0.00     0.124 S 
ATOM     69  O   UNL     1      -5.450  17.228  14.998  1.00  0.00    -0.237 OA
ATOM     70  O   UNL     1      -7.908  17.203  14.704  1.00  0.00    -0.237 OA
ATOM     71  O   UNL     1      -6.607  15.136  14.374  1.00  0.00    -0.744 OA
ENDBRANCH  67  68
ENDBRANCH  46  60
BRANCH  47  72
ATOM     72  C   UNL     1       2.404  15.521   9.760  1.00  0.00     0.058 A 
ATOM     73  C   UNL     1       3.114  15.908  10.921  1.00  0.00     0.135 A 
ATOM     74  C   UNL     1       2.361  14.138   9.512  1.00  0.00     0.135 A 
ATOM     75  F   UNL     1       3.195  17.204  11.261  1.00  0.00    -0.206 F 
ATOM     76  C   UNL     1       3.694  14.979  11.804  1.00  0.00     0.059 A 
ATOM     77  C   UNL     1       2.929  13.194  10.376  1.00  0.00     0.059 A 
ATOM     78  F   UNL     1       1.675  13.656   8.466  1.00  0.00    -0.206 F 
ATOM     79  C   UNL     1       3.574  13.617  11.535  1.00  0.00     0.060 A 
BRANCH  79  80
ATOM     80  S   UNL     1       4.151  12.399  12.752  1.00  0.00     0.124 S 
ATOM     81  O   UNL     1       5.600  12.551  12.674  1.00  0.00    -0.237 OA
ATOM     82  O   UNL     1       3.528  12.868  13.985  1.00  0.00    -0.237 OA
ATOM     83  O   UNL     1       3.630  11.134  12.238  1.00  0.00    -0.744 OA
ENDBRANCH  79  80
ENDBRANCH  47  72
BRANCH  59  84
ATOM     84  C   UNL     1      -0.256  20.946   7.984  1.00  0.00     0.058 A 
ATOM     85  C   UNL     1       0.540  20.513   6.906  1.00  0.00     0.135 A 
ATOM     86  C   UNL     1      -0.280  22.323   8.244  1.00  0.00     0.135 A 
ATOM     87  F   UNL     1       0.550  19.226   6.530  1.00  0.00    -0.206 F 
ATOM     88  C   UNL     1       1.306  21.407   6.150  1.00  0.00     0.059 A 
ATOM     89  C   UNL     1       0.449  23.233   7.488  1.00  0.00     0.059 A 
ATOM     90  F   UNL     1      -1.065  22.807   9.220  1.00  0.00    -0.206 F 
ATOM     91  C   UNL     1       1.255  22.768   6.453  1.00  0.00     0.060 A 
BRANCH  91  92
ATOM     92  S   UNL     1       2.211  23.941   5.465  1.00  0.00     0.124 S 
ATOM     93  O   UNL     1       3.581  23.623   5.853  1.00  0.00    -0.237 OA
ATOM     94  O   UNL     1       1.839  23.584   4.099  1.00  0.00    -0.237 OA
ATOM     95  O   UNL     1       1.723  25.243   5.915  1.00  0.00    -0.744 OA
ENDBRANCH  91  92
ENDBRANCH  59  84
ENDBRANCH  33  34
ENDBRANCH  25  28
ENDBRANCH  23  24
ENDBRANCH   1  23
TORSDOF 16
