REMARK SMILES Cc1nn(C)c2nc(C3CC3)c(Cl)c(C(=O)NCCCNC(=O)c3ccc(-c4c5nc(c(-c6c(F)cc(S(=O)(=O)[O-])cc6F)c6ccc([nH]6)c(-c6c(F)cc(S(=O)(=O)[O-])cc6F)c6nc(c(-c7c(F)cc(S(=O)(=O)[O-])cc7F)c7ccc4[nH]7)C=C6)C=C5)cc3)c12
REMARK SMILES IDX 20 1 19 2 18 3 17 4 15 5 16 6 14 8 1 9 2 10 3 11 90 12 4 13
REMARK SMILES IDX 6 14 5 15 7 16 12 17 8 18 13 19 9 20 10 21 11 22 21 23 22 24
REMARK SMILES IDX 23 26 24 27 25 28 89 29 26 30 88 31 27 32 28 33 29 34 82 35
REMARK SMILES IDX 30 36 87 37 81 38 83 39 31 40 86 41 80 42 79 43 32 45 66 46
REMARK SMILES IDX 45 47 65 48 46 49 49 50 64 51 84 52 47 53 48 54 63 56 85 57
REMARK SMILES IDX 50 58 33 59 34 60 43 61 35 62 36 63 42 64 44 65 37 66 38 67
REMARK SMILES IDX 39 68 40 69 41 70 67 71 68 72 77 73 69 74 70 75 76 76 78 77
REMARK SMILES IDX 71 78 72 79 73 80 74 81 75 82 51 83 52 84 61 85 53 86 54 87
REMARK SMILES IDX 60 88 62 89 55 90 56 91 57 92 58 93 59 94
REMARK H PARENT 17 7 21 25 83 44 49 55
REMARK Flexibility Score: inf
ROOT
ATOM      1  C   UNL     1      -3.705   5.128  -2.660  1.00  0.00     0.118 C 
ENDROOT
BRANCH   1   2
ATOM      2  C   UNL     1      -3.843   3.615  -2.887  1.00  0.00     0.042 C 
BRANCH   2   3
ATOM      3  C   UNL     1      -2.586   2.859  -3.332  1.00  0.00     0.118 C 
BRANCH   3   4
ATOM      4  N   UNL     1      -1.547   2.693  -2.322  1.00  0.00    -0.352 N 
ATOM      5  C   UNL     1      -0.641   1.680  -2.053  1.00  0.00     0.253 C 
ATOM      6  O   UNL     1       0.185   1.912  -1.172  1.00  0.00    -0.269 OA
ATOM      7  H   UNL     1      -1.475   3.456  -1.705  1.00  0.00     0.163 HD
BRANCH   5   8
ATOM      8  C   UNL     1      -0.673   0.328  -2.682  1.00  0.00     0.073 A 
ATOM      9  C   UNL     1       1.249  -0.337   0.172  1.00  0.00     0.069 C 
ATOM     10  C   UNL     1       0.509  -1.185  -0.799  1.00  0.00     0.070 A 
ATOM     11  N   UNL     1       0.614  -2.518  -0.653  1.00  0.00    -0.176 NA
ATOM     12  C   UNL     1      -0.241  -0.822  -1.970  1.00  0.00     0.056 A 
ATOM     13  N   UNL     1      -0.031  -3.013  -1.718  1.00  0.00    -0.250 N 
ATOM     14  C   UNL     1      -0.562  -2.052  -2.530  1.00  0.00     0.158 A 
ATOM     15  C   UNL     1      -0.028  -4.433  -1.969  1.00  0.00     0.176 C 
ATOM     16  N   UNL     1      -1.262  -2.282  -3.652  1.00  0.00    -0.231 NA
ATOM     17  C   UNL     1      -1.088   0.092  -4.005  1.00  0.00     0.076 A 
ATOM     18  C   UNL     1      -1.528  -1.186  -4.404  1.00  0.00     0.065 A 
ATOM     19  Cl  UNL     1      -0.684   1.278  -5.218  1.00  0.00    -0.081 Cl
BRANCH  18  20
ATOM     20  C   UNL     1      -2.448  -1.494  -5.587  1.00  0.00     0.040 C 
ATOM     21  C   UNL     1      -3.476  -0.489  -6.058  1.00  0.00     0.011 C 
ATOM     22  C   UNL     1      -2.365  -0.926  -6.974  1.00  0.00     0.011 C 
ENDBRANCH  18  20
ENDBRANCH   5   8
ENDBRANCH   3   4
ENDBRANCH   2   3
ENDBRANCH   1   2
BRANCH   1  23
ATOM     23  N   UNL     1      -3.301   5.834  -3.866  1.00  0.00    -0.352 N 
ATOM     24  C   UNL     1      -3.841   6.897  -4.545  1.00  0.00     0.251 C 
ATOM     25  H   UNL     1      -2.480   5.479  -4.276  1.00  0.00     0.163 HD
ATOM     26  O   UNL     1      -3.425   7.104  -5.686  1.00  0.00    -0.269 OA
BRANCH  24  27
ATOM     27  C   UNL     1      -4.878   7.803  -3.985  1.00  0.00     0.039 A 
ATOM     28  C   UNL     1      -5.759   8.412  -4.893  1.00  0.00     0.014 A 
ATOM     29  C   UNL     1      -4.920   8.186  -2.642  1.00  0.00     0.014 A 
ATOM     30  C   UNL     1      -6.693   9.358  -4.461  1.00  0.00     0.010 A 
ATOM     31  C   UNL     1      -5.865   9.129  -2.207  1.00  0.00     0.010 A 
ATOM     32  C   UNL     1      -6.767   9.713  -3.109  1.00  0.00    -0.014 A 
BRANCH  32  33
ATOM     33  C   UNL     1      -7.880  10.591  -2.681  1.00  0.00     0.031 A 
ATOM     34  C   UNL     1      -8.643  10.120  -1.486  1.00  0.00     0.074 A 
ATOM     35  C   UNL     1      -7.936  11.908  -2.981  1.00  0.00     0.049 A 
ATOM     36  N   UNL     1      -8.207  10.282  -0.271  1.00  0.00    -0.248 NA
ATOM     37  C   UNL     1      -9.803   9.236  -1.583  1.00  0.00     0.031 C 
ATOM     38  C   UNL     1      -6.746  12.756  -3.120  1.00  0.00     0.029 A 
ATOM     39  N   UNL     1      -8.987  12.799  -2.973  1.00  0.00    -0.354 N 
ATOM     40  C   UNL     1      -9.001   9.515   0.560  1.00  0.00     0.074 A 
ATOM     41  C   UNL     1      -9.978   8.881  -0.299  1.00  0.00     0.031 C 
ATOM     42  C   UNL     1      -7.120  14.048  -3.003  1.00  0.00     0.029 A 
ATOM     43  C   UNL     1      -8.578  14.133  -2.947  1.00  0.00     0.049 A 
ATOM     44  H   UNL     1      -9.932  12.522  -2.984  1.00  0.00     0.167 HD
ATOM     45  C   UNL     1      -8.816   9.453   1.905  1.00  0.00     0.037 A 
ATOM     46  C   UNL     1      -9.263  15.156  -2.358  1.00  0.00     0.037 A 
ATOM     47  C   UNL     1      -7.775  10.290   2.425  1.00  0.00     0.049 A 
ATOM     48  C   UNL     1      -9.127  14.784  -0.901  1.00  0.00     0.074 A 
ATOM     49  C   UNL     1      -6.442  10.178   2.758  1.00  0.00     0.029 A 
ATOM     50  N   UNL     1      -8.072  11.617   2.637  1.00  0.00    -0.354 N 
ATOM     51  N   UNL     1      -8.073  14.977  -0.152  1.00  0.00    -0.248 NA
ATOM     52  C   UNL     1     -10.092  13.825  -0.360  1.00  0.00     0.031 C 
ATOM     53  C   UNL     1      -5.920  11.510   2.686  1.00  0.00     0.029 A 
ATOM     54  C   UNL     1      -6.963  12.337   2.273  1.00  0.00     0.049 A 
ATOM     55  H   UNL     1      -8.919  11.979   2.983  1.00  0.00     0.167 HD
ATOM     56  C   UNL     1      -8.112  13.966   0.811  1.00  0.00     0.074 A 
ATOM     57  C   UNL     1      -9.387  13.301   0.632  1.00  0.00     0.031 C 
ATOM     58  C   UNL     1      -7.045  13.606   1.582  1.00  0.00     0.037 A 
BRANCH  45  59
ATOM     59  C   UNL     1      -9.725   8.766   2.843  1.00  0.00     0.058 A 
ATOM     60  C   UNL     1     -10.677   9.540   3.524  1.00  0.00     0.135 A 
ATOM     61  C   UNL     1      -9.540   7.438   3.243  1.00  0.00     0.135 A 
ATOM     62  F   UNL     1     -10.873  10.822   3.173  1.00  0.00    -0.206 F 
ATOM     63  C   UNL     1     -11.386   9.036   4.604  1.00  0.00     0.059 A 
ATOM     64  C   UNL     1     -10.247   6.906   4.320  1.00  0.00     0.059 A 
ATOM     65  F   UNL     1      -8.635   6.663   2.623  1.00  0.00    -0.206 F 
ATOM     66  C   UNL     1     -11.148   7.723   5.009  1.00  0.00     0.060 A 
BRANCH  66  67
ATOM     67  S   UNL     1     -12.006   7.129   6.482  1.00  0.00     0.124 S 
ATOM     68  O   UNL     1     -11.482   8.018   7.513  1.00  0.00    -0.237 OA
ATOM     69  O   UNL     1     -13.404   7.332   6.116  1.00  0.00    -0.237 OA
ATOM     70  O   UNL     1     -11.584   5.735   6.582  1.00  0.00    -0.744 OA
ENDBRANCH  66  67
ENDBRANCH  45  59
BRANCH  46  71
ATOM     71  C   UNL     1     -10.578  15.518  -2.989  1.00  0.00     0.058 A 
ATOM     72  C   UNL     1     -10.629  15.694  -4.389  1.00  0.00     0.135 A 
ATOM     73  C   UNL     1     -11.792  15.704  -2.307  1.00  0.00     0.135 A 
ATOM     74  F   UNL     1      -9.498  15.688  -5.114  1.00  0.00    -0.206 F 
ATOM     75  C   UNL     1     -11.826  15.861  -5.080  1.00  0.00     0.059 A 
ATOM     76  C   UNL     1     -13.010  15.845  -2.977  1.00  0.00     0.059 A 
ATOM     77  F   UNL     1     -11.835  15.728  -0.968  1.00  0.00    -0.206 F 
ATOM     78  C   UNL     1     -13.020  15.879  -4.367  1.00  0.00     0.060 A 
BRANCH  78  79
ATOM     79  S   UNL     1     -14.573  15.869  -5.286  1.00  0.00     0.124 S 
ATOM     80  O   UNL     1     -14.522  17.153  -5.982  1.00  0.00    -0.237 OA
ATOM     81  O   UNL     1     -14.409  14.685  -6.129  1.00  0.00    -0.237 OA
ATOM     82  O   UNL     1     -15.584  15.755  -4.247  1.00  0.00    -0.744 OA
ENDBRANCH  78  79
ENDBRANCH  46  71
BRANCH  58  83
ATOM     83  C   UNL     1      -5.844  14.489   1.504  1.00  0.00     0.058 A 
ATOM     84  C   UNL     1      -5.868  15.761   2.093  1.00  0.00     0.135 A 
ATOM     85  C   UNL     1      -4.640  14.058   0.923  1.00  0.00     0.135 A 
ATOM     86  F   UNL     1      -6.990  16.220   2.671  1.00  0.00    -0.206 F 
ATOM     87  C   UNL     1      -4.729  16.558   2.144  1.00  0.00     0.059 A 
ATOM     88  C   UNL     1      -3.482  14.830   0.984  1.00  0.00     0.059 A 
ATOM     89  F   UNL     1      -4.558  12.858   0.325  1.00  0.00    -0.206 F 
ATOM     90  C   UNL     1      -3.535  16.076   1.607  1.00  0.00     0.060 A 
BRANCH  90  91
ATOM     91  S   UNL     1      -2.038  17.063   1.813  1.00  0.00     0.124 S 
ATOM     92  O   UNL     1      -2.300  18.204   0.942  1.00  0.00    -0.237 OA
ATOM     93  O   UNL     1      -2.047  17.344   3.245  1.00  0.00    -0.237 OA
ATOM     94  O   UNL     1      -0.972  16.168   1.368  1.00  0.00    -0.744 OA
ENDBRANCH  90  91
ENDBRANCH  58  83
ENDBRANCH  32  33
ENDBRANCH  24  27
ENDBRANCH   1  23
TORSDOF 14
