REMARK SMILES CC(C)(CC(=O)NCCCNC(=O)c1ccc(-c2c3nc(c(-c4c(F)cc(S(=O)(=O)[O-])cc4F)c4ccc([nH]4)c(-c4c(F)cc(S(=O)(=O)[O-])cc4F)c4nc(c(-c5c(F)cc(S(=O)(=O)[O-])cc5F)c5ccc2[nH]5)C=C4)C=C3)cc1)Cc1nc([C@@]2(C)CCCO2)no1
REMARK SMILES IDX 8 1 7 2 5 3 6 4 4 6 2 7 1 8 3 9 80 10 81 11 82 12 91 13
REMARK SMILES IDX 83 14 90 15 84 16 85 17 86 18 89 19 87 20 88 21 9 22 10 23
REMARK SMILES IDX 11 24 12 25 13 27 14 28 15 29 79 30 16 31 78 32 17 33 18 34
REMARK SMILES IDX 19 35 72 36 20 37 77 38 71 39 73 40 21 41 76 42 70 43 69 44
REMARK SMILES IDX 22 46 56 47 35 48 55 49 36 50 39 51 54 52 74 53 37 54 38 55
REMARK SMILES IDX 53 57 75 58 40 59 23 60 24 61 33 62 25 63 26 64 32 65 34 66
REMARK SMILES IDX 27 67 28 68 29 69 30 70 31 71 57 72 58 73 67 74 59 75 60 76
REMARK SMILES IDX 66 77 68 78 61 79 62 80 63 81 64 82 65 83 41 84 42 85 51 86
REMARK SMILES IDX 43 87 44 88 50 89 52 90 45 91 46 92 47 93 48 94 49 95
REMARK H PARENT 7 5 11 26 73 45 39 56
REMARK Flexibility Score: inf
ROOT
ATOM      1  C   UNL     1      -0.862  -1.736   0.950  1.00  0.00     0.117 C 
ENDROOT
BRANCH   1   2
ATOM      2  N   UNL     1      -1.442  -0.449   1.290  1.00  0.00    -0.356 N 
ATOM      3  C   UNL     1      -1.634   0.681   0.562  1.00  0.00     0.220 C 
ATOM      4  O   UNL     1      -2.443   1.515   0.978  1.00  0.00    -0.275 OA
ATOM      5  H   UNL     1      -1.755  -0.384   2.222  1.00  0.00     0.163 HD
BRANCH   3   6
ATOM      6  C   UNL     1      -0.917   0.919  -0.746  1.00  0.00     0.107 C 
BRANCH   6   7
ATOM      7  C   UNL     1       0.498   1.554  -0.712  1.00  0.00    -0.018 C 
ATOM      8  C   UNL     1       1.561   0.561  -0.235  1.00  0.00     0.012 C 
ATOM      9  C   UNL     1       0.841   1.866  -2.201  1.00  0.00     0.012 C 
BRANCH   7  10
ATOM     10  C   UNL     1       0.640   2.895   0.057  1.00  0.00     0.107 C 
BRANCH  10  11
ATOM     11  C   UNL     1       0.200   3.030   1.479  1.00  0.00     0.227 A 
ATOM     12  N   UNL     1       0.068   2.188   2.486  1.00  0.00    -0.193 NA
ATOM     13  O   UNL     1      -0.102   4.318   1.827  1.00  0.00    -0.339 OA
ATOM     14  C   UNL     1      -0.472   3.002   3.479  1.00  0.00     0.203 A 
ATOM     15  N   UNL     1      -0.529   4.300   3.142  1.00  0.00    -0.059 NA
BRANCH  14  16
ATOM     16  C   UNL     1      -0.963   2.535   4.836  1.00  0.00     0.128 C 
ATOM     17  C   UNL     1      -1.200   1.024   4.893  1.00  0.00     0.051 C 
ATOM     18  C   UNL     1      -0.020   2.975   5.964  1.00  0.00     0.046 C 
ATOM     19  O   UNL     1      -2.250   3.124   5.185  1.00  0.00    -0.367 OA
ATOM     20  C   UNL     1      -0.929   3.034   7.168  1.00  0.00     0.032 C 
ATOM     21  C   UNL     1      -2.241   3.493   6.571  1.00  0.00     0.161 C 
ENDBRANCH  14  16
ENDBRANCH  10  11
ENDBRANCH   7  10
ENDBRANCH   6   7
ENDBRANCH   3   6
ENDBRANCH   1   2
BRANCH   1  22
ATOM     22  C   UNL     1       0.443  -2.094   1.669  1.00  0.00     0.042 C 
BRANCH  22  23
ATOM     23  C   UNL     1       0.507  -1.751   3.150  1.00  0.00     0.118 C 
BRANCH  23  24
ATOM     24  N   UNL     1      -0.263  -2.674   3.967  1.00  0.00    -0.352 N 
ATOM     25  C   UNL     1       0.158  -3.409   5.047  1.00  0.00     0.251 C 
ATOM     26  H   UNL     1      -1.207  -2.787   3.713  1.00  0.00     0.163 HD
ATOM     27  O   UNL     1      -0.546  -4.326   5.471  1.00  0.00    -0.269 OA
BRANCH  25  28
ATOM     28  C   UNL     1       1.451  -3.108   5.704  1.00  0.00     0.039 A 
ATOM     29  C   UNL     1       2.330  -4.157   5.990  1.00  0.00     0.014 A 
ATOM     30  C   UNL     1       1.772  -1.805   6.093  1.00  0.00     0.014 A 
ATOM     31  C   UNL     1       3.541  -3.894   6.638  1.00  0.00     0.010 A 
ATOM     32  C   UNL     1       3.001  -1.537   6.703  1.00  0.00     0.010 A 
ATOM     33  C   UNL     1       3.893  -2.578   6.991  1.00  0.00    -0.014 A 
BRANCH  33  34
ATOM     34  C   UNL     1       5.187  -2.291   7.668  1.00  0.00     0.031 A 
ATOM     35  C   UNL     1       5.214  -1.808   9.094  1.00  0.00     0.074 A 
ATOM     36  C   UNL     1       6.341  -2.427   6.986  1.00  0.00     0.049 A 
ATOM     37  N   UNL     1       6.242  -1.496   9.841  1.00  0.00    -0.248 NA
ATOM     38  C   UNL     1       3.914  -1.635   9.760  1.00  0.00     0.031 C 
ATOM     39  C   UNL     1       6.449  -2.842   5.586  1.00  0.00     0.029 A 
ATOM     40  N   UNL     1       7.642  -2.226   7.374  1.00  0.00    -0.354 N 
ATOM     41  C   UNL     1       5.717  -1.083  11.061  1.00  0.00     0.074 A 
ATOM     42  C   UNL     1       4.276  -1.138  10.935  1.00  0.00     0.031 C 
ATOM     43  C   UNL     1       7.745  -2.886   5.240  1.00  0.00     0.029 A 
ATOM     44  C   UNL     1       8.560  -2.477   6.381  1.00  0.00     0.049 A 
ATOM     45  H   UNL     1       7.894  -1.930   8.278  1.00  0.00     0.167 HD
ATOM     46  C   UNL     1       6.372  -0.712  12.188  1.00  0.00     0.037 A 
ATOM     47  C   UNL     1       9.904  -2.390   6.388  1.00  0.00     0.037 A 
ATOM     48  C   UNL     1       7.807  -0.676  12.316  1.00  0.00     0.049 A 
ATOM     49  C   UNL     1      10.612  -1.982   7.651  1.00  0.00     0.074 A 
ATOM     50  C   UNL     1       8.565  -0.369  13.434  1.00  0.00     0.029 A 
ATOM     51  N   UNL     1       8.702  -0.950  11.292  1.00  0.00    -0.354 N 
ATOM     52  N   UNL     1      10.100  -1.659   8.814  1.00  0.00    -0.248 NA
ATOM     53  C   UNL     1      12.080  -1.936   7.605  1.00  0.00     0.031 C 
ATOM     54  C   UNL     1       9.917  -0.421  13.075  1.00  0.00     0.029 A 
ATOM     55  C   UNL     1      10.003  -0.803  11.745  1.00  0.00     0.049 A 
ATOM     56  H   UNL     1       8.450  -1.212  10.377  1.00  0.00     0.167 HD
ATOM     57  C   UNL     1      11.183  -1.395   9.646  1.00  0.00     0.074 A 
ATOM     58  C   UNL     1      12.378  -1.606   8.855  1.00  0.00     0.031 C 
ATOM     59  C   UNL     1      11.186  -1.016  10.948  1.00  0.00     0.037 A 
BRANCH  46  60
ATOM     60  C   UNL     1       5.539  -0.318  13.378  1.00  0.00     0.058 A 
ATOM     61  C   UNL     1       4.796  -1.264  14.102  1.00  0.00     0.135 A 
ATOM     62  C   UNL     1       5.497   1.017  13.812  1.00  0.00     0.135 A 
ATOM     63  F   UNL     1       4.791  -2.552  13.725  1.00  0.00    -0.206 F 
ATOM     64  C   UNL     1       4.010  -0.895  15.189  1.00  0.00     0.059 A 
ATOM     65  C   UNL     1       4.739   1.404  14.914  1.00  0.00     0.059 A 
ATOM     66  F   UNL     1       6.191   1.963  13.160  1.00  0.00    -0.206 F 
ATOM     67  C   UNL     1       3.982   0.443  15.584  1.00  0.00     0.060 A 
BRANCH  67  68
ATOM     68  S   UNL     1       2.942   0.911  16.983  1.00  0.00     0.124 S 
ATOM     69  O   UNL     1       1.612   0.863  16.383  1.00  0.00    -0.237 OA
ATOM     70  O   UNL     1       3.234  -0.137  17.956  1.00  0.00    -0.237 OA
ATOM     71  O   UNL     1       3.424   2.242  17.335  1.00  0.00    -0.744 OA
ENDBRANCH  67  68
ENDBRANCH  46  60
BRANCH  47  72
ATOM     72  C   UNL     1      10.669  -2.735   5.161  1.00  0.00     0.058 A 
ATOM     73  C   UNL     1      11.409  -3.924   5.084  1.00  0.00     0.135 A 
ATOM     74  C   UNL     1      10.649  -1.902   4.031  1.00  0.00     0.135 A 
ATOM     75  F   UNL     1      11.464  -4.748   6.142  1.00  0.00    -0.206 F 
ATOM     76  C   UNL     1      12.106  -4.276   3.933  1.00  0.00     0.059 A 
ATOM     77  C   UNL     1      11.320  -2.243   2.861  1.00  0.00     0.059 A 
ATOM     78  F   UNL     1       9.943  -0.761   4.050  1.00  0.00    -0.206 F 
ATOM     79  C   UNL     1      12.051  -3.430   2.824  1.00  0.00     0.060 A 
BRANCH  79  80
ATOM     80  S   UNL     1      12.899  -3.930   1.310  1.00  0.00     0.124 S 
ATOM     81  O   UNL     1      14.294  -3.688   1.661  1.00  0.00    -0.237 OA
ATOM     82  O   UNL     1      12.505  -5.330   1.186  1.00  0.00    -0.237 OA
ATOM     83  O   UNL     1      12.336  -3.038   0.301  1.00  0.00    -0.744 OA
ENDBRANCH  79  80
ENDBRANCH  47  72
BRANCH  59  84
ATOM     84  C   UNL     1      12.522  -0.829  11.611  1.00  0.00     0.058 A 
ATOM     85  C   UNL     1      13.334   0.282  11.333  1.00  0.00     0.135 A 
ATOM     86  C   UNL     1      12.975  -1.748  12.572  1.00  0.00     0.135 A 
ATOM     87  F   UNL     1      12.951   1.186  10.418  1.00  0.00    -0.206 F 
ATOM     88  C   UNL     1      14.559   0.464  11.969  1.00  0.00     0.059 A 
ATOM     89  C   UNL     1      14.185  -1.573  13.237  1.00  0.00     0.059 A 
ATOM     90  F   UNL     1      12.232  -2.823  12.882  1.00  0.00    -0.206 F 
ATOM     91  C   UNL     1      14.976  -0.470  12.920  1.00  0.00     0.060 A 
BRANCH  91  92
ATOM     92  S   UNL     1      16.552  -0.207  13.761  1.00  0.00     0.124 S 
ATOM     93  O   UNL     1      17.505  -0.587  12.723  1.00  0.00    -0.237 OA
ATOM     94  O   UNL     1      16.501   1.215  14.085  1.00  0.00    -0.237 OA
ATOM     95  O   UNL     1      16.479  -1.108  14.907  1.00  0.00    -0.744 OA
ENDBRANCH  91  92
ENDBRANCH  59  84
ENDBRANCH  33  34
ENDBRANCH  25  28
ENDBRANCH  23  24
ENDBRANCH  22  23
ENDBRANCH   1  22
TORSDOF 17
