REMARK SMILES C[C@]12c3ccccc3[C@](C)(c3ccccc31)[C@@H]1C(=O)N(c3ccc(C(=O)NCCCNC(=O)c4ccc(-c5c6nc(c(-c7c(F)cc(S(=O)(=O)[O-])cc7F)c7ccc([nH]7)c(-c7c(F)cc(S(=O)(=O)[O-])cc7F)c7nc(c(-c8c(F)cc(S(=O)(=O)[O-])cc8F)c8ccc5[nH]8)C=C7)C=C6)cc4)cc3)C(=O)[C@H]12
REMARK SMILES IDX 30 1 29 2 28 3 27 4 25 5 26 6 24 8 21 9 22 10 101 11 23 12
REMARK SMILES IDX 100 13 20 14 1 15 2 16 16 17 3 18 104 19 15 20 11 21 8 22
REMARK SMILES IDX 4 23 17 24 102 25 14 26 12 27 9 28 7 29 5 30 18 31 103 32
REMARK SMILES IDX 13 33 10 34 6 35 19 36 31 37 32 38 33 40 34 41 35 42 99 43
REMARK SMILES IDX 36 44 98 45 37 46 38 47 39 48 92 49 40 50 97 51 91 52 93 53
REMARK SMILES IDX 41 54 96 55 90 56 89 57 42 59 76 60 55 61 75 62 56 63 59 64
REMARK SMILES IDX 74 65 94 66 57 67 58 68 73 70 95 71 60 72 43 73 44 74 53 75
REMARK SMILES IDX 45 76 46 77 52 78 54 79 47 80 48 81 49 82 50 83 51 84 77 85
REMARK SMILES IDX 78 86 87 87 79 88 80 89 86 90 88 91 81 92 82 93 83 94 84 95
REMARK SMILES IDX 85 96 61 97 62 98 71 99 63 100 64 101 70 102 72 103 65 104
REMARK SMILES IDX 66 105 67 106 68 107 69 108
REMARK H PARENT 27 7 31 39 93 58 59 69
REMARK Flexibility Score: inf
ROOT
ATOM      1  C   UNL     1       2.307   1.998 -11.709  1.00  0.00     0.118 C 
ENDROOT
BRANCH   1   2
ATOM      2  C   UNL     1       1.667   1.477 -10.433  1.00  0.00     0.042 C 
BRANCH   2   3
ATOM      3  C   UNL     1       1.889  -0.004 -10.179  1.00  0.00     0.118 C 
BRANCH   3   4
ATOM      4  N   UNL     1       3.293  -0.367 -10.030  1.00  0.00    -0.352 N 
ATOM      5  C   UNL     1       3.984  -0.962  -9.004  1.00  0.00     0.251 C 
ATOM      6  O   UNL     1       5.200  -1.105  -9.113  1.00  0.00    -0.269 OA
ATOM      7  H   UNL     1       3.849  -0.143 -10.811  1.00  0.00     0.163 HD
BRANCH   5   8
ATOM      8  C   UNL     1       3.317  -1.387  -7.751  1.00  0.00     0.039 A 
ATOM      9  C   UNL     1       2.047  -1.911  -5.295  1.00  0.00     0.052 A 
ATOM     10  C   UNL     1       3.367  -1.443  -5.328  1.00  0.00     0.027 A 
ATOM     11  C   UNL     1       1.414  -2.215  -6.507  1.00  0.00     0.027 A 
ATOM     12  C   UNL     1       4.002  -1.194  -6.548  1.00  0.00     0.016 A 
ATOM     13  C   UNL     1       2.053  -1.975  -7.726  1.00  0.00     0.016 A 
BRANCH   9  14
ATOM     14  N   UNL     1       1.343  -2.023  -4.076  1.00  0.00    -0.250 N 
ATOM     15  C   UNL     1       1.269  -0.332   0.118  1.00  0.00     0.022 C 
ATOM     16  C   UNL     1       0.264  -1.286  -0.522  1.00  0.00     0.030 C 
ATOM     17  C   UNL     1      -1.182  -0.736  -0.644  1.00  0.00    -0.033 A 
ATOM     18  C   UNL     1       0.086  -2.650   0.222  1.00  0.00    -0.033 A 
ATOM     19  C   UNL     1       0.770  -1.846  -1.873  1.00  0.00     0.108 C 
ATOM     20  C   UNL     1      -1.623   0.514  -0.220  1.00  0.00     0.005 A 
ATOM     21  C   UNL     1      -2.126  -1.668  -1.198  1.00  0.00    -0.033 A 
ATOM     22  C   UNL     1      -0.765  -3.574  -0.479  1.00  0.00    -0.033 A 
ATOM     23  C   UNL     1       0.721  -3.027   1.402  1.00  0.00     0.005 A 
ATOM     24  C   UNL     1      -0.430  -2.336  -2.684  1.00  0.00     0.108 C 
ATOM     25  C   UNL     1       1.565  -1.200  -2.961  1.00  0.00     0.238 C 
ATOM     26  C   UNL     1      -2.979   0.835  -0.333  1.00  0.00     0.000 A 
ATOM     27  C   UNL     1      -3.477  -1.340  -1.291  1.00  0.00     0.005 A 
ATOM     28  C   UNL     1      -1.463  -2.977  -1.728  1.00  0.00     0.030 C 
ATOM     29  C   UNL     1      -0.941  -4.860   0.020  1.00  0.00     0.005 A 
ATOM     30  C   UNL     1       0.528  -4.321   1.885  1.00  0.00     0.000 A 
ATOM     31  C   UNL     1       0.283  -2.913  -3.858  1.00  0.00     0.238 C 
ATOM     32  O   UNL     1       2.307  -0.243  -2.826  1.00  0.00    -0.274 OA
ATOM     33  C   UNL     1      -3.897  -0.085  -0.854  1.00  0.00     0.000 A 
ATOM     34  C   UNL     1      -2.412  -3.920  -2.465  1.00  0.00     0.022 C 
ATOM     35  C   UNL     1      -0.288  -5.229   1.199  1.00  0.00     0.000 A 
ATOM     36  O   UNL     1      -0.071  -3.883  -4.509  1.00  0.00    -0.274 OA
ENDBRANCH   9  14
ENDBRANCH   5   8
ENDBRANCH   3   4
ENDBRANCH   2   3
ENDBRANCH   1   2
BRANCH   1  37
ATOM     37  N   UNL     1       1.725   1.432 -12.924  1.00  0.00    -0.352 N 
ATOM     38  C   UNL     1       0.875   1.979 -13.861  1.00  0.00     0.251 C 
ATOM     39  H   UNL     1       1.985   0.500 -13.105  1.00  0.00     0.163 HD
ATOM     40  O   UNL     1       0.389   1.260 -14.730  1.00  0.00    -0.269 OA
BRANCH  38  41
ATOM     41  C   UNL     1       0.515   3.414 -13.801  1.00  0.00     0.039 A 
ATOM     42  C   UNL     1       1.473   4.367 -13.470  1.00  0.00     0.014 A 
ATOM     43  C   UNL     1      -0.801   3.815 -14.053  1.00  0.00     0.014 A 
ATOM     44  C   UNL     1       1.073   5.651 -13.131  1.00  0.00     0.010 A 
ATOM     45  C   UNL     1      -1.172   5.152 -13.856  1.00  0.00     0.010 A 
ATOM     46  C   UNL     1      -0.253   6.070 -13.328  1.00  0.00    -0.014 A 
BRANCH  46  47
ATOM     47  C   UNL     1      -0.619   7.471 -12.977  1.00  0.00     0.031 A 
ATOM     48  C   UNL     1      -1.671   7.766 -11.938  1.00  0.00     0.074 A 
ATOM     49  C   UNL     1       0.080   8.482 -13.535  1.00  0.00     0.049 A 
ATOM     50  N   UNL     1      -2.059   8.926 -11.470  1.00  0.00    -0.248 NA
ATOM     51  C   UNL     1      -2.386   6.621 -11.348  1.00  0.00     0.031 C 
ATOM     52  C   UNL     1       1.129   8.320 -14.546  1.00  0.00     0.029 A 
ATOM     53  N   UNL     1       0.057   9.834 -13.303  1.00  0.00    -0.354 N 
ATOM     54  C   UNL     1      -3.063   8.654 -10.547  1.00  0.00     0.074 A 
ATOM     55  C   UNL     1      -3.256   7.221 -10.547  1.00  0.00     0.031 C 
ATOM     56  C   UNL     1       1.708   9.506 -14.779  1.00  0.00     0.029 A 
ATOM     57  C   UNL     1       1.013  10.530 -14.008  1.00  0.00     0.049 A 
ATOM     58  H   UNL     1      -0.583  10.266 -12.692  1.00  0.00     0.167 HD
ATOM     59  C   UNL     1      -3.748   9.518  -9.759  1.00  0.00     0.037 A 
ATOM     60  C   UNL     1       1.296  11.846 -14.046  1.00  0.00     0.037 A 
ATOM     61  C   UNL     1      -3.531  10.943  -9.748  1.00  0.00     0.049 A 
ATOM     62  C   UNL     1       0.483  12.786 -13.205  1.00  0.00     0.074 A 
ATOM     63  C   UNL     1      -4.171  11.901  -8.981  1.00  0.00     0.029 A 
ATOM     64  N   UNL     1      -2.604  11.613 -10.533  1.00  0.00    -0.354 N 
ATOM     65  N   UNL     1      -0.464  12.506 -12.342  1.00  0.00    -0.248 NA
ATOM     66  C   UNL     1       0.762  14.221 -13.350  1.00  0.00     0.031 C 
ATOM     67  C   UNL     1      -3.666  13.154  -9.336  1.00  0.00     0.029 A 
ATOM     68  C   UNL     1      -2.670  12.974 -10.283  1.00  0.00     0.049 A 
ATOM     69  H   UNL     1      -1.990  11.185 -11.172  1.00  0.00     0.167 HD
ATOM     70  C   UNL     1      -0.881  13.727 -11.828  1.00  0.00     0.074 A 
ATOM     71  C   UNL     1      -0.074  14.747 -12.465  1.00  0.00     0.031 C 
ATOM     72  C   UNL     1      -1.849  13.977 -10.914  1.00  0.00     0.037 A 
BRANCH  59  73
ATOM     73  C   UNL     1      -4.799   8.962  -8.834  1.00  0.00     0.058 A 
ATOM     74  C   UNL     1      -4.457   8.232  -7.686  1.00  0.00     0.135 A 
ATOM     75  C   UNL     1      -6.160   9.239  -9.050  1.00  0.00     0.135 A 
ATOM     76  F   UNL     1      -3.174   7.924  -7.436  1.00  0.00    -0.206 F 
ATOM     77  C   UNL     1      -5.426   7.786  -6.791  1.00  0.00     0.059 A 
ATOM     78  C   UNL     1      -7.143   8.827  -8.155  1.00  0.00     0.059 A 
ATOM     79  F   UNL     1      -6.544   9.935 -10.132  1.00  0.00    -0.206 F 
ATOM     80  C   UNL     1      -6.766   8.095  -7.030  1.00  0.00     0.060 A 
BRANCH  80  81
ATOM     81  S   UNL     1      -8.002   7.529  -5.842  1.00  0.00     0.124 S 
ATOM     82  O   UNL     1      -7.956   6.083  -6.038  1.00  0.00    -0.237 OA
ATOM     83  O   UNL     1      -7.460   8.014  -4.577  1.00  0.00    -0.237 OA
ATOM     84  O   UNL     1      -9.230   8.181  -6.288  1.00  0.00    -0.744 OA
ENDBRANCH  80  81
ENDBRANCH  59  73
BRANCH  60  85
ATOM     85  C   UNL     1       2.393  12.342 -14.921  1.00  0.00     0.058 A 
ATOM     86  C   UNL     1       3.562  12.892 -14.375  1.00  0.00     0.135 A 
ATOM     87  C   UNL     1       2.307  12.248 -16.320  1.00  0.00     0.135 A 
ATOM     88  F   UNL     1       3.691  13.009 -13.044  1.00  0.00    -0.206 F 
ATOM     89  C   UNL     1       4.602  13.340 -15.183  1.00  0.00     0.059 A 
ATOM     90  C   UNL     1       3.347  12.659 -17.147  1.00  0.00     0.059 A 
ATOM     91  F   UNL     1       1.217  11.716 -16.894  1.00  0.00    -0.206 F 
ATOM     92  C   UNL     1       4.487  13.213 -16.569  1.00  0.00     0.060 A 
BRANCH  92  93
ATOM     93  S   UNL     1       5.862  13.757 -17.604  1.00  0.00     0.124 S 
ATOM     94  O   UNL     1       5.797  15.205 -17.440  1.00  0.00    -0.237 OA
ATOM     95  O   UNL     1       6.998  13.092 -16.975  1.00  0.00    -0.237 OA
ATOM     96  O   UNL     1       5.505  13.256 -18.928  1.00  0.00    -0.744 OA
ENDBRANCH  92  93
ENDBRANCH  60  85
BRANCH  72  97
ATOM     97  C   UNL     1      -2.082  15.407 -10.514  1.00  0.00     0.058 A 
ATOM     98  C   UNL     1      -2.737  16.309 -11.365  1.00  0.00     0.135 A 
ATOM     99  C   UNL     1      -1.740  15.847  -9.225  1.00  0.00     0.135 A 
ATOM    100  F   UNL     1      -3.075  15.940 -12.611  1.00  0.00    -0.206 F 
ATOM    101  C   UNL     1      -3.048  17.600 -10.951  1.00  0.00     0.059 A 
ATOM    102  C   UNL     1      -2.066  17.124  -8.780  1.00  0.00     0.059 A 
ATOM    103  F   UNL     1      -1.118  15.019  -8.370  1.00  0.00    -0.206 F 
ATOM    104  C   UNL     1      -2.720  17.993  -9.652  1.00  0.00     0.060 A 
BRANCH 104 105
ATOM    105  S   UNL     1      -3.204  19.644  -9.106  1.00  0.00     0.124 S 
ATOM    106  O   UNL     1      -2.323  20.490  -9.904  1.00  0.00    -0.237 OA
ATOM    107  O   UNL     1      -4.619  19.686  -9.464  1.00  0.00    -0.237 OA
ATOM    108  O   UNL     1      -2.926  19.626  -7.673  1.00  0.00    -0.744 OA
ENDBRANCH 104 105
ENDBRANCH  72  97
ENDBRANCH  46  47
ENDBRANCH  38  41
ENDBRANCH   1  37
TORSDOF 14
