REMARK SMILES O=C(NCCCNC(=O)c1ccc(-c2c3nc(c(-c4c(F)cc(S(=O)(=O)[O-])cc4F)c4ccc([nH]4)c(-c4c(F)cc(S(=O)(=O)[O-])cc4F)c4nc(c(-c5c(F)cc(S(=O)(=O)[O-])cc5F)c5ccc2[nH]5)C=C4)C=C3)cc1)C1=Cc2cc(OC(F)(F)F)ccc2O[C@@H]1C(F)(F)F
REMARK SMILES IDX 5 1 4 2 3 3 1 4 2 5 76 7 77 8 90 9 78 10 89 11 79 12 88 13
REMARK SMILES IDX 80 14 87 15 86 16 91 17 92 18 93 19 94 20 81 21 82 22 83 23
REMARK SMILES IDX 84 24 85 25 6 26 7 27 8 28 9 30 10 31 11 32 75 33 12 34
REMARK SMILES IDX 74 35 13 36 14 37 15 38 68 39 16 40 73 41 67 42 69 43 17 44
REMARK SMILES IDX 72 45 66 46 65 47 18 49 52 50 31 51 51 52 32 53 35 54 50 55
REMARK SMILES IDX 70 56 33 57 34 58 49 60 71 61 36 62 19 63 20 64 29 65 21 66
REMARK SMILES IDX 22 67 28 68 30 69 23 70 24 71 25 72 26 73 27 74 53 75 54 76
REMARK SMILES IDX 63 77 55 78 56 79 62 80 64 81 57 82 58 83 59 84 60 85 61 86
REMARK SMILES IDX 37 87 38 88 47 89 39 90 40 91 46 92 48 93 41 94 42 95 43 96
REMARK SMILES IDX 44 97 45 98
REMARK H PARENT 3 6 7 29 69 48 35 59
REMARK Flexibility Score: inf
ROOT
ATOM      1  C   UNL     1       4.080   0.009  -3.029  1.00  0.00     0.042 C 
ENDROOT
BRANCH   1   2
ATOM      2  C   UNL     1       3.433   0.449  -1.719  1.00  0.00     0.118 C 
BRANCH   2   3
ATOM      3  N   UNL     1       2.459  -0.513  -1.192  1.00  0.00    -0.352 N 
ATOM      4  O   UNL     1       1.313  -1.635   0.413  1.00  0.00    -0.270 OA
ATOM      5  C   UNL     1       2.326  -1.040   0.071  1.00  0.00     0.251 C 
ATOM      6  H   UNL     1       1.796  -0.832  -1.846  1.00  0.00     0.163 HD
BRANCH   5   7
ATOM      7  C   UNL     1       3.416  -0.783   1.030  1.00  0.00     0.067 C 
ATOM      8  C   UNL     1       4.602  -1.357   0.792  1.00  0.00     0.025 C 
ATOM      9  C   UNL     1       3.249   0.382   1.955  1.00  0.00     0.314 C 
ATOM     10  C   UNL     1       5.706  -0.389   0.830  1.00  0.00     0.021 A 
ATOM     11  O   UNL     1       4.299   1.369   1.807  1.00  0.00    -0.475 OA
ATOM     12  C   UNL     1       6.846  -0.689   0.073  1.00  0.00     0.058 A 
ATOM     13  C   UNL     1       5.459   0.943   1.207  1.00  0.00     0.128 A 
ATOM     14  C   UNL     1       7.660   0.339  -0.411  1.00  0.00     0.130 A 
ATOM     15  C   UNL     1       6.316   1.958   0.787  1.00  0.00     0.051 A 
ATOM     16  C   UNL     1       7.399   1.661  -0.046  1.00  0.00     0.050 A 
BRANCH   9  17
ATOM     17  C   UNL     1       3.144  -0.083   3.416  1.00  0.00     0.429 C 
ATOM     18  F   UNL     1       2.854   0.958   4.237  1.00  0.00    -0.167 F 
ATOM     19  F   UNL     1       2.160  -0.997   3.590  1.00  0.00    -0.167 F 
ATOM     20  F   UNL     1       4.293  -0.638   3.870  1.00  0.00    -0.167 F 
ENDBRANCH   9  17
BRANCH  14  21
ATOM     21  O   UNL     1       8.664  -0.063  -1.245  1.00  0.00    -0.406 OA
BRANCH  21  22
ATOM     22  C   UNL     1       8.936   0.791  -2.349  1.00  0.00     0.573 C 
ATOM     23  F   UNL     1       7.803   1.111  -3.011  1.00  0.00    -0.132 F 
ATOM     24  F   UNL     1       9.556   1.920  -1.944  1.00  0.00    -0.132 F 
ATOM     25  F   UNL     1       9.755   0.147  -3.207  1.00  0.00    -0.132 F 
ENDBRANCH  21  22
ENDBRANCH  14  21
ENDBRANCH   5   7
ENDBRANCH   2   3
ENDBRANCH   1   2
BRANCH   1  26
ATOM     26  C   UNL     1       3.865   1.013  -4.160  1.00  0.00     0.118 C 
BRANCH  26  27
ATOM     27  N   UNL     1       4.556   2.286  -3.968  1.00  0.00    -0.352 N 
ATOM     28  C   UNL     1       5.562   2.901  -4.691  1.00  0.00     0.251 C 
ATOM     29  H   UNL     1       4.251   2.797  -3.184  1.00  0.00     0.163 HD
ATOM     30  O   UNL     1       6.048   3.940  -4.274  1.00  0.00    -0.269 OA
BRANCH  28  31
ATOM     31  C   UNL     1       6.083   2.285  -5.937  1.00  0.00     0.039 A 
ATOM     32  C   UNL     1       7.463   2.283  -6.167  1.00  0.00     0.014 A 
ATOM     33  C   UNL     1       5.231   1.681  -6.858  1.00  0.00     0.014 A 
ATOM     34  C   UNL     1       7.990   1.547  -7.234  1.00  0.00     0.010 A 
ATOM     35  C   UNL     1       5.759   0.858  -7.847  1.00  0.00     0.010 A 
ATOM     36  C   UNL     1       7.147   0.758  -8.031  1.00  0.00    -0.014 A 
BRANCH  36  37
ATOM     37  C   UNL     1       7.668  -0.213  -9.034  1.00  0.00     0.031 A 
ATOM     38  C   UNL     1       7.205  -0.133 -10.465  1.00  0.00     0.074 A 
ATOM     39  C   UNL     1       8.445  -1.241  -8.632  1.00  0.00     0.049 A 
ATOM     40  N   UNL     1       7.341  -1.006 -11.429  1.00  0.00    -0.248 NA
ATOM     41  C   UNL     1       6.448   1.071 -10.849  1.00  0.00     0.031 C 
ATOM     42  C   UNL     1       8.929  -1.464  -7.266  1.00  0.00     0.029 A 
ATOM     43  N   UNL     1       8.946  -2.312  -9.332  1.00  0.00    -0.354 N 
ATOM     44  C   UNL     1       6.663  -0.474 -12.520  1.00  0.00     0.074 A 
ATOM     45  C   UNL     1       6.073   0.772 -12.085  1.00  0.00     0.031 C 
ATOM     46  C   UNL     1       9.669  -2.583  -7.233  1.00  0.00     0.029 A 
ATOM     47  C   UNL     1       9.667  -3.193  -8.557  1.00  0.00     0.049 A 
ATOM     48  H   UNL     1       8.803  -2.438 -10.298  1.00  0.00     0.167 HD
ATOM     49  C   UNL     1       6.564  -0.967 -13.777  1.00  0.00     0.037 A 
ATOM     50  C   UNL     1      10.238  -4.373  -8.870  1.00  0.00     0.037 A 
ATOM     51  C   UNL     1       7.200  -2.179 -14.220  1.00  0.00     0.049 A 
ATOM     52  C   UNL     1      10.106  -4.902 -10.272  1.00  0.00     0.074 A 
ATOM     53  C   UNL     1       7.215  -2.727 -15.490  1.00  0.00     0.029 A 
ATOM     54  N   UNL     1       7.944  -3.022 -13.410  1.00  0.00    -0.354 N 
ATOM     55  N   UNL     1       9.490  -4.367 -11.299  1.00  0.00    -0.248 NA
ATOM     56  C   UNL     1      10.734  -6.200 -10.557  1.00  0.00     0.031 C 
ATOM     57  C   UNL     1       7.947  -3.918 -15.443  1.00  0.00     0.029 A 
ATOM     58  C   UNL     1       8.413  -4.094 -14.149  1.00  0.00     0.049 A 
ATOM     59  H   UNL     1       8.114  -2.880 -12.450  1.00  0.00     0.167 HD
ATOM     60  C   UNL     1       9.672  -5.253 -12.354  1.00  0.00     0.074 A 
ATOM     61  C   UNL     1      10.468  -6.351 -11.848  1.00  0.00     0.031 C 
ATOM     62  C   UNL     1       9.216  -5.170 -13.627  1.00  0.00     0.037 A 
BRANCH  49  63
ATOM     63  C   UNL     1       5.762  -0.179 -14.775  1.00  0.00     0.058 A 
ATOM     64  C   UNL     1       6.234   1.037 -15.294  1.00  0.00     0.135 A 
ATOM     65  C   UNL     1       4.534  -0.664 -15.255  1.00  0.00     0.135 A 
ATOM     66  F   UNL     1       7.393   1.554 -14.857  1.00  0.00    -0.206 F 
ATOM     67  C   UNL     1       5.507   1.757 -16.236  1.00  0.00     0.059 A 
ATOM     68  C   UNL     1       3.802   0.027 -16.217  1.00  0.00     0.059 A 
ATOM     69  F   UNL     1       4.036  -1.821 -14.791  1.00  0.00    -0.206 F 
ATOM     70  C   UNL     1       4.292   1.243 -16.692  1.00  0.00     0.060 A 
BRANCH  70  71
ATOM     71  S   UNL     1       3.372   2.183 -17.928  1.00  0.00     0.124 S 
ATOM     72  O   UNL     1       2.849   3.283 -17.125  1.00  0.00    -0.237 OA
ATOM     73  O   UNL     1       4.412   2.538 -18.889  1.00  0.00    -0.237 OA
ATOM     74  O   UNL     1       2.378   1.229 -18.410  1.00  0.00    -0.744 OA
ENDBRANCH  70  71
ENDBRANCH  49  63
BRANCH  50  75
ATOM     75  C   UNL     1      10.984  -5.147  -7.840  1.00  0.00     0.058 A 
ATOM     76  C   UNL     1      12.378  -5.279  -7.915  1.00  0.00     0.135 A 
ATOM     77  C   UNL     1      10.323  -5.787  -6.780  1.00  0.00     0.135 A 
ATOM     78  F   UNL     1      13.054  -4.691  -8.914  1.00  0.00    -0.206 F 
ATOM     79  C   UNL     1      13.090  -6.040  -6.993  1.00  0.00     0.059 A 
ATOM     80  C   UNL     1      11.016  -6.534  -5.832  1.00  0.00     0.059 A 
ATOM     81  F   UNL     1       8.991  -5.679  -6.653  1.00  0.00    -0.206 F 
ATOM     82  C   UNL     1      12.398  -6.668  -5.957  1.00  0.00     0.060 A 
BRANCH  82  83
ATOM     83  S   UNL     1      13.331  -7.641  -4.754  1.00  0.00     0.124 S 
ATOM     84  O   UNL     1      13.609  -8.854  -5.514  1.00  0.00    -0.237 OA
ATOM     85  O   UNL     1      14.477  -6.780  -4.482  1.00  0.00    -0.237 OA
ATOM     86  O   UNL     1      12.392  -7.790  -3.646  1.00  0.00    -0.744 OA
ENDBRANCH  82  83
ENDBRANCH  50  75
BRANCH  62  87
ATOM     87  C   UNL     1       9.579  -6.282 -14.568  1.00  0.00     0.058 A 
ATOM     88  C   UNL     1       8.935  -7.526 -14.509  1.00  0.00     0.135 A 
ATOM     89  C   UNL     1      10.524  -6.074 -15.585  1.00  0.00     0.135 A 
ATOM     90  F   UNL     1       8.032  -7.775 -13.547  1.00  0.00    -0.206 F 
ATOM     91  C   UNL     1       9.218  -8.532 -15.427  1.00  0.00     0.059 A 
ATOM     92  C   UNL     1      10.806  -7.058 -16.527  1.00  0.00     0.059 A 
ATOM     93  F   UNL     1      11.162  -4.897 -15.686  1.00  0.00    -0.206 F 
ATOM     94  C   UNL     1      10.150  -8.285 -16.437  1.00  0.00     0.060 A 
BRANCH  94  95
ATOM     95  S   UNL     1      10.459  -9.576 -17.661  1.00  0.00     0.124 S 
ATOM     96  O   UNL     1      11.262 -10.522 -16.895  1.00  0.00    -0.237 OA
ATOM     97  O   UNL     1       9.108 -10.017 -17.997  1.00  0.00    -0.237 OA
ATOM     98  O   UNL     1      11.164  -8.871 -18.727  1.00  0.00    -0.744 OA
ENDBRANCH  94  95
ENDBRANCH  62  87
ENDBRANCH  36  37
ENDBRANCH  28  31
ENDBRANCH  26  27
ENDBRANCH   1  26
TORSDOF 16
