REMARK SMILES Cc1ccccc1OCC(=O)c1nc(C)c(C(=O)NCCCNC(=O)c2ccc(-c3c4nc(c(-c5c(F)cc(S(=O)(=O)[O-])cc5F)c5ccc([nH]5)c(-c5c(F)cc(S(=O)(=O)[O-])cc5F)c5nc(c(-c6c(F)cc(S(=O)(=O)[O-])cc6F)c6ccc3[nH]6)C=C5)C=C4)cc2)s1
REMARK SMILES IDX 20 1 19 2 17 3 18 4 16 6 12 7 13 8 92 9 14 10 15 11 10 12
REMARK SMILES IDX 11 13 9 14 8 15 7 16 1 17 2 18 3 19 4 20 6 21 5 22 21 23
REMARK SMILES IDX 22 24 23 25 24 26 25 28 26 29 27 30 91 31 28 32 90 33 29 34
REMARK SMILES IDX 30 35 31 36 84 37 32 38 89 39 83 40 85 41 33 42 88 43 82 44
REMARK SMILES IDX 81 45 34 47 68 48 47 49 67 50 48 51 51 52 66 53 86 54 49 55
REMARK SMILES IDX 50 56 65 58 87 59 52 60 35 61 36 62 45 63 37 64 38 65 44 66
REMARK SMILES IDX 46 67 39 68 40 69 41 70 42 71 43 72 69 73 70 74 79 75 71 76
REMARK SMILES IDX 72 77 78 78 80 79 73 80 74 81 75 82 76 83 77 84 53 85 54 86
REMARK SMILES IDX 63 87 55 88 56 89 62 90 64 91 57 92 58 93 59 94 60 95 61 96
REMARK H PARENT 19 5 23 27 85 46 51 57
REMARK Flexibility Score: inf
ROOT
ATOM      1  C   UNL     1       2.121   2.646   7.873  1.00  0.00     0.118 C 
ENDROOT
BRANCH   1   2
ATOM      2  N   UNL     1       1.119   3.145   6.954  1.00  0.00    -0.351 N 
ATOM      3  C   UNL     1       0.967   3.172   5.592  1.00  0.00     0.263 C 
ATOM      4  O   UNL     1      -0.142   3.616   5.262  1.00  0.00    -0.268 OA
ATOM      5  H   UNL     1       0.363   3.568   7.422  1.00  0.00     0.163 HD
BRANCH   3   6
ATOM      6  C   UNL     1       1.950   2.752   4.586  1.00  0.00     0.115 A 
ATOM      7  C   UNL     1       2.839   2.344   2.304  1.00  0.00     0.164 A 
ATOM      8  N   UNL     1       3.729   2.044   3.216  1.00  0.00    -0.237 NA
ATOM      9  S   UNL     1       1.371   2.909   2.928  1.00  0.00    -0.105 S 
ATOM     10  C   UNL     1       3.260   2.279   4.507  1.00  0.00     0.062 A 
ATOM     11  C   UNL     1       4.305   2.006   5.520  1.00  0.00     0.068 C 
BRANCH   7  12
ATOM     12  C   UNL     1       3.163   2.212   0.889  1.00  0.00     0.228 C 
ATOM     13  O   UNL     1       4.277   1.837   0.493  1.00  0.00    -0.288 OA
BRANCH  12  14
ATOM     14  C   UNL     1       2.147   2.625  -0.178  1.00  0.00     0.313 C 
BRANCH  14  15
ATOM     15  O   UNL     1       0.784   2.314  -0.086  1.00  0.00    -0.485 OA
BRANCH  15  16
ATOM     16  C   UNL     1       0.272   1.054  -0.122  1.00  0.00     0.122 A 
ATOM     17  C   UNL     1       2.352  -0.448  -0.507  1.00  0.00     0.048 C 
ATOM     18  C   UNL     1       0.889  -0.194  -0.291  1.00  0.00    -0.009 A 
ATOM     19  C   UNL     1       0.082  -1.353  -0.207  1.00  0.00     0.007 A 
ATOM     20  C   UNL     1      -1.297  -1.285  -0.012  1.00  0.00     0.001 A 
ATOM     21  C   UNL     1      -1.124   1.103   0.061  1.00  0.00     0.047 A 
ATOM     22  C   UNL     1      -1.906  -0.048   0.111  1.00  0.00     0.004 A 
ENDBRANCH  15  16
ENDBRANCH  14  15
ENDBRANCH  12  14
ENDBRANCH   7  12
ENDBRANCH   3   6
ENDBRANCH   1   2
BRANCH   1  23
ATOM     23  C   UNL     1       3.317   3.580   8.001  1.00  0.00     0.042 C 
BRANCH  23  24
ATOM     24  C   UNL     1       3.324   4.426   9.265  1.00  0.00     0.118 C 
BRANCH  24  25
ATOM     25  N   UNL     1       4.580   4.277  10.000  1.00  0.00    -0.352 N 
ATOM     26  C   UNL     1       5.055   5.044  11.052  1.00  0.00     0.251 C 
ATOM     27  H   UNL     1       5.163   3.538   9.710  1.00  0.00     0.163 HD
ATOM     28  O   UNL     1       6.176   4.948  11.493  1.00  0.00    -0.269 OA
BRANCH  26  29
ATOM     29  C   UNL     1       4.050   5.913  11.693  1.00  0.00     0.039 A 
ATOM     30  C   UNL     1       3.459   5.418  12.861  1.00  0.00     0.014 A 
ATOM     31  C   UNL     1       3.463   6.923  10.938  1.00  0.00     0.014 A 
ATOM     32  C   UNL     1       2.164   5.808  13.178  1.00  0.00     0.010 A 
ATOM     33  C   UNL     1       2.148   7.241  11.209  1.00  0.00     0.010 A 
ATOM     34  C   UNL     1       1.485   6.645  12.296  1.00  0.00    -0.014 A 
BRANCH  34  35
ATOM     35  C   UNL     1       0.052   6.904  12.382  1.00  0.00     0.031 A 
ATOM     36  C   UNL     1      -0.418   8.236  12.824  1.00  0.00     0.074 A 
ATOM     37  C   UNL     1      -0.835   5.965  11.988  1.00  0.00     0.049 A 
ATOM     38  N   UNL     1      -1.610   8.498  13.242  1.00  0.00    -0.248 NA
ATOM     39  C   UNL     1       0.471   9.390  12.877  1.00  0.00     0.031 C 
ATOM     40  C   UNL     1      -2.245   6.168  11.671  1.00  0.00     0.029 A 
ATOM     41  N   UNL     1      -0.677   4.581  11.968  1.00  0.00    -0.354 N 
ATOM     42  C   UNL     1      -1.726   9.866  13.367  1.00  0.00     0.074 A 
ATOM     43  C   UNL     1      -0.387  10.369  13.173  1.00  0.00     0.031 C 
ATOM     44  C   UNL     1      -2.876   4.984  11.700  1.00  0.00     0.029 A 
ATOM     45  C   UNL     1      -1.933   3.997  12.198  1.00  0.00     0.049 A 
ATOM     46  H   UNL     1       0.167   4.097  11.819  1.00  0.00     0.167 HD
ATOM     47  C   UNL     1      -2.965  10.425  13.496  1.00  0.00     0.037 A 
ATOM     48  C   UNL     1      -2.158   3.211  13.294  1.00  0.00     0.037 A 
ATOM     49  C   UNL     1      -3.991   9.391  13.630  1.00  0.00     0.049 A 
ATOM     50  C   UNL     1      -3.171   3.778  14.264  1.00  0.00     0.074 A 
ATOM     51  C   UNL     1      -4.830   8.783  12.710  1.00  0.00     0.029 A 
ATOM     52  N   UNL     1      -4.037   8.609  14.780  1.00  0.00    -0.354 N 
ATOM     53  N   UNL     1      -3.588   5.014  14.247  1.00  0.00    -0.248 NA
ATOM     54  C   UNL     1      -3.773   3.003  15.346  1.00  0.00     0.031 C 
ATOM     55  C   UNL     1      -5.314   7.582  13.284  1.00  0.00     0.029 A 
ATOM     56  C   UNL     1      -4.792   7.470  14.561  1.00  0.00     0.049 A 
ATOM     57  H   UNL     1      -3.595   8.834  15.630  1.00  0.00     0.167 HD
ATOM     58  C   UNL     1      -4.427   5.228  15.308  1.00  0.00     0.074 A 
ATOM     59  C   UNL     1      -4.543   3.929  15.944  1.00  0.00     0.031 C 
ATOM     60  C   UNL     1      -4.941   6.460  15.598  1.00  0.00     0.037 A 
BRANCH  47  61
ATOM     61  C   UNL     1      -3.264  11.882  13.184  1.00  0.00     0.058 A 
ATOM     62  C   UNL     1      -4.514  12.261  12.645  1.00  0.00     0.135 A 
ATOM     63  C   UNL     1      -2.344  12.941  13.311  1.00  0.00     0.135 A 
ATOM     64  F   UNL     1      -5.535  11.396  12.566  1.00  0.00    -0.206 F 
ATOM     65  C   UNL     1      -4.777  13.541  12.151  1.00  0.00     0.059 A 
ATOM     66  C   UNL     1      -2.558  14.214  12.769  1.00  0.00     0.059 A 
ATOM     67  F   UNL     1      -1.216  12.803  14.020  1.00  0.00    -0.206 F 
ATOM     68  C   UNL     1      -3.777  14.502  12.176  1.00  0.00     0.060 A 
BRANCH  68  69
ATOM     69  S   UNL     1      -4.098  16.118  11.444  1.00  0.00     0.124 S 
ATOM     70  O   UNL     1      -4.538  15.765  10.098  1.00  0.00    -0.237 OA
ATOM     71  O   UNL     1      -5.126  16.653  12.329  1.00  0.00    -0.237 OA
ATOM     72  O   UNL     1      -2.801  16.786  11.514  1.00  0.00    -0.744 OA
ENDBRANCH  68  69
ENDBRANCH  47  61
BRANCH  48  73
ATOM     73  C   UNL     1      -0.984   2.381  13.674  1.00  0.00     0.058 A 
ATOM     74  C   UNL     1      -0.628   1.330  12.809  1.00  0.00     0.135 A 
ATOM     75  C   UNL     1      -0.002   2.867  14.549  1.00  0.00     0.135 A 
ATOM     76  F   UNL     1      -1.539   0.813  11.968  1.00  0.00    -0.206 F 
ATOM     77  C   UNL     1       0.689   0.906  12.683  1.00  0.00     0.059 A 
ATOM     78  C   UNL     1       1.327   2.452  14.442  1.00  0.00     0.059 A 
ATOM     79  F   UNL     1      -0.289   3.860  15.403  1.00  0.00    -0.206 F 
ATOM     80  C   UNL     1       1.669   1.530  13.451  1.00  0.00     0.060 A 
BRANCH  80  81
ATOM     81  S   UNL     1       3.394   1.271  12.971  1.00  0.00     0.124 S 
ATOM     82  O   UNL     1       3.551  -0.165  13.165  1.00  0.00    -0.237 OA
ATOM     83  O   UNL     1       3.383   1.723  11.579  1.00  0.00    -0.237 OA
ATOM     84  O   UNL     1       4.131   2.121  13.899  1.00  0.00    -0.744 OA
ENDBRANCH  80  81
ENDBRANCH  48  73
BRANCH  60  85
ATOM     85  C   UNL     1      -5.705   6.791  16.851  1.00  0.00     0.058 A 
ATOM     86  C   UNL     1      -5.416   6.231  18.107  1.00  0.00     0.135 A 
ATOM     87  C   UNL     1      -6.696   7.799  16.838  1.00  0.00     0.135 A 
ATOM     88  F   UNL     1      -4.418   5.347  18.259  1.00  0.00    -0.206 F 
ATOM     89  C   UNL     1      -6.117   6.583  19.260  1.00  0.00     0.059 A 
ATOM     90  C   UNL     1      -7.373   8.203  17.986  1.00  0.00     0.059 A 
ATOM     91  F   UNL     1      -7.032   8.428  15.702  1.00  0.00    -0.206 F 
ATOM     92  C   UNL     1      -7.100   7.565  19.189  1.00  0.00     0.060 A 
BRANCH  92  93
ATOM     93  S   UNL     1      -7.994   8.048  20.678  1.00  0.00     0.124 S 
ATOM     94  O   UNL     1      -9.146   7.154  20.626  1.00  0.00    -0.237 OA
ATOM     95  O   UNL     1      -7.032   7.773  21.741  1.00  0.00    -0.237 OA
ATOM     96  O   UNL     1      -8.278   9.461  20.450  1.00  0.00    -0.744 OA
ENDBRANCH  92  93
ENDBRANCH  60  85
ENDBRANCH  34  35
ENDBRANCH  26  29
ENDBRANCH  24  25
ENDBRANCH  23  24
ENDBRANCH   1  23
TORSDOF 17
