REMARK SMILES CCC(=O)N1c2ccc(S(=O)(=O)N3CCC(C)CC3)cc2C[C@H]1C(=O)NCCCNC(=O)c1ccc(-c2c3nc(c(-c4c(F)cc(S(=O)(=O)[O-])cc4F)c4ccc([nH]4)c(-c4c(F)cc(S(=O)(=O)[O-])cc4F)c4nc(c(-c5c(F)cc(S(=O)(=O)[O-])cc5F)c5ccc2[nH]5)C=C4)C=C3)cc1
REMARK SMILES IDX 28 1 27 2 26 3 24 4 25 5 23 7 5 8 6 9 7 10 21 11 22 12 8 13
REMARK SMILES IDX 20 14 9 15 3 16 4 17 2 18 1 19 10 20 11 21 12 22 13 23 14 24
REMARK SMILES IDX 19 25 15 26 18 27 16 28 17 29 29 30 30 31 31 32 32 34 33 35
REMARK SMILES IDX 34 36 98 37 35 38 97 39 36 40 37 41 38 42 91 43 39 44 96 45
REMARK SMILES IDX 90 46 92 47 40 48 95 49 89 50 88 51 41 53 75 54 54 55 74 56
REMARK SMILES IDX 55 57 58 58 73 59 93 60 56 61 57 62 72 64 94 65 59 66 42 67
REMARK SMILES IDX 43 68 52 69 44 70 45 71 51 72 53 73 46 74 47 75 48 76 49 77
REMARK SMILES IDX 50 78 76 79 77 80 86 81 78 82 79 83 85 84 87 85 80 86 81 87
REMARK SMILES IDX 82 88 83 89 84 90 60 91 61 92 70 93 62 94 63 95 69 96 71 97
REMARK SMILES IDX 64 98 65 99 66 100 67 101 68 102
REMARK H PARENT 26 6 30 33 92 52 58 63
REMARK Flexibility Score: inf
ROOT
ATOM      1  C   UNL     1       1.699  -5.031  -0.803  1.00  0.00     0.042 C 
ENDROOT
BRANCH   1   2
ATOM      2  C   UNL     1       2.928  -5.061  -1.706  1.00  0.00     0.117 C 
BRANCH   2   3
ATOM      3  N   UNL     1       2.628  -4.978  -3.122  1.00  0.00    -0.354 N 
ATOM      4  C   UNL     1       2.741  -3.952  -4.010  1.00  0.00     0.243 C 
ATOM      5  O   UNL     1       2.716  -4.263  -5.209  1.00  0.00    -0.273 OA
ATOM      6  H   UNL     1       2.281  -5.812  -3.511  1.00  0.00     0.163 HD
BRANCH   4   7
ATOM      7  C   UNL     1       3.084  -2.502  -3.616  1.00  0.00     0.184 C 
ATOM      8  N   UNL     1       2.377  -1.967  -2.441  1.00  0.00    -0.299 N 
ATOM      9  C   UNL     1       3.308  -1.690  -1.444  1.00  0.00     0.048 A 
ATOM     10  C   UNL     1       3.077  -1.530  -0.099  1.00  0.00     0.028 A 
ATOM     11  C   UNL     1       4.611  -1.802  -1.935  1.00  0.00    -0.020 A 
ATOM     12  C   UNL     1       4.596  -2.305  -3.351  1.00  0.00     0.073 C 
ATOM     13  C   UNL     1       4.173  -1.355   0.739  1.00  0.00     0.024 A 
ATOM     14  C   UNL     1       5.712  -1.547  -1.121  1.00  0.00     0.027 A 
ATOM     15  C   UNL     1       5.474  -1.292   0.235  1.00  0.00     0.083 A 
BRANCH   8  16
ATOM     16  C   UNL     1       1.038  -1.662  -2.528  1.00  0.00     0.227 C 
ATOM     17  O   UNL     1       0.267  -2.408  -3.139  1.00  0.00    -0.275 OA
BRANCH  16  18
ATOM     18  C   UNL     1       0.573  -0.253  -2.158  1.00  0.00     0.097 C 
ATOM     19  C   UNL     1       0.473   0.145  -0.705  1.00  0.00     0.014 C 
ENDBRANCH  16  18
ENDBRANCH   8  16
BRANCH  15  20
ATOM     20  S   UNL     1       6.834  -0.909   1.327  1.00  0.00     0.243 S 
ATOM     21  O   UNL     1       7.227  -2.164   1.935  1.00  0.00    -0.207 OA
ATOM     22  O   UNL     1       7.768  -0.128   0.546  1.00  0.00    -0.207 OA
BRANCH  20  23
ATOM     23  N   UNL     1       6.199   0.101   2.519  1.00  0.00    -0.198 NA
ATOM     24  C   UNL     1       5.668  -0.399   3.795  1.00  0.00     0.103 C 
ATOM     25  C   UNL     1       5.985   1.530   2.283  1.00  0.00     0.103 C 
ATOM     26  C   UNL     1       4.198  -0.028   4.012  1.00  0.00     0.020 C 
ATOM     27  C   UNL     1       4.496   1.800   2.187  1.00  0.00     0.020 C 
ATOM     28  C   UNL     1       3.722   1.314   3.422  1.00  0.00    -0.012 C 
ATOM     29  C   UNL     1       2.228   1.239   3.080  1.00  0.00     0.008 C 
ENDBRANCH  20  23
ENDBRANCH  15  20
ENDBRANCH   4   7
ENDBRANCH   2   3
ENDBRANCH   1   2
BRANCH   1  30
ATOM     30  C   UNL     1       0.755  -6.221  -0.970  1.00  0.00     0.118 C 
BRANCH  30  31
ATOM     31  N   UNL     1       1.405  -7.499  -0.711  1.00  0.00    -0.352 N 
ATOM     32  C   UNL     1       1.132  -8.485   0.204  1.00  0.00     0.251 C 
ATOM     33  H   UNL     1       2.176  -7.688  -1.294  1.00  0.00     0.163 HD
ATOM     34  O   UNL     1       1.944  -9.396   0.350  1.00  0.00    -0.269 OA
BRANCH  32  35
ATOM     35  C   UNL     1      -0.104  -8.466   1.019  1.00  0.00     0.039 A 
ATOM     36  C   UNL     1      -0.032  -8.888   2.352  1.00  0.00     0.014 A 
ATOM     37  C   UNL     1      -1.339  -8.106   0.474  1.00  0.00     0.014 A 
ATOM     38  C   UNL     1      -1.180  -8.891   3.150  1.00  0.00     0.010 A 
ATOM     39  C   UNL     1      -2.471  -8.049   1.288  1.00  0.00     0.010 A 
ATOM     40  C   UNL     1      -2.405  -8.441   2.633  1.00  0.00    -0.014 A 
BRANCH  40  41
ATOM     41  C   UNL     1      -3.620  -8.363   3.485  1.00  0.00     0.031 A 
ATOM     42  C   UNL     1      -4.820  -9.219   3.179  1.00  0.00     0.074 A 
ATOM     43  C   UNL     1      -3.673  -7.459   4.484  1.00  0.00     0.049 A 
ATOM     44  N   UNL     1      -6.001  -9.215   3.743  1.00  0.00    -0.248 NA
ATOM     45  C   UNL     1      -4.686 -10.187   2.078  1.00  0.00     0.031 C 
ATOM     46  C   UNL     1      -2.599  -6.529   4.843  1.00  0.00     0.029 A 
ATOM     47  N   UNL     1      -4.680  -7.154   5.366  1.00  0.00    -0.354 N 
ATOM     48  C   UNL     1      -6.759 -10.151   3.047  1.00  0.00     0.074 A 
ATOM     49  C   UNL     1      -5.912 -10.688   2.004  1.00  0.00     0.031 C 
ATOM     50  C   UNL     1      -3.005  -5.759   5.865  1.00  0.00     0.029 A 
ATOM     51  C   UNL     1      -4.376  -6.116   6.216  1.00  0.00     0.049 A 
ATOM     52  H   UNL     1      -5.540  -7.633   5.389  1.00  0.00     0.167 HD
ATOM     53  C   UNL     1      -8.038 -10.536   3.268  1.00  0.00     0.037 A 
ATOM     54  C   UNL     1      -5.120  -5.508   7.160  1.00  0.00     0.037 A 
ATOM     55  C   UNL     1      -8.859 -10.041   4.342  1.00  0.00     0.049 A 
ATOM     56  C   UNL     1      -6.521  -5.994   7.419  1.00  0.00     0.074 A 
ATOM     57  C   UNL     1     -10.131 -10.446   4.708  1.00  0.00     0.029 A 
ATOM     58  N   UNL     1      -8.490  -9.036   5.223  1.00  0.00    -0.354 N 
ATOM     59  N   UNL     1      -7.189  -6.940   6.804  1.00  0.00    -0.248 NA
ATOM     60  C   UNL     1      -7.265  -5.337   8.503  1.00  0.00     0.031 C 
ATOM     61  C   UNL     1     -10.546  -9.663   5.790  1.00  0.00     0.029 A 
ATOM     62  C   UNL     1      -9.517  -8.796   6.121  1.00  0.00     0.049 A 
ATOM     63  H   UNL     1      -7.627  -8.564   5.213  1.00  0.00     0.167 HD
ATOM     64  C   UNL     1      -8.423  -7.007   7.442  1.00  0.00     0.074 A 
ATOM     65  C   UNL     1      -8.404  -6.016   8.498  1.00  0.00     0.031 C 
ATOM     66  C   UNL     1      -9.477  -7.815   7.176  1.00  0.00     0.037 A 
BRANCH  53  67
ATOM     67  C   UNL     1      -8.641 -11.553   2.340  1.00  0.00     0.058 A 
ATOM     68  C   UNL     1      -8.287 -12.909   2.404  1.00  0.00     0.135 A 
ATOM     69  C   UNL     1      -9.646 -11.179   1.433  1.00  0.00     0.135 A 
ATOM     70  F   UNL     1      -7.322 -13.317   3.244  1.00  0.00    -0.206 F 
ATOM     71  C   UNL     1      -8.900 -13.859   1.594  1.00  0.00     0.059 A 
ATOM     72  C   UNL     1     -10.288 -12.116   0.628  1.00  0.00     0.059 A 
ATOM     73  F   UNL     1     -10.021  -9.894   1.332  1.00  0.00    -0.206 F 
ATOM     74  C   UNL     1      -9.903 -13.453   0.711  1.00  0.00     0.060 A 
BRANCH  74  75
ATOM     75  S   UNL     1     -10.719 -14.704  -0.303  1.00  0.00     0.124 S 
ATOM     76  O   UNL     1      -9.694 -14.980  -1.305  1.00  0.00    -0.237 OA
ATOM     77  O   UNL     1     -10.969 -15.773   0.658  1.00  0.00    -0.237 OA
ATOM     78  O   UNL     1     -11.910 -14.018  -0.796  1.00  0.00    -0.744 OA
ENDBRANCH  74  75
ENDBRANCH  53  67
BRANCH  54  79
ATOM     79  C   UNL     1      -4.559  -4.370   7.934  1.00  0.00     0.058 A 
ATOM     80  C   UNL     1      -4.220  -4.512   9.288  1.00  0.00     0.135 A 
ATOM     81  C   UNL     1      -4.360  -3.116   7.337  1.00  0.00     0.135 A 
ATOM     82  F   UNL     1      -4.397  -5.691   9.903  1.00  0.00    -0.206 F 
ATOM     83  C   UNL     1      -3.728  -3.444  10.031  1.00  0.00     0.059 A 
ATOM     84  C   UNL     1      -3.848  -2.040   8.054  1.00  0.00     0.059 A 
ATOM     85  F   UNL     1      -4.650  -2.935   6.039  1.00  0.00    -0.206 F 
ATOM     86  C   UNL     1      -3.548  -2.210   9.405  1.00  0.00     0.060 A 
BRANCH  86  87
ATOM     87  S   UNL     1      -2.877  -0.833  10.363  1.00  0.00     0.124 S 
ATOM     88  O   UNL     1      -4.050  -0.397  11.109  1.00  0.00    -0.237 OA
ATOM     89  O   UNL     1      -1.826  -1.480  11.142  1.00  0.00    -0.237 OA
ATOM     90  O   UNL     1      -2.402   0.087   9.333  1.00  0.00    -0.744 OA
ENDBRANCH  86  87
ENDBRANCH  54  79
BRANCH  66  91
ATOM     91  C   UNL     1     -10.686  -7.689   8.058  1.00  0.00     0.058 A 
ATOM     92  C   UNL     1     -11.572  -6.608   7.940  1.00  0.00     0.135 A 
ATOM     93  C   UNL     1     -10.987  -8.688   8.998  1.00  0.00     0.135 A 
ATOM     94  F   UNL     1     -11.323  -5.624   7.061  1.00  0.00    -0.206 F 
ATOM     95  C   UNL     1     -12.707  -6.510   8.738  1.00  0.00     0.059 A 
ATOM     96  C   UNL     1     -12.128  -8.622   9.790  1.00  0.00     0.059 A 
ATOM     97  F   UNL     1     -10.175  -9.747   9.142  1.00  0.00    -0.206 F 
ATOM     98  C   UNL     1     -12.977  -7.523   9.660  1.00  0.00     0.060 A 
BRANCH  98  99
ATOM     99  S   UNL     1     -14.470  -7.405  10.668  1.00  0.00     0.124 S 
ATOM    100  O   UNL     1     -14.072  -6.421  11.668  1.00  0.00    -0.237 OA
ATOM    101  O   UNL     1     -15.469  -6.959   9.701  1.00  0.00    -0.237 OA
ATOM    102  O   UNL     1     -14.652  -8.767  11.163  1.00  0.00    -0.744 OA
ENDBRANCH  98  99
ENDBRANCH  66  91
ENDBRANCH  40  41
ENDBRANCH  32  35
ENDBRANCH  30  31
ENDBRANCH   1  30
TORSDOF 17
