REMARK SMILES O=C(NCCCNC(=O)[C@H](c1ccccc1)C(c1ccccc1)c1ccccc1)c1ccc(-c2c3nc(c(-c4c(F)cc(S(=O)(=O)[O-])cc4F)c4ccc([nH]4)c(-c4c(F)cc(S(=O)(=O)[O-])cc4F)c4nc(c(-c5c(F)cc(S(=O)(=O)[O-])cc5F)c5ccc2[nH]5)C=C4)C=C3)cc1
REMARK SMILES IDX 4 1 3 2 1 3 2 4 30 6 31 7 95 8 32 9 94 10 33 11 34 12 35 13
REMARK SMILES IDX 88 14 36 15 93 16 87 17 89 18 37 19 92 20 86 21 85 22 38 24
REMARK SMILES IDX 72 25 51 26 71 27 52 28 55 29 70 30 90 31 53 32 54 33 69 35
REMARK SMILES IDX 91 36 56 37 39 38 40 39 49 40 41 41 42 42 48 43 50 44 43 45
REMARK SMILES IDX 44 46 45 47 46 48 47 49 73 50 74 51 83 52 75 53 76 54 82 55
REMARK SMILES IDX 84 56 77 57 78 58 79 59 80 60 81 61 57 62 58 63 67 64 59 65
REMARK SMILES IDX 60 66 66 67 68 68 61 69 62 70 63 71 64 72 65 73 5 74 6 75
REMARK SMILES IDX 7 76 8 77 9 79 10 80 17 81 18 82 19 83 23 84 20 85 22 86
REMARK SMILES IDX 21 87 24 88 25 89 29 90 26 91 28 92 27 93 11 94 12 95 16 96
REMARK SMILES IDX 13 97 15 98 14 99
REMARK H PARENT 3 5 89 23 55 34 7 78
REMARK Flexibility Score: inf
ROOT
ATOM      1  C   UNL     1       5.729  -0.848   4.282  1.00  0.00     0.118 C 
ENDROOT
BRANCH   1   2
ATOM      2  N   UNL     1       5.955   0.326   3.454  1.00  0.00    -0.352 N 
ATOM      3  O   UNL     1       5.683   2.445   2.745  1.00  0.00    -0.269 OA
ATOM      4  C   UNL     1       5.561   1.629   3.655  1.00  0.00     0.251 C 
ATOM      5  H   UNL     1       6.466   0.165   2.628  1.00  0.00     0.163 HD
BRANCH   4   6
ATOM      6  C   UNL     1       4.969   2.042   4.949  1.00  0.00     0.039 A 
ATOM      7  C   UNL     1       5.507   1.600   6.160  1.00  0.00     0.014 A 
ATOM      8  C   UNL     1       3.871   2.908   4.953  1.00  0.00     0.014 A 
ATOM      9  C   UNL     1       4.859   1.892   7.356  1.00  0.00     0.010 A 
ATOM     10  C   UNL     1       3.278   3.280   6.165  1.00  0.00     0.010 A 
ATOM     11  C   UNL     1       3.749   2.751   7.376  1.00  0.00    -0.014 A 
BRANCH  11  12
ATOM     12  C   UNL     1       3.150   3.134   8.682  1.00  0.00     0.031 A 
ATOM     13  C   UNL     1       1.735   2.761   9.035  1.00  0.00     0.074 A 
ATOM     14  C   UNL     1       3.912   3.805   9.569  1.00  0.00     0.049 A 
ATOM     15  N   UNL     1       1.071   3.008  10.135  1.00  0.00    -0.248 NA
ATOM     16  C   UNL     1       0.962   2.025   8.023  1.00  0.00     0.031 C 
ATOM     17  C   UNL     1       5.293   4.237   9.332  1.00  0.00     0.029 A 
ATOM     18  N   UNL     1       3.649   4.227  10.846  1.00  0.00    -0.354 N 
ATOM     19  C   UNL     1      -0.200   2.478   9.944  1.00  0.00     0.074 A 
ATOM     20  C   UNL     1      -0.222   1.914   8.611  1.00  0.00     0.031 C 
ATOM     21  C   UNL     1       5.769   4.819  10.442  1.00  0.00     0.029 A 
ATOM     22  C   UNL     1       4.713   4.859  11.446  1.00  0.00     0.049 A 
ATOM     23  H   UNL     1       2.781   4.091  11.291  1.00  0.00     0.167 HD
ATOM     24  C   UNL     1      -1.248   2.459  10.805  1.00  0.00     0.037 A 
ATOM     25  C   UNL     1       4.825   5.425  12.662  1.00  0.00     0.037 A 
ATOM     26  C   UNL     1      -1.212   3.007  12.138  1.00  0.00     0.049 A 
ATOM     27  C   UNL     1       3.648   5.397  13.591  1.00  0.00     0.074 A 
ATOM     28  C   UNL     1      -2.211   3.004  13.097  1.00  0.00     0.029 A 
ATOM     29  N   UNL     1      -0.123   3.658  12.700  1.00  0.00    -0.354 N 
ATOM     30  N   UNL     1       2.463   4.867  13.400  1.00  0.00    -0.248 NA
ATOM     31  C   UNL     1       3.817   6.048  14.896  1.00  0.00     0.031 C 
ATOM     32  C   UNL     1      -1.739   3.686  14.224  1.00  0.00     0.029 A 
ATOM     33  C   UNL     1      -0.432   4.078  13.985  1.00  0.00     0.049 A 
ATOM     34  H   UNL     1       0.742   3.801  12.252  1.00  0.00     0.167 HD
ATOM     35  C   UNL     1       1.748   5.113  14.565  1.00  0.00     0.074 A 
ATOM     36  C   UNL     1       2.640   5.820  15.462  1.00  0.00     0.031 C 
ATOM     37  C   UNL     1       0.467   4.785  14.863  1.00  0.00     0.037 A 
BRANCH  24  38
ATOM     38  C   UNL     1      -2.533   1.837  10.330  1.00  0.00     0.058 A 
ATOM     39  C   UNL     1      -2.674   0.447  10.192  1.00  0.00     0.135 A 
ATOM     40  C   UNL     1      -3.653   2.638  10.054  1.00  0.00     0.135 A 
ATOM     41  F   UNL     1      -1.632  -0.365  10.430  1.00  0.00    -0.206 F 
ATOM     42  C   UNL     1      -3.873  -0.125   9.773  1.00  0.00     0.059 A 
ATOM     43  C   UNL     1      -4.868   2.087   9.656  1.00  0.00     0.059 A 
ATOM     44  F   UNL     1      -3.574   3.973  10.172  1.00  0.00    -0.206 F 
ATOM     45  C   UNL     1      -4.964   0.704   9.505  1.00  0.00     0.060 A 
BRANCH  45  46
ATOM     46  S   UNL     1      -6.511  -0.052   8.961  1.00  0.00     0.124 S 
ATOM     47  O   UNL     1      -6.189  -0.412   7.583  1.00  0.00    -0.237 OA
ATOM     48  O   UNL     1      -6.658  -1.169   9.889  1.00  0.00    -0.237 OA
ATOM     49  O   UNL     1      -7.487   1.021   9.117  1.00  0.00    -0.744 OA
ENDBRANCH  45  46
ENDBRANCH  24  38
BRANCH  25  50
ATOM     50  C   UNL     1       6.105   6.069  13.056  1.00  0.00     0.058 A 
ATOM     51  C   UNL     1       6.940   5.489  14.021  1.00  0.00     0.135 A 
ATOM     52  C   UNL     1       6.535   7.257  12.444  1.00  0.00     0.135 A 
ATOM     53  F   UNL     1       6.569   4.355  14.635  1.00  0.00    -0.206 F 
ATOM     54  C   UNL     1       8.155   6.067  14.373  1.00  0.00     0.059 A 
ATOM     55  C   UNL     1       7.757   7.840  12.760  1.00  0.00     0.059 A 
ATOM     56  F   UNL     1       5.779   7.840  11.501  1.00  0.00    -0.206 F 
ATOM     57  C   UNL     1       8.556   7.242  13.733  1.00  0.00     0.060 A 
BRANCH  57  58
ATOM     58  S   UNL     1      10.163   7.953  14.149  1.00  0.00     0.124 S 
ATOM     59  O   UNL     1       9.880   8.579  15.436  1.00  0.00    -0.237 OA
ATOM     60  O   UNL     1      11.022   6.774  14.187  1.00  0.00    -0.237 OA
ATOM     61  O   UNL     1      10.419   8.869  13.042  1.00  0.00    -0.744 OA
ENDBRANCH  57  58
ENDBRANCH  25  50
BRANCH  37  62
ATOM     62  C   UNL     1      -0.039   5.174  16.223  1.00  0.00     0.058 A 
ATOM     63  C   UNL     1      -0.358   6.505  16.533  1.00  0.00     0.135 A 
ATOM     64  C   UNL     1      -0.237   4.201  17.215  1.00  0.00     0.135 A 
ATOM     65  F   UNL     1      -0.177   7.474  15.622  1.00  0.00    -0.206 F 
ATOM     66  C   UNL     1      -0.835   6.862  17.790  1.00  0.00     0.059 A 
ATOM     67  C   UNL     1      -0.735   4.532  18.471  1.00  0.00     0.059 A 
ATOM     68  F   UNL     1       0.046   2.913  16.964  1.00  0.00    -0.206 F 
ATOM     69  C   UNL     1      -1.019   5.868  18.753  1.00  0.00     0.060 A 
BRANCH  69  70
ATOM     70  S   UNL     1      -1.664   6.338  20.372  1.00  0.00     0.124 S 
ATOM     71  O   UNL     1      -0.487   6.934  20.995  1.00  0.00    -0.237 OA
ATOM     72  O   UNL     1      -2.738   7.265  20.027  1.00  0.00    -0.237 OA
ATOM     73  O   UNL     1      -2.102   5.067  20.944  1.00  0.00    -0.744 OA
ENDBRANCH  69  70
ENDBRANCH  37  62
ENDBRANCH  11  12
ENDBRANCH   4   6
ENDBRANCH   1   2
BRANCH   1  74
ATOM     74  C   UNL     1       4.824  -1.870   3.611  1.00  0.00     0.042 C 
BRANCH  74  75
ATOM     75  C   UNL     1       5.474  -2.655   2.479  1.00  0.00     0.117 C 
BRANCH  75  76
ATOM     76  N   UNL     1       6.671  -3.369   2.880  1.00  0.00    -0.355 N 
ATOM     77  C   UNL     1       7.060  -4.661   2.701  1.00  0.00     0.228 C 
ATOM     78  H   UNL     1       7.322  -2.819   3.373  1.00  0.00     0.163 HD
ATOM     79  O   UNL     1       8.222  -4.929   3.034  1.00  0.00    -0.274 OA
BRANCH  77  80
ATOM     80  C   UNL     1       6.163  -5.753   2.101  1.00  0.00     0.120 C 
BRANCH  80  81
ATOM     81  C   UNL     1       4.939  -6.183   2.990  1.00  0.00     0.066 C 
BRANCH  81  82
ATOM     82  C   UNL     1       4.167  -7.336   2.310  1.00  0.00    -0.039 A 
ATOM     83  C   UNL     1       2.789  -7.216   2.072  1.00  0.00     0.004 A 
ATOM     84  C   UNL     1       4.815  -8.514   1.889  1.00  0.00     0.004 A 
ATOM     85  C   UNL     1       2.088  -8.232   1.419  1.00  0.00     0.000 A 
ATOM     86  C   UNL     1       4.107  -9.539   1.262  1.00  0.00     0.000 A 
ATOM     87  C   UNL     1       2.745  -9.395   1.020  1.00  0.00     0.000 A 
ENDBRANCH  81  82
BRANCH  81  88
ATOM     88  C   UNL     1       5.259  -6.471   4.476  1.00  0.00    -0.039 A 
ATOM     89  C   UNL     1       5.285  -7.760   5.036  1.00  0.00     0.004 A 
ATOM     90  C   UNL     1       5.482  -5.399   5.359  1.00  0.00     0.004 A 
ATOM     91  C   UNL     1       5.519  -7.963   6.402  1.00  0.00     0.000 A 
ATOM     92  C   UNL     1       5.724  -5.596   6.722  1.00  0.00     0.000 A 
ATOM     93  C   UNL     1       5.739  -6.881   7.246  1.00  0.00     0.000 A 
ENDBRANCH  81  88
ENDBRANCH  80  81
BRANCH  80  94
ATOM     94  C   UNL     1       5.889  -5.460   0.612  1.00  0.00    -0.035 A 
ATOM     95  C   UNL     1       4.669  -4.957   0.129  1.00  0.00     0.004 A 
ATOM     96  C   UNL     1       6.915  -5.691  -0.321  1.00  0.00     0.004 A 
ATOM     97  C   UNL     1       4.487  -4.671  -1.226  1.00  0.00     0.000 A 
ATOM     98  C   UNL     1       6.726  -5.425  -1.681  1.00  0.00     0.000 A 
ATOM     99  C   UNL     1       5.515  -4.907  -2.131  1.00  0.00     0.000 A 
ENDBRANCH  80  94
ENDBRANCH  77  80
ENDBRANCH  75  76
ENDBRANCH  74  75
ENDBRANCH   1  74
TORSDOF 17
