REMARK SMILES Cc1ccc(O)c(C(=O)NCc2ccc(C(=O)NCCCNC(=O)c3ccc(-c4c5nc(c(-c6c(F)cc(S(=O)(=O)[O-])cc6F)c6ccc([nH]6)c(-c6c(F)cc(S(=O)(=O)[O-])cc6F)c6nc(c(-c7c(F)cc(S(=O)(=O)[O-])cc7F)c7ccc4[nH]7)C=C6)C=C5)cc3)o2)c1
REMARK SMILES IDX 19 1 18 2 16 3 17 4 15 6 12 7 13 8 91 9 14 10 11 11 10 12
REMARK SMILES IDX 8 13 9 14 7 16 1 17 2 18 3 19 92 20 4 21 5 22 6 23 20 25
REMARK SMILES IDX 21 26 22 27 23 28 24 30 25 31 26 32 90 33 27 34 89 35 28 36
REMARK SMILES IDX 29 37 30 38 83 39 31 40 88 41 82 42 84 43 32 44 87 45 81 46
REMARK SMILES IDX 80 47 33 49 67 50 46 51 66 52 47 53 50 54 65 55 85 56 48 57
REMARK SMILES IDX 49 58 64 60 86 61 51 62 34 63 35 64 44 65 36 66 37 67 43 68
REMARK SMILES IDX 45 69 38 70 39 71 40 72 41 73 42 74 68 75 69 76 78 77 70 78
REMARK SMILES IDX 71 79 77 80 79 81 72 82 73 83 74 84 75 85 76 86 52 87 53 88
REMARK SMILES IDX 62 89 54 90 55 91 61 92 63 93 56 94 57 95 58 96 59 97 60 98
REMARK H PARENT 18 5 10 15 6 24 22 29 84 48 50 59
REMARK Flexibility Score: inf
ROOT
ATOM      1  C   UNL     1       3.117  -6.852   5.161  1.00  0.00     0.118 C 
ENDROOT
BRANCH   1   2
ATOM      2  N   UNL     1       2.367  -7.671   4.230  1.00  0.00    -0.349 N 
ATOM      3  C   UNL     1       1.748  -7.365   3.044  1.00  0.00     0.286 C 
ATOM      4  O   UNL     1       1.259  -8.329   2.439  1.00  0.00    -0.266 OA
ATOM      5  H   UNL     1       2.288  -8.615   4.495  1.00  0.00     0.163 HD
BRANCH   3   6
ATOM      6  C   UNL     1       1.690  -6.011   2.531  1.00  0.00     0.191 A 
ATOM      7  C   UNL     1       1.256  -4.549   0.916  1.00  0.00     0.124 A 
ATOM      8  C   UNL     1       1.680  -3.816   2.002  1.00  0.00     0.048 A 
ATOM      9  O   UNL     1       1.280  -5.874   1.226  1.00  0.00    -0.454 OA
ATOM     10  C   UNL     1       1.919  -4.745   3.043  1.00  0.00     0.056 A 
BRANCH   7  11
ATOM     11  C   UNL     1       0.737  -4.212  -0.432  1.00  0.00     0.191 C 
BRANCH  11  12
ATOM     12  N   UNL     1      -0.614  -3.716  -0.281  1.00  0.00    -0.345 N 
ATOM     13  C   UNL     1      -1.192  -2.486  -0.144  1.00  0.00     0.255 C 
ATOM     14  O   UNL     1      -2.424  -2.481  -0.033  1.00  0.00    -0.269 OA
ATOM     15  H   UNL     1      -1.279  -4.442  -0.275  1.00  0.00     0.164 HD
BRANCH  13  16
ATOM     16  C   UNL     1      -0.488  -1.165  -0.124  1.00  0.00     0.081 A 
ATOM     17  C   UNL     1       2.995   0.409   0.076  1.00  0.00     0.044 C 
ATOM     18  C   UNL     1       1.502   0.270  -0.015  1.00  0.00    -0.050 A 
ATOM     19  C   UNL     1       0.697   1.408  -0.037  1.00  0.00     0.007 A 
ATOM     20  C   UNL     1       0.902  -1.002  -0.062  1.00  0.00     0.021 A 
ATOM     21  C   UNL     1      -0.687   1.277  -0.095  1.00  0.00     0.047 A 
ATOM     22  C   UNL     1      -1.269   0.009  -0.132  1.00  0.00     0.128 A 
BRANCH  22  23
ATOM     23  O   UNL     1      -2.642   0.010  -0.167  1.00  0.00    -0.507 OA
ATOM     24  H   UNL     1      -3.110   0.822  -0.170  1.00  0.00     0.293 HD
ENDBRANCH  22  23
ENDBRANCH  13  16
ENDBRANCH  11  12
ENDBRANCH   7  11
ENDBRANCH   3   6
ENDBRANCH   1   2
BRANCH   1  25
ATOM     25  C   UNL     1       2.284  -6.481   6.384  1.00  0.00     0.042 C 
BRANCH  25  26
ATOM     26  C   UNL     1       2.086  -7.651   7.348  1.00  0.00     0.118 C 
BRANCH  26  27
ATOM     27  N   UNL     1       3.350  -8.109   7.914  1.00  0.00    -0.352 N 
ATOM     28  C   UNL     1       3.782  -8.145   9.215  1.00  0.00     0.251 C 
ATOM     29  H   UNL     1       3.998  -8.448   7.254  1.00  0.00     0.163 HD
ATOM     30  O   UNL     1       4.975  -8.325   9.444  1.00  0.00    -0.269 OA
BRANCH  28  31
ATOM     31  C   UNL     1       2.829  -7.970  10.331  1.00  0.00     0.039 A 
ATOM     32  C   UNL     1       3.232  -7.245  11.456  1.00  0.00     0.014 A 
ATOM     33  C   UNL     1       1.563  -8.559  10.294  1.00  0.00     0.014 A 
ATOM     34  C   UNL     1       2.344  -7.065  12.518  1.00  0.00     0.010 A 
ATOM     35  C   UNL     1       0.652  -8.311  11.318  1.00  0.00     0.010 A 
ATOM     36  C   UNL     1       1.035  -7.569  12.444  1.00  0.00    -0.014 A 
BRANCH  36  37
ATOM     37  C   UNL     1       0.055  -7.327  13.532  1.00  0.00     0.031 A 
ATOM     38  C   UNL     1      -0.518  -8.484  14.307  1.00  0.00     0.074 A 
ATOM     39  C   UNL     1      -0.365  -6.071  13.777  1.00  0.00     0.049 A 
ATOM     40  N   UNL     1      -1.433  -8.478  15.242  1.00  0.00    -0.248 NA
ATOM     41  C   UNL     1      -0.018  -9.826  13.967  1.00  0.00     0.031 C 
ATOM     42  C   UNL     1       0.080  -4.875  13.057  1.00  0.00     0.029 A 
ATOM     43  N   UNL     1      -1.269  -5.588  14.690  1.00  0.00    -0.354 N 
ATOM     44  C   UNL     1      -1.625  -9.809  15.594  1.00  0.00     0.074 A 
ATOM     45  C   UNL     1      -0.775 -10.600  14.730  1.00  0.00     0.031 C 
ATOM     46  C   UNL     1      -0.534  -3.798  13.569  1.00  0.00     0.029 A 
ATOM     47  C   UNL     1      -1.448  -4.226  14.623  1.00  0.00     0.049 A 
ATOM     48  H   UNL     1      -1.744  -6.163  15.333  1.00  0.00     0.167 HD
ATOM     49  C   UNL     1      -2.419 -10.323  16.564  1.00  0.00     0.037 A 
ATOM     50  C   UNL     1      -2.265  -3.415  15.322  1.00  0.00     0.037 A 
ATOM     51  C   UNL     1      -3.249  -9.524  17.429  1.00  0.00     0.049 A 
ATOM     52  C   UNL     1      -3.143  -4.010  16.390  1.00  0.00     0.074 A 
ATOM     53  C   UNL     1      -4.051  -9.941  18.477  1.00  0.00     0.029 A 
ATOM     54  N   UNL     1      -3.388  -8.146  17.345  1.00  0.00    -0.354 N 
ATOM     55  N   UNL     1      -3.263  -5.265  16.754  1.00  0.00    -0.248 NA
ATOM     56  C   UNL     1      -3.988  -3.079  17.150  1.00  0.00     0.031 C 
ATOM     57  C   UNL     1      -4.712  -8.822  18.993  1.00  0.00     0.029 A 
ATOM     58  C   UNL     1      -4.278  -7.699  18.307  1.00  0.00     0.049 A 
ATOM     59  H   UNL     1      -2.921  -7.570  16.696  1.00  0.00     0.167 HD
ATOM     60  C   UNL     1      -4.177  -5.271  17.802  1.00  0.00     0.074 A 
ATOM     61  C   UNL     1      -4.565  -3.893  18.023  1.00  0.00     0.031 C 
ATOM     62  C   UNL     1      -4.651  -6.321  18.517  1.00  0.00     0.037 A 
BRANCH  49  63
ATOM     63  C   UNL     1      -2.425 -11.818  16.743  1.00  0.00     0.058 A 
ATOM     64  C   UNL     1      -1.306 -12.507  17.239  1.00  0.00     0.135 A 
ATOM     65  C   UNL     1      -3.575 -12.570  16.449  1.00  0.00     0.135 A 
ATOM     66  F   UNL     1      -0.174 -11.843  17.524  1.00  0.00    -0.206 F 
ATOM     67  C   UNL     1      -1.314 -13.888  17.405  1.00  0.00     0.059 A 
ATOM     68  C   UNL     1      -3.616 -13.949  16.637  1.00  0.00     0.059 A 
ATOM     69  F   UNL     1      -4.675 -11.965  15.973  1.00  0.00    -0.206 F 
ATOM     70  C   UNL     1      -2.475 -14.601  17.101  1.00  0.00     0.060 A 
BRANCH  70  71
ATOM     71  S   UNL     1      -2.468 -16.392  17.326  1.00  0.00     0.124 S 
ATOM     72  O   UNL     1      -1.608 -16.820  16.227  1.00  0.00    -0.237 OA
ATOM     73  O   UNL     1      -1.904 -16.536  18.664  1.00  0.00    -0.237 OA
ATOM     74  O   UNL     1      -3.875 -16.757  17.199  1.00  0.00    -0.744 OA
ENDBRANCH  70  71
ENDBRANCH  49  63
BRANCH  50  75
ATOM     75  C   UNL     1      -2.275  -1.954  15.045  1.00  0.00     0.058 A 
ATOM     76  C   UNL     1      -1.759  -1.038  15.973  1.00  0.00     0.135 A 
ATOM     77  C   UNL     1      -2.782  -1.445  13.838  1.00  0.00     0.135 A 
ATOM     78  F   UNL     1      -1.267  -1.473  17.142  1.00  0.00    -0.206 F 
ATOM     79  C   UNL     1      -1.760   0.331  15.724  1.00  0.00     0.059 A 
ATOM     80  C   UNL     1      -2.768  -0.083  13.555  1.00  0.00     0.059 A 
ATOM     81  F   UNL     1      -3.270  -2.281  12.908  1.00  0.00    -0.206 F 
ATOM     82  C   UNL     1      -2.264   0.798  14.509  1.00  0.00     0.060 A 
BRANCH  82  83
ATOM     83  S   UNL     1      -2.212   2.573  14.176  1.00  0.00     0.124 S 
ATOM     84  O   UNL     1      -3.248   3.070  15.073  1.00  0.00    -0.237 OA
ATOM     85  O   UNL     1      -0.838   2.911  14.537  1.00  0.00    -0.237 OA
ATOM     86  O   UNL     1      -2.515   2.655  12.751  1.00  0.00    -0.744 OA
ENDBRANCH  82  83
ENDBRANCH  50  75
BRANCH  62  87
ATOM     87  C   UNL     1      -5.615  -6.021  19.632  1.00  0.00     0.058 A 
ATOM     88  C   UNL     1      -6.933  -5.609  19.381  1.00  0.00     0.135 A 
ATOM     89  C   UNL     1      -5.227  -6.195  20.971  1.00  0.00     0.135 A 
ATOM     90  F   UNL     1      -7.354  -5.421  18.120  1.00  0.00    -0.206 F 
ATOM     91  C   UNL     1      -7.825  -5.355  20.418  1.00  0.00     0.059 A 
ATOM     92  C   UNL     1      -6.111  -5.977  22.023  1.00  0.00     0.059 A 
ATOM     93  F   UNL     1      -3.981  -6.598  21.267  1.00  0.00    -0.206 F 
ATOM     94  C   UNL     1      -7.405  -5.545  21.736  1.00  0.00     0.060 A 
BRANCH  94  95
ATOM     95  S   UNL     1      -8.581  -5.241  23.071  1.00  0.00     0.124 S 
ATOM     96  O   UNL     1      -8.663  -3.784  23.065  1.00  0.00    -0.237 OA
ATOM     97  O   UNL     1      -9.772  -5.945  22.604  1.00  0.00    -0.237 OA
ATOM     98  O   UNL     1      -7.931  -5.828  24.239  1.00  0.00    -0.744 OA
ENDBRANCH  94  95
ENDBRANCH  62  87
ENDBRANCH  36  37
ENDBRANCH  28  31
ENDBRANCH  26  27
ENDBRANCH  25  26
ENDBRANCH   1  25
TORSDOF 17
