REMARK SMILES CCC(CC)(CC(=O)Nc1ccc(F)c(F)c1)C(=O)NCCCNC(=O)c1ccc(-c2c3nc(c(-c4c(F)cc(S(=O)(=O)[O-])cc4F)c4ccc([nH]4)c(-c4c(F)cc(S(=O)(=O)[O-])cc4F)c4nc(c(-c5c(F)cc(S(=O)(=O)[O-])cc5F)c5ccc2[nH]5)C=C4)C=C3)cc1
REMARK SMILES IDX 22 1 21 2 20 3 18 4 19 5 3 7 2 8 1 9 4 10 5 11 6 12 7 13
REMARK SMILES IDX 8 14 9 15 10 17 11 18 17 19 12 20 15 21 13 22 16 23 14 24
REMARK SMILES IDX 23 25 24 26 25 27 26 29 27 30 28 31 92 32 29 33 91 34 30 35
REMARK SMILES IDX 31 36 32 37 85 38 33 39 90 40 84 41 86 42 34 43 89 44 83 45
REMARK SMILES IDX 82 46 35 48 69 49 48 50 68 51 49 52 52 53 67 54 87 55 50 56
REMARK SMILES IDX 51 57 66 59 88 60 53 61 36 62 37 63 46 64 38 65 39 66 45 67
REMARK SMILES IDX 47 68 40 69 41 70 42 71 43 72 44 73 70 74 71 75 80 76 72 77
REMARK SMILES IDX 73 78 79 79 81 80 74 81 75 82 76 83 77 84 78 85 54 86 55 87
REMARK SMILES IDX 64 88 56 89 57 90 63 91 65 92 58 93 59 94 60 95 61 96 62 97
REMARK H PARENT 20 6 9 16 24 28 86 47 52 58
REMARK Flexibility Score: inf
ROOT
ATOM      1  C   UNL     1       2.890   6.289  -1.018  1.00  0.00     0.042 C 
ENDROOT
BRANCH   1   2
ATOM      2  C   UNL     1       2.356   5.019  -1.654  1.00  0.00     0.117 C 
BRANCH   2   3
ATOM      3  N   UNL     1       2.993   3.828  -1.127  1.00  0.00    -0.356 N 
ATOM      4  C   UNL     1       2.520   2.684  -0.585  1.00  0.00     0.226 C 
ATOM      5  O   UNL     1       3.383   1.921  -0.136  1.00  0.00    -0.274 OA
ATOM      6  H   UNL     1       3.975   3.860  -1.173  1.00  0.00     0.163 HD
BRANCH   4   7
ATOM      7  C   UNL     1       1.017   2.331  -0.518  1.00  0.00     0.057 C 
BRANCH   7   8
ATOM      8  C   UNL     1       0.919   0.833  -0.102  1.00  0.00     0.014 C 
ATOM      9  C   UNL     1       1.393  -0.223  -1.095  1.00  0.00     0.005 C 
ENDBRANCH   7   8
BRANCH   7  10
ATOM     10  C   UNL     1       0.327   2.500  -1.908  1.00  0.00     0.014 C 
ATOM     11  C   UNL     1      -1.195   2.413  -1.898  1.00  0.00     0.005 C 
ENDBRANCH   7  10
BRANCH   7  12
ATOM     12  C   UNL     1       0.309   3.172   0.589  1.00  0.00     0.117 C 
BRANCH  12  13
ATOM     13  C   UNL     1       0.996   3.300   1.952  1.00  0.00     0.225 C 
ATOM     14  O   UNL     1       1.948   4.069   2.105  1.00  0.00    -0.275 OA
ATOM     15  N   UNL     1       0.474   2.670   3.060  1.00  0.00    -0.326 N 
ATOM     16  H   UNL     1       0.775   3.014   3.932  1.00  0.00     0.169 HD
BRANCH  15  17
ATOM     17  C   UNL     1      -0.429   1.602   3.103  1.00  0.00     0.044 A 
ATOM     18  C   UNL     1       0.020   0.303   2.849  1.00  0.00     0.029 A 
ATOM     19  C   UNL     1      -1.754   1.814   3.476  1.00  0.00     0.068 A 
ATOM     20  C   UNL     1      -0.885  -0.757   2.770  1.00  0.00     0.044 A 
ATOM     21  C   UNL     1      -2.646   0.742   3.442  1.00  0.00     0.160 A 
ATOM     22  C   UNL     1      -2.224  -0.525   3.052  1.00  0.00     0.158 A 
ATOM     23  F   UNL     1      -3.928   0.944   3.778  1.00  0.00    -0.204 F 
ATOM     24  F   UNL     1      -3.099  -1.535   2.958  1.00  0.00    -0.204 F 
ENDBRANCH  15  17
ENDBRANCH  12  13
ENDBRANCH   7  12
ENDBRANCH   4   7
ENDBRANCH   2   3
ENDBRANCH   1   2
BRANCH   1  25
ATOM     25  C   UNL     1       4.404   6.426  -1.054  1.00  0.00     0.118 C 
BRANCH  25  26
ATOM     26  N   UNL     1       4.946   6.390  -2.407  1.00  0.00    -0.352 N 
ATOM     27  C   UNL     1       5.581   7.370  -3.125  1.00  0.00     0.251 C 
ATOM     28  H   UNL     1       4.840   5.531  -2.876  1.00  0.00     0.163 HD
ATOM     29  O   UNL     1       5.789   7.201  -4.330  1.00  0.00    -0.269 OA
BRANCH  27  30
ATOM     30  C   UNL     1       5.995   8.627  -2.471  1.00  0.00     0.039 A 
ATOM     31  C   UNL     1       5.854   9.834  -3.160  1.00  0.00     0.014 A 
ATOM     32  C   UNL     1       6.540   8.619  -1.184  1.00  0.00     0.014 A 
ATOM     33  C   UNL     1       6.216  11.031  -2.538  1.00  0.00     0.010 A 
ATOM     34  C   UNL     1       6.786   9.816  -0.525  1.00  0.00     0.010 A 
ATOM     35  C   UNL     1       6.663  11.034  -1.206  1.00  0.00    -0.014 A 
BRANCH  35  36
ATOM     36  C   UNL     1       7.076  12.291  -0.534  1.00  0.00     0.031 A 
ATOM     37  C   UNL     1       8.500  12.452  -0.065  1.00  0.00     0.074 A 
ATOM     38  C   UNL     1       6.170  13.262  -0.310  1.00  0.00     0.049 A 
ATOM     39  N   UNL     1       9.054  13.454   0.566  1.00  0.00    -0.248 NA
ATOM     40  C   UNL     1       9.415  11.322  -0.306  1.00  0.00     0.031 C 
ATOM     41  C   UNL     1       4.749  13.194  -0.660  1.00  0.00     0.029 A 
ATOM     42  N   UNL     1       6.310  14.499   0.266  1.00  0.00    -0.354 N 
ATOM     43  C   UNL     1      10.368  13.068   0.811  1.00  0.00     0.074 A 
ATOM     44  C   UNL     1      10.509  11.715   0.327  1.00  0.00     0.031 C 
ATOM     45  C   UNL     1       4.157  14.352  -0.324  1.00  0.00     0.029 A 
ATOM     46  C   UNL     1       5.146  15.231   0.291  1.00  0.00     0.049 A 
ATOM     47  H   UNL     1       7.163  14.831   0.628  1.00  0.00     0.167 HD
ATOM     48  C   UNL     1      11.376  13.787   1.357  1.00  0.00     0.037 A 
ATOM     49  C   UNL     1       4.909  16.475   0.752  1.00  0.00     0.037 A 
ATOM     50  C   UNL     1      11.236  15.149   1.800  1.00  0.00     0.049 A 
ATOM     51  C   UNL     1       6.053  17.270   1.321  1.00  0.00     0.074 A 
ATOM     52  C   UNL     1      12.204  15.991   2.317  1.00  0.00     0.029 A 
ATOM     53  N   UNL     1      10.052  15.870   1.769  1.00  0.00    -0.354 N 
ATOM     54  N   UNL     1       7.305  16.912   1.487  1.00  0.00    -0.248 NA
ATOM     55  C   UNL     1       5.758  18.643   1.749  1.00  0.00     0.031 C 
ATOM     56  C   UNL     1      11.596  17.211   2.634  1.00  0.00     0.029 A 
ATOM     57  C   UNL     1      10.262  17.145   2.265  1.00  0.00     0.049 A 
ATOM     58  H   UNL     1       9.189  15.527   1.442  1.00  0.00     0.167 HD
ATOM     59  C   UNL     1       7.955  18.028   2.004  1.00  0.00     0.074 A 
ATOM     60  C   UNL     1       6.958  19.074   2.115  1.00  0.00     0.031 C 
ATOM     61  C   UNL     1       9.257  18.176   2.352  1.00  0.00     0.037 A 
BRANCH  48  62
ATOM     62  C   UNL     1      12.718  13.118   1.489  1.00  0.00     0.058 A 
ATOM     63  C   UNL     1      13.498  12.798   0.365  1.00  0.00     0.135 A 
ATOM     64  C   UNL     1      13.241  12.807   2.755  1.00  0.00     0.135 A 
ATOM     65  F   UNL     1      13.040  13.055  -0.871  1.00  0.00    -0.206 F 
ATOM     66  C   UNL     1      14.729  12.164   0.488  1.00  0.00     0.059 A 
ATOM     67  C   UNL     1      14.486  12.201   2.903  1.00  0.00     0.059 A 
ATOM     68  F   UNL     1      12.539  13.087   3.864  1.00  0.00    -0.206 F 
ATOM     69  C   UNL     1      15.215  11.869   1.762  1.00  0.00     0.060 A 
BRANCH  69  70
ATOM     70  S   UNL     1      16.819  11.052   1.905  1.00  0.00     0.124 S 
ATOM     71  O   UNL     1      16.494   9.697   1.472  1.00  0.00    -0.237 OA
ATOM     72  O   UNL     1      17.648  11.829   0.989  1.00  0.00    -0.237 OA
ATOM     73  O   UNL     1      17.149  11.197   3.320  1.00  0.00    -0.744 OA
ENDBRANCH  69  70
ENDBRANCH  48  62
BRANCH  49  74
ATOM     74  C   UNL     1       3.545  17.060   0.647  1.00  0.00     0.058 A 
ATOM     75  C   UNL     1       3.273  18.100  -0.255  1.00  0.00     0.135 A 
ATOM     76  C   UNL     1       2.485  16.585   1.434  1.00  0.00     0.135 A 
ATOM     77  F   UNL     1       4.253  18.590  -1.028  1.00  0.00    -0.206 F 
ATOM     78  C   UNL     1       2.005  18.663  -0.358  1.00  0.00     0.059 A 
ATOM     79  C   UNL     1       1.202  17.114   1.330  1.00  0.00     0.059 A 
ATOM     80  F   UNL     1       2.687  15.577   2.297  1.00  0.00    -0.206 F 
ATOM     81  C   UNL     1       0.975  18.162   0.439  1.00  0.00     0.060 A 
BRANCH  81  82
ATOM     82  S   UNL     1      -0.677  18.872   0.267  1.00  0.00     0.124 S 
ATOM     83  O   UNL     1      -0.511  20.165   0.920  1.00  0.00    -0.237 OA
ATOM     84  O   UNL     1      -0.847  18.905  -1.183  1.00  0.00    -0.237 OA
ATOM     85  O   UNL     1      -1.528  17.914   0.967  1.00  0.00    -0.744 OA
ENDBRANCH  81  82
ENDBRANCH  49  74
BRANCH  61  86
ATOM     86  C   UNL     1       9.692  19.532   2.833  1.00  0.00     0.058 A 
ATOM     87  C   UNL     1       9.315  20.031   4.090  1.00  0.00     0.135 A 
ATOM     88  C   UNL     1      10.529  20.329   2.034  1.00  0.00     0.135 A 
ATOM     89  F   UNL     1       8.514  19.310   4.891  1.00  0.00    -0.206 F 
ATOM     90  C   UNL     1       9.723  21.288   4.523  1.00  0.00     0.059 A 
ATOM     91  C   UNL     1      10.974  21.575   2.460  1.00  0.00     0.059 A 
ATOM     92  F   UNL     1      10.931  19.892   0.830  1.00  0.00    -0.206 F 
ATOM     93  C   UNL     1      10.551  22.054   3.699  1.00  0.00     0.060 A 
BRANCH  93  94
ATOM     94  S   UNL     1      11.083  23.679   4.276  1.00  0.00     0.124 S 
ATOM     95  O   UNL     1       9.868  24.466   4.096  1.00  0.00    -0.237 OA
ATOM     96  O   UNL     1      11.466  23.411   5.659  1.00  0.00    -0.237 OA
ATOM     97  O   UNL     1      12.187  24.013   3.380  1.00  0.00    -0.744 OA
ENDBRANCH  93  94
ENDBRANCH  61  86
ENDBRANCH  35  36
ENDBRANCH  27  30
ENDBRANCH  25  26
ENDBRANCH   1  25
TORSDOF 18
