REMARK SMILES O=C(CCNC(=O)C1CCCCC1)NCCCNC(=O)c1ccc(-c2c3nc(c(-c4c(F)cc(S(=O)(=O)[O-])cc4F)c4ccc([nH]4)c(-c4c(F)cc(S(=O)(=O)[O-])cc4F)c4nc(c(-c5c(F)cc(S(=O)(=O)[O-])cc5F)c5ccc2[nH]5)C=C4)C=C3)cc1
REMARK SMILES IDX 16 1 15 2 14 3 1 4 2 5 3 7 4 8 5 9 6 10 7 12 8 13 9 14 13 15
REMARK SMILES IDX 10 16 12 17 11 18 17 19 18 20 19 21 20 23 21 24 22 25 86 26
REMARK SMILES IDX 23 27 85 28 24 29 25 30 26 31 79 32 27 33 84 34 78 35 80 36
REMARK SMILES IDX 28 37 83 38 77 39 76 40 29 42 63 43 42 44 62 45 43 46 46 47
REMARK SMILES IDX 61 48 81 49 44 50 45 51 60 53 82 54 47 55 30 56 31 57 40 58
REMARK SMILES IDX 32 59 33 60 39 61 41 62 34 63 35 64 36 65 37 66 38 67 64 68
REMARK SMILES IDX 65 69 74 70 66 71 67 72 73 73 75 74 68 75 69 76 70 77 71 78
REMARK SMILES IDX 72 79 48 80 49 81 58 82 50 83 51 84 57 85 59 86 52 87 53 88
REMARK SMILES IDX 54 89 55 90 56 91
REMARK H PARENT 14 6 5 11 18 22 80 41 46 52
REMARK Flexibility Score: inf
ROOT
ATOM      1  C   UNL     1       2.482   1.515   3.092  1.00  0.00     0.042 C 
ENDROOT
BRANCH   1   2
ATOM      2  C   UNL     1       2.168   1.732   1.617  1.00  0.00     0.117 C 
BRANCH   2   3
ATOM      3  N   UNL     1       2.821   0.763   0.760  1.00  0.00    -0.356 N 
ATOM      4  O   UNL     1       0.943   0.145  -0.423  1.00  0.00    -0.275 OA
ATOM      5  C   UNL     1       2.151   0.068  -0.221  1.00  0.00     0.221 C 
ATOM      6  H   UNL     1       3.783   0.594   0.884  1.00  0.00     0.163 HD
BRANCH   5   7
ATOM      7  C   UNL     1       3.051  -0.787  -1.081  1.00  0.00     0.121 C 
BRANCH   7   8
ATOM      8  C   UNL     1       3.836   0.082  -2.061  1.00  0.00     0.125 C 
BRANCH   8   9
ATOM      9  N   UNL     1       4.973   0.727  -1.420  1.00  0.00    -0.355 N 
ATOM     10  C   UNL     1       6.297   0.402  -1.429  1.00  0.00     0.223 C 
ATOM     11  H   UNL     1       4.749   1.528  -0.894  1.00  0.00     0.163 HD
ATOM     12  O   UNL     1       7.041   1.057  -0.701  1.00  0.00    -0.275 OA
BRANCH  10  13
ATOM     13  C   UNL     1       6.805  -0.705  -2.351  1.00  0.00     0.078 C 
ATOM     14  C   UNL     1       8.339  -0.641  -2.471  1.00  0.00     0.013 C 
ATOM     15  C   UNL     1       6.390  -2.105  -1.884  1.00  0.00     0.013 C 
ATOM     16  C   UNL     1       8.880  -1.717  -3.410  1.00  0.00     0.001 C 
ATOM     17  C   UNL     1       6.901  -3.178  -2.843  1.00  0.00     0.001 C 
ATOM     18  C   UNL     1       8.415  -3.112  -3.004  1.00  0.00     0.000 C 
ENDBRANCH  10  13
ENDBRANCH   8   9
ENDBRANCH   7   8
ENDBRANCH   5   7
ENDBRANCH   2   3
ENDBRANCH   1   2
BRANCH   1  19
ATOM     19  C   UNL     1       3.957   1.651   3.462  1.00  0.00     0.118 C 
BRANCH  19  20
ATOM     20  N   UNL     1       4.492   2.981   3.221  1.00  0.00    -0.352 N 
ATOM     21  C   UNL     1       5.208   3.810   4.050  1.00  0.00     0.251 C 
ATOM     22  H   UNL     1       4.313   3.345   2.324  1.00  0.00     0.163 HD
ATOM     23  O   UNL     1       5.439   4.962   3.683  1.00  0.00    -0.269 OA
BRANCH  21  24
ATOM     24  C   UNL     1       5.672   3.352   5.380  1.00  0.00     0.039 A 
ATOM     25  C   UNL     1       5.610   4.247   6.452  1.00  0.00     0.014 A 
ATOM     26  C   UNL     1       6.190   2.069   5.582  1.00  0.00     0.014 A 
ATOM     27  C   UNL     1       6.008   3.839   7.727  1.00  0.00     0.010 A 
ATOM     28  C   UNL     1       6.508   1.637   6.871  1.00  0.00     0.010 A 
ATOM     29  C   UNL     1       6.427   2.518   7.958  1.00  0.00    -0.014 A 
BRANCH  29  30
ATOM     30  C   UNL     1       6.769   2.060   9.333  1.00  0.00     0.031 A 
ATOM     31  C   UNL     1       8.164   1.597   9.666  1.00  0.00     0.074 A 
ATOM     32  C   UNL     1       5.809   2.033  10.280  1.00  0.00     0.049 A 
ATOM     33  N   UNL     1       8.642   1.175  10.810  1.00  0.00    -0.248 NA
ATOM     34  C   UNL     1       9.143   1.582   8.569  1.00  0.00     0.031 C 
ATOM     35  C   UNL     1       4.406   2.397  10.072  1.00  0.00     0.029 A 
ATOM     36  N   UNL     1       5.865   1.686  11.608  1.00  0.00    -0.354 N 
ATOM     37  C   UNL     1       9.970   0.843  10.570  1.00  0.00     0.074 A 
ATOM     38  C   UNL     1      10.206   1.053   9.158  1.00  0.00     0.031 C 
ATOM     39  C   UNL     1       3.745   2.291  11.235  1.00  0.00     0.029 A 
ATOM     40  C   UNL     1       4.664   1.817  12.265  1.00  0.00     0.049 A 
ATOM     41  H   UNL     1       6.688   1.373  12.048  1.00  0.00     0.167 HD
ATOM     42  C   UNL     1      10.915   0.426  11.448  1.00  0.00     0.037 A 
ATOM     43  C   UNL     1       4.336   1.583  13.551  1.00  0.00     0.037 A 
ATOM     44  C   UNL     1      10.680   0.234  12.857  1.00  0.00     0.049 A 
ATOM     45  C   UNL     1       5.404   1.127  14.508  1.00  0.00     0.074 A 
ATOM     46  C   UNL     1      11.585  -0.132  13.838  1.00  0.00     0.029 A 
ATOM     47  N   UNL     1       9.453   0.388  13.486  1.00  0.00    -0.354 N 
ATOM     48  N   UNL     1       6.673   0.888  14.276  1.00  0.00    -0.248 NA
ATOM     49  C   UNL     1       4.998   0.920  15.905  1.00  0.00     0.031 C 
ATOM     50  C   UNL     1      10.896  -0.248  15.050  1.00  0.00     0.029 A 
ATOM     51  C   UNL     1       9.572   0.103  14.837  1.00  0.00     0.049 A 
ATOM     52  H   UNL     1       8.619   0.660  13.039  1.00  0.00     0.167 HD
ATOM     53  C   UNL     1       7.223   0.531  15.503  1.00  0.00     0.074 A 
ATOM     54  C   UNL     1       6.151   0.603  16.476  1.00  0.00     0.031 C 
ATOM     55  C   UNL     1       8.499   0.177  15.797  1.00  0.00     0.037 A 
BRANCH  42  56
ATOM     56  C   UNL     1      12.296   0.152  10.913  1.00  0.00     0.058 A 
ATOM     57  C   UNL     1      13.130   1.187  10.457  1.00  0.00     0.135 A 
ATOM     58  C   UNL     1      12.811  -1.155  10.894  1.00  0.00     0.135 A 
ATOM     59  F   UNL     1      12.687   2.454  10.439  1.00  0.00    -0.206 F 
ATOM     60  C   UNL     1      14.410   0.933   9.975  1.00  0.00     0.059 A 
ATOM     61  C   UNL     1      14.100  -1.428  10.445  1.00  0.00     0.059 A 
ATOM     62  F   UNL     1      12.060  -2.183  11.319  1.00  0.00    -0.206 F 
ATOM     63  C   UNL     1      14.887  -0.378   9.973  1.00  0.00     0.060 A 
BRANCH  63  64
ATOM     64  S   UNL     1      16.554  -0.688   9.352  1.00  0.00     0.124 S 
ATOM     65  O   UNL     1      16.373  -0.483   7.918  1.00  0.00    -0.237 OA
ATOM     66  O   UNL     1      17.338   0.330  10.044  1.00  0.00    -0.237 OA
ATOM     67  O   UNL     1      16.819  -2.064   9.760  1.00  0.00    -0.744 OA
ENDBRANCH  63  64
ENDBRANCH  42  56
BRANCH  43  68
ATOM     68  C   UNL     1       2.940   1.807  14.015  1.00  0.00     0.058 A 
ATOM     69  C   UNL     1       2.626   2.860  14.887  1.00  0.00     0.135 A 
ATOM     70  C   UNL     1       1.890   0.977  13.590  1.00  0.00     0.135 A 
ATOM     71  F   UNL     1       3.595   3.677  15.328  1.00  0.00    -0.206 F 
ATOM     72  C   UNL     1       1.327   3.072  15.339  1.00  0.00     0.059 A 
ATOM     73  C   UNL     1       0.578   1.187  14.005  1.00  0.00     0.059 A 
ATOM     74  F   UNL     1       2.133  -0.034  12.742  1.00  0.00    -0.206 F 
ATOM     75  C   UNL     1       0.309   2.230  14.889  1.00  0.00     0.060 A 
BRANCH  75  76
ATOM     76  S   UNL     1      -1.381   2.540  15.446  1.00  0.00     0.124 S 
ATOM     77  O   UNL     1      -1.317   2.104  16.835  1.00  0.00    -0.237 OA
ATOM     78  O   UNL     1      -1.514   3.978  15.233  1.00  0.00    -0.237 OA
ATOM     79  O   UNL     1      -2.185   1.706  14.557  1.00  0.00    -0.744 OA
ENDBRANCH  75  76
ENDBRANCH  43  68
BRANCH  55  80
ATOM     80  C   UNL     1       8.816  -0.127  17.238  1.00  0.00     0.058 A 
ATOM     81  C   UNL     1       8.333  -1.280  17.877  1.00  0.00     0.135 A 
ATOM     82  C   UNL     1       9.634   0.739  17.982  1.00  0.00     0.135 A 
ATOM     83  F   UNL     1       7.543  -2.140  17.214  1.00  0.00    -0.206 F 
ATOM     84  C   UNL     1       8.617  -1.543  19.213  1.00  0.00     0.059 A 
ATOM     85  C   UNL     1       9.957   0.478  19.310  1.00  0.00     0.059 A 
ATOM     86  F   UNL     1      10.135   1.850  17.418  1.00  0.00    -0.206 F 
ATOM     87  C   UNL     1       9.428  -0.656  19.923  1.00  0.00     0.060 A 
BRANCH  87  88
ATOM     88  S   UNL     1       9.793  -1.012  21.655  1.00  0.00     0.124 S 
ATOM     89  O   UNL     1       8.521  -0.693  22.294  1.00  0.00    -0.237 OA
ATOM     90  O   UNL     1      10.146  -2.428  21.615  1.00  0.00    -0.237 OA
ATOM     91  O   UNL     1      10.896  -0.106  21.963  1.00  0.00    -0.744 OA
ENDBRANCH  87  88
ENDBRANCH  55  80
ENDBRANCH  29  30
ENDBRANCH  21  24
ENDBRANCH  19  20
ENDBRANCH   1  19
TORSDOF 16
