REMARK SMILES Nc1nc2ccccc2nc1N1CCC(C(=O)NCCCNC(=O)c2ccc(-c3c4nc(c(-c5c(F)cc(S(=O)(=O)[O-])cc5F)c5ccc([nH]5)c(-c5c(F)cc(S(=O)(=O)[O-])cc5F)c5nc(c(-c6c(F)cc(S(=O)(=O)[O-])cc6F)c6ccc3[nH]6)C=C5)C=C4)cc2)CC1
REMARK SMILES IDX 20 1 19 2 18 3 16 4 17 5 15 7 12 8 13 9 92 10 14 11 91 12
REMARK SMILES IDX 11 13 2 14 3 15 4 16 10 17 5 18 9 19 6 20 8 21 7 22 1 23
REMARK SMILES IDX 21 26 22 27 23 28 24 30 25 31 26 32 90 33 27 34 89 35 28 36
REMARK SMILES IDX 29 37 30 38 83 39 31 40 88 41 82 42 84 43 32 44 87 45 81 46
REMARK SMILES IDX 80 47 33 49 67 50 46 51 66 52 47 53 50 54 65 55 85 56 48 57
REMARK SMILES IDX 49 58 64 60 86 61 51 62 34 63 35 64 44 65 36 66 37 67 43 68
REMARK SMILES IDX 45 69 38 70 39 71 40 72 41 73 42 74 68 75 69 76 78 77 70 78
REMARK SMILES IDX 71 79 77 80 79 81 72 82 73 83 74 84 75 85 76 86 52 87 53 88
REMARK SMILES IDX 62 89 54 90 55 91 61 92 63 93 56 94 57 95 58 96 59 97 60 98
REMARK H PARENT 18 6 1 24 1 25 22 29 84 48 50 59
REMARK Flexibility Score: inf
ROOT
ATOM      1  C   UNL     1       1.032  -3.099  -6.543  1.00  0.00     0.042 C 
ENDROOT
BRANCH   1   2
ATOM      2  C   UNL     1       1.004  -3.805  -5.191  1.00  0.00     0.117 C 
BRANCH   2   3
ATOM      3  N   UNL     1       2.223  -4.562  -4.934  1.00  0.00    -0.356 N 
ATOM      4  C   UNL     1       3.243  -4.364  -4.055  1.00  0.00     0.223 C 
ATOM      5  O   UNL     1       4.168  -5.180  -4.061  1.00  0.00    -0.275 OA
ATOM      6  H   UNL     1       2.328  -5.362  -5.499  1.00  0.00     0.163 HD
BRANCH   4   7
ATOM      7  C   UNL     1       3.247  -3.209  -3.065  1.00  0.00     0.082 C 
ATOM      8  N   UNL     1       1.864  -0.982  -1.995  1.00  0.00    -0.353 N 
ATOM      9  C   UNL     1       2.985  -0.676  -2.857  1.00  0.00     0.119 C 
ATOM     10  C   UNL     1       1.925  -2.160  -1.155  1.00  0.00     0.119 C 
ATOM     11  C   UNL     1       3.285  -1.849  -3.775  1.00  0.00     0.035 C 
ATOM     12  C   UNL     1       2.132  -3.393  -2.025  1.00  0.00     0.035 C 
BRANCH   8  13
ATOM     13  C   UNL     1       0.713  -0.218  -2.057  1.00  0.00     0.172 A 
ATOM     14  C   UNL     1       0.158   0.371  -0.889  1.00  0.00     0.167 A 
ATOM     15  N   UNL     1      -0.968   1.106  -0.908  1.00  0.00    -0.226 NA
ATOM     16  C   UNL     1      -1.532   1.303  -2.111  1.00  0.00     0.091 A 
ATOM     17  N   UNL     1       0.141  -0.006  -3.265  1.00  0.00    -0.225 NA
ATOM     18  C   UNL     1      -2.683   2.077  -2.190  1.00  0.00     0.031 A 
ATOM     19  C   UNL     1      -0.980   0.749  -3.293  1.00  0.00     0.091 A 
ATOM     20  C   UNL     1      -3.313   2.319  -3.410  1.00  0.00     0.002 A 
ATOM     21  C   UNL     1      -1.623   0.995  -4.503  1.00  0.00     0.031 A 
ATOM     22  C   UNL     1      -2.782   1.774  -4.571  1.00  0.00     0.002 A 
BRANCH  14  23
ATOM     23  N   UNL     1       0.761   0.235   0.361  1.00  0.00    -0.381 N 
ATOM     24  H   UNL     1       0.354   0.654   1.153  1.00  0.00     0.158 HD
ATOM     25  H   UNL     1       1.596  -0.280   0.451  1.00  0.00     0.158 HD
ENDBRANCH  14  23
ENDBRANCH   8  13
ENDBRANCH   4   7
ENDBRANCH   2   3
ENDBRANCH   1   2
BRANCH   1  26
ATOM     26  C   UNL     1       1.117  -4.046  -7.731  1.00  0.00     0.118 C 
BRANCH  26  27
ATOM     27  N   UNL     1      -0.114  -4.796  -7.952  1.00  0.00    -0.352 N 
ATOM     28  C   UNL     1      -1.030  -4.703  -8.974  1.00  0.00     0.251 C 
ATOM     29  H   UNL     1      -0.321  -5.470  -7.265  1.00  0.00     0.163 HD
ATOM     30  O   UNL     1      -2.090  -5.318  -8.906  1.00  0.00    -0.269 OA
BRANCH  28  31
ATOM     31  C   UNL     1      -0.752  -3.826 -10.132  1.00  0.00     0.039 A 
ATOM     32  C   UNL     1       0.487  -3.866 -10.776  1.00  0.00     0.014 A 
ATOM     33  C   UNL     1      -1.730  -2.919 -10.547  1.00  0.00     0.014 A 
ATOM     34  C   UNL     1       0.819  -2.872 -11.692  1.00  0.00     0.010 A 
ATOM     35  C   UNL     1      -1.422  -1.974 -11.530  1.00  0.00     0.010 A 
ATOM     36  C   UNL     1      -0.125  -1.903 -12.064  1.00  0.00    -0.014 A 
BRANCH  36  37
ATOM     37  C   UNL     1       0.269  -0.785 -12.962  1.00  0.00     0.031 A 
ATOM     38  C   UNL     1       0.248   0.635 -12.455  1.00  0.00     0.074 A 
ATOM     39  C   UNL     1       0.683  -1.045 -14.218  1.00  0.00     0.049 A 
ATOM     40  N   UNL     1       0.452   1.749 -13.110  1.00  0.00    -0.248 NA
ATOM     41  C   UNL     1      -0.044   0.831 -11.024  1.00  0.00     0.031 C 
ATOM     42  C   UNL     1       0.781  -2.377 -14.819  1.00  0.00     0.029 A 
ATOM     43  N   UNL     1       1.108  -0.200 -15.212  1.00  0.00    -0.354 N 
ATOM     44  C   UNL     1       0.280   2.775 -12.187  1.00  0.00     0.074 A 
ATOM     45  C   UNL     1      -0.055   2.154 -10.924  1.00  0.00     0.031 C 
ATOM     46  C   UNL     1       1.262  -2.261 -16.067  1.00  0.00     0.029 A 
ATOM     47  C   UNL     1       1.445  -0.847 -16.377  1.00  0.00     0.049 A 
ATOM     48  H   UNL     1       1.166   0.776 -15.101  1.00  0.00     0.167 HD
ATOM     49  C   UNL     1       0.397   4.111 -12.374  1.00  0.00     0.037 A 
ATOM     50  C   UNL     1       1.826  -0.357 -17.571  1.00  0.00     0.037 A 
ATOM     51  C   UNL     1       0.776   4.724 -13.620  1.00  0.00     0.049 A 
ATOM     52  C   UNL     1       1.927   1.131 -17.756  1.00  0.00     0.074 A 
ATOM     53  C   UNL     1       0.928   6.071 -13.906  1.00  0.00     0.029 A 
ATOM     54  N   UNL     1       1.083   4.033 -14.782  1.00  0.00    -0.354 N 
ATOM     55  N   UNL     1       1.708   2.086 -16.885  1.00  0.00    -0.248 NA
ATOM     56  C   UNL     1       2.312   1.607 -19.092  1.00  0.00     0.031 C 
ATOM     57  C   UNL     1       1.305   6.195 -15.248  1.00  0.00     0.029 A 
ATOM     58  C   UNL     1       1.419   4.925 -15.787  1.00  0.00     0.049 A 
ATOM     59  H   UNL     1       1.065   3.054 -14.878  1.00  0.00     0.167 HD
ATOM     60  C   UNL     1       1.930   3.276 -17.567  1.00  0.00     0.074 A 
ATOM     61  C   UNL     1       2.327   2.921 -18.914  1.00  0.00     0.031 C 
ATOM     62  C   UNL     1       1.806   4.551 -17.122  1.00  0.00     0.037 A 
BRANCH  49  63
ATOM     63  C   UNL     1       0.109   5.017 -11.211  1.00  0.00     0.058 A 
ATOM     64  C   UNL     1       1.036   5.200 -10.174  1.00  0.00     0.135 A 
ATOM     65  C   UNL     1      -1.070   5.780 -11.181  1.00  0.00     0.135 A 
ATOM     66  F   UNL     1       2.168   4.480 -10.145  1.00  0.00    -0.206 F 
ATOM     67  C   UNL     1       0.806   6.112  -9.148  1.00  0.00     0.059 A 
ATOM     68  C   UNL     1      -1.312   6.711 -10.175  1.00  0.00     0.059 A 
ATOM     69  F   UNL     1      -1.991   5.636 -12.146  1.00  0.00    -0.206 F 
ATOM     70  C   UNL     1      -0.368   6.868  -9.162  1.00  0.00     0.060 A 
BRANCH  70  71
ATOM     71  S   UNL     1      -0.629   8.083  -7.851  1.00  0.00     0.124 S 
ATOM     72  O   UNL     1      -0.930   7.220  -6.712  1.00  0.00    -0.237 OA
ATOM     73  O   UNL     1       0.657   8.771  -7.803  1.00  0.00    -0.237 OA
ATOM     74  O   UNL     1      -1.747   8.881  -8.344  1.00  0.00    -0.744 OA
ENDBRANCH  70  71
ENDBRANCH  49  63
BRANCH  50  75
ATOM     75  C   UNL     1       2.099  -1.281 -18.701  1.00  0.00     0.058 A 
ATOM     76  C   UNL     1       3.401  -1.472 -19.182  1.00  0.00     0.135 A 
ATOM     77  C   UNL     1       1.058  -1.986 -19.326  1.00  0.00     0.135 A 
ATOM     78  F   UNL     1       4.427  -0.813 -18.621  1.00  0.00    -0.206 F 
ATOM     79  C   UNL     1       3.663  -2.315 -20.257  1.00  0.00     0.059 A 
ATOM     80  C   UNL     1       1.297  -2.853 -20.386  1.00  0.00     0.059 A 
ATOM     81  F   UNL     1      -0.204  -1.847 -18.892  1.00  0.00    -0.206 F 
ATOM     82  C   UNL     1       2.603  -3.001 -20.853  1.00  0.00     0.060 A 
BRANCH  82  83
ATOM     83  S   UNL     1       2.951  -4.121 -22.226  1.00  0.00     0.124 S 
ATOM     84  O   UNL     1       3.134  -3.184 -23.328  1.00  0.00    -0.237 OA
ATOM     85  O   UNL     1       4.154  -4.809 -21.766  1.00  0.00    -0.237 OA
ATOM     86  O   UNL     1       1.752  -4.950 -22.291  1.00  0.00    -0.744 OA
ENDBRANCH  82  83
ENDBRANCH  50  75
BRANCH  62  87
ATOM     87  C   UNL     1       2.114   5.646 -18.101  1.00  0.00     0.058 A 
ATOM     88  C   UNL     1       1.218   5.979 -19.128  1.00  0.00     0.135 A 
ATOM     89  C   UNL     1       3.307   6.378 -18.003  1.00  0.00     0.135 A 
ATOM     90  F   UNL     1       0.067   5.303 -19.266  1.00  0.00    -0.206 F 
ATOM     91  C   UNL     1       1.509   6.982 -20.046  1.00  0.00     0.059 A 
ATOM     92  C   UNL     1       3.608   7.400 -18.896  1.00  0.00     0.059 A 
ATOM     93  F   UNL     1       4.191   6.103 -17.030  1.00  0.00    -0.206 F 
ATOM     94  C   UNL     1       2.710   7.683 -19.925  1.00  0.00     0.060 A 
BRANCH  94  95
ATOM     95  S   UNL     1       3.078   8.986 -21.119  1.00  0.00     0.124 S 
ATOM     96  O   UNL     1       3.489   8.208 -22.283  1.00  0.00    -0.237 OA
ATOM     97  O   UNL     1       1.797   9.676 -21.238  1.00  0.00    -0.237 OA
ATOM     98  O   UNL     1       4.137   9.752 -20.469  1.00  0.00    -0.744 OA
ENDBRANCH  94  95
ENDBRANCH  62  87
ENDBRANCH  36  37
ENDBRANCH  28  31
ENDBRANCH  26  27
ENDBRANCH   1  26
TORSDOF 15
