REMARK SMILES O=C(NCCCNC(=O)c1sccc1S(=O)(=O)N1CCO[C@@H]2CCCC[C@@H]21)c1ccc(-c2c3nc(c(-c4c(F)cc(S(=O)(=O)[O-])cc4F)c4ccc([nH]4)c(-c4c(F)cc(S(=O)(=O)[O-])cc4F)c4nc(c(-c5c(F)cc(S(=O)(=O)[O-])cc5F)c5ccc2[nH]5)C=C4)C=C3)cc1
REMARK SMILES IDX 4 1 3 2 1 3 2 4 28 6 29 7 93 8 30 9 92 10 31 11 32 12 33 13
REMARK SMILES IDX 86 14 34 15 91 16 85 17 87 18 35 19 90 20 84 21 83 22 36 24
REMARK SMILES IDX 70 25 49 26 69 27 50 28 53 29 68 30 88 31 51 32 52 33 67 35
REMARK SMILES IDX 89 36 54 37 37 38 38 39 47 40 39 41 40 42 46 43 48 44 41 45
REMARK SMILES IDX 42 46 43 47 44 48 45 49 71 50 72 51 81 52 73 53 74 54 80 55
REMARK SMILES IDX 82 56 75 57 76 58 77 59 78 60 79 61 55 62 56 63 65 64 57 65
REMARK SMILES IDX 58 66 64 67 66 68 59 69 60 70 61 71 62 72 63 73 5 74 6 75
REMARK SMILES IDX 7 76 8 77 9 79 10 80 11 81 14 82 12 83 13 84 15 85 16 86
REMARK SMILES IDX 17 87 18 88 19 89 27 90 20 91 22 92 26 93 21 94 23 95 25 96
REMARK SMILES IDX 24 97
REMARK H PARENT 3 5 87 23 53 34 7 78
REMARK Flexibility Score: inf
ROOT
ATOM      1  C   UNL     1       4.711   0.834   2.179  1.00  0.00     0.118 C 
ENDROOT
BRANCH   1   2
ATOM      2  N   UNL     1       3.414   0.216   1.951  1.00  0.00    -0.352 N 
ATOM      3  O   UNL     1       1.591  -0.297   0.694  1.00  0.00    -0.269 OA
ATOM      4  C   UNL     1       2.648   0.314   0.805  1.00  0.00     0.251 C 
ATOM      5  H   UNL     1       3.046  -0.326   2.686  1.00  0.00     0.163 HD
BRANCH   4   6
ATOM      6  C   UNL     1       3.110   1.200  -0.288  1.00  0.00     0.039 A 
ATOM      7  C   UNL     1       4.234   0.868  -1.052  1.00  0.00     0.014 A 
ATOM      8  C   UNL     1       2.446   2.409  -0.498  1.00  0.00     0.014 A 
ATOM      9  C   UNL     1       4.756   1.799  -1.960  1.00  0.00     0.010 A 
ATOM     10  C   UNL     1       2.958   3.328  -1.420  1.00  0.00     0.010 A 
ATOM     11  C   UNL     1       4.145   3.053  -2.123  1.00  0.00    -0.014 A 
BRANCH  11  12
ATOM     12  C   UNL     1       4.785   4.130  -2.929  1.00  0.00     0.031 A 
ATOM     13  C   UNL     1       5.407   5.309  -2.225  1.00  0.00     0.074 A 
ATOM     14  C   UNL     1       4.786   4.094  -4.274  1.00  0.00     0.049 A 
ATOM     15  N   UNL     1       5.902   6.412  -2.726  1.00  0.00    -0.248 NA
ATOM     16  C   UNL     1       5.470   5.235  -0.757  1.00  0.00     0.031 C 
ATOM     17  C   UNL     1       4.239   3.013  -5.090  1.00  0.00     0.029 A 
ATOM     18  N   UNL     1       5.244   5.011  -5.190  1.00  0.00    -0.354 N 
ATOM     19  C   UNL     1       6.309   7.176  -1.638  1.00  0.00     0.074 A 
ATOM     20  C   UNL     1       5.987   6.416  -0.448  1.00  0.00     0.031 C 
ATOM     21  C   UNL     1       4.374   3.337  -6.388  1.00  0.00     0.029 A 
ATOM     22  C   UNL     1       4.981   4.664  -6.494  1.00  0.00     0.049 A 
ATOM     23  H   UNL     1       5.716   5.837  -4.937  1.00  0.00     0.167 HD
ATOM     24  C   UNL     1       6.897   8.398  -1.625  1.00  0.00     0.037 A 
ATOM     25  C   UNL     1       5.175   5.346  -7.642  1.00  0.00     0.037 A 
ATOM     26  C   UNL     1       7.232   9.154  -2.803  1.00  0.00     0.049 A 
ATOM     27  C   UNL     1       5.801   6.714  -7.612  1.00  0.00     0.074 A 
ATOM     28  C   UNL     1       7.860  10.385  -2.885  1.00  0.00     0.029 A 
ATOM     29  N   UNL     1       6.962   8.758  -4.104  1.00  0.00    -0.354 N 
ATOM     30  N   UNL     1       6.200   7.414  -6.577  1.00  0.00    -0.248 NA
ATOM     31  C   UNL     1       6.006   7.387  -8.904  1.00  0.00     0.031 C 
ATOM     32  C   UNL     1       7.937  10.750  -4.233  1.00  0.00     0.029 A 
ATOM     33  C   UNL     1       7.394   9.727  -4.994  1.00  0.00     0.049 A 
ATOM     34  H   UNL     1       6.527   7.912  -4.357  1.00  0.00     0.167 HD
ATOM     35  C   UNL     1       6.725   8.595  -7.093  1.00  0.00     0.074 A 
ATOM     36  C   UNL     1       6.591   8.519  -8.533  1.00  0.00     0.031 C 
ATOM     37  C   UNL     1       7.274   9.642  -6.429  1.00  0.00     0.037 A 
BRANCH  24  38
ATOM     38  C   UNL     1       7.186   9.007  -0.282  1.00  0.00     0.058 A 
ATOM     39  C   UNL     1       8.217   8.528   0.541  1.00  0.00     0.135 A 
ATOM     40  C   UNL     1       6.417  10.083   0.189  1.00  0.00     0.135 A 
ATOM     41  F   UNL     1       8.973   7.492   0.143  1.00  0.00    -0.206 F 
ATOM     42  C   UNL     1       8.447   9.064   1.804  1.00  0.00     0.059 A 
ATOM     43  C   UNL     1       6.644  10.651   1.439  1.00  0.00     0.059 A 
ATOM     44  F   UNL     1       5.421  10.582  -0.560  1.00  0.00    -0.206 F 
ATOM     45  C   UNL     1       7.646  10.117   2.249  1.00  0.00     0.060 A 
BRANCH  45  46
ATOM     46  S   UNL     1       7.917  10.772   3.909  1.00  0.00     0.124 S 
ATOM     47  O   UNL     1       7.279   9.747   4.729  1.00  0.00    -0.237 OA
ATOM     48  O   UNL     1       9.373  10.832   3.991  1.00  0.00    -0.237 OA
ATOM     49  O   UNL     1       7.240  12.065   3.878  1.00  0.00    -0.744 OA
ENDBRANCH  45  46
ENDBRANCH  24  38
BRANCH  25  50
ATOM     50  C   UNL     1       4.751   4.731  -8.926  1.00  0.00     0.058 A 
ATOM     51  C   UNL     1       5.693   4.201  -9.819  1.00  0.00     0.135 A 
ATOM     52  C   UNL     1       3.392   4.607  -9.254  1.00  0.00     0.135 A 
ATOM     53  F   UNL     1       7.003   4.310  -9.554  1.00  0.00    -0.206 F 
ATOM     54  C   UNL     1       5.302   3.555 -10.988  1.00  0.00     0.059 A 
ATOM     55  C   UNL     1       2.976   3.949 -10.407  1.00  0.00     0.059 A 
ATOM     56  F   UNL     1       2.454   5.095  -8.427  1.00  0.00    -0.206 F 
ATOM     57  C   UNL     1       3.940   3.423 -11.267  1.00  0.00     0.060 A 
BRANCH  57  58
ATOM     58  S   UNL     1       3.441   2.488 -12.729  1.00  0.00     0.124 S 
ATOM     59  O   UNL     1       3.730   3.436 -13.798  1.00  0.00    -0.237 OA
ATOM     60  O   UNL     1       4.312   1.319 -12.658  1.00  0.00    -0.237 OA
ATOM     61  O   UNL     1       2.026   2.219 -12.487  1.00  0.00    -0.744 OA
ENDBRANCH  57  58
ENDBRANCH  25  50
BRANCH  37  62
ATOM     62  C   UNL     1       7.818  10.787  -7.237  1.00  0.00     0.058 A 
ATOM     63  C   UNL     1       6.977  11.754  -7.808  1.00  0.00     0.135 A 
ATOM     64  C   UNL     1       9.206  10.970  -7.358  1.00  0.00     0.135 A 
ATOM     65  F   UNL     1       5.644  11.623  -7.726  1.00  0.00    -0.206 F 
ATOM     66  C   UNL     1       7.493  12.865  -8.471  1.00  0.00     0.059 A 
ATOM     67  C   UNL     1       9.743  12.082  -8.001  1.00  0.00     0.059 A 
ATOM     68  F   UNL     1      10.053  10.078  -6.823  1.00  0.00    -0.206 F 
ATOM     69  C   UNL     1       8.878  13.024  -8.556  1.00  0.00     0.060 A 
BRANCH  69  70
ATOM     70  S   UNL     1       9.537  14.504  -9.355  1.00  0.00     0.124 S 
ATOM     71  O   UNL     1       9.335  14.192 -10.766  1.00  0.00    -0.237 OA
ATOM     72  O   UNL     1       8.688  15.559  -8.812  1.00  0.00    -0.237 OA
ATOM     73  O   UNL     1      10.928  14.538  -8.912  1.00  0.00    -0.744 OA
ENDBRANCH  69  70
ENDBRANCH  37  62
ENDBRANCH  11  12
ENDBRANCH   4   6
ENDBRANCH   1   2
BRANCH   1  74
ATOM     74  C   UNL     1       5.034   1.182   3.638  1.00  0.00     0.042 C 
BRANCH  74  75
ATOM     75  C   UNL     1       5.120   0.018   4.621  1.00  0.00     0.118 C 
BRANCH  75  76
ATOM     76  N   UNL     1       5.878  -1.068   4.050  1.00  0.00    -0.351 N 
ATOM     77  C   UNL     1       6.682  -1.959   4.721  1.00  0.00     0.262 C 
ATOM     78  H   UNL     1       5.813  -1.183   3.075  1.00  0.00     0.163 HD
ATOM     79  O   UNL     1       7.815  -2.168   4.360  1.00  0.00    -0.268 OA
BRANCH  77  80
ATOM     80  C   UNL     1       6.024  -2.671   5.787  1.00  0.00     0.112 A 
ATOM     81  S   UNL     1       6.824  -2.651   7.306  1.00  0.00    -0.137 S 
ATOM     82  C   UNL     1       4.841  -3.387   5.813  1.00  0.00     0.106 A 
ATOM     83  C   UNL     1       5.501  -3.393   8.077  1.00  0.00     0.067 A 
ATOM     84  C   UNL     1       4.522  -3.753   7.175  1.00  0.00     0.034 A 
BRANCH  82  85
ATOM     85  S   UNL     1       3.723  -3.686   4.472  1.00  0.00     0.245 S 
ATOM     86  O   UNL     1       2.799  -4.624   5.069  1.00  0.00    -0.207 OA
ATOM     87  O   UNL     1       3.275  -2.357   4.107  1.00  0.00    -0.207 OA
BRANCH  85  88
ATOM     88  N   UNL     1       4.411  -4.426   3.075  1.00  0.00    -0.190 NA
ATOM     89  C   UNL     1       4.045  -5.868   2.858  1.00  0.00     0.131 C 
ATOM     90  C   UNL     1       4.611  -3.599   1.793  1.00  0.00     0.102 C 
ATOM     91  C   UNL     1       3.290  -6.107   1.556  1.00  0.00     0.177 C 
ATOM     92  C   UNL     1       4.090  -4.223   0.460  1.00  0.00     0.136 C 
ATOM     93  C   UNL     1       6.074  -3.162   1.641  1.00  0.00     0.023 C 
ATOM     94  O   UNL     1       4.078  -5.651   0.466  1.00  0.00    -0.375 OA
ATOM     95  C   UNL     1       4.920  -3.796  -0.760  1.00  0.00     0.034 C 
ATOM     96  C   UNL     1       6.939  -4.049   0.771  1.00  0.00     0.002 C 
ATOM     97  C   UNL     1       6.394  -4.190  -0.641  1.00  0.00     0.003 C 
ENDBRANCH  85  88
ENDBRANCH  82  85
ENDBRANCH  77  80
ENDBRANCH  75  76
ENDBRANCH  74  75
ENDBRANCH   1  74
TORSDOF 15
