REMARK SMILES CN(Cc1ccc(C(=O)NCCCNC(=O)c2ccc(-c3c4nc(c(-c5c(F)cc(S(=O)(=O)[O-])cc5F)c5ccc([nH]5)c(-c5c(F)cc(S(=O)(=O)[O-])cc5F)c5nc(c(-c6c(F)cc(S(=O)(=O)[O-])cc6F)c6ccc3[nH]6)C=C5)C=C4)cc2)cc1)c1ccccc1N
REMARK SMILES IDX 11 1 10 2 8 3 9 4 7 6 4 7 5 8 84 9 6 10 83 11 3 12 2 13 1 14
REMARK SMILES IDX 85 15 86 16 90 17 87 18 89 19 88 20 91 21 12 24 13 25 14 26
REMARK SMILES IDX 15 27 16 29 17 30 18 31 82 32 19 33 81 34 20 35 21 36 22 37
REMARK SMILES IDX 75 38 23 39 80 40 74 41 76 42 24 43 79 44 73 45 72 46 25 48
REMARK SMILES IDX 59 49 38 50 58 51 39 52 42 53 57 54 77 55 40 56 41 57 56 59
REMARK SMILES IDX 78 60 43 61 26 62 27 63 36 64 28 65 29 66 35 67 37 68 30 69
REMARK SMILES IDX 31 70 32 71 33 72 34 73 60 74 61 75 70 76 62 77 63 78 69 79
REMARK SMILES IDX 71 80 64 81 65 82 66 83 67 84 68 85 44 86 45 87 54 88 46 89
REMARK SMILES IDX 47 90 53 91 55 92 48 93 49 94 50 95 51 96 52 97
REMARK H PARENT 10 5 91 22 91 23 14 28 76 47 42 58
REMARK Flexibility Score: inf
ROOT
ATOM      1  C   UNL     1      -6.714   0.382  -3.068  1.00  0.00     0.118 C 
ENDROOT
BRANCH   1   2
ATOM      2  N   UNL     1      -6.503   1.782  -2.753  1.00  0.00    -0.352 N 
ATOM      3  C   UNL     1      -5.336   2.475  -2.578  1.00  0.00     0.251 C 
ATOM      4  O   UNL     1      -5.369   3.698  -2.458  1.00  0.00    -0.269 OA
ATOM      5  H   UNL     1      -7.325   2.315  -2.650  1.00  0.00     0.163 HD
BRANCH   3   6
ATOM      6  C   UNL     1      -4.029   1.784  -2.575  1.00  0.00     0.039 A 
ATOM      7  C   UNL     1      -1.439   0.708  -2.462  1.00  0.00    -0.029 A 
ATOM      8  C   UNL     1      -1.733   1.774  -3.329  1.00  0.00     0.006 A 
ATOM      9  C   UNL     1      -2.471   0.158  -1.688  1.00  0.00     0.006 A 
ATOM     10  C   UNL     1      -3.014   2.322  -3.370  1.00  0.00     0.014 A 
ATOM     11  C   UNL     1      -3.760   0.699  -1.736  1.00  0.00     0.014 A 
BRANCH   7  12
ATOM     12  C   UNL     1      -0.004   0.248  -2.292  1.00  0.00     0.151 C 
BRANCH  12  13
ATOM     13  N   UNL     1       0.653   0.891  -1.155  1.00  0.00    -0.369 N 
ATOM     14  C   UNL     1       0.623   0.304   0.168  1.00  0.00     0.144 C 
BRANCH  13  15
ATOM     15  C   UNL     1       1.142   2.189  -1.294  1.00  0.00     0.060 A 
ATOM     16  C   UNL     1       0.269   3.287  -1.274  1.00  0.00     0.028 A 
ATOM     17  C   UNL     1       2.524   2.435  -1.462  1.00  0.00     0.055 A 
ATOM     18  C   UNL     1       0.722   4.582  -1.531  1.00  0.00     0.002 A 
ATOM     19  C   UNL     1       2.969   3.736  -1.730  1.00  0.00     0.027 A 
ATOM     20  C   UNL     1       2.072   4.804  -1.774  1.00  0.00     0.002 A 
BRANCH  17  21
ATOM     21  N   UNL     1       3.430   1.372  -1.515  1.00  0.00    -0.397 N 
ATOM     22  H   UNL     1       3.125   0.455  -1.327  1.00  0.00     0.156 HD
ATOM     23  H   UNL     1       4.374   1.540  -1.739  1.00  0.00     0.156 HD
ENDBRANCH  17  21
ENDBRANCH  13  15
ENDBRANCH  12  13
ENDBRANCH   7  12
ENDBRANCH   3   6
ENDBRANCH   1   2
BRANCH   1  24
ATOM     24  C   UNL     1      -7.395  -0.356  -1.921  1.00  0.00     0.042 C 
BRANCH  24  25
ATOM     25  C   UNL     1      -8.841   0.075  -1.685  1.00  0.00     0.118 C 
BRANCH  25  26
ATOM     26  N   UNL     1      -9.713  -0.302  -2.786  1.00  0.00    -0.352 N 
ATOM     27  C   UNL     1     -10.854  -1.066  -2.783  1.00  0.00     0.251 C 
ATOM     28  H   UNL     1      -9.444   0.043  -3.668  1.00  0.00     0.163 HD
ATOM     29  O   UNL     1     -11.319  -1.452  -3.853  1.00  0.00    -0.269 OA
BRANCH  27  30
ATOM     30  C   UNL     1     -11.518  -1.430  -1.512  1.00  0.00     0.039 A 
ATOM     31  C   UNL     1     -12.049  -2.716  -1.376  1.00  0.00     0.014 A 
ATOM     32  C   UNL     1     -11.669  -0.500  -0.479  1.00  0.00     0.014 A 
ATOM     33  C   UNL     1     -12.695  -3.081  -0.192  1.00  0.00     0.010 A 
ATOM     34  C   UNL     1     -12.254  -0.885   0.726  1.00  0.00     0.010 A 
ATOM     35  C   UNL     1     -12.786  -2.175   0.877  1.00  0.00    -0.014 A 
BRANCH  35  36
ATOM     36  C   UNL     1     -13.453  -2.553   2.148  1.00  0.00     0.031 A 
ATOM     37  C   UNL     1     -14.720  -1.859   2.571  1.00  0.00     0.074 A 
ATOM     38  C   UNL     1     -12.894  -3.486   2.943  1.00  0.00     0.049 A 
ATOM     39  N   UNL     1     -15.418  -2.008   3.668  1.00  0.00    -0.248 NA
ATOM     40  C   UNL     1     -15.260  -0.843   1.652  1.00  0.00     0.031 C 
ATOM     41  C   UNL     1     -11.644  -4.196   2.663  1.00  0.00     0.029 A 
ATOM     42  N   UNL     1     -13.298  -3.992   4.152  1.00  0.00    -0.354 N 
ATOM     43  C   UNL     1     -16.466  -1.099   3.579  1.00  0.00     0.074 A 
ATOM     44  C   UNL     1     -16.285  -0.368   2.344  1.00  0.00     0.031 C 
ATOM     45  C   UNL     1     -11.395  -5.059   3.661  1.00  0.00     0.029 A 
ATOM     46  C   UNL     1     -12.448  -4.944   4.665  1.00  0.00     0.049 A 
ATOM     47  H   UNL     1     -14.119  -3.700   4.611  1.00  0.00     0.167 HD
ATOM     48  C   UNL     1     -17.497  -0.907   4.436  1.00  0.00     0.037 A 
ATOM     49  C   UNL     1     -12.511  -5.642   5.814  1.00  0.00     0.037 A 
ATOM     50  C   UNL     1     -17.688  -1.659   5.649  1.00  0.00     0.049 A 
ATOM     51  C   UNL     1     -13.676  -5.426   6.740  1.00  0.00     0.074 A 
ATOM     52  C   UNL     1     -18.725  -1.575   6.562  1.00  0.00     0.029 A 
ATOM     53  N   UNL     1     -16.822  -2.637   6.117  1.00  0.00    -0.354 N 
ATOM     54  N   UNL     1     -14.685  -4.598   6.615  1.00  0.00    -0.248 NA
ATOM     55  C   UNL     1     -13.718  -6.247   7.958  1.00  0.00     0.031 C 
ATOM     56  C   UNL     1     -18.471  -2.482   7.597  1.00  0.00     0.029 A 
ATOM     57  C   UNL     1     -17.297  -3.159   7.309  1.00  0.00     0.049 A 
ATOM     58  H   UNL     1     -15.993  -2.919   5.667  1.00  0.00     0.167 HD
ATOM     59  C   UNL     1     -15.496  -4.816   7.723  1.00  0.00     0.074 A 
ATOM     60  C   UNL     1     -14.865  -5.863   8.501  1.00  0.00     0.031 C 
ATOM     61  C   UNL     1     -16.659  -4.207   8.065  1.00  0.00     0.037 A 
BRANCH  48  62
ATOM     62  C   UNL     1     -18.504   0.155   4.085  1.00  0.00     0.058 A 
ATOM     63  C   UNL     1     -19.408  -0.011   3.023  1.00  0.00     0.135 A 
ATOM     64  C   UNL     1     -18.585   1.341   4.833  1.00  0.00     0.135 A 
ATOM     65  F   UNL     1     -19.364  -1.119   2.265  1.00  0.00    -0.206 F 
ATOM     66  C   UNL     1     -20.334   0.973   2.693  1.00  0.00     0.059 A 
ATOM     67  C   UNL     1     -19.522   2.328   4.538  1.00  0.00     0.059 A 
ATOM     68  F   UNL     1     -17.747   1.552   5.860  1.00  0.00    -0.206 F 
ATOM     69  C   UNL     1     -20.381   2.142   3.456  1.00  0.00     0.060 A 
BRANCH  69  70
ATOM     70  S   UNL     1     -21.587   3.411   3.015  1.00  0.00     0.124 S 
ATOM     71  O   UNL     1     -20.977   3.989   1.822  1.00  0.00    -0.237 OA
ATOM     72  O   UNL     1     -22.799   2.629   2.791  1.00  0.00    -0.237 OA
ATOM     73  O   UNL     1     -21.612   4.277   4.190  1.00  0.00    -0.744 OA
ENDBRANCH  69  70
ENDBRANCH  48  62
BRANCH  49  74
ATOM     74  C   UNL     1     -11.453  -6.636   6.136  1.00  0.00     0.058 A 
ATOM     75  C   UNL     1     -11.717  -8.012   6.079  1.00  0.00     0.135 A 
ATOM     76  C   UNL     1     -10.156  -6.233   6.489  1.00  0.00     0.135 A 
ATOM     77  F   UNL     1     -12.944  -8.446   5.751  1.00  0.00    -0.206 F 
ATOM     78  C   UNL     1     -10.739  -8.956   6.375  1.00  0.00     0.059 A 
ATOM     79  C   UNL     1      -9.154  -7.157   6.767  1.00  0.00     0.059 A 
ATOM     80  F   UNL     1      -9.848  -4.928   6.540  1.00  0.00    -0.206 F 
ATOM     81  C   UNL     1      -9.458  -8.518   6.717  1.00  0.00     0.060 A 
BRANCH  81  82
ATOM     82  S   UNL     1      -8.180  -9.749   7.048  1.00  0.00     0.124 S 
ATOM     83  O   UNL     1      -8.558 -10.215   8.377  1.00  0.00    -0.237 OA
ATOM     84  O   UNL     1      -8.376 -10.699   5.958  1.00  0.00    -0.237 OA
ATOM     85  O   UNL     1      -6.944  -8.975   6.978  1.00  0.00    -0.744 OA
ENDBRANCH  81  82
ENDBRANCH  49  74
BRANCH  61  86
ATOM     86  C   UNL     1     -17.342  -4.684   9.316  1.00  0.00     0.058 A 
ATOM     87  C   UNL     1     -16.851  -4.365  10.591  1.00  0.00     0.135 A 
ATOM     88  C   UNL     1     -18.523  -5.438   9.235  1.00  0.00     0.135 A 
ATOM     89  F   UNL     1     -15.721  -3.652  10.722  1.00  0.00    -0.206 F 
ATOM     90  C   UNL     1     -17.494  -4.801  11.745  1.00  0.00     0.059 A 
ATOM     91  C   UNL     1     -19.196  -5.863  10.376  1.00  0.00     0.059 A 
ATOM     92  F   UNL     1     -19.040  -5.760   8.038  1.00  0.00    -0.206 F 
ATOM     93  C   UNL     1     -18.665  -5.552  11.627  1.00  0.00     0.060 A 
BRANCH  93  94
ATOM     94  S   UNL     1     -19.503  -6.095  13.131  1.00  0.00     0.124 S 
ATOM     95  O   UNL     1     -18.657  -7.205  13.553  1.00  0.00    -0.237 OA
ATOM     96  O   UNL     1     -19.450  -4.901  13.970  1.00  0.00    -0.237 OA
ATOM     97  O   UNL     1     -20.836  -6.463  12.661  1.00  0.00    -0.744 OA
ENDBRANCH  93  94
ENDBRANCH  61  86
ENDBRANCH  35  36
ENDBRANCH  27  30
ENDBRANCH  25  26
ENDBRANCH  24  25
ENDBRANCH   1  24
TORSDOF 17
