REMARK SMILES C[C@@H](C(=O)NCCCNC(=O)c1ccc(-c2c3nc(c(-c4c(F)cc(S(=O)(=O)[O-])cc4F)c4ccc([nH]4)c(-c4c(F)cc(S(=O)(=O)[O-])cc4F)c4nc(c(-c5c(F)cc(S(=O)(=O)[O-])cc5F)c5ccc2[nH]5)C=C4)C=C3)cc1)[C@H]1CCOC2(CCCCC2)C1
REMARK SMILES IDX 8 1 7 2 6 3 5 4 3 5 4 6 2 8 1 9 78 10 79 11 88 12 80 13
REMARK SMILES IDX 82 14 81 15 83 16 87 17 84 18 86 19 85 20 9 21 10 22 11 24
REMARK SMILES IDX 12 25 13 26 77 27 14 28 76 29 15 30 16 31 17 32 70 33 18 34
REMARK SMILES IDX 75 35 69 36 71 37 19 38 74 39 68 40 67 41 20 43 54 44 33 45
REMARK SMILES IDX 53 46 34 47 37 48 52 49 72 50 35 51 36 52 51 54 73 55 38 56
REMARK SMILES IDX 21 57 22 58 31 59 23 60 24 61 30 62 32 63 25 64 26 65 27 66
REMARK SMILES IDX 28 67 29 68 55 69 56 70 65 71 57 72 58 73 64 74 66 75 59 76
REMARK SMILES IDX 60 77 61 78 62 79 63 80 39 81 40 82 49 83 41 84 42 85 48 86
REMARK SMILES IDX 50 87 43 88 44 89 45 90 46 91 47 92
REMARK H PARENT 5 7 9 23 71 42 37 53
REMARK Flexibility Score: inf
ROOT
ATOM      1  C   UNL     1      -4.270   3.168  -3.660  1.00  0.00     0.118 C 
ENDROOT
BRANCH   1   2
ATOM      2  C   UNL     1      -3.243   2.078  -3.944  1.00  0.00     0.042 C 
BRANCH   2   3
ATOM      3  C   UNL     1      -2.043   2.069  -2.997  1.00  0.00     0.117 C 
BRANCH   3   4
ATOM      4  N   UNL     1      -2.450   1.921  -1.612  1.00  0.00    -0.356 N 
ATOM      5  C   UNL     1      -2.468   0.834  -0.793  1.00  0.00     0.223 C 
ATOM      6  O   UNL     1      -3.088   0.968   0.261  1.00  0.00    -0.275 OA
ATOM      7  H   UNL     1      -2.768   2.753  -1.191  1.00  0.00     0.163 HD
BRANCH   5   8
ATOM      8  C   UNL     1      -1.774  -0.472  -1.220  1.00  0.00     0.078 C 
ATOM      9  C   UNL     1      -2.665  -1.189  -2.243  1.00  0.00     0.018 C 
BRANCH   8  10
ATOM     10  C   UNL     1      -1.245  -1.410  -0.065  1.00  0.00     0.006 C 
ATOM     11  C   UNL     1      -1.688  -1.065   1.365  1.00  0.00     0.033 C 
ATOM     12  C   UNL     1      -1.528  -2.907  -0.303  1.00  0.00     0.040 C 
ATOM     13  C   UNL     1      -1.117  -2.030   2.393  1.00  0.00     0.161 C 
ATOM     14  C   UNL     1      -0.999  -3.838   0.804  1.00  0.00     0.069 C 
ATOM     15  O   UNL     1      -1.444  -3.380   2.087  1.00  0.00    -0.375 OA
ATOM     16  C   UNL     1       0.539  -3.970   0.755  1.00  0.00     0.035 C 
ATOM     17  C   UNL     1      -1.625  -5.237   0.598  1.00  0.00     0.035 C 
ATOM     18  C   UNL     1       1.059  -4.981   1.778  1.00  0.00     0.003 C 
ATOM     19  C   UNL     1      -1.106  -6.267   1.601  1.00  0.00     0.003 C 
ATOM     20  C   UNL     1       0.416  -6.350   1.584  1.00  0.00     0.000 C 
ENDBRANCH   8  10
ENDBRANCH   5   8
ENDBRANCH   3   4
ENDBRANCH   2   3
ENDBRANCH   1   2
BRANCH   1  21
ATOM     21  N   UNL     1      -3.740   4.501  -3.881  1.00  0.00    -0.352 N 
ATOM     22  C   UNL     1      -4.215   5.506  -4.684  1.00  0.00     0.251 C 
ATOM     23  H   UNL     1      -2.920   4.715  -3.381  1.00  0.00     0.163 HD
ATOM     24  O   UNL     1      -3.505   6.492  -4.885  1.00  0.00    -0.269 OA
BRANCH  22  25
ATOM     25  C   UNL     1      -5.551   5.414  -5.315  1.00  0.00     0.039 A 
ATOM     26  C   UNL     1      -5.713   5.907  -6.612  1.00  0.00     0.014 A 
ATOM     27  C   UNL     1      -6.657   4.905  -4.623  1.00  0.00     0.014 A 
ATOM     28  C   UNL     1      -6.970   5.872  -7.221  1.00  0.00     0.010 A 
ATOM     29  C   UNL     1      -7.891   4.798  -5.260  1.00  0.00     0.010 A 
ATOM     30  C   UNL     1      -8.068   5.309  -6.554  1.00  0.00    -0.014 A 
BRANCH  30  31
ATOM     31  C   UNL     1      -9.419   5.312  -7.173  1.00  0.00     0.031 A 
ATOM     32  C   UNL     1     -10.529   6.120  -6.551  1.00  0.00     0.074 A 
ATOM     33  C   UNL     1      -9.658   4.571  -8.272  1.00  0.00     0.049 A 
ATOM     34  N   UNL     1     -11.778   6.236  -6.924  1.00  0.00    -0.248 NA
ATOM     35  C   UNL     1     -10.196   6.875  -5.332  1.00  0.00     0.031 C 
ATOM     36  C   UNL     1      -8.683   3.703  -8.935  1.00  0.00     0.029 A 
ATOM     37  N   UNL     1     -10.797   4.426  -9.023  1.00  0.00    -0.354 N 
ATOM     38  C   UNL     1     -12.380   7.063  -5.982  1.00  0.00     0.074 A 
ATOM     39  C   UNL     1     -11.376   7.369  -4.987  1.00  0.00     0.031 C 
ATOM     40  C   UNL     1      -9.260   3.131 -10.005  1.00  0.00     0.029 A 
ATOM     41  C   UNL     1     -10.649   3.574 -10.091  1.00  0.00     0.049 A 
ATOM     42  H   UNL     1     -11.641   4.889  -8.816  1.00  0.00     0.167 HD
ATOM     43  C   UNL     1     -13.644   7.551  -5.962  1.00  0.00     0.037 A 
ATOM     44  C   UNL     1     -11.531   3.197 -11.037  1.00  0.00     0.037 A 
ATOM     45  C   UNL     1     -14.632   7.265  -6.968  1.00  0.00     0.049 A 
ATOM     46  C   UNL     1     -12.916   3.785 -11.023  1.00  0.00     0.074 A 
ATOM     47  C   UNL     1     -15.932   7.732  -7.060  1.00  0.00     0.029 A 
ATOM     48  N   UNL     1     -14.425   6.442  -8.066  1.00  0.00    -0.354 N 
ATOM     49  N   UNL     1     -13.454   4.605 -10.151  1.00  0.00    -0.248 NA
ATOM     50  C   UNL     1     -13.806   3.416 -12.132  1.00  0.00     0.031 C 
ATOM     51  C   UNL     1     -16.518   7.172  -8.202  1.00  0.00     0.029 A 
ATOM     52  C   UNL     1     -15.571   6.389  -8.842  1.00  0.00     0.049 A 
ATOM     53  H   UNL     1     -13.586   5.966  -8.265  1.00  0.00     0.167 HD
ATOM     54  C   UNL     1     -14.736   4.871 -10.620  1.00  0.00     0.074 A 
ATOM     55  C   UNL     1     -14.887   4.133 -11.859  1.00  0.00     0.031 C 
ATOM     56  C   UNL     1     -15.699   5.657 -10.078  1.00  0.00     0.037 A 
BRANCH  43  57
ATOM     57  C   UNL     1     -14.015   8.452  -4.815  1.00  0.00     0.058 A 
ATOM     58  C   UNL     1     -13.476   9.744  -4.693  1.00  0.00     0.135 A 
ATOM     59  C   UNL     1     -14.915   8.024  -3.826  1.00  0.00     0.135 A 
ATOM     60  F   UNL     1     -12.599  10.199  -5.602  1.00  0.00    -0.206 F 
ATOM     61  C   UNL     1     -13.780  10.561  -3.609  1.00  0.00     0.059 A 
ATOM     62  C   UNL     1     -15.256   8.836  -2.748  1.00  0.00     0.059 A 
ATOM     63  F   UNL     1     -15.462   6.800  -3.893  1.00  0.00    -0.206 F 
ATOM     64  C   UNL     1     -14.667  10.095  -2.638  1.00  0.00     0.060 A 
BRANCH  64  65
ATOM     65  S   UNL     1     -15.036  11.157  -1.225  1.00  0.00     0.124 S 
ATOM     66  O   UNL     1     -13.820  11.015  -0.430  1.00  0.00    -0.237 OA
ATOM     67  O   UNL     1     -15.233  12.460  -1.853  1.00  0.00    -0.237 OA
ATOM     68  O   UNL     1     -16.235  10.554  -0.652  1.00  0.00    -0.744 OA
ENDBRANCH  64  65
ENDBRANCH  43  57
BRANCH  44  69
ATOM     69  C   UNL     1     -11.110   2.247 -12.099  1.00  0.00     0.058 A 
ATOM     70  C   UNL     1     -10.883   2.684 -13.412  1.00  0.00     0.135 A 
ATOM     71  C   UNL     1     -10.889   0.891 -11.813  1.00  0.00     0.135 A 
ATOM     72  F   UNL     1     -11.084   3.971 -13.734  1.00  0.00    -0.206 F 
ATOM     73  C   UNL     1     -10.463   1.810 -14.409  1.00  0.00     0.059 A 
ATOM     74  C   UNL     1     -10.448   0.002 -12.788  1.00  0.00     0.059 A 
ATOM     75  F   UNL     1     -11.073   0.428 -10.567  1.00  0.00    -0.206 F 
ATOM     76  C   UNL     1     -10.244   0.470 -14.085  1.00  0.00     0.060 A 
BRANCH  76  77
ATOM     77  S   UNL     1      -9.632  -0.644 -15.369  1.00  0.00     0.124 S 
ATOM     78  O   UNL     1     -10.832  -0.856 -16.170  1.00  0.00    -0.237 OA
ATOM     79  O   UNL     1      -8.580   0.153 -15.992  1.00  0.00    -0.237 OA
ATOM     80  O   UNL     1      -9.164  -1.801 -14.612  1.00  0.00    -0.744 OA
ENDBRANCH  76  77
ENDBRANCH  44  69
BRANCH  56  81
ATOM     81  C   UNL     1     -16.986   5.793 -10.841  1.00  0.00     0.058 A 
ATOM     82  C   UNL     1     -17.925   4.752 -10.902  1.00  0.00     0.135 A 
ATOM     83  C   UNL     1     -17.298   6.998 -11.493  1.00  0.00     0.135 A 
ATOM     84  F   UNL     1     -17.673   3.580 -10.298  1.00  0.00    -0.206 F 
ATOM     85  C   UNL     1     -19.115   4.888 -11.610  1.00  0.00     0.059 A 
ATOM     86  C   UNL     1     -18.493   7.164 -12.185  1.00  0.00     0.059 A 
ATOM     87  F   UNL     1     -16.440   8.029 -11.454  1.00  0.00    -0.206 F 
ATOM     88  C   UNL     1     -19.388   6.097 -12.252  1.00  0.00     0.060 A 
BRANCH  88  89
ATOM     89  S   UNL     1     -20.940   6.269 -13.157  1.00  0.00     0.124 S 
ATOM     90  O   UNL     1     -20.651   5.522 -14.377  1.00  0.00    -0.237 OA
ATOM     91  O   UNL     1     -21.904   5.654 -12.250  1.00  0.00    -0.237 OA
ATOM     92  O   UNL     1     -21.078   7.713 -13.322  1.00  0.00    -0.744 OA
ENDBRANCH  88  89
ENDBRANCH  56  81
ENDBRANCH  30  31
ENDBRANCH  22  25
ENDBRANCH   1  21
TORSDOF 14
