REMARK SMILES CC[C@@H]1CCC[N@H+]([C@@H]2CC[C@]([NH2+]C3CC3)(C(=O)NCCCNC(=O)c3ccc(-c4c5nc(c(-c6c(F)cc(S(=O)(=O)[O-])cc6F)c6ccc([nH]6)c(-c6c(F)cc(S(=O)(=O)[O-])cc6F)c6nc(c(-c7c(F)cc(S(=O)(=O)[O-])cc7F)c7ccc4[nH]7)C=C6)C=C5)cc3)C2)CC1
REMARK SMILES IDX 19 1 18 2 16 3 17 4 11 6 8 7 9 8 91 9 10 10 7 11 92 13 93 14
REMARK SMILES IDX 3 15 2 17 1 18 6 19 5 20 4 21 12 23 13 26 14 27 15 28 20 29
REMARK SMILES IDX 21 30 22 31 23 32 24 34 25 35 26 36 90 37 27 38 89 39 28 40
REMARK SMILES IDX 29 41 30 42 83 43 31 44 88 45 82 46 84 47 32 48 87 49 81 50
REMARK SMILES IDX 80 51 33 53 67 54 46 55 66 56 47 57 50 58 65 59 85 60 48 61
REMARK SMILES IDX 49 62 64 64 86 65 51 66 34 67 35 68 44 69 36 70 37 71 43 72
REMARK SMILES IDX 45 73 38 74 39 75 40 76 41 77 42 78 68 79 69 80 78 81 70 82
REMARK SMILES IDX 71 83 77 84 79 85 72 86 73 87 74 88 75 89 76 90 52 91 53 92
REMARK SMILES IDX 62 93 54 94 55 95 61 96 63 97 56 98 57 99 58 100 59 101
REMARK SMILES IDX 60 102
REMARK H PARENT 18 5 7 12 12 24 12 25 22 33 84 52 50 63
REMARK Flexibility Score: 90.00
ROOT
ATOM      1  C   UNL     1       3.166   3.438 -10.390  1.00  0.00     0.118 C 
ENDROOT
BRANCH   1   2
ATOM      2  N   UNL     1       4.203   3.724  -9.415  1.00  0.00    -0.351 N 
ATOM      3  C   UNL     1       4.791   2.938  -8.473  1.00  0.00     0.281 C 
ATOM      4  O   UNL     1       5.686   3.486  -7.816  1.00  0.00    -0.268 OA
ATOM      5  H   UNL     1       4.540   4.649  -9.441  1.00  0.00     0.163 HD
BRANCH   3   6
ATOM      6  C   UNL     1       4.338   1.470  -8.180  1.00  0.00     0.181 C 
ATOM      7  C   UNL     1       3.285   0.271  -6.333  1.00  0.00     0.191 C 
ATOM      8  C   UNL     1       4.797   0.187  -6.101  1.00  0.00     0.072 C 
ATOM      9  C   UNL     1       3.119   1.512  -7.221  1.00  0.00     0.144 C 
ATOM     10  C   UNL     1       5.450   0.751  -7.359  1.00  0.00     0.085 C 
BRANCH   7  11
ATOM     11  N   UNL     1       2.454   0.144  -5.122  1.00  0.00    -0.332 N 
ATOM     12  H   UNL     1       1.478   0.163  -5.417  1.00  0.00     0.348 HD
BRANCH  11  13
ATOM     13  C   UNL     1       2.506   1.306  -4.229  1.00  0.00     0.262 C 
BRANCH  13  14
ATOM     14  C   UNL     1       2.246   1.104  -2.726  1.00  0.00     0.065 C 
BRANCH  14  15
ATOM     15  C   UNL     1       0.920   0.400  -2.395  1.00  0.00    -0.006 CG0
ATOM     16  G   UNL     1       1.062  -1.126  -2.466  1.00  0.00     0.000 G0
BRANCH  15  17
ATOM     17  C   UNL     1       0.391   0.839  -1.008  1.00  0.00     0.000 C 
ATOM     18  C   UNL     1       1.097   0.217   0.191  1.00  0.00     0.004 C 
ENDBRANCH  15  17
ENDBRANCH  14  15
ENDBRANCH  13  14
ENDBRANCH  11  13
BRANCH  11  19
ATOM     19  C   UNL     1       2.646  -1.163  -4.488  1.00  0.00     0.262 C 
BRANCH  19  20
ATOM     20  C   UNL     1       1.360  -1.683  -3.849  1.00  0.00     0.062 C 
BRANCH  20  21
ATOM     21  C   UNL     1       1.062  -1.126  -2.466  1.00  0.00     0.009 CG0
ATOM     22  G   UNL     1       0.920   0.400  -2.395  1.00  0.00     0.000 G0
ENDBRANCH  20  21
ENDBRANCH  19  20
ENDBRANCH  11  19
ENDBRANCH   7  11
BRANCH   6  23
ATOM     23  N   UNL     1       4.120   0.752  -9.470  1.00  0.00    -0.331 N 
ATOM     24  H   UNL     1       5.005   0.755  -9.978  1.00  0.00     0.347 HD
ATOM     25  H   UNL     1       3.361   1.255  -9.931  1.00  0.00     0.347 HD
BRANCH  23  26
ATOM     26  C   UNL     1       3.662  -0.640  -9.385  1.00  0.00     0.183 C 
ATOM     27  C   UNL     1       2.199  -0.941  -9.564  1.00  0.00     0.071 C 
ATOM     28  C   UNL     1       3.182  -1.342 -10.623  1.00  0.00     0.071 C 
ENDBRANCH  23  26
ENDBRANCH   6  23
ENDBRANCH   3   6
ENDBRANCH   1   2
BRANCH   1  29
ATOM     29  C   UNL     1       2.249   4.635 -10.634  1.00  0.00     0.042 C 
BRANCH  29  30
ATOM     30  C   UNL     1       2.926   5.920 -11.107  1.00  0.00     0.118 C 
BRANCH  30  31
ATOM     31  N   UNL     1       3.531   5.820 -12.425  1.00  0.00    -0.352 N 
ATOM     32  C   UNL     1       3.386   6.639 -13.522  1.00  0.00     0.251 C 
ATOM     33  H   UNL     1       4.134   5.052 -12.552  1.00  0.00     0.163 HD
ATOM     34  O   UNL     1       3.906   6.315 -14.589  1.00  0.00    -0.269 OA
BRANCH  32  35
ATOM     35  C   UNL     1       2.582   7.883 -13.442  1.00  0.00     0.039 A 
ATOM     36  C   UNL     1       1.694   8.175 -14.482  1.00  0.00     0.014 A 
ATOM     37  C   UNL     1       2.699   8.765 -12.365  1.00  0.00     0.014 A 
ATOM     38  C   UNL     1       0.870   9.303 -14.402  1.00  0.00     0.010 A 
ATOM     39  C   UNL     1       1.826   9.849 -12.252  1.00  0.00     0.010 A 
ATOM     40  C   UNL     1       0.895  10.128 -13.265  1.00  0.00    -0.014 A 
BRANCH  40  41
ATOM     41  C   UNL     1      -0.059  11.262 -13.113  1.00  0.00     0.031 A 
ATOM     42  C   UNL     1       0.445  12.679 -13.011  1.00  0.00     0.074 A 
ATOM     43  C   UNL     1      -1.381  11.011 -13.002  1.00  0.00     0.049 A 
ATOM     44  N   UNL     1      -0.230  13.781 -12.804  1.00  0.00    -0.248 NA
ATOM     45  C   UNL     1       1.897  12.883 -13.135  1.00  0.00     0.031 C 
ATOM     46  C   UNL     1      -1.995   9.681 -13.035  1.00  0.00     0.029 A 
ATOM     47  N   UNL     1      -2.447  11.859 -12.823  1.00  0.00    -0.354 N 
ATOM     48  C   UNL     1       0.711  14.803 -12.756  1.00  0.00     0.074 A 
ATOM     49  C   UNL     1       2.010  14.187 -12.916  1.00  0.00     0.031 C 
ATOM     50  C   UNL     1      -3.325   9.804 -12.894  1.00  0.00     0.029 A 
ATOM     51  C   UNL     1      -3.659  11.214 -12.718  1.00  0.00     0.049 A 
ATOM     52  H   UNL     1      -2.354  12.838 -12.775  1.00  0.00     0.167 HD
ATOM     53  C   UNL     1       0.510  16.135 -12.610  1.00  0.00     0.037 A 
ATOM     54  C   UNL     1      -4.896  11.696 -12.486  1.00  0.00     0.037 A 
ATOM     55  C   UNL     1      -0.787  16.749 -12.485  1.00  0.00     0.049 A 
ATOM     56  C   UNL     1      -5.089  13.182 -12.327  1.00  0.00     0.074 A 
ATOM     57  C   UNL     1      -1.093  18.098 -12.409  1.00  0.00     0.029 A 
ATOM     58  N   UNL     1      -1.990  16.064 -12.413  1.00  0.00    -0.354 N 
ATOM     59  N   UNL     1      -4.192  14.138 -12.367  1.00  0.00    -0.248 NA
ATOM     60  C   UNL     1      -6.462  13.657 -12.100  1.00  0.00     0.031 C 
ATOM     61  C   UNL     1      -2.474  18.226 -12.234  1.00  0.00     0.029 A 
ATOM     62  C   UNL     1      -3.036  16.960 -12.264  1.00  0.00     0.049 A 
ATOM     63  H   UNL     1      -2.087  15.085 -12.460  1.00  0.00     0.167 HD
ATOM     64  C   UNL     1      -4.897  15.327 -12.204  1.00  0.00     0.074 A 
ATOM     65  C   UNL     1      -6.294  14.972 -12.080  1.00  0.00     0.031 C 
ATOM     66  C   UNL     1      -4.427  16.598 -12.161  1.00  0.00     0.037 A 
BRANCH  53  67
ATOM     67  C   UNL     1       1.712  17.039 -12.581  1.00  0.00     0.058 A 
ATOM     68  C   UNL     1       2.462  17.308 -13.737  1.00  0.00     0.135 A 
ATOM     69  C   UNL     1       2.057  17.725 -11.404  1.00  0.00     0.135 A 
ATOM     70  F   UNL     1       2.187  16.670 -14.885  1.00  0.00    -0.206 F 
ATOM     71  C   UNL     1       3.512  18.221 -13.726  1.00  0.00     0.059 A 
ATOM     72  C   UNL     1       3.085  18.662 -11.377  1.00  0.00     0.059 A 
ATOM     73  F   UNL     1       1.374  17.504 -10.269  1.00  0.00    -0.206 F 
ATOM     74  C   UNL     1       3.810  18.901 -12.543  1.00  0.00     0.060 A 
BRANCH  74  75
ATOM     75  S   UNL     1       5.140  20.122 -12.564  1.00  0.00     0.124 S 
ATOM     76  O   UNL     1       6.317  19.268 -12.691  1.00  0.00    -0.237 OA
ATOM     77  O   UNL     1       4.808  20.922 -13.737  1.00  0.00    -0.237 OA
ATOM     78  O   UNL     1       4.997  20.804 -11.281  1.00  0.00    -0.744 OA
ENDBRANCH  74  75
ENDBRANCH  53  67
BRANCH  54  79
ATOM     79  C   UNL     1      -6.059  10.770 -12.376  1.00  0.00     0.058 A 
ATOM     80  C   UNL     1      -7.088  10.777 -13.330  1.00  0.00     0.135 A 
ATOM     81  C   UNL     1      -6.181   9.883 -11.295  1.00  0.00     0.135 A 
ATOM     82  F   UNL     1      -7.022  11.610 -14.380  1.00  0.00    -0.206 F 
ATOM     83  C   UNL     1      -8.214   9.970 -13.197  1.00  0.00     0.059 A 
ATOM     84  C   UNL     1      -7.281   9.042 -11.157  1.00  0.00     0.059 A 
ATOM     85  F   UNL     1      -5.217   9.820 -10.363  1.00  0.00    -0.206 F 
ATOM     86  C   UNL     1      -8.303   9.108 -12.103  1.00  0.00     0.060 A 
BRANCH  86  87
ATOM     87  S   UNL     1      -9.765   8.061 -11.940  1.00  0.00     0.124 S 
ATOM     88  O   UNL     1     -10.777   9.032 -11.541  1.00  0.00    -0.237 OA
ATOM     89  O   UNL     1      -9.901   7.512 -13.285  1.00  0.00    -0.237 OA
ATOM     90  O   UNL     1      -9.374   7.098 -10.914  1.00  0.00    -0.744 OA
ENDBRANCH  86  87
ENDBRANCH  54  79
BRANCH  66  91
ATOM     91  C   UNL     1      -5.432  17.710 -12.022  1.00  0.00     0.058 A 
ATOM     92  C   UNL     1      -6.126  17.939 -10.824  1.00  0.00     0.135 A 
ATOM     93  C   UNL     1      -5.662  18.593 -13.091  1.00  0.00     0.135 A 
ATOM     94  F   UNL     1      -5.949  17.122  -9.773  1.00  0.00    -0.206 F 
ATOM     95  C   UNL     1      -7.032  18.988 -10.698  1.00  0.00     0.059 A 
ATOM     96  C   UNL     1      -6.539  19.667 -12.976  1.00  0.00     0.059 A 
ATOM     97  F   UNL     1      -5.017  18.427 -14.256  1.00  0.00    -0.206 F 
ATOM     98  C   UNL     1      -7.229  19.849 -11.779  1.00  0.00     0.060 A 
BRANCH  98  99
ATOM     99  S   UNL     1      -8.380  21.227 -11.590  1.00  0.00     0.124 S 
ATOM    100  O   UNL     1      -9.667  20.539 -11.606  1.00  0.00    -0.237 OA
ATOM    101  O   UNL     1      -7.980  21.794 -10.306  1.00  0.00    -0.237 OA
ATOM    102  O   UNL     1      -8.102  22.065 -12.752  1.00  0.00    -0.744 OA
ENDBRANCH  98  99
ENDBRANCH  66  91
ENDBRANCH  40  41
ENDBRANCH  32  35
ENDBRANCH  30  31
ENDBRANCH  29  30
ENDBRANCH   1  29
TORSDOF 17
