REMARK SMILES O=C(NCCCNC(=O)c1ccccc1C[N@H+]1CCCC[C@@H]1CCn1cccn1)c1ccc(-c2c3nc(c(-c4c(F)cc(S(=O)(=O)[O-])cc4F)c4ccc([nH]4)c(-c4c(F)cc(S(=O)(=O)[O-])cc4F)c4nc(c(-c5c(F)cc(S(=O)(=O)[O-])cc5F)c5ccc2[nH]5)C=C4)C=C3)cc1
REMARK SMILES IDX 6 1 5 2 4 3 3 4 1 5 2 6 30 8 31 9 95 10 32 11 94 12 33 13
REMARK SMILES IDX 34 14 35 15 88 16 36 17 93 18 87 19 89 20 37 21 92 22 86 23
REMARK SMILES IDX 85 24 38 26 72 27 51 28 71 29 52 30 55 31 70 32 90 33 53 34
REMARK SMILES IDX 54 35 69 37 91 38 56 39 39 40 40 41 49 42 41 43 42 44 48 45
REMARK SMILES IDX 50 46 43 47 44 48 45 49 46 50 47 51 73 52 74 53 83 54 75 55
REMARK SMILES IDX 76 56 82 57 84 58 77 59 78 60 79 61 80 62 81 63 57 64 58 65
REMARK SMILES IDX 67 66 59 67 60 68 66 69 68 70 61 71 62 72 63 73 64 74 65 75
REMARK SMILES IDX 7 76 8 77 9 79 10 80 11 81 15 82 12 83 14 84 13 85 16 86
REMARK SMILES IDX 17 87 18 88 22 89 19 91 21 92 20 93 23 94 24 95 25 96 26 97
REMARK SMILES IDX 29 98 27 99 28 100
REMARK H PARENT 3 7 89 25 55 36 7 78 17 90
REMARK Flexibility Score: inf
ROOT
ATOM      1  C   UNL     1       5.005   1.213   2.854  1.00  0.00     0.118 C 
ENDROOT
BRANCH   1   2
ATOM      2  C   UNL     1       5.382   1.010   1.393  1.00  0.00     0.042 C 
BRANCH   2   3
ATOM      3  C   UNL     1       4.735  -0.186   0.700  1.00  0.00     0.118 C 
BRANCH   3   4
ATOM      4  N   UNL     1       3.293  -0.279   0.822  1.00  0.00    -0.352 N 
ATOM      5  O   UNL     1       1.166  -0.488   0.305  1.00  0.00    -0.269 OA
ATOM      6  C   UNL     1       2.231   0.077   0.035  1.00  0.00     0.251 C 
ATOM      7  H   UNL     1       3.013  -0.695   1.668  1.00  0.00     0.163 HD
BRANCH   6   8
ATOM      8  C   UNL     1       2.232   1.119  -1.032  1.00  0.00     0.039 A 
ATOM      9  C   UNL     1       3.329   1.873  -1.442  1.00  0.00     0.014 A 
ATOM     10  C   UNL     1       0.975   1.409  -1.606  1.00  0.00     0.014 A 
ATOM     11  C   UNL     1       3.155   2.939  -2.333  1.00  0.00     0.010 A 
ATOM     12  C   UNL     1       0.797   2.467  -2.495  1.00  0.00     0.010 A 
ATOM     13  C   UNL     1       1.884   3.261  -2.836  1.00  0.00    -0.014 A 
BRANCH  13  14
ATOM     14  C   UNL     1       1.778   4.286  -3.881  1.00  0.00     0.031 A 
ATOM     15  C   UNL     1       2.487   3.910  -5.136  1.00  0.00     0.074 A 
ATOM     16  C   UNL     1       1.027   5.410  -3.839  1.00  0.00     0.049 A 
ATOM     17  N   UNL     1       3.581   4.417  -5.601  1.00  0.00    -0.248 NA
ATOM     18  C   UNL     1       2.015   2.731  -5.878  1.00  0.00     0.031 C 
ATOM     19  C   UNL     1       0.040   5.806  -2.834  1.00  0.00     0.029 A 
ATOM     20  N   UNL     1       0.943   6.425  -4.755  1.00  0.00    -0.354 N 
ATOM     21  C   UNL     1       3.812   3.779  -6.817  1.00  0.00     0.074 A 
ATOM     22  C   UNL     1       2.932   2.640  -6.844  1.00  0.00     0.031 C 
ATOM     23  C   UNL     1      -0.685   6.853  -3.300  1.00  0.00     0.029 A 
ATOM     24  C   UNL     1      -0.131   7.296  -4.571  1.00  0.00     0.049 A 
ATOM     25  H   UNL     1       1.591   6.532  -5.488  1.00  0.00     0.167 HD
ATOM     26  C   UNL     1       4.546   4.375  -7.799  1.00  0.00     0.037 A 
ATOM     27  C   UNL     1      -0.549   8.286  -5.410  1.00  0.00     0.037 A 
ATOM     28  C   UNL     1       5.308   5.482  -7.275  1.00  0.00     0.049 A 
ATOM     29  C   UNL     1       0.597   8.636  -6.286  1.00  0.00     0.074 A 
ATOM     30  C   UNL     1       6.265   5.628  -6.288  1.00  0.00     0.029 A 
ATOM     31  N   UNL     1       4.849   6.749  -7.537  1.00  0.00    -0.354 N 
ATOM     32  N   UNL     1       1.682   9.223  -5.866  1.00  0.00    -0.248 NA
ATOM     33  C   UNL     1       0.717   7.932  -7.552  1.00  0.00     0.031 C 
ATOM     34  C   UNL     1       5.966   6.877  -5.669  1.00  0.00     0.029 A 
ATOM     35  C   UNL     1       4.901   7.452  -6.362  1.00  0.00     0.049 A 
ATOM     36  H   UNL     1       4.539   7.089  -8.407  1.00  0.00     0.167 HD
ATOM     37  C   UNL     1       2.707   8.588  -6.549  1.00  0.00     0.074 A 
ATOM     38  C   UNL     1       2.048   7.865  -7.636  1.00  0.00     0.031 C 
ATOM     39  C   UNL     1       3.955   8.484  -6.007  1.00  0.00     0.037 A 
BRANCH  26  40
ATOM     40  C   UNL     1       4.291   4.218  -9.282  1.00  0.00     0.058 A 
ATOM     41  C   UNL     1       5.188   4.808 -10.199  1.00  0.00     0.135 A 
ATOM     42  C   UNL     1       3.066   3.781  -9.831  1.00  0.00     0.135 A 
ATOM     43  F   UNL     1       6.384   5.263  -9.791  1.00  0.00    -0.206 F 
ATOM     44  C   UNL     1       4.858   5.025 -11.537  1.00  0.00     0.059 A 
ATOM     45  C   UNL     1       2.738   3.939 -11.174  1.00  0.00     0.059 A 
ATOM     46  F   UNL     1       2.086   3.266  -9.080  1.00  0.00    -0.206 F 
ATOM     47  C   UNL     1       3.622   4.599 -12.011  1.00  0.00     0.060 A 
BRANCH  47  48
ATOM     48  S   UNL     1       3.159   4.961 -13.713  1.00  0.00     0.124 S 
ATOM     49  O   UNL     1       3.004   6.404 -13.674  1.00  0.00    -0.237 OA
ATOM     50  O   UNL     1       4.313   4.455 -14.450  1.00  0.00    -0.237 OA
ATOM     51  O   UNL     1       1.926   4.192 -13.892  1.00  0.00    -0.744 OA
ENDBRANCH  47  48
ENDBRANCH  26  40
BRANCH  27  52
ATOM     52  C   UNL     1      -1.932   8.747  -5.735  1.00  0.00     0.058 A 
ATOM     53  C   UNL     1      -2.162   9.922  -6.483  1.00  0.00     0.135 A 
ATOM     54  C   UNL     1      -3.033   7.881  -5.602  1.00  0.00     0.135 A 
ATOM     55  F   UNL     1      -1.169  10.803  -6.680  1.00  0.00    -0.206 F 
ATOM     56  C   UNL     1      -3.387  10.187  -7.111  1.00  0.00     0.059 A 
ATOM     57  C   UNL     1      -4.265   8.128  -6.213  1.00  0.00     0.059 A 
ATOM     58  F   UNL     1      -2.915   6.714  -4.952  1.00  0.00    -0.206 F 
ATOM     59  C   UNL     1      -4.428   9.268  -6.991  1.00  0.00     0.060 A 
BRANCH  59  60
ATOM     60  S   UNL     1      -5.944   9.502  -7.955  1.00  0.00     0.124 S 
ATOM     61  O   UNL     1      -6.555  10.646  -7.287  1.00  0.00    -0.237 OA
ATOM     62  O   UNL     1      -5.426   9.749  -9.296  1.00  0.00    -0.237 OA
ATOM     63  O   UNL     1      -6.649   8.233  -7.788  1.00  0.00    -0.744 OA
ENDBRANCH  59  60
ENDBRANCH  27  52
BRANCH  39  64
ATOM     64  C   UNL     1       4.310   9.366  -4.839  1.00  0.00     0.058 A 
ATOM     65  C   UNL     1       3.654   9.373  -3.595  1.00  0.00     0.135 A 
ATOM     66  C   UNL     1       5.458  10.165  -4.962  1.00  0.00     0.135 A 
ATOM     67  F   UNL     1       2.616   8.559  -3.352  1.00  0.00    -0.206 F 
ATOM     68  C   UNL     1       4.090  10.184  -2.543  1.00  0.00     0.059 A 
ATOM     69  C   UNL     1       5.931  10.949  -3.916  1.00  0.00     0.059 A 
ATOM     70  F   UNL     1       6.164  10.159  -6.105  1.00  0.00    -0.206 F 
ATOM     71  C   UNL     1       5.229  10.970  -2.715  1.00  0.00     0.060 A 
BRANCH  71  72
ATOM     72  S   UNL     1       5.820  11.985  -1.343  1.00  0.00     0.124 S 
ATOM     73  O   UNL     1       4.795  13.019  -1.263  1.00  0.00    -0.237 OA
ATOM     74  O   UNL     1       5.850  11.034  -0.235  1.00  0.00    -0.237 OA
ATOM     75  O   UNL     1       7.132  12.441  -1.796  1.00  0.00    -0.744 OA
ENDBRANCH  71  72
ENDBRANCH  39  64
ENDBRANCH  13  14
ENDBRANCH   6   8
ENDBRANCH   3   4
ENDBRANCH   2   3
ENDBRANCH   1   2
BRANCH   1  76
ATOM     76  N   UNL     1       5.410   0.146   3.759  1.00  0.00    -0.352 N 
ATOM     77  C   UNL     1       5.880   0.226   5.053  1.00  0.00     0.251 C 
ATOM     78  H   UNL     1       5.337  -0.765   3.394  1.00  0.00     0.163 HD
ATOM     79  O   UNL     1       6.116  -0.806   5.678  1.00  0.00    -0.269 OA
BRANCH  77  80
ATOM     80  C   UNL     1       6.195   1.538   5.676  1.00  0.00     0.048 A 
ATOM     81  C   UNL     1       7.515   1.675   6.151  1.00  0.00     0.014 A 
ATOM     82  C   UNL     1       5.281   2.602   5.793  1.00  0.00     0.019 A 
ATOM     83  C   UNL     1       7.974   2.895   6.642  1.00  0.00     0.001 A 
ATOM     84  C   UNL     1       5.803   3.841   6.209  1.00  0.00     0.010 A 
ATOM     85  C   UNL     1       7.125   3.990   6.634  1.00  0.00     0.001 A 
BRANCH  82  86
ATOM     86  C   UNL     1       3.806   2.464   5.447  1.00  0.00     0.300 C 
BRANCH  86  87
ATOM     87  N   UNL     1       2.798   2.612   6.514  1.00  0.00    -0.329 N 
ATOM     88  C   UNL     1       2.973   1.560   7.530  1.00  0.00     0.262 C 
ATOM     89  C   UNL     1       2.662   3.958   7.117  1.00  0.00     0.186 C 
ATOM     90  H   UNL     1       1.902   2.494   6.041  1.00  0.00     0.348 HD
ATOM     91  C   UNL     1       1.804   1.523   8.510  1.00  0.00     0.062 C 
ATOM     92  C   UNL     1       1.461   3.958   8.089  1.00  0.00     0.065 C 
ATOM     93  C   UNL     1       1.598   2.881   9.158  1.00  0.00     0.012 C 
BRANCH  89  94
ATOM     94  C   UNL     1       2.477   5.098   6.074  1.00  0.00     0.088 C 
BRANCH  94  95
ATOM     95  C   UNL     1       2.452   6.532   6.635  1.00  0.00     0.150 C 
BRANCH  95  96
ATOM     96  N   UNL     1       3.672   6.984   7.285  1.00  0.00    -0.273 N 
ATOM     97  C   UNL     1       4.358   8.139   7.032  1.00  0.00     0.108 A 
ATOM     98  N   UNL     1       4.215   6.276   8.295  1.00  0.00    -0.182 NA
ATOM     99  C   UNL     1       5.470   8.113   7.843  1.00  0.00     0.042 A 
ATOM    100  C   UNL     1       5.344   6.926   8.579  1.00  0.00     0.135 A 
ENDBRANCH  95  96
ENDBRANCH  94  95
ENDBRANCH  89  94
ENDBRANCH  86  87
ENDBRANCH  82  86
ENDBRANCH  77  80
ENDBRANCH   1  76
TORSDOF 18
