REMARK SMILES Cc1nc(C[N@H+](C)[C@H](C)c2ccc(C(=O)NCCCNC(=O)c3ccc(-c4c5nc(c(-c6c(F)cc(S(=O)(=O)[O-])cc6F)c6ccc([nH]6)c(-c6c(F)cc(S(=O)(=O)[O-])cc6F)c6nc(c(-c7c(F)cc(S(=O)(=O)[O-])cc7F)c7ccc4[nH]7)C=C6)C=C5)cc3)o2)cs1
REMARK SMILES IDX 17 1 16 2 14 3 15 4 13 6 10 7 11 8 89 9 12 10 8 11 9 12 6 13
REMARK SMILES IDX 7 14 5 16 4 17 1 18 2 19 3 20 91 21 90 22 18 23 19 24 20 25
REMARK SMILES IDX 21 26 22 28 23 29 24 30 88 31 25 32 87 33 26 34 27 35 28 36
REMARK SMILES IDX 81 37 29 38 86 39 80 40 82 41 30 42 85 43 79 44 78 45 31 47
REMARK SMILES IDX 65 48 44 49 64 50 45 51 48 52 63 53 83 54 46 55 47 56 62 58
REMARK SMILES IDX 84 59 49 60 32 61 33 62 42 63 34 64 35 65 41 66 43 67 36 68
REMARK SMILES IDX 37 69 38 70 39 71 40 72 66 73 67 74 76 75 68 76 69 77 75 78
REMARK SMILES IDX 77 79 70 80 71 81 72 82 73 83 74 84 50 85 51 86 60 87 52 88
REMARK SMILES IDX 53 89 59 90 61 91 54 92 55 93 56 94 57 95 58 96
REMARK H PARENT 16 5 6 15 20 27 82 46 48 57
REMARK Flexibility Score: inf
ROOT
ATOM      1  C   UNL     1      -2.131   2.281  -2.456  1.00  0.00     0.118 C 
ENDROOT
BRANCH   1   2
ATOM      2  N   UNL     1      -0.772   2.796  -2.453  1.00  0.00    -0.349 N 
ATOM      3  C   UNL     1       0.420   2.119  -2.592  1.00  0.00     0.287 C 
ATOM      4  O   UNL     1       1.452   2.757  -2.376  1.00  0.00    -0.266 OA
ATOM      5  H   UNL     1      -0.692   3.770  -2.335  1.00  0.00     0.163 HD
BRANCH   3   6
ATOM      6  C   UNL     1       0.409   0.727  -2.985  1.00  0.00     0.191 A 
ATOM      7  C   UNL     1       1.119  -1.360  -2.914  1.00  0.00     0.161 A 
ATOM      8  C   UNL     1       0.053  -1.336  -3.792  1.00  0.00     0.053 A 
ATOM      9  O   UNL     1       1.362  -0.101  -2.449  1.00  0.00    -0.450 OA
ATOM     10  C   UNL     1      -0.387   0.002  -3.853  1.00  0.00     0.057 A 
BRANCH   7  11
ATOM     11  C   UNL     1       2.002  -2.485  -2.450  1.00  0.00     0.248 C 
ATOM     12  C   UNL     1       2.981  -2.106  -1.331  1.00  0.00     0.084 C 
BRANCH  11  13
ATOM     13  N   UNL     1       1.204  -3.712  -2.215  1.00  0.00    -0.324 N 
ATOM     14  C   UNL     1       2.023  -4.911  -2.408  1.00  0.00     0.333 C 
ATOM     15  H   UNL     1       0.465  -3.642  -2.915  1.00  0.00     0.348 HD
BRANCH  13  16
ATOM     16  C   UNL     1       0.493  -3.814  -0.921  1.00  0.00     0.320 C 
BRANCH  16  17
ATOM     17  C   UNL     1      -0.497  -2.713  -0.640  1.00  0.00     0.106 A 
ATOM     18  C   UNL     1      -3.927  -1.517  -1.109  1.00  0.00     0.079 C 
ATOM     19  C   UNL     1      -2.505  -1.764  -0.743  1.00  0.00     0.090 A 
ATOM     20  N   UNL     1      -1.788  -2.786  -1.162  1.00  0.00    -0.241 NA
ATOM     21  S   UNL     1      -1.692  -0.662   0.291  1.00  0.00    -0.127 S 
ATOM     22  C   UNL     1      -0.285  -1.624   0.187  1.00  0.00     0.096 A 
ENDBRANCH  16  17
ENDBRANCH  13  16
ENDBRANCH  11  13
ENDBRANCH   7  11
ENDBRANCH   3   6
ENDBRANCH   1   2
BRANCH   1  23
ATOM     23  C   UNL     1      -2.924   2.715  -1.230  1.00  0.00     0.042 C 
BRANCH  23  24
ATOM     24  C   UNL     1      -3.215   4.206  -1.155  1.00  0.00     0.118 C 
BRANCH  24  25
ATOM     25  N   UNL     1      -4.083   4.670  -2.227  1.00  0.00    -0.352 N 
ATOM     26  C   UNL     1      -5.343   5.220  -2.184  1.00  0.00     0.251 C 
ATOM     27  H   UNL     1      -3.707   4.575  -3.131  1.00  0.00     0.163 HD
ATOM     28  O   UNL     1      -5.956   5.381  -3.237  1.00  0.00    -0.269 OA
BRANCH  26  29
ATOM     29  C   UNL     1      -5.975   5.592  -0.897  1.00  0.00     0.039 A 
ATOM     30  C   UNL     1      -7.345   5.367  -0.731  1.00  0.00     0.014 A 
ATOM     31  C   UNL     1      -5.244   6.185   0.136  1.00  0.00     0.014 A 
ATOM     32  C   UNL     1      -7.960   5.668   0.488  1.00  0.00     0.010 A 
ATOM     33  C   UNL     1      -5.836   6.395   1.380  1.00  0.00     0.010 A 
ATOM     34  C   UNL     1      -7.203   6.146   1.570  1.00  0.00    -0.014 A 
BRANCH  34  35
ATOM     35  C   UNL     1      -7.823   6.394   2.899  1.00  0.00     0.031 A 
ATOM     36  C   UNL     1      -7.823   7.778   3.494  1.00  0.00     0.074 A 
ATOM     37  C   UNL     1      -8.336   5.361   3.598  1.00  0.00     0.049 A 
ATOM     38  N   UNL     1      -8.264   8.176   4.661  1.00  0.00    -0.248 NA
ATOM     39  C   UNL     1      -7.223   8.851   2.685  1.00  0.00     0.031 C 
ATOM     40  C   UNL     1      -8.348   3.964   3.158  1.00  0.00     0.029 A 
ATOM     41  N   UNL     1      -8.941   5.323   4.830  1.00  0.00    -0.354 N 
ATOM     42  C   UNL     1      -7.982   9.536   4.731  1.00  0.00     0.074 A 
ATOM     43  C   UNL     1      -7.280   9.883   3.514  1.00  0.00     0.031 C 
ATOM     44  C   UNL     1      -8.956   3.213   4.090  1.00  0.00     0.029 A 
ATOM     45  C   UNL     1      -9.343   4.064   5.211  1.00  0.00     0.049 A 
ATOM     46  H   UNL     1      -9.074   6.122   5.389  1.00  0.00     0.167 HD
ATOM     47  C   UNL     1      -8.302  10.421   5.705  1.00  0.00     0.037 A 
ATOM     48  C   UNL     1      -9.951   3.640   6.336  1.00  0.00     0.037 A 
ATOM     49  C   UNL     1      -9.026  10.076   6.902  1.00  0.00     0.049 A 
ATOM     50  C   UNL     1     -10.304   4.643   7.401  1.00  0.00     0.074 A 
ATOM     51  C   UNL     1      -9.449  10.911   7.922  1.00  0.00     0.029 A 
ATOM     52  N   UNL     1      -9.435   8.795   7.239  1.00  0.00    -0.354 N 
ATOM     53  N   UNL     1     -10.084   5.936   7.421  1.00  0.00    -0.248 NA
ATOM     54  C   UNL     1     -10.996   4.131   8.592  1.00  0.00     0.031 C 
ATOM     55  C   UNL     1     -10.076  10.127   8.897  1.00  0.00     0.029 A 
ATOM     56  C   UNL     1     -10.091   8.812   8.460  1.00  0.00     0.049 A 
ATOM     57  H   UNL     1      -9.283   7.991   6.692  1.00  0.00     0.167 HD
ATOM     58  C   UNL     1     -10.634   6.397   8.612  1.00  0.00     0.074 A 
ATOM     59  C   UNL     1     -11.209   5.246   9.278  1.00  0.00     0.031 C 
ATOM     60  C   UNL     1     -10.662   7.658   9.109  1.00  0.00     0.037 A 
BRANCH  47  61
ATOM     61  C   UNL     1      -7.879  11.853   5.513  1.00  0.00     0.058 A 
ATOM     62  C   UNL     1      -8.471  12.671   4.536  1.00  0.00     0.135 A 
ATOM     63  C   UNL     1      -6.895  12.426   6.334  1.00  0.00     0.135 A 
ATOM     64  F   UNL     1      -9.407  12.173   3.713  1.00  0.00    -0.206 F 
ATOM     65  C   UNL     1      -8.079  13.994   4.359  1.00  0.00     0.059 A 
ATOM     66  C   UNL     1      -6.508  13.756   6.194  1.00  0.00     0.059 A 
ATOM     67  F   UNL     1      -6.296  11.692   7.285  1.00  0.00    -0.206 F 
ATOM     68  C   UNL     1      -7.096  14.528   5.192  1.00  0.00     0.060 A 
BRANCH  68  69
ATOM     69  S   UNL     1      -6.601  16.247   4.950  1.00  0.00     0.124 S 
ATOM     70  O   UNL     1      -5.830  16.155   3.714  1.00  0.00    -0.237 OA
ATOM     71  O   UNL     1      -7.886  16.930   4.845  1.00  0.00    -0.237 OA
ATOM     72  O   UNL     1      -5.828  16.551   6.150  1.00  0.00    -0.744 OA
ENDBRANCH  68  69
ENDBRANCH  47  61
BRANCH  48  73
ATOM     73  C   UNL     1     -10.292   2.201   6.500  1.00  0.00     0.058 A 
ATOM     74  C   UNL     1     -11.626   1.768   6.457  1.00  0.00     0.135 A 
ATOM     75  C   UNL     1      -9.296   1.231   6.686  1.00  0.00     0.135 A 
ATOM     76  F   UNL     1     -12.615   2.659   6.287  1.00  0.00    -0.206 F 
ATOM     77  C   UNL     1     -11.962   0.427   6.609  1.00  0.00     0.059 A 
ATOM     78  C   UNL     1      -9.605  -0.120   6.814  1.00  0.00     0.059 A 
ATOM     79  F   UNL     1      -8.003   1.591   6.716  1.00  0.00    -0.206 F 
ATOM     80  C   UNL     1     -10.943  -0.511   6.784  1.00  0.00     0.060 A 
BRANCH  80  81
ATOM     81  S   UNL     1     -11.387  -2.255   6.929  1.00  0.00     0.124 S 
ATOM     82  O   UNL     1     -11.955  -2.304   8.271  1.00  0.00    -0.237 OA
ATOM     83  O   UNL     1     -12.332  -2.423   5.828  1.00  0.00    -0.237 OA
ATOM     84  O   UNL     1     -10.110  -2.941   6.757  1.00  0.00    -0.744 OA
ENDBRANCH  80  81
ENDBRANCH  48  73
BRANCH  60  85
ATOM     85  C   UNL     1     -11.366   7.868  10.422  1.00  0.00     0.058 A 
ATOM     86  C   UNL     1     -10.820   7.419  11.634  1.00  0.00     0.135 A 
ATOM     87  C   UNL     1     -12.587   8.561  10.469  1.00  0.00     0.135 A 
ATOM     88  F   UNL     1      -9.658   6.747  11.644  1.00  0.00    -0.206 F 
ATOM     89  C   UNL     1     -11.474   7.624  12.845  1.00  0.00     0.059 A 
ATOM     90  C   UNL     1     -13.244   8.802  11.671  1.00  0.00     0.059 A 
ATOM     91  F   UNL     1     -13.148   9.022   9.340  1.00  0.00    -0.206 F 
ATOM     92  C   UNL     1     -12.687   8.316  12.853  1.00  0.00     0.060 A 
BRANCH  92  93
ATOM     93  S   UNL     1     -13.515   8.593  14.433  1.00  0.00     0.124 S 
ATOM     94  O   UNL     1     -14.047   7.265  14.722  1.00  0.00    -0.237 OA
ATOM     95  O   UNL     1     -12.419   9.036  15.288  1.00  0.00    -0.237 OA
ATOM     96  O   UNL     1     -14.511   9.614  14.120  1.00  0.00    -0.744 OA
ENDBRANCH  92  93
ENDBRANCH  60  85
ENDBRANCH  34  35
ENDBRANCH  26  29
ENDBRANCH  24  25
ENDBRANCH  23  24
ENDBRANCH   1  23
TORSDOF 17
