REMARK SMILES CC(=O)Oc1ccccc1C(=O)NCCCNC(=O)c1ccc(-c2c3nc(c(-c4c(F)cc(S(=O)(=O)[O-])cc4F)c4ccc([nH]4)c(-c4c(F)cc(S(=O)(=O)[O-])cc4F)c4nc(c(-c5c(F)cc(S(=O)(=O)[O-])cc5F)c5ccc2[nH]5)C=C4)C=C3)cc1
REMARK SMILES IDX 15 1 14 2 13 3 11 4 12 5 10 7 5 8 6 9 7 10 9 11 8 12 4 13
REMARK SMILES IDX 2 14 1 15 3 16 16 17 17 18 18 19 19 21 20 22 21 23 85 24
REMARK SMILES IDX 22 25 84 26 23 27 24 28 25 29 78 30 26 31 83 32 77 33 79 34
REMARK SMILES IDX 27 35 82 36 76 37 75 38 28 40 62 41 41 42 61 43 42 44 45 45
REMARK SMILES IDX 60 46 80 47 43 48 44 49 59 51 81 52 46 53 29 54 30 55 39 56
REMARK SMILES IDX 31 57 32 58 38 59 40 60 33 61 34 62 35 63 36 64 37 65 63 66
REMARK SMILES IDX 64 67 73 68 65 69 66 70 72 71 74 72 67 73 68 74 69 75 70 76
REMARK SMILES IDX 71 77 47 78 48 79 57 80 49 81 50 82 56 83 58 84 51 85 52 86
REMARK SMILES IDX 53 87 54 88 55 89
REMARK H PARENT 13 6 17 20 79 39 45 50
REMARK Flexibility Score: inf
ROOT
ATOM      1  C   UNL     1      -0.869   1.061   2.049  1.00  0.00     0.042 C 
ENDROOT
BRANCH   1   2
ATOM      2  C   UNL     1      -0.521   1.657   0.707  1.00  0.00     0.118 C 
BRANCH   2   3
ATOM      3  N   UNL     1      -1.614   1.943  -0.186  1.00  0.00    -0.352 N 
ATOM      4  C   UNL     1      -1.645   2.814  -1.249  1.00  0.00     0.255 C 
ATOM      5  O   UNL     1      -2.650   2.809  -1.962  1.00  0.00    -0.269 OA
ATOM      6  H   UNL     1      -2.448   1.449  -0.012  1.00  0.00     0.163 HD
BRANCH   4   7
ATOM      7  C   UNL     1      -0.594   3.847  -1.488  1.00  0.00     0.082 A 
ATOM      8  C   UNL     1       0.799   3.724  -1.374  1.00  0.00     0.143 A 
ATOM      9  C   UNL     1       1.630   4.848  -1.497  1.00  0.00     0.048 A 
ATOM     10  C   UNL     1       1.092   6.097  -1.796  1.00  0.00     0.004 A 
ATOM     11  C   UNL     1      -1.110   5.115  -1.832  1.00  0.00     0.018 A 
ATOM     12  C   UNL     1      -0.279   6.228  -1.982  1.00  0.00     0.001 A 
BRANCH   8  13
ATOM     13  O   UNL     1       1.494   2.562  -0.990  1.00  0.00    -0.426 OA
BRANCH  13  14
ATOM     14  C   UNL     1       1.535   1.462  -1.843  1.00  0.00     0.308 C 
ATOM     15  C   UNL     1       2.307   0.361  -1.157  1.00  0.00     0.139 C 
ATOM     16  O   UNL     1       1.053   1.396  -2.960  1.00  0.00    -0.252 OA
ENDBRANCH  13  14
ENDBRANCH   8  13
ENDBRANCH   4   7
ENDBRANCH   2   3
ENDBRANCH   1   2
BRANCH   1  17
ATOM     17  C   UNL     1      -1.486  -0.326   1.986  1.00  0.00     0.118 C 
BRANCH  17  18
ATOM     18  N   UNL     1      -0.658  -1.337   1.326  1.00  0.00    -0.352 N 
ATOM     19  C   UNL     1       0.037  -2.423   1.815  1.00  0.00     0.251 C 
ATOM     20  H   UNL     1      -0.583  -1.220   0.351  1.00  0.00     0.163 HD
ATOM     21  O   UNL     1       0.761  -3.062   1.054  1.00  0.00    -0.269 OA
BRANCH  19  22
ATOM     22  C   UNL     1      -0.042  -2.795   3.246  1.00  0.00     0.039 A 
ATOM     23  C   UNL     1       1.100  -3.256   3.908  1.00  0.00     0.014 A 
ATOM     24  C   UNL     1      -1.234  -2.664   3.951  1.00  0.00     0.014 A 
ATOM     25  C   UNL     1       1.067  -3.455   5.293  1.00  0.00     0.010 A 
ATOM     26  C   UNL     1      -1.224  -2.704   5.338  1.00  0.00     0.010 A 
ATOM     27  C   UNL     1      -0.076  -3.110   6.031  1.00  0.00    -0.014 A 
BRANCH  27  28
ATOM     28  C   UNL     1      -0.120  -3.172   7.517  1.00  0.00     0.031 A 
ATOM     29  C   UNL     1      -1.192  -3.983   8.202  1.00  0.00     0.074 A 
ATOM     30  C   UNL     1       0.729  -2.419   8.247  1.00  0.00     0.049 A 
ATOM     31  N   UNL     1      -1.488  -4.056   9.474  1.00  0.00    -0.248 NA
ATOM     32  C   UNL     1      -2.079  -4.781   7.338  1.00  0.00     0.031 C 
ATOM     33  C   UNL     1       1.765  -1.535   7.705  1.00  0.00     0.029 A 
ATOM     34  N   UNL     1       0.847  -2.264   9.607  1.00  0.00    -0.354 N 
ATOM     35  C   UNL     1      -2.608  -4.878   9.555  1.00  0.00     0.074 A 
ATOM     36  C   UNL     1      -2.983  -5.216   8.201  1.00  0.00     0.031 C 
ATOM     37  C   UNL     1       2.433  -0.962   8.718  1.00  0.00     0.029 A 
ATOM     38  C   UNL     1       1.845  -1.393   9.981  1.00  0.00     0.049 A 
ATOM     39  H   UNL     1       0.271  -2.732  10.253  1.00  0.00     0.167 HD
ATOM     40  C   UNL     1      -3.245  -5.341  10.656  1.00  0.00     0.037 A 
ATOM     41  C   UNL     1       2.236  -0.982  11.203  1.00  0.00     0.037 A 
ATOM     42  C   UNL     1      -2.835  -5.037  12.002  1.00  0.00     0.049 A 
ATOM     43  C   UNL     1       1.526  -1.523  12.415  1.00  0.00     0.074 A 
ATOM     44  C   UNL     1      -3.364  -5.510  13.189  1.00  0.00     0.029 A 
ATOM     45  N   UNL     1      -1.793  -4.186  12.338  1.00  0.00    -0.354 N 
ATOM     46  N   UNL     1       0.512  -2.354  12.473  1.00  0.00    -0.248 NA
ATOM     47  C   UNL     1       2.015  -1.078  13.726  1.00  0.00     0.031 C 
ATOM     48  C   UNL     1      -2.673  -4.907  14.244  1.00  0.00     0.029 A 
ATOM     49  C   UNL     1      -1.675  -4.104  13.715  1.00  0.00     0.049 A 
ATOM     50  H   UNL     1      -1.221  -3.710  11.693  1.00  0.00     0.167 HD
ATOM     51  C   UNL     1       0.263  -2.556  13.827  1.00  0.00     0.074 A 
ATOM     52  C   UNL     1       1.241  -1.770  14.551  1.00  0.00     0.031 C 
ATOM     53  C   UNL     1      -0.688  -3.322  14.418  1.00  0.00     0.037 A 
BRANCH  40  54
ATOM     54  C   UNL     1      -4.438  -6.237  10.451  1.00  0.00     0.058 A 
ATOM     55  C   UNL     1      -4.309  -7.528   9.912  1.00  0.00     0.135 A 
ATOM     56  C   UNL     1      -5.724  -5.811  10.822  1.00  0.00     0.135 A 
ATOM     57  F   UNL     1      -3.107  -7.982   9.523  1.00  0.00    -0.206 F 
ATOM     58  C   UNL     1      -5.414  -8.350   9.716  1.00  0.00     0.059 A 
ATOM     59  C   UNL     1      -6.839  -6.630  10.666  1.00  0.00     0.059 A 
ATOM     60  F   UNL     1      -5.908  -4.587  11.340  1.00  0.00    -0.206 F 
ATOM     61  C   UNL     1      -6.675  -7.892  10.098  1.00  0.00     0.060 A 
BRANCH  61  62
ATOM     62  S   UNL     1      -8.096  -8.977   9.845  1.00  0.00     0.124 S 
ATOM     63  O   UNL     1      -8.236  -8.937   8.392  1.00  0.00    -0.237 OA
ATOM     64  O   UNL     1      -7.624 -10.241  10.400  1.00  0.00    -0.237 OA
ATOM     65  O   UNL     1      -9.162  -8.323  10.596  1.00  0.00    -0.744 OA
ENDBRANCH  61  62
ENDBRANCH  40  54
BRANCH  41  66
ATOM     66  C   UNL     1       3.374  -0.032  11.344  1.00  0.00     0.058 A 
ATOM     67  C   UNL     1       4.599  -0.450  11.888  1.00  0.00     0.135 A 
ATOM     68  C   UNL     1       3.270   1.305  10.929  1.00  0.00     0.135 A 
ATOM     69  F   UNL     1       4.749  -1.716  12.305  1.00  0.00    -0.206 F 
ATOM     70  C   UNL     1       5.671   0.425  12.034  1.00  0.00     0.059 A 
ATOM     71  C   UNL     1       4.337   2.192  11.038  1.00  0.00     0.059 A 
ATOM     72  F   UNL     1       2.128   1.752  10.384  1.00  0.00    -0.206 F 
ATOM     73  C   UNL     1       5.531   1.744  11.602  1.00  0.00     0.060 A 
BRANCH  73  74
ATOM     74  S   UNL     1       6.945   2.858  11.752  1.00  0.00     0.124 S 
ATOM     75  O   UNL     1       6.998   3.074  13.193  1.00  0.00    -0.237 OA
ATOM     76  O   UNL     1       8.025   2.058  11.185  1.00  0.00    -0.237 OA
ATOM     77  O   UNL     1       6.547   4.014  10.954  1.00  0.00    -0.744 OA
ENDBRANCH  73  74
ENDBRANCH  41  66
BRANCH  53  78
ATOM     78  C   UNL     1      -0.692  -3.385  15.920  1.00  0.00     0.058 A 
ATOM     79  C   UNL     1      -1.097  -2.295  16.706  1.00  0.00     0.135 A 
ATOM     80  C   UNL     1      -0.336  -4.573  16.580  1.00  0.00     0.135 A 
ATOM     81  F   UNL     1      -1.443  -1.134  16.126  1.00  0.00    -0.206 F 
ATOM     82  C   UNL     1      -1.121  -2.371  18.094  1.00  0.00     0.059 A 
ATOM     83  C   UNL     1      -0.384  -4.681  17.965  1.00  0.00     0.059 A 
ATOM     84  F   UNL     1       0.047  -5.649  15.875  1.00  0.00    -0.206 F 
ATOM     85  C   UNL     1      -0.765  -3.570  18.715  1.00  0.00     0.060 A 
BRANCH  85  86
ATOM     86  S   UNL     1      -0.829  -3.663  20.516  1.00  0.00     0.124 S 
ATOM     87  O   UNL     1       0.326  -2.856  20.893  1.00  0.00    -0.237 OA
ATOM     88  O   UNL     1      -2.134  -3.080  20.811  1.00  0.00    -0.237 OA
ATOM     89  O   UNL     1      -0.712  -5.093  20.787  1.00  0.00    -0.744 OA
ENDBRANCH  85  86
ENDBRANCH  53  78
ENDBRANCH  27  28
ENDBRANCH  19  22
ENDBRANCH  17  18
ENDBRANCH   1  17
TORSDOF 15
