REMARK SMILES Cc1ccc(O[C@H](C)C(=O)Nc2ccsc2C(=O)NCCCNC(=O)c2ccc(-c3c4nc(c(-c5c(F)cc(S(=O)(=O)[O-])cc5F)c5ccc([nH]5)c(-c5c(F)cc(S(=O)(=O)[O-])cc5F)c5nc(c(-c6c(F)cc(S(=O)(=O)[O-])cc6F)c6ccc3[nH]6)C=C5)C=C4)cc2)cc1
REMARK SMILES IDX 20 1 19 2 17 3 18 4 16 6 12 7 13 8 14 9 15 10 11 11 9 12
REMARK SMILES IDX 10 13 7 15 8 16 6 17 5 18 1 19 2 20 3 21 93 22 4 23 92 24
REMARK SMILES IDX 21 25 22 26 23 27 24 28 25 30 26 31 27 32 91 33 28 34 90 35
REMARK SMILES IDX 29 36 30 37 31 38 84 39 32 40 89 41 83 42 85 43 33 44 88 45
REMARK SMILES IDX 82 46 81 47 34 49 68 50 47 51 67 52 48 53 51 54 66 55 86 56
REMARK SMILES IDX 49 57 50 58 65 60 87 61 52 62 35 63 36 64 45 65 37 66 38 67
REMARK SMILES IDX 44 68 46 69 39 70 40 71 41 72 42 73 43 74 69 75 70 76 79 77
REMARK SMILES IDX 71 78 72 79 78 80 80 81 73 82 74 83 75 84 76 85 77 86 53 87
REMARK SMILES IDX 54 88 63 89 55 90 56 91 62 92 64 93 57 94 58 95 59 96 60 97
REMARK SMILES IDX 61 98
REMARK H PARENT 19 5 11 14 23 29 85 48 51 59
REMARK Flexibility Score: inf
ROOT
ATOM      1  C   UNL     1      -1.562   4.400  -2.489  1.00  0.00     0.118 C 
ENDROOT
BRANCH   1   2
ATOM      2  N   UNL     1      -0.533   4.670  -1.498  1.00  0.00    -0.351 N 
ATOM      3  C   UNL     1       0.147   4.014  -0.508  1.00  0.00     0.263 C 
ATOM      4  O   UNL     1       0.939   4.774   0.070  1.00  0.00    -0.268 OA
ATOM      5  H   UNL     1      -0.237   5.607  -1.557  1.00  0.00     0.163 HD
BRANCH   3   6
ATOM      6  C   UNL     1       0.015   2.604  -0.118  1.00  0.00     0.115 A 
ATOM      7  C   UNL     1      -0.759   1.500  -0.464  1.00  0.00     0.065 A 
ATOM      8  C   UNL     1      -0.411   0.325   0.283  1.00  0.00     0.038 A 
ATOM      9  C   UNL     1       0.540   0.551   1.241  1.00  0.00     0.068 A 
ATOM     10  S   UNL     1       1.057   2.162   1.227  1.00  0.00    -0.137 S 
BRANCH   7  11
ATOM     11  N   UNL     1      -1.682   1.451  -1.485  1.00  0.00    -0.321 N 
ATOM     12  C   UNL     1      -2.978   1.023  -1.469  1.00  0.00     0.265 C 
ATOM     13  O   UNL     1      -3.577   1.008  -2.553  1.00  0.00    -0.270 OA
ATOM     14  H   UNL     1      -1.359   1.774  -2.357  1.00  0.00     0.170 HD
BRANCH  12  15
ATOM     15  C   UNL     1      -3.709   0.569  -0.183  1.00  0.00     0.259 C 
ATOM     16  C   UNL     1      -3.798  -0.949  -0.268  1.00  0.00     0.064 C 
BRANCH  15  17
ATOM     17  O   UNL     1      -3.245   1.237   0.980  1.00  0.00    -0.481 OA
BRANCH  17  18
ATOM     18  C   UNL     1      -3.100   0.774   2.245  1.00  0.00     0.120 A 
ATOM     19  C   UNL     1      -2.052  -0.228   6.326  1.00  0.00     0.044 C 
ATOM     20  C   UNL     1      -2.478   0.143   4.938  1.00  0.00    -0.051 A 
ATOM     21  C   UNL     1      -2.850  -0.851   4.031  1.00  0.00     0.007 A 
ATOM     22  C   UNL     1      -2.441   1.465   4.496  1.00  0.00     0.007 A 
ATOM     23  C   UNL     1      -3.167  -0.535   2.702  1.00  0.00     0.047 A 
ATOM     24  C   UNL     1      -2.750   1.771   3.166  1.00  0.00     0.047 A 
ENDBRANCH  17  18
ENDBRANCH  15  17
ENDBRANCH  12  15
ENDBRANCH   7  11
ENDBRANCH   3   6
ENDBRANCH   1   2
BRANCH   1  25
ATOM     25  C   UNL     1      -2.964   4.531  -1.905  1.00  0.00     0.042 C 
BRANCH  25  26
ATOM     26  C   UNL     1      -3.793   5.597  -2.610  1.00  0.00     0.118 C 
BRANCH  26  27
ATOM     27  N   UNL     1      -4.683   5.097  -3.656  1.00  0.00    -0.352 N 
ATOM     28  C   UNL     1      -5.575   5.836  -4.428  1.00  0.00     0.251 C 
ATOM     29  H   UNL     1      -4.647   4.129  -3.834  1.00  0.00     0.163 HD
ATOM     30  O   UNL     1      -6.343   5.307  -5.210  1.00  0.00    -0.269 OA
BRANCH  28  31
ATOM     31  C   UNL     1      -5.532   7.309  -4.272  1.00  0.00     0.039 A 
ATOM     32  C   UNL     1      -5.013   8.077  -5.318  1.00  0.00     0.014 A 
ATOM     33  C   UNL     1      -5.664   7.832  -2.991  1.00  0.00     0.014 A 
ATOM     34  C   UNL     1      -4.400   9.295  -5.023  1.00  0.00     0.010 A 
ATOM     35  C   UNL     1      -4.947   8.970  -2.686  1.00  0.00     0.010 A 
ATOM     36  C   UNL     1      -4.266   9.679  -3.691  1.00  0.00    -0.014 A 
BRANCH  36  37
ATOM     37  C   UNL     1      -3.349  10.714  -3.210  1.00  0.00     0.031 A 
ATOM     38  C   UNL     1      -3.877  11.852  -2.413  1.00  0.00     0.074 A 
ATOM     39  C   UNL     1      -2.010  10.555  -3.336  1.00  0.00     0.049 A 
ATOM     40  N   UNL     1      -3.167  12.844  -1.996  1.00  0.00    -0.248 NA
ATOM     41  C   UNL     1      -5.294  12.002  -2.084  1.00  0.00     0.031 C 
ATOM     42  C   UNL     1      -0.969  11.189  -2.526  1.00  0.00     0.029 A 
ATOM     43  N   UNL     1      -1.305   9.939  -4.371  1.00  0.00    -0.354 N 
ATOM     44  C   UNL     1      -3.934  13.590  -1.133  1.00  0.00     0.074 A 
ATOM     45  C   UNL     1      -5.271  13.087  -1.305  1.00  0.00     0.031 C 
ATOM     46  C   UNL     1       0.197  11.139  -3.186  1.00  0.00     0.029 A 
ATOM     47  C   UNL     1      -0.080  10.621  -4.511  1.00  0.00     0.049 A 
ATOM     48  H   UNL     1      -1.608   9.169  -4.905  1.00  0.00     0.167 HD
ATOM     49  C   UNL     1      -3.305  14.464  -0.298  1.00  0.00     0.037 A 
ATOM     50  C   UNL     1       0.249  11.274  -5.664  1.00  0.00     0.037 A 
ATOM     51  C   UNL     1      -1.955  14.749  -0.795  1.00  0.00     0.049 A 
ATOM     52  C   UNL     1       0.442  12.765  -5.507  1.00  0.00     0.074 A 
ATOM     53  C   UNL     1      -0.680  14.388  -0.397  1.00  0.00     0.029 A 
ATOM     54  N   UNL     1      -1.820  15.321  -2.061  1.00  0.00    -0.354 N 
ATOM     55  N   UNL     1       0.036  13.458  -4.479  1.00  0.00    -0.248 NA
ATOM     56  C   UNL     1       1.101  13.593  -6.511  1.00  0.00     0.031 C 
ATOM     57  C   UNL     1       0.211  14.680  -1.466  1.00  0.00     0.029 A 
ATOM     58  C   UNL     1      -0.514  15.248  -2.501  1.00  0.00     0.049 A 
ATOM     59  H   UNL     1      -2.559  15.724  -2.572  1.00  0.00     0.167 HD
ATOM     60  C   UNL     1       0.290  14.792  -4.692  1.00  0.00     0.074 A 
ATOM     61  C   UNL     1       1.004  14.813  -5.955  1.00  0.00     0.031 C 
ATOM     62  C   UNL     1      -0.138  15.757  -3.820  1.00  0.00     0.037 A 
BRANCH  49  63
ATOM     63  C   UNL     1      -3.823  14.917   1.064  1.00  0.00     0.058 A 
ATOM     64  C   UNL     1      -2.990  15.663   1.933  1.00  0.00     0.135 A 
ATOM     65  C   UNL     1      -5.058  14.544   1.643  1.00  0.00     0.135 A 
ATOM     66  F   UNL     1      -1.784  16.098   1.539  1.00  0.00    -0.206 F 
ATOM     67  C   UNL     1      -3.333  15.967   3.259  1.00  0.00     0.059 A 
ATOM     68  C   UNL     1      -5.434  14.861   2.951  1.00  0.00     0.059 A 
ATOM     69  F   UNL     1      -5.966  13.808   0.999  1.00  0.00    -0.206 F 
ATOM     70  C   UNL     1      -4.556  15.551   3.765  1.00  0.00     0.060 A 
BRANCH  70  71
ATOM     71  S   UNL     1      -4.979  15.884   5.484  1.00  0.00     0.124 S 
ATOM     72  O   UNL     1      -3.999  15.071   6.199  1.00  0.00    -0.237 OA
ATOM     73  O   UNL     1      -4.798  17.328   5.575  1.00  0.00    -0.237 OA
ATOM     74  O   UNL     1      -6.361  15.424   5.591  1.00  0.00    -0.744 OA
ENDBRANCH  70  71
ENDBRANCH  49  63
BRANCH  50  75
ATOM     75  C   UNL     1      -0.258  10.597  -6.887  1.00  0.00     0.058 A 
ATOM     76  C   UNL     1       0.326   9.363  -7.228  1.00  0.00     0.135 A 
ATOM     77  C   UNL     1      -1.534  10.881  -7.394  1.00  0.00     0.135 A 
ATOM     78  F   UNL     1       1.557   9.058  -6.786  1.00  0.00    -0.206 F 
ATOM     79  C   UNL     1      -0.399   8.374  -7.878  1.00  0.00     0.059 A 
ATOM     80  C   UNL     1      -2.276   9.904  -8.059  1.00  0.00     0.059 A 
ATOM     81  F   UNL     1      -2.134  12.044  -7.103  1.00  0.00    -0.206 F 
ATOM     82  C   UNL     1      -1.725   8.632  -8.219  1.00  0.00     0.060 A 
BRANCH  82  83
ATOM     83  S   UNL     1      -2.770   7.214  -8.629  1.00  0.00     0.124 S 
ATOM     84  O   UNL     1      -2.124   6.695  -9.829  1.00  0.00    -0.237 OA
ATOM     85  O   UNL     1      -2.625   6.398  -7.425  1.00  0.00    -0.237 OA
ATOM     86  O   UNL     1      -4.086   7.811  -8.823  1.00  0.00    -0.744 OA
ENDBRANCH  82  83
ENDBRANCH  50  75
BRANCH  62  87
ATOM     87  C   UNL     1      -0.170  17.259  -4.077  1.00  0.00     0.058 A 
ATOM     88  C   UNL     1      -0.122  17.861  -5.348  1.00  0.00     0.135 A 
ATOM     89  C   UNL     1      -0.374  18.167  -3.004  1.00  0.00     0.135 A 
ATOM     90  F   UNL     1      -0.090  17.134  -6.472  1.00  0.00    -0.206 F 
ATOM     91  C   UNL     1      -0.163  19.247  -5.536  1.00  0.00     0.059 A 
ATOM     92  C   UNL     1      -0.483  19.548  -3.175  1.00  0.00     0.059 A 
ATOM     93  F   UNL     1      -0.497  17.744  -1.738  1.00  0.00    -0.206 F 
ATOM     94  C   UNL     1      -0.337  20.085  -4.442  1.00  0.00     0.060 A 
BRANCH  94  95
ATOM     95  S   UNL     1      -0.440  21.868  -4.686  1.00  0.00     0.124 S 
ATOM     96  O   UNL     1       0.964  22.255  -4.596  1.00  0.00    -0.237 OA
ATOM     97  O   UNL     1      -1.040  21.980  -6.012  1.00  0.00    -0.237 OA
ATOM     98  O   UNL     1      -1.290  22.307  -3.584  1.00  0.00    -0.744 OA
ENDBRANCH  94  95
ENDBRANCH  62  87
ENDBRANCH  36  37
ENDBRANCH  28  31
ENDBRANCH  26  27
ENDBRANCH  25  26
ENDBRANCH   1  25
TORSDOF 17
