REMARK SMILES Cc1cc(C(=O)NCCCNC(=O)c2ccc(-c3c4nc(c(-c5c(F)cc(S(=O)(=O)[O-])cc5F)c5ccc([nH]5)c(-c5c(F)cc(S(=O)(=O)[O-])cc5F)c5nc(c(-c6c(F)cc(S(=O)(=O)[O-])cc6F)c6ccc3[nH]6)C=C5)C=C4)cc2)ccc1NS(=O)(=O)c1ccc2c(c1)CCC2
REMARK SMILES IDX 9 1 8 2 7 3 5 4 6 5 4 7 1 8 2 9 3 10 82 11 81 12 80 13 83 14
REMARK SMILES IDX 84 16 85 17 86 18 87 19 88 20 92 21 89 22 91 23 90 24 93 25
REMARK SMILES IDX 95 26 94 27 10 28 11 29 12 30 13 32 14 33 15 34 79 35 16 36
REMARK SMILES IDX 78 37 17 38 18 39 19 40 72 41 20 42 77 43 71 44 73 45 21 46
REMARK SMILES IDX 76 47 70 48 69 49 22 51 56 52 35 53 55 54 36 55 39 56 54 57
REMARK SMILES IDX 74 58 37 59 38 60 53 62 75 63 40 64 23 65 24 66 33 67 25 68
REMARK SMILES IDX 26 69 32 70 34 71 27 72 28 73 29 74 30 75 31 76 57 77 58 78
REMARK SMILES IDX 67 79 59 80 60 81 66 82 68 83 61 84 62 85 63 86 64 87 65 88
REMARK SMILES IDX 41 89 42 90 51 91 43 92 44 93 50 94 52 95 45 96 46 97 47 98
REMARK SMILES IDX 48 99 49 100
REMARK H PARENT 7 6 83 15 11 31 73 50 39 61
REMARK Flexibility Score: inf
ROOT
ATOM      1  C   UNL     1      -4.907  -0.150   0.357  1.00  0.00     0.042 C 
ENDROOT
BRANCH   1   2
ATOM      2  C   UNL     1      -3.866  -1.022   1.251  1.00  0.00     0.118 C 
BRANCH   2   3
ATOM      3  N   UNL     1      -2.896  -1.930   0.601  1.00  0.00    -0.352 N 
ATOM      4  C   UNL     1      -1.524  -1.986   0.433  1.00  0.00     0.251 C 
ATOM      5  O   UNL     1      -1.005  -3.043   0.063  1.00  0.00    -0.269 OA
ATOM      6  H   UNL     1      -3.345  -2.697   0.176  1.00  0.00     0.163 HD
BRANCH   4   7
ATOM      7  C   UNL     1      -0.615  -0.815   0.607  1.00  0.00     0.040 A 
ATOM      8  C   UNL     1       2.926   0.179  -0.408  1.00  0.00     0.046 C 
ATOM      9  C   UNL     1       1.485   0.301   0.004  1.00  0.00    -0.026 A 
ATOM     10  C   UNL     1       0.714  -0.877   0.142  1.00  0.00     0.019 A 
ATOM     11  C   UNL     1       0.883   1.532   0.315  1.00  0.00     0.052 A 
ATOM     12  C   UNL     1      -0.240   1.525   1.114  1.00  0.00     0.028 A 
ATOM     13  C   UNL     1      -1.025   0.385   1.157  1.00  0.00     0.016 A 
BRANCH  11  14
ATOM     14  N   UNL     1       1.131   2.679  -0.502  1.00  0.00    -0.279 N 
ATOM     15  H   UNL     1       1.794   2.573  -1.222  1.00  0.00     0.180 HD
BRANCH  14  16
ATOM     16  S   UNL     1       0.408   4.194  -0.360  1.00  0.00     0.261 S 
ATOM     17  O   UNL     1       0.608   4.629   1.029  1.00  0.00    -0.201 OA
ATOM     18  O   UNL     1       0.916   4.977  -1.444  1.00  0.00    -0.201 OA
BRANCH  16  19
ATOM     19  C   UNL     1      -1.377   4.103  -0.585  1.00  0.00     0.088 A 
ATOM     20  C   UNL     1      -2.054   2.913  -0.873  1.00  0.00     0.022 A 
ATOM     21  C   UNL     1      -2.118   5.266  -0.290  1.00  0.00     0.026 A 
ATOM     22  C   UNL     1      -3.430   2.821  -0.628  1.00  0.00     0.005 A 
ATOM     23  C   UNL     1      -3.490   5.157  -0.091  1.00  0.00    -0.043 A 
ATOM     24  C   UNL     1      -4.115   3.915  -0.134  1.00  0.00    -0.045 A 
ATOM     25  C   UNL     1      -4.516   6.218   0.165  1.00  0.00     0.036 C 
ATOM     26  C   UNL     1      -5.523   3.993   0.385  1.00  0.00     0.036 C 
ATOM     27  C   UNL     1      -5.549   5.419   0.969  1.00  0.00     0.010 C 
ENDBRANCH  16  19
ENDBRANCH  14  16
ENDBRANCH  11  14
ENDBRANCH   4   7
ENDBRANCH   2   3
ENDBRANCH   1   2
BRANCH   1  28
ATOM     28  C   UNL     1      -6.381  -0.737   0.462  1.00  0.00     0.118 C 
BRANCH  28  29
ATOM     29  N   UNL     1      -7.869  -0.406  -0.042  1.00  0.00    -0.352 N 
ATOM     30  C   UNL     1      -9.219  -1.073  -0.323  1.00  0.00     0.251 C 
ATOM     31  H   UNL     1      -7.937   0.557  -0.239  1.00  0.00     0.163 HD
ATOM     32  O   UNL     1     -10.104  -0.581   0.410  1.00  0.00    -0.269 OA
BRANCH  30  33
ATOM     33  C   UNL     1      -9.858  -2.254  -1.332  1.00  0.00     0.039 A 
ATOM     34  C   UNL     1     -10.777  -3.264  -0.869  1.00  0.00     0.014 A 
ATOM     35  C   UNL     1      -9.512  -2.522  -2.651  1.00  0.00     0.014 A 
ATOM     36  C   UNL     1     -10.706  -4.652  -1.373  1.00  0.00     0.010 A 
ATOM     37  C   UNL     1      -9.386  -3.878  -3.118  1.00  0.00     0.010 A 
ATOM     38  C   UNL     1      -9.717  -4.981  -2.322  1.00  0.00    -0.014 A 
BRANCH  38  39
ATOM     39  C   UNL     1      -8.763  -6.228  -2.277  1.00  0.00     0.031 A 
ATOM     40  C   UNL     1      -8.926  -7.212  -3.334  1.00  0.00     0.074 A 
ATOM     41  C   UNL     1      -7.642  -6.556  -1.532  1.00  0.00     0.049 A 
ATOM     42  N   UNL     1      -9.245  -8.453  -3.180  1.00  0.00    -0.248 NA
ATOM     43  C   UNL     1      -8.701  -6.794  -4.705  1.00  0.00     0.031 C 
ATOM     44  C   UNL     1      -6.712  -7.712  -1.526  1.00  0.00     0.029 A 
ATOM     45  N   UNL     1      -7.026  -5.860  -0.508  1.00  0.00    -0.354 N 
ATOM     46  C   UNL     1      -8.947  -9.032  -4.396  1.00  0.00     0.074 A 
ATOM     47  C   UNL     1      -8.945  -7.936  -5.342  1.00  0.00     0.031 C 
ATOM     48  C   UNL     1      -6.075  -7.786  -0.326  1.00  0.00     0.029 A 
ATOM     49  C   UNL     1      -6.580  -6.711   0.498  1.00  0.00     0.049 A 
ATOM     50  H   UNL     1      -6.917  -4.882  -0.493  1.00  0.00     0.167 HD
ATOM     51  C   UNL     1      -8.334 -10.254  -4.481  1.00  0.00     0.037 A 
ATOM     52  C   UNL     1      -7.280  -6.750   1.684  1.00  0.00     0.037 A 
ATOM     53  C   UNL     1      -7.861 -10.718  -3.158  1.00  0.00     0.049 A 
ATOM     54  C   UNL     1      -8.063  -8.032   1.800  1.00  0.00     0.074 A 
ATOM     55  C   UNL     1      -6.611 -10.948  -2.594  1.00  0.00     0.029 A 
ATOM     56  N   UNL     1      -8.735 -10.726  -2.084  1.00  0.00    -0.354 N 
ATOM     57  N   UNL     1      -7.909  -9.009   0.959  1.00  0.00    -0.248 NA
ATOM     58  C   UNL     1      -9.118  -8.308   2.774  1.00  0.00     0.031 C 
ATOM     59  C   UNL     1      -6.764 -11.097  -1.179  1.00  0.00     0.029 A 
ATOM     60  C   UNL     1      -8.108 -10.990  -0.881  1.00  0.00     0.049 A 
ATOM     61  H   UNL     1      -9.702 -10.560  -2.169  1.00  0.00     0.167 HD
ATOM     62  C   UNL     1      -8.848  -9.967   1.164  1.00  0.00     0.074 A 
ATOM     63  C   UNL     1      -9.575  -9.497   2.334  1.00  0.00     0.031 C 
ATOM     64  C   UNL     1      -8.932 -11.040   0.325  1.00  0.00     0.037 A 
BRANCH  51  65
ATOM     65  C   UNL     1      -7.897 -10.873  -5.807  1.00  0.00     0.058 A 
ATOM     66  C   UNL     1      -7.008 -11.967  -5.856  1.00  0.00     0.135 A 
ATOM     67  C   UNL     1      -8.383 -10.479  -7.077  1.00  0.00     0.135 A 
ATOM     68  F   UNL     1      -6.567 -12.561  -4.739  1.00  0.00    -0.206 F 
ATOM     69  C   UNL     1      -6.571 -12.546  -7.054  1.00  0.00     0.059 A 
ATOM     70  C   UNL     1      -7.898 -10.979  -8.287  1.00  0.00     0.059 A 
ATOM     71  F   UNL     1      -9.440  -9.667  -7.209  1.00  0.00    -0.206 F 
ATOM     72  C   UNL     1      -7.002 -12.029  -8.268  1.00  0.00     0.060 A 
BRANCH  72  73
ATOM     73  S   UNL     1      -6.484 -12.815  -9.804  1.00  0.00     0.124 S 
ATOM     74  O   UNL     1      -5.029 -12.725  -9.724  1.00  0.00    -0.237 OA
ATOM     75  O   UNL     1      -7.047 -14.153  -9.664  1.00  0.00    -0.237 OA
ATOM     76  O   UNL     1      -7.100 -11.987 -10.838  1.00  0.00    -0.744 OA
ENDBRANCH  72  73
ENDBRANCH  51  65
BRANCH  52  77
ATOM     77  C   UNL     1      -7.802  -5.393   2.180  1.00  0.00     0.058 A 
ATOM     78  C   UNL     1      -6.809  -4.449   2.420  1.00  0.00     0.135 A 
ATOM     79  C   UNL     1      -8.801  -4.886   1.381  1.00  0.00     0.135 A 
ATOM     80  F   UNL     1      -6.204  -4.395   3.613  1.00  0.00    -0.206 F 
ATOM     81  C   UNL     1      -6.466  -3.487   1.461  1.00  0.00     0.059 A 
ATOM     82  C   UNL     1      -8.384  -4.010   0.365  1.00  0.00     0.059 A 
ATOM     83  F   UNL     1      -9.935  -5.586   1.218  1.00  0.00    -0.206 F 
ATOM     84  C   UNL     1      -7.168  -3.402   0.272  1.00  0.00     0.060 A 
BRANCH  84  85
ATOM     85  S   UNL     1      -6.388  -2.954  -1.646  1.00  0.00     0.124 S 
ATOM     86  O   UNL     1      -4.974  -2.747  -1.356  1.00  0.00    -0.237 OA
ATOM     87  O   UNL     1      -6.637  -4.137  -2.445  1.00  0.00    -0.237 OA
ATOM     88  O   UNL     1      -7.069  -1.753  -2.111  1.00  0.00    -0.744 OA
ENDBRANCH  84  85
ENDBRANCH  52  77
BRANCH  64  89
ATOM     89  C   UNL     1      -9.845 -12.214   0.537  1.00  0.00     0.058 A 
ATOM     90  C   UNL     1     -10.199 -12.682   1.811  1.00  0.00     0.135 A 
ATOM     91  C   UNL     1     -10.308 -12.995  -0.549  1.00  0.00     0.135 A 
ATOM     92  F   UNL     1      -9.678 -12.141   2.923  1.00  0.00    -0.206 F 
ATOM     93  C   UNL     1     -11.066 -13.758   1.989  1.00  0.00     0.059 A 
ATOM     94  C   UNL     1     -11.134 -14.094  -0.395  1.00  0.00     0.059 A 
ATOM     95  F   UNL     1      -9.983 -12.734  -1.820  1.00  0.00    -0.206 F 
ATOM     96  C   UNL     1     -11.543 -14.445   0.876  1.00  0.00     0.060 A 
BRANCH  96  97
ATOM     97  S   UNL     1     -12.672 -15.820   1.100  1.00  0.00     0.124 S 
ATOM     98  O   UNL     1     -12.036 -16.569   2.179  1.00  0.00    -0.237 OA
ATOM     99  O   UNL     1     -13.907 -15.125   1.452  1.00  0.00    -0.237 OA
ATOM    100  O   UNL     1     -12.672 -16.481  -0.201  1.00  0.00    -0.744 OA
ENDBRANCH  96  97
ENDBRANCH  64  89
ENDBRANCH  38  39
ENDBRANCH  30  33
ENDBRANCH  28  29
ENDBRANCH   1  28
TORSDOF 16
