REMARK SMILES CCc1ccccc1NC(=O)c1cc(S(=O)(=O)N2CCC[C@H](C(=O)NCCCNC(=O)c3ccc(-c4c5nc(c(-c6c(F)cc(S(=O)(=O)[O-])cc6F)c6ccc([nH]6)c(-c6c(F)cc(S(=O)(=O)[O-])cc6F)c6nc(c(-c7c(F)cc(S(=O)(=O)[O-])cc7F)c7ccc4[nH]7)C=C6)C=C5)cc3)C2)ccc1F
REMARK SMILES IDX 26 1 25 2 23 3 24 4 22 6 18 7 19 8 98 9 20 10 21 11 15 12
REMARK SMILES IDX 16 13 17 14 14 15 12 16 13 17 101 18 100 19 102 20 99 21
REMARK SMILES IDX 10 22 9 23 11 25 8 26 3 27 4 28 5 29 7 30 6 31 2 32 1 33
REMARK SMILES IDX 27 34 28 35 29 36 30 37 31 39 32 40 33 41 97 42 34 43 96 44
REMARK SMILES IDX 35 45 36 46 37 47 90 48 38 49 95 50 89 51 91 52 39 53 94 54
REMARK SMILES IDX 88 55 87 56 40 58 74 59 53 60 73 61 54 62 57 63 72 64 92 65
REMARK SMILES IDX 55 66 56 67 71 69 93 70 58 71 41 72 42 73 51 74 43 75 44 76
REMARK SMILES IDX 50 77 52 78 45 79 46 80 47 81 48 82 49 83 75 84 76 85 85 86
REMARK SMILES IDX 77 87 78 88 84 89 86 90 79 91 80 92 81 93 82 94 83 95 59 96
REMARK SMILES IDX 60 97 69 98 61 99 62 100 68 101 70 102 63 103 64 104 65 105
REMARK SMILES IDX 66 106 67 107
REMARK H PARENT 25 5 9 24 29 38 91 57 57 68
REMARK Flexibility Score: inf
ROOT
ATOM      1  C   UNL     1      -0.097  13.908   0.624  1.00  0.00     0.117 C 
ENDROOT
BRANCH   1   2
ATOM      2  N   UNL     1      -0.844  14.393  -0.520  1.00  0.00    -0.356 N 
ATOM      3  C   UNL     1      -1.316  13.785  -1.633  1.00  0.00     0.224 C 
ATOM      4  O   UNL     1      -1.926  14.509  -2.430  1.00  0.00    -0.275 OA
ATOM      5  H   UNL     1      -1.049  15.355  -0.478  1.00  0.00     0.163 HD
BRANCH   3   6
ATOM      6  C   UNL     1      -1.130  12.307  -1.975  1.00  0.00     0.093 C 
ATOM      7  N   UNL     1      -0.362  10.762  -0.123  1.00  0.00    -0.197 NA
ATOM      8  C   UNL     1       0.957  10.560  -0.756  1.00  0.00     0.102 C 
ATOM      9  C   UNL     1      -1.505  11.323  -0.885  1.00  0.00     0.116 C 
ATOM     10  C   UNL     1       1.306  11.600  -1.803  1.00  0.00     0.018 C 
ATOM     11  C   UNL     1       0.157  11.970  -2.715  1.00  0.00     0.016 C 
BRANCH   7  12
ATOM     12  S   UNL     1      -0.767   9.711   1.153  1.00  0.00     0.243 S 
ATOM     13  O   UNL     1      -2.000  10.170   1.740  1.00  0.00    -0.207 OA
ATOM     14  O   UNL     1       0.430   9.507   1.948  1.00  0.00    -0.207 OA
BRANCH  12  15
ATOM     15  C   UNL     1      -1.127   8.137   0.399  1.00  0.00     0.083 A 
ATOM     16  C   UNL     1      -1.490   5.784   0.725  1.00  0.00     0.077 A 
ATOM     17  C   UNL     1      -1.288   7.054   1.266  1.00  0.00     0.038 A 
ATOM     18  C   UNL     1      -1.641   5.609  -0.651  1.00  0.00     0.136 A 
ATOM     19  C   UNL     1      -1.471   6.685  -1.512  1.00  0.00     0.041 A 
ATOM     20  F   UNL     1      -1.887   4.400  -1.175  1.00  0.00    -0.206 F 
ATOM     21  C   UNL     1      -1.187   7.946  -0.988  1.00  0.00     0.025 A 
BRANCH  16  22
ATOM     22  C   UNL     1      -1.419   4.625   1.620  1.00  0.00     0.258 C 
ATOM     23  N   UNL     1      -0.481   3.638   1.411  1.00  0.00    -0.322 N 
ATOM     24  H   UNL     1      -0.597   2.837   1.973  1.00  0.00     0.170 HD
ATOM     25  O   UNL     1      -2.238   4.540   2.533  1.00  0.00    -0.269 OA
BRANCH  23  26
ATOM     26  C   UNL     1       0.623   3.579   0.525  1.00  0.00     0.044 A 
ATOM     27  C   UNL     1       1.064   2.317   0.067  1.00  0.00    -0.025 A 
ATOM     28  C   UNL     1       2.067   2.276  -0.921  1.00  0.00     0.006 A 
ATOM     29  C   UNL     1       2.653   3.444  -1.411  1.00  0.00     0.000 A 
ATOM     30  C   UNL     1       1.289   4.734   0.088  1.00  0.00     0.026 A 
ATOM     31  C   UNL     1       2.282   4.672  -0.889  1.00  0.00     0.002 A 
BRANCH  27  32
ATOM     32  C   UNL     1       0.448   1.045   0.620  1.00  0.00     0.034 C 
ATOM     33  C   UNL     1       0.955  -0.281   0.067  1.00  0.00     0.009 C 
ENDBRANCH  27  32
ENDBRANCH  23  26
ENDBRANCH  16  22
ENDBRANCH  12  15
ENDBRANCH   7  12
ENDBRANCH   3   6
ENDBRANCH   1   2
BRANCH   1  34
ATOM     34  C   UNL     1       1.376  14.270   0.529  1.00  0.00     0.042 C 
BRANCH  34  35
ATOM     35  C   UNL     1       1.708  15.562   1.248  1.00  0.00     0.118 C 
BRANCH  35  36
ATOM     36  N   UNL     1       1.620  15.428   2.695  1.00  0.00    -0.352 N 
ATOM     37  C   UNL     1       2.579  15.622   3.659  1.00  0.00     0.251 C 
ATOM     38  H   UNL     1       0.738  15.155   3.035  1.00  0.00     0.163 HD
ATOM     39  O   UNL     1       2.350  15.283   4.817  1.00  0.00    -0.269 OA
BRANCH  37  40
ATOM     40  C   UNL     1       3.888  16.211   3.301  1.00  0.00     0.039 A 
ATOM     41  C   UNL     1       5.045  15.721   3.913  1.00  0.00     0.014 A 
ATOM     42  C   UNL     1       3.978  17.245   2.368  1.00  0.00     0.014 A 
ATOM     43  C   UNL     1       6.292  16.230   3.544  1.00  0.00     0.010 A 
ATOM     44  C   UNL     1       5.222  17.662   1.914  1.00  0.00     0.010 A 
ATOM     45  C   UNL     1       6.392  17.181   2.515  1.00  0.00    -0.014 A 
BRANCH  45  46
ATOM     46  C   UNL     1       7.700  17.732   2.083  1.00  0.00     0.031 A 
ATOM     47  C   UNL     1       7.955  19.213   2.200  1.00  0.00     0.074 A 
ATOM     48  C   UNL     1       8.621  16.923   1.526  1.00  0.00     0.049 A 
ATOM     49  N   UNL     1       8.980  19.912   1.788  1.00  0.00    -0.248 NA
ATOM     50  C   UNL     1       6.895  20.021   2.827  1.00  0.00     0.031 C 
ATOM     51  C   UNL     1       8.469  15.481   1.317  1.00  0.00     0.029 A 
ATOM     52  N   UNL     1       9.868  17.199   1.026  1.00  0.00    -0.354 N 
ATOM     53  C   UNL     1       8.677  21.236   2.083  1.00  0.00     0.074 A 
ATOM     54  C   UNL     1       7.344  21.252   2.640  1.00  0.00     0.031 C 
ATOM     55  C   UNL     1       9.594  14.994   0.768  1.00  0.00     0.029 A 
ATOM     56  C   UNL     1      10.529  16.092   0.546  1.00  0.00     0.049 A 
ATOM     57  H   UNL     1      10.255  18.104   1.013  1.00  0.00     0.167 HD
ATOM     58  C   UNL     1       9.452  22.337   1.937  1.00  0.00     0.037 A 
ATOM     59  C   UNL     1      11.749  15.980  -0.012  1.00  0.00     0.037 A 
ATOM     60  C   UNL     1      10.793  22.304   1.419  1.00  0.00     0.049 A 
ATOM     61  C   UNL     1      12.595  17.216  -0.166  1.00  0.00     0.074 A 
ATOM     62  C   UNL     1      11.689  23.348   1.278  1.00  0.00     0.029 A 
ATOM     63  N   UNL     1      11.433  21.160   0.962  1.00  0.00    -0.354 N 
ATOM     64  N   UNL     1      12.313  18.454   0.167  1.00  0.00    -0.248 NA
ATOM     65  C   UNL     1      13.924  17.040  -0.765  1.00  0.00     0.031 C 
ATOM     66  C   UNL     1      12.857  22.842   0.698  1.00  0.00     0.029 A 
ATOM     67  C   UNL     1      12.707  21.475   0.523  1.00  0.00     0.049 A 
ATOM     68  H   UNL     1      11.039  20.258   0.951  1.00  0.00     0.167 HD
ATOM     69  C   UNL     1      13.443  19.199  -0.153  1.00  0.00     0.074 A 
ATOM     70  C   UNL     1      14.412  18.271  -0.699  1.00  0.00     0.031 C 
ATOM     71  C   UNL     1      13.660  20.530  -0.006  1.00  0.00     0.037 A 
BRANCH  58  72
ATOM     72  C   UNL     1       8.863  23.659   2.352  1.00  0.00     0.058 A 
ATOM     73  C   UNL     1       8.591  23.956   3.699  1.00  0.00     0.135 A 
ATOM     74  C   UNL     1       8.561  24.641   1.395  1.00  0.00     0.135 A 
ATOM     75  F   UNL     1       8.843  23.049   4.656  1.00  0.00    -0.206 F 
ATOM     76  C   UNL     1       7.998  25.157   4.075  1.00  0.00     0.059 A 
ATOM     77  C   UNL     1       7.998  25.863   1.753  1.00  0.00     0.059 A 
ATOM     78  F   UNL     1       8.801  24.414   0.094  1.00  0.00    -0.206 F 
ATOM     79  C   UNL     1       7.700  26.102   3.093  1.00  0.00     0.060 A 
BRANCH  79  80
ATOM     80  S   UNL     1       6.911  27.646   3.595  1.00  0.00     0.124 S 
ATOM     81  O   UNL     1       5.551  27.198   3.879  1.00  0.00    -0.237 OA
ATOM     82  O   UNL     1       7.703  28.039   4.756  1.00  0.00    -0.237 OA
ATOM     83  O   UNL     1       7.058  28.500   2.421  1.00  0.00    -0.744 OA
ENDBRANCH  79  80
ENDBRANCH  58  72
BRANCH  59  84
ATOM     84  C   UNL     1      12.260  14.645  -0.424  1.00  0.00     0.058 A 
ATOM     85  C   UNL     1      13.296  14.023   0.288  1.00  0.00     0.135 A 
ATOM     86  C   UNL     1      11.714  13.955  -1.518  1.00  0.00     0.135 A 
ATOM     87  F   UNL     1      13.854  14.645   1.339  1.00  0.00    -0.206 F 
ATOM     88  C   UNL     1      13.785  12.773  -0.076  1.00  0.00     0.059 A 
ATOM     89  C   UNL     1      12.169  12.692  -1.887  1.00  0.00     0.059 A 
ATOM     90  F   UNL     1      10.708  14.497  -2.221  1.00  0.00    -0.206 F 
ATOM     91  C   UNL     1      13.213  12.114  -1.165  1.00  0.00     0.060 A 
BRANCH  91  92
ATOM     92  S   UNL     1      13.821  10.469  -1.599  1.00  0.00     0.124 S 
ATOM     93  O   UNL     1      15.120  10.781  -2.182  1.00  0.00    -0.237 OA
ATOM     94  O   UNL     1      13.846   9.800  -0.302  1.00  0.00    -0.237 OA
ATOM     95  O   UNL     1      12.812   9.974  -2.530  1.00  0.00    -0.744 OA
ENDBRANCH  91  92
ENDBRANCH  59  84
BRANCH  71  96
ATOM     96  C   UNL     1      15.011  21.057  -0.402  1.00  0.00     0.058 A 
ATOM     97  C   UNL     1      15.390  21.182  -1.746  1.00  0.00     0.135 A 
ATOM     98  C   UNL     1      15.913  21.498   0.581  1.00  0.00     0.135 A 
ATOM     99  F   UNL     1      14.566  20.769  -2.722  1.00  0.00    -0.206 F 
ATOM    100  C   UNL     1      16.626  21.709  -2.104  1.00  0.00     0.059 A 
ATOM    101  C   UNL     1      17.143  22.053   0.244  1.00  0.00     0.059 A 
ATOM    102  F   UNL     1      15.593  21.409   1.881  1.00  0.00    -0.206 F 
ATOM    103  C   UNL     1      17.495  22.145  -1.101  1.00  0.00     0.060 A 
BRANCH 103 104
ATOM    104  S   UNL     1      19.079  22.864  -1.582  1.00  0.00     0.124 S 
ATOM    105  O   UNL     1      19.825  21.681  -1.996  1.00  0.00    -0.237 OA
ATOM    106  O   UNL     1      18.694  23.778  -2.653  1.00  0.00    -0.237 OA
ATOM    107  O   UNL     1      19.546  23.505  -0.356  1.00  0.00    -0.744 OA
ENDBRANCH 103 104
ENDBRANCH  71  96
ENDBRANCH  45  46
ENDBRANCH  37  40
ENDBRANCH  35  36
ENDBRANCH  34  35
ENDBRANCH   1  34
TORSDOF 18
