REMARK SMILES CC[C@@H](CCC(=O)NCCCNC(=O)c1ccc(-c2c3nc(c(-c4c(F)cc(S(=O)(=O)[O-])cc4F)c4ccc([nH]4)c(-c4c(F)cc(S(=O)(=O)[O-])cc4F)c4nc(c(-c5c(F)cc(S(=O)(=O)[O-])cc5F)c5ccc2[nH]5)C=C4)C=C3)cc1)CC[N@H+]1CCC[C@@H]1C
REMARK SMILES IDX 9 1 8 2 6 3 7 4 5 6 4 7 3 8 2 9 1 10 81 11 82 12 83 13 84 14
REMARK SMILES IDX 87 15 85 17 86 18 88 19 10 20 11 21 12 22 13 23 14 25 15 26
REMARK SMILES IDX 16 27 80 28 17 29 79 30 18 31 19 32 20 33 73 34 21 35 78 36
REMARK SMILES IDX 72 37 74 38 22 39 77 40 71 41 70 42 23 44 57 45 36 46 56 47
REMARK SMILES IDX 37 48 40 49 55 50 75 51 38 52 39 53 54 55 76 56 41 57 24 58
REMARK SMILES IDX 25 59 34 60 26 61 27 62 33 63 35 64 28 65 29 66 30 67 31 68
REMARK SMILES IDX 32 69 58 70 59 71 68 72 60 73 61 74 67 75 69 76 62 77 63 78
REMARK SMILES IDX 64 79 65 80 66 81 42 82 43 83 52 84 44 85 45 86 51 87 53 88
REMARK SMILES IDX 46 89 47 90 48 91 49 92 50 93
REMARK H PARENT 8 5 83 16 12 24 74 43 40 54
REMARK Flexibility Score: inf
ROOT
ATOM      1  C   UNL     1      -2.087   3.506   0.786  1.00  0.00     0.117 C 
ENDROOT
BRANCH   1   2
ATOM      2  N   UNL     1      -1.935   3.979  -0.580  1.00  0.00    -0.356 N 
ATOM      3  C   UNL     1      -1.682   3.322  -1.748  1.00  0.00     0.220 C 
ATOM      4  O   UNL     1      -1.812   3.958  -2.797  1.00  0.00    -0.275 OA
ATOM      5  H   UNL     1      -2.034   4.953  -0.681  1.00  0.00     0.163 HD
BRANCH   3   6
ATOM      6  C   UNL     1      -1.231   1.876  -1.776  1.00  0.00     0.100 C 
BRANCH   6   7
ATOM      7  C   UNL     1       0.194   1.691  -2.338  1.00  0.00     0.013 C 
BRANCH   7   8
ATOM      8  C   UNL     1       1.374   2.071  -1.399  1.00  0.00    -0.005 C 
BRANCH   8   9
ATOM      9  C   UNL     1       1.248   1.400  -0.016  1.00  0.00     0.000 C 
ATOM     10  C   UNL     1       1.449  -0.111  -0.066  1.00  0.00     0.004 C 
ENDBRANCH   8   9
BRANCH   8  11
ATOM     11  C   UNL     1       1.590   3.608  -1.423  1.00  0.00     0.065 C 
BRANCH  11  12
ATOM     12  C   UNL     1       2.248   4.281  -0.220  1.00  0.00     0.262 C 
BRANCH  12  13
ATOM     13  N   UNL     1       3.619   3.823   0.035  1.00  0.00    -0.333 N 
ATOM     14  C   UNL     1       4.586   4.871  -0.362  1.00  0.00     0.262 C 
ATOM     15  C   UNL     1       3.855   3.630   1.490  1.00  0.00     0.181 C 
ATOM     16  H   UNL     1       3.739   2.956  -0.488  1.00  0.00     0.348 HD
ATOM     17  C   UNL     1       4.618   5.823   0.817  1.00  0.00     0.067 C 
ATOM     18  C   UNL     1       4.546   4.887   2.006  1.00  0.00     0.070 C 
ATOM     19  C   UNL     1       4.707   2.385   1.730  1.00  0.00     0.075 C 
ENDBRANCH  12  13
ENDBRANCH  11  12
ENDBRANCH   8  11
ENDBRANCH   7   8
ENDBRANCH   6   7
ENDBRANCH   3   6
ENDBRANCH   1   2
BRANCH   1  20
ATOM     20  C   UNL     1      -0.990   3.954   1.762  1.00  0.00     0.042 C 
BRANCH  20  21
ATOM     21  C   UNL     1      -0.716   5.468   1.845  1.00  0.00     0.118 C 
BRANCH  21  22
ATOM     22  N   UNL     1      -0.903   5.949   3.207  1.00  0.00    -0.352 N 
ATOM     23  C   UNL     1      -0.071   6.502   4.147  1.00  0.00     0.251 C 
ATOM     24  H   UNL     1      -1.831   5.857   3.522  1.00  0.00     0.163 HD
ATOM     25  O   UNL     1      -0.501   6.537   5.303  1.00  0.00    -0.269 OA
BRANCH  23  26
ATOM     26  C   UNL     1       1.282   7.075   3.879  1.00  0.00     0.039 A 
ATOM     27  C   UNL     1       2.201   7.067   4.943  1.00  0.00     0.014 A 
ATOM     28  C   UNL     1       1.627   7.770   2.720  1.00  0.00     0.014 A 
ATOM     29  C   UNL     1       3.434   7.735   4.856  1.00  0.00     0.010 A 
ATOM     30  C   UNL     1       2.883   8.415   2.622  1.00  0.00     0.010 A 
ATOM     31  C   UNL     1       3.805   8.415   3.689  1.00  0.00    -0.014 A 
BRANCH  31  32
ATOM     32  C   UNL     1       5.129   9.122   3.591  1.00  0.00     0.031 A 
ATOM     33  C   UNL     1       5.205  10.622   3.416  1.00  0.00     0.074 A 
ATOM     34  C   UNL     1       6.294   8.439   3.641  1.00  0.00     0.049 A 
ATOM     35  N   UNL     1       6.264  11.386   3.289  1.00  0.00    -0.248 NA
ATOM     36  C   UNL     1       3.933  11.357   3.392  1.00  0.00     0.031 C 
ATOM     37  C   UNL     1       6.424   7.000   3.848  1.00  0.00     0.029 A 
ATOM     38  N   UNL     1       7.598   8.860   3.490  1.00  0.00    -0.354 N 
ATOM     39  C   UNL     1       5.791  12.690   3.189  1.00  0.00     0.074 A 
ATOM     40  C   UNL     1       4.344  12.605   3.205  1.00  0.00     0.031 C 
ATOM     41  C   UNL     1       7.713   6.643   3.733  1.00  0.00     0.029 A 
ATOM     42  C   UNL     1       8.515   7.833   3.474  1.00  0.00     0.049 A 
ATOM     43  H   UNL     1       7.850   9.807   3.401  1.00  0.00     0.167 HD
ATOM     44  C   UNL     1       6.485  13.854   3.127  1.00  0.00     0.037 A 
ATOM     45  C   UNL     1       9.850   7.829   3.278  1.00  0.00     0.037 A 
ATOM     46  C   UNL     1       7.922  13.967   3.132  1.00  0.00     0.049 A 
ATOM     47  C   UNL     1      10.598   9.123   3.129  1.00  0.00     0.074 A 
ATOM     48  C   UNL     1       8.692  15.120   3.151  1.00  0.00     0.029 A 
ATOM     49  N   UNL     1       8.808  12.903   3.108  1.00  0.00    -0.354 N 
ATOM     50  N   UNL     1      10.130  10.346   3.125  1.00  0.00    -0.248 NA
ATOM     51  C   UNL     1      12.061   9.039   2.996  1.00  0.00     0.031 C 
ATOM     52  C   UNL     1      10.042  14.753   3.095  1.00  0.00     0.029 A 
ATOM     53  C   UNL     1      10.114  13.371   3.081  1.00  0.00     0.049 A 
ATOM     54  H   UNL     1       8.549  11.953   3.109  1.00  0.00     0.167 HD
ATOM     55  C   UNL     1      11.243  11.177   3.043  1.00  0.00     0.074 A 
ATOM     56  C   UNL     1      12.407  10.320   2.986  1.00  0.00     0.031 C 
ATOM     57  C   UNL     1      11.285  12.532   3.037  1.00  0.00     0.037 A 
BRANCH  44  58
ATOM     58  C   UNL     1       5.689  15.128   3.069  1.00  0.00     0.058 A 
ATOM     59  C   UNL     1       5.016  15.620   4.200  1.00  0.00     0.135 A 
ATOM     60  C   UNL     1       5.636  15.889   1.891  1.00  0.00     0.135 A 
ATOM     61  F   UNL     1       5.033  14.928   5.350  1.00  0.00    -0.206 F 
ATOM     62  C   UNL     1       4.289  16.804   4.154  1.00  0.00     0.059 A 
ATOM     63  C   UNL     1       4.933  17.089   1.829  1.00  0.00     0.059 A 
ATOM     64  F   UNL     1       6.270  15.468   0.785  1.00  0.00    -0.206 F 
ATOM     65  C   UNL     1       4.248  17.529   2.962  1.00  0.00     0.060 A 
BRANCH  65  66
ATOM     66  S   UNL     1       3.288  19.057   2.913  1.00  0.00     0.124 S 
ATOM     67  O   UNL     1       1.925  18.538   2.848  1.00  0.00    -0.237 OA
ATOM     68  O   UNL     1       3.660  19.703   4.167  1.00  0.00    -0.237 OA
ATOM     69  O   UNL     1       3.766  19.720   1.704  1.00  0.00    -0.744 OA
ENDBRANCH  65  66
ENDBRANCH  44  58
BRANCH  45  70
ATOM     70  C   UNL     1      10.585   6.537   3.243  1.00  0.00     0.058 A 
ATOM     71  C   UNL     1      11.386   6.130   4.319  1.00  0.00     0.135 A 
ATOM     72  C   UNL     1      10.507   5.693   2.124  1.00  0.00     0.135 A 
ATOM     73  F   UNL     1      11.497   6.910   5.404  1.00  0.00    -0.206 F 
ATOM     74  C   UNL     1      12.101   4.937   4.282  1.00  0.00     0.059 A 
ATOM     75  C   UNL     1      11.198   4.486   2.072  1.00  0.00     0.059 A 
ATOM     76  F   UNL     1       9.743   6.036   1.075  1.00  0.00    -0.206 F 
ATOM     77  C   UNL     1      12.001   4.122   3.152  1.00  0.00     0.060 A 
BRANCH  77  78
ATOM     78  S   UNL     1      12.907   2.560   3.132  1.00  0.00     0.124 S 
ATOM     79  O   UNL     1      14.275   3.016   2.937  1.00  0.00    -0.237 OA
ATOM     80  O   UNL     1      12.596   2.010   4.449  1.00  0.00    -0.237 OA
ATOM     81  O   UNL     1      12.310   1.842   2.007  1.00  0.00    -0.744 OA
ENDBRANCH  77  78
ENDBRANCH  45  70
BRANCH  57  82
ATOM     82  C   UNL     1      12.637  13.191   3.015  1.00  0.00     0.058 A 
ATOM     83  C   UNL     1      13.430  13.218   1.857  1.00  0.00     0.135 A 
ATOM     84  C   UNL     1      13.128  13.844   4.158  1.00  0.00     0.135 A 
ATOM     85  F   UNL     1      13.014  12.601   0.740  1.00  0.00    -0.206 F 
ATOM     86  C   UNL     1      14.668  13.855   1.837  1.00  0.00     0.059 A 
ATOM     87  C   UNL     1      14.353  14.507   4.154  1.00  0.00     0.059 A 
ATOM     88  F   UNL     1      12.409  13.853   5.292  1.00  0.00    -0.206 F 
ATOM     89  C   UNL     1      15.121  14.498   2.990  1.00  0.00     0.060 A 
BRANCH  89  90
ATOM     90  S   UNL     1      16.709  15.359   2.942  1.00  0.00     0.124 S 
ATOM     91  O   UNL     1      17.649  14.246   3.021  1.00  0.00    -0.237 OA
ATOM     92  O   UNL     1      16.653  16.051   1.658  1.00  0.00    -0.237 OA
ATOM     93  O   UNL     1      16.660  16.226   4.115  1.00  0.00    -0.744 OA
ENDBRANCH  89  90
ENDBRANCH  57  82
ENDBRANCH  31  32
ENDBRANCH  23  26
ENDBRANCH  21  22
ENDBRANCH  20  21
ENDBRANCH   1  20
TORSDOF 19
