REMARK SMILES Cc1c(CC(=O)N[C@@H](CCO)C(=O)NCCCNC(=O)c2ccc(-c3c4nc(c(-c5c(F)cc(S(=O)(=O)[O-])cc5F)c5ccc([nH]5)c(-c5c(F)cc(S(=O)(=O)[O-])cc5F)c5nc(c(-c6c(F)cc(S(=O)(=O)[O-])cc6F)c6ccc3[nH]6)C=C5)C=C4)cc2)cc(-c2ccc(S(C)(=O)=O)cc2)n1-c1ccc(F)cc1
REMARK SMILES IDX 15 1 14 2 12 3 13 4 8 6 7 7 5 8 6 9 4 11 3 12 1 13 2 14
REMARK SMILES IDX 99 15 87 16 88 17 100 18 101 19 106 20 102 21 105 22 103 23
REMARK SMILES IDX 104 24 89 25 90 26 98 27 91 28 97 29 92 30 93 31 94 32 95 33
REMARK SMILES IDX 96 34 9 35 10 36 11 37 16 39 17 40 18 41 19 42 20 44 21 45
REMARK SMILES IDX 22 46 86 47 23 48 85 49 24 50 25 51 26 52 79 53 27 54 84 55
REMARK SMILES IDX 78 56 80 57 28 58 83 59 77 60 76 61 29 63 63 64 42 65 62 66
REMARK SMILES IDX 43 67 46 68 61 69 81 70 44 71 45 72 60 74 82 75 47 76 30 77
REMARK SMILES IDX 31 78 40 79 32 80 33 81 39 82 41 83 34 84 35 85 36 86 37 87
REMARK SMILES IDX 38 88 64 89 65 90 74 91 66 92 67 93 73 94 75 95 68 96 69 97
REMARK SMILES IDX 70 98 71 99 72 100 48 101 49 102 58 103 50 104 51 105 57 106
REMARK SMILES IDX 59 107 52 108 53 109 54 110 55 111 56 112
REMARK H PARENT 14 5 7 10 11 38 18 43 80 62 46 73
REMARK Flexibility Score: inf
ROOT
ATOM      1  C   UNL     1      -4.361  -4.527  -0.583  1.00  0.00     0.117 C 
ENDROOT
BRANCH   1   2
ATOM      2  N   UNL     1      -3.928  -4.896   0.756  1.00  0.00    -0.354 N 
ATOM      3  C   UNL     1      -3.072  -4.362   1.663  1.00  0.00     0.242 C 
ATOM      4  O   UNL     1      -3.056  -4.899   2.777  1.00  0.00    -0.273 OA
ATOM      5  H   UNL     1      -4.354  -5.724   1.078  1.00  0.00     0.163 HD
BRANCH   3   6
ATOM      6  C   UNL     1      -2.269  -3.070   1.444  1.00  0.00     0.173 C 
BRANCH   6   7
ATOM      7  N   UNL     1      -1.499  -3.050   0.204  1.00  0.00    -0.344 N 
ATOM      8  C   UNL     1      -0.135  -2.997   0.075  1.00  0.00     0.225 C 
ATOM      9  O   UNL     1       0.341  -3.165  -1.051  1.00  0.00    -0.275 OA
ATOM     10  H   UNL     1      -2.017  -3.079  -0.632  1.00  0.00     0.164 HD
BRANCH   8  11
ATOM     11  C   UNL     1       0.766  -2.740   1.285  1.00  0.00     0.137 C 
BRANCH  11  12
ATOM     12  C   UNL     1       0.503  -1.411   1.938  1.00  0.00    -0.017 A 
ATOM     13  C   UNL     1       1.031   0.179  -0.032  1.00  0.00     0.065 C 
ATOM     14  C   UNL     1       0.549  -0.155   1.345  1.00  0.00     0.024 A 
ATOM     15  N   UNL     1       0.146   0.786   2.286  1.00  0.00    -0.314 N 
ATOM     16  C   UNL     1       0.163  -1.206   3.303  1.00  0.00     0.033 A 
ATOM     17  C   UNL     1      -0.103   0.138   3.499  1.00  0.00     0.053 A 
BRANCH  15  18
ATOM     18  C   UNL     1      -0.011   2.179   2.061  1.00  0.00     0.046 A 
ATOM     19  C   UNL     1       0.610   3.092   2.924  1.00  0.00     0.029 A 
ATOM     20  C   UNL     1      -0.855   2.624   1.034  1.00  0.00     0.029 A 
ATOM     21  C   UNL     1       0.388   4.457   2.754  1.00  0.00     0.041 A 
ATOM     22  C   UNL     1      -1.079   3.992   0.879  1.00  0.00     0.041 A 
ATOM     23  C   UNL     1      -0.456   4.893   1.738  1.00  0.00     0.123 A 
ATOM     24  F   UNL     1      -0.682   6.205   1.591  1.00  0.00    -0.207 F 
ENDBRANCH  15  18
BRANCH  17  25
ATOM     25  C   UNL     1      -0.635   0.786   4.707  1.00  0.00    -0.001 A 
ATOM     26  C   UNL     1      -1.808   1.559   4.658  1.00  0.00     0.011 A 
ATOM     27  C   UNL     1       0.044   0.663   5.926  1.00  0.00     0.011 A 
ATOM     28  C   UNL     1      -2.247   2.265   5.781  1.00  0.00     0.021 A 
ATOM     29  C   UNL     1      -0.392   1.361   7.056  1.00  0.00     0.021 A 
ATOM     30  C   UNL     1      -1.517   2.183   6.968  1.00  0.00     0.067 A 
BRANCH  30  31
ATOM     31  S   UNL     1      -2.049   3.133   8.373  1.00  0.00     0.175 S 
ATOM     32  C   UNL     1      -1.800   4.817   7.872  1.00  0.00     0.163 C 
ATOM     33  O   UNL     1      -3.460   2.909   8.539  1.00  0.00    -0.224 OA
ATOM     34  O   UNL     1      -1.110   2.871   9.463  1.00  0.00    -0.224 OA
ENDBRANCH  30  31
ENDBRANCH  17  25
ENDBRANCH  11  12
ENDBRANCH   8  11
ENDBRANCH   6   7
BRANCH   6  35
ATOM     35  C   UNL     1      -3.020  -1.758   1.741  1.00  0.00     0.063 C 
BRANCH  35  36
ATOM     36  C   UNL     1      -4.303  -1.454   0.985  1.00  0.00     0.158 C 
BRANCH  36  37
ATOM     37  O   UNL     1      -5.416  -2.191   1.463  1.00  0.00    -0.396 OA
ATOM     38  H   UNL     1      -5.249  -3.139   1.347  1.00  0.00     0.210 HD
ENDBRANCH  36  37
ENDBRANCH  35  36
ENDBRANCH   6  35
ENDBRANCH   3   6
ENDBRANCH   1   2
BRANCH   1  39
ATOM     39  C   UNL     1      -3.850  -5.451  -1.694  1.00  0.00     0.042 C 
BRANCH  39  40
ATOM     40  C   UNL     1      -4.021  -6.962  -1.469  1.00  0.00     0.118 C 
BRANCH  40  41
ATOM     41  N   UNL     1      -5.136  -7.547  -2.178  1.00  0.00    -0.352 N 
ATOM     42  C   UNL     1      -5.201  -8.799  -2.772  1.00  0.00     0.251 C 
ATOM     43  H   UNL     1      -5.946  -6.991  -2.248  1.00  0.00     0.163 HD
ATOM     44  O   UNL     1      -6.248  -9.102  -3.339  1.00  0.00    -0.269 OA
BRANCH  42  45
ATOM     45  C   UNL     1      -3.988  -9.698  -2.847  1.00  0.00     0.039 A 
ATOM     46  C   UNL     1      -3.204  -9.621  -3.984  1.00  0.00     0.014 A 
ATOM     47  C   UNL     1      -3.660 -10.717  -1.934  1.00  0.00     0.014 A 
ATOM     48  C   UNL     1      -2.087 -10.494  -4.162  1.00  0.00     0.010 A 
ATOM     49  C   UNL     1      -2.574 -11.676  -2.175  1.00  0.00     0.010 A 
ATOM     50  C   UNL     1      -1.737 -11.613  -3.311  1.00  0.00    -0.014 A 
BRANCH  50  51
ATOM     51  C   UNL     1      -0.945 -12.854  -4.061  1.00  0.00     0.031 A 
ATOM     52  C   UNL     1      -1.760 -12.967  -5.309  1.00  0.00     0.074 A 
ATOM     53  C   UNL     1       0.056 -13.836  -3.929  1.00  0.00     0.049 A 
ATOM     54  N   UNL     1      -3.050 -13.138  -5.197  1.00  0.00    -0.248 NA
ATOM     55  C   UNL     1      -1.332 -12.438  -6.606  1.00  0.00     0.031 C 
ATOM     56  C   UNL     1       0.866 -14.161  -2.740  1.00  0.00     0.029 A 
ATOM     57  N   UNL     1       0.612 -14.812  -4.841  1.00  0.00    -0.354 N 
ATOM     58  C   UNL     1      -3.569 -13.054  -6.461  1.00  0.00     0.074 A 
ATOM     59  C   UNL     1      -2.521 -12.379  -7.222  1.00  0.00     0.031 C 
ATOM     60  C   UNL     1       1.854 -15.072  -3.010  1.00  0.00     0.029 A 
ATOM     61  C   UNL     1       1.807 -15.535  -4.401  1.00  0.00     0.049 A 
ATOM     62  H   UNL     1       0.204 -14.983  -5.721  1.00  0.00     0.167 HD
ATOM     63  C   UNL     1      -4.312 -14.137  -6.831  1.00  0.00     0.037 A 
ATOM     64  C   UNL     1       2.632 -16.478  -5.050  1.00  0.00     0.037 A 
ATOM     65  C   UNL     1      -3.519 -15.076  -7.582  1.00  0.00     0.049 A 
ATOM     66  C   UNL     1       1.767 -17.102  -6.057  1.00  0.00     0.074 A 
ATOM     67  C   UNL     1      -2.607 -14.914  -8.607  1.00  0.00     0.029 A 
ATOM     68  N   UNL     1      -3.223 -16.278  -6.974  1.00  0.00    -0.354 N 
ATOM     69  N   UNL     1       0.864 -17.977  -5.742  1.00  0.00    -0.248 NA
ATOM     70  C   UNL     1       1.915 -16.824  -7.480  1.00  0.00     0.031 C 
ATOM     71  C   UNL     1      -1.503 -15.696  -8.211  1.00  0.00     0.029 A 
ATOM     72  C   UNL     1      -1.928 -16.635  -7.281  1.00  0.00     0.049 A 
ATOM     73  H   UNL     1      -3.839 -16.798  -6.409  1.00  0.00     0.167 HD
ATOM     74  C   UNL     1       0.015 -17.921  -6.798  1.00  0.00     0.074 A 
ATOM     75  C   UNL     1       0.815 -17.442  -7.913  1.00  0.00     0.031 C 
ATOM     76  C   UNL     1      -1.284 -17.666  -6.506  1.00  0.00     0.037 A 
BRANCH  63  77
ATOM     77  C   UNL     1      -5.347 -14.532  -5.807  1.00  0.00     0.058 A 
ATOM     78  C   UNL     1      -6.696 -14.274  -6.072  1.00  0.00     0.135 A 
ATOM     79  C   UNL     1      -5.028 -15.046  -4.528  1.00  0.00     0.135 A 
ATOM     80  F   UNL     1      -7.068 -13.816  -7.279  1.00  0.00    -0.206 F 
ATOM     81  C   UNL     1      -7.679 -14.479  -5.107  1.00  0.00     0.059 A 
ATOM     82  C   UNL     1      -5.984 -15.205  -3.532  1.00  0.00     0.059 A 
ATOM     83  F   UNL     1      -3.769 -15.412  -4.233  1.00  0.00    -0.206 F 
ATOM     84  C   UNL     1      -7.311 -14.922  -3.833  1.00  0.00     0.060 A 
BRANCH  84  85
ATOM     85  S   UNL     1      -8.596 -15.117  -2.580  1.00  0.00     0.124 S 
ATOM     86  O   UNL     1      -9.334 -13.861  -2.691  1.00  0.00    -0.237 OA
ATOM     87  O   UNL     1      -9.302 -16.298  -3.063  1.00  0.00    -0.237 OA
ATOM     88  O   UNL     1      -7.848 -15.279  -1.337  1.00  0.00    -0.744 OA
ENDBRANCH  84  85
ENDBRANCH  63  77
BRANCH  64  89
ATOM     89  C   UNL     1       4.016 -17.265  -5.059  1.00  0.00     0.058 A 
ATOM     90  C   UNL     1       4.155 -18.547  -5.719  1.00  0.00     0.135 A 
ATOM     91  C   UNL     1       5.260 -16.647  -4.849  1.00  0.00     0.135 A 
ATOM     92  F   UNL     1       3.087 -19.320  -5.963  1.00  0.00    -0.206 F 
ATOM     93  C   UNL     1       5.360 -19.074  -6.240  1.00  0.00     0.059 A 
ATOM     94  C   UNL     1       6.496 -17.177  -5.341  1.00  0.00     0.059 A 
ATOM     95  F   UNL     1       5.312 -15.456  -4.235  1.00  0.00    -0.206 F 
ATOM     96  C   UNL     1       6.533 -18.361  -6.083  1.00  0.00     0.060 A 
BRANCH  96  97
ATOM     97  S   UNL     1       8.031 -18.911  -6.979  1.00  0.00     0.124 S 
ATOM     98  O   UNL     1       8.367 -20.165  -6.312  1.00  0.00    -0.237 OA
ATOM     99  O   UNL     1       7.548 -19.040  -8.352  1.00  0.00    -0.237 OA
ATOM    100  O   UNL     1       8.974 -17.817  -6.764  1.00  0.00    -0.744 OA
ENDBRANCH  96  97
ENDBRANCH  64  89
BRANCH  76 101
ATOM    101  C   UNL     1      -1.895 -18.409  -5.328  1.00  0.00     0.058 A 
ATOM    102  C   UNL     1      -1.367 -18.527  -4.019  1.00  0.00     0.135 A 
ATOM    103  C   UNL     1      -3.071 -19.136  -5.579  1.00  0.00     0.135 A 
ATOM    104  F   UNL     1      -0.320 -17.798  -3.604  1.00  0.00    -0.206 F 
ATOM    105  C   UNL     1      -1.914 -19.398  -3.071  1.00  0.00     0.059 A 
ATOM    106  C   UNL     1      -3.668 -19.961  -4.629  1.00  0.00     0.059 A 
ATOM    107  F   UNL     1      -3.661 -19.055  -6.783  1.00  0.00    -0.206 F 
ATOM    108  C   UNL     1      -3.056 -20.125  -3.392  1.00  0.00     0.060 A 
BRANCH 108 109
ATOM    109  S   UNL     1      -3.723 -21.299  -2.194  1.00  0.00     0.124 S 
ATOM    110  O   UNL     1      -2.708 -22.348  -2.204  1.00  0.00    -0.237 OA
ATOM    111  O   UNL     1      -3.794 -20.505  -0.972  1.00  0.00    -0.237 OA
ATOM    112  O   UNL     1      -5.008 -21.681  -2.773  1.00  0.00    -0.744 OA
ENDBRANCH 108 109
ENDBRANCH  76 101
ENDBRANCH  50  51
ENDBRANCH  42  45
ENDBRANCH  40  41
ENDBRANCH  39  40
ENDBRANCH   1  39
TORSDOF 22
