REMARK SMILES CCOc1cc(CO)cc(Br)c1OCC(C)(C)C(=O)NCCCNC(=O)c1ccc(-c2c3nc(c(-c4c(F)cc(S(=O)(=O)[O-])cc4F)c4ccc([nH]4)c(-c4c(F)cc(S(=O)(=O)[O-])cc4F)c4nc(c(-c5c(F)cc(S(=O)(=O)[O-])cc5F)c5ccc2[nH]5)C=C4)C=C3)cc1
REMARK SMILES IDX 21 1 20 2 18 3 19 4 15 6 16 7 17 8 14 9 13 10 12 11 4 12
REMARK SMILES IDX 5 13 6 14 10 15 9 16 11 17 3 18 2 19 1 20 7 21 8 22 22 24
REMARK SMILES IDX 23 25 24 26 25 27 26 29 27 30 28 31 92 32 29 33 91 34 30 35
REMARK SMILES IDX 31 36 32 37 85 38 33 39 90 40 84 41 86 42 34 43 89 44 83 45
REMARK SMILES IDX 82 46 35 48 69 49 48 50 68 51 49 52 52 53 67 54 87 55 50 56
REMARK SMILES IDX 51 57 66 59 88 60 53 61 36 62 37 63 46 64 38 65 39 66 45 67
REMARK SMILES IDX 47 68 40 69 41 70 42 71 43 72 44 73 70 74 71 75 80 76 72 77
REMARK SMILES IDX 73 78 79 79 81 80 74 81 75 82 76 83 77 84 78 85 54 86 55 87
REMARK SMILES IDX 64 88 56 89 57 90 63 91 65 92 58 93 59 94 60 95 61 96 62 97
REMARK H PARENT 20 5 8 23 24 28 86 47 52 58
REMARK Flexibility Score: inf
ROOT
ATOM      1  C   UNL     1       4.995   7.216   1.607  1.00  0.00     0.117 C 
ENDROOT
BRANCH   1   2
ATOM      2  N   UNL     1       3.587   6.887   1.408  1.00  0.00    -0.355 N 
ATOM      3  C   UNL     1       2.898   6.387   0.338  1.00  0.00     0.229 C 
ATOM      4  O   UNL     1       1.696   6.179   0.515  1.00  0.00    -0.274 OA
ATOM      5  H   UNL     1       3.025   7.057   2.198  1.00  0.00     0.163 HD
BRANCH   3   6
ATOM      6  C   UNL     1       3.590   6.113  -1.008  1.00  0.00     0.077 C 
ATOM      7  C   UNL     1       4.740   5.126  -0.775  1.00  0.00     0.025 C 
ATOM      8  C   UNL     1       4.099   7.464  -1.571  1.00  0.00     0.025 C 
BRANCH   6   9
ATOM      9  C   UNL     1       2.544   5.616  -2.085  1.00  0.00     0.246 C 
BRANCH   9  10
ATOM     10  O   UNL     1       2.039   4.274  -2.100  1.00  0.00    -0.487 OA
BRANCH  10  11
ATOM     11  C   UNL     1       2.848   3.180  -2.221  1.00  0.00     0.175 A 
ATOM     12  C   UNL     1       2.418   2.065  -1.472  1.00  0.00     0.162 A 
ATOM     13  C   UNL     1       3.302   1.019  -1.206  1.00  0.00     0.056 A 
ATOM     14  C   UNL     1       4.615   1.051  -1.686  1.00  0.00    -0.018 A 
ATOM     15  C   UNL     1       4.056   3.075  -2.921  1.00  0.00     0.064 A 
ATOM     16  C   UNL     1       4.956   2.046  -2.607  1.00  0.00     0.026 A 
ATOM     17  Br  UNL     1       4.563   4.205  -4.366  1.00  0.00    -0.047 Br
BRANCH  12  18
ATOM     18  O   UNL     1       1.084   2.003  -1.159  1.00  0.00    -0.490 OA
BRANCH  18  19
ATOM     19  C   UNL     1       0.707   1.536   0.134  1.00  0.00     0.226 C 
ATOM     20  C   UNL     1       0.520   0.026   0.194  1.00  0.00     0.049 C 
ENDBRANCH  18  19
ENDBRANCH  12  18
BRANCH  14  21
ATOM     21  C   UNL     1       5.599  -0.023  -1.309  1.00  0.00     0.191 C 
BRANCH  21  22
ATOM     22  O   UNL     1       5.467  -0.381   0.063  1.00  0.00    -0.392 OA
ATOM     23  H   UNL     1       5.643   0.396   0.617  1.00  0.00     0.211 HD
ENDBRANCH  21  22
ENDBRANCH  14  21
ENDBRANCH  10  11
ENDBRANCH   9  10
ENDBRANCH   6   9
ENDBRANCH   3   6
ENDBRANCH   1   2
BRANCH   1  24
ATOM     24  C   UNL     1       5.208   8.632   2.101  1.00  0.00     0.042 C 
BRANCH  24  25
ATOM     25  C   UNL     1       4.679   8.861   3.503  1.00  0.00     0.118 C 
BRANCH  25  26
ATOM     26  N   UNL     1       5.355   8.032   4.495  1.00  0.00    -0.352 N 
ATOM     27  C   UNL     1       6.200   8.393   5.515  1.00  0.00     0.251 C 
ATOM     28  H   UNL     1       5.177   7.066   4.423  1.00  0.00     0.163 HD
ATOM     29  O   UNL     1       6.846   7.529   6.105  1.00  0.00    -0.269 OA
BRANCH  27  30
ATOM     30  C   UNL     1       6.344   9.816   5.881  1.00  0.00     0.039 A 
ATOM     31  C   UNL     1       7.607  10.322   6.193  1.00  0.00     0.014 A 
ATOM     32  C   UNL     1       5.229  10.656   5.899  1.00  0.00     0.014 A 
ATOM     33  C   UNL     1       7.756  11.686   6.451  1.00  0.00     0.010 A 
ATOM     34  C   UNL     1       5.398  12.027   6.029  1.00  0.00     0.010 A 
ATOM     35  C   UNL     1       6.660  12.556   6.329  1.00  0.00    -0.014 A 
BRANCH  35  36
ATOM     36  C   UNL     1       6.800  14.018   6.540  1.00  0.00     0.031 A 
ATOM     37  C   UNL     1       6.004  14.698   7.623  1.00  0.00     0.074 A 
ATOM     38  C   UNL     1       7.588  14.740   5.718  1.00  0.00     0.049 A 
ATOM     39  N   UNL     1       5.939  15.968   7.927  1.00  0.00    -0.248 NA
ATOM     40  C   UNL     1       5.138  13.842   8.453  1.00  0.00     0.031 C 
ATOM     41  C   UNL     1       8.356  14.203   4.592  1.00  0.00     0.029 A 
ATOM     42  N   UNL     1       7.870  16.082   5.699  1.00  0.00    -0.354 N 
ATOM     43  C   UNL     1       5.019  16.062   8.965  1.00  0.00     0.074 A 
ATOM     44  C   UNL     1       4.497  14.735   9.191  1.00  0.00     0.031 C 
ATOM     45  C   UNL     1       9.049  15.198   4.016  1.00  0.00     0.029 A 
ATOM     46  C   UNL     1       8.743  16.449   4.702  1.00  0.00     0.049 A 
ATOM     47  H   UNL     1       7.484  16.723   6.339  1.00  0.00     0.167 HD
ATOM     48  C   UNL     1       4.665  17.151   9.687  1.00  0.00     0.037 A 
ATOM     49  C   UNL     1       9.238  17.659   4.376  1.00  0.00     0.037 A 
ATOM     50  C   UNL     1       5.215  18.464   9.475  1.00  0.00     0.049 A 
ATOM     51  C   UNL     1       8.837  18.854   5.198  1.00  0.00     0.074 A 
ATOM     52  C   UNL     1       4.975  19.623  10.191  1.00  0.00     0.029 A 
ATOM     53  N   UNL     1       6.115  18.791   8.471  1.00  0.00    -0.354 N 
ATOM     54  N   UNL     1       8.021  18.912   6.225  1.00  0.00    -0.248 NA
ATOM     55  C   UNL     1       9.428  20.145   4.825  1.00  0.00     0.031 C 
ATOM     56  C   UNL     1       5.691  20.662   9.588  1.00  0.00     0.029 A 
ATOM     57  C   UNL     1       6.422  20.140   8.533  1.00  0.00     0.049 A 
ATOM     58  H   UNL     1       6.481  18.158   7.811  1.00  0.00     0.167 HD
ATOM     59  C   UNL     1       8.024  20.240   6.638  1.00  0.00     0.074 A 
ATOM     60  C   UNL     1       8.935  20.946   5.759  1.00  0.00     0.031 C 
ATOM     61  C   UNL     1       7.335  20.824   7.650  1.00  0.00     0.037 A 
BRANCH  48  62
ATOM     62  C   UNL     1       3.645  16.964  10.779  1.00  0.00     0.058 A 
ATOM     63  C   UNL     1       3.932  16.227  11.940  1.00  0.00     0.135 A 
ATOM     64  C   UNL     1       2.374  17.552  10.677  1.00  0.00     0.135 A 
ATOM     65  F   UNL     1       5.124  15.627  12.084  1.00  0.00    -0.206 F 
ATOM     66  C   UNL     1       2.986  16.052  12.944  1.00  0.00     0.059 A 
ATOM     67  C   UNL     1       1.423  17.417  11.684  1.00  0.00     0.059 A 
ATOM     68  F   UNL     1       2.044  18.265   9.588  1.00  0.00    -0.206 F 
ATOM     69  C   UNL     1       1.734  16.652  12.808  1.00  0.00     0.060 A 
BRANCH  69  70
ATOM     70  S   UNL     1       0.522  16.422  14.125  1.00  0.00     0.124 S 
ATOM     71  O   UNL     1       0.155  15.021  13.942  1.00  0.00    -0.237 OA
ATOM     72  O   UNL     1       1.302  16.722  15.321  1.00  0.00    -0.237 OA
ATOM     73  O   UNL     1      -0.521  17.391  13.802  1.00  0.00    -0.744 OA
ENDBRANCH  69  70
ENDBRANCH  48  62
BRANCH  49  74
ATOM     74  C   UNL     1      10.187  17.794   3.238  1.00  0.00     0.058 A 
ATOM     75  C   UNL     1      11.537  18.108   3.456  1.00  0.00     0.135 A 
ATOM     76  C   UNL     1       9.769  17.600   1.912  1.00  0.00     0.135 A 
ATOM     77  F   UNL     1      11.986  18.307   4.705  1.00  0.00    -0.206 F 
ATOM     78  C   UNL     1      12.435  18.244   2.402  1.00  0.00     0.059 A 
ATOM     79  C   UNL     1      10.654  17.702   0.843  1.00  0.00     0.059 A 
ATOM     80  F   UNL     1       8.493  17.279   1.649  1.00  0.00    -0.206 F 
ATOM     81  C   UNL     1      11.983  18.036   1.098  1.00  0.00     0.060 A 
BRANCH  81  82
ATOM     82  S   UNL     1      13.168  18.169  -0.259  1.00  0.00     0.124 S 
ATOM     83  O   UNL     1      13.398  19.608  -0.308  1.00  0.00    -0.237 OA
ATOM     84  O   UNL     1      14.281  17.360   0.226  1.00  0.00    -0.237 OA
ATOM     85  O   UNL     1      12.442  17.607  -1.394  1.00  0.00    -0.744 OA
ENDBRANCH  81  82
ENDBRANCH  49  74
BRANCH  61  86
ATOM     86  C   UNL     1       7.566  22.291   7.886  1.00  0.00     0.058 A 
ATOM     87  C   UNL     1       7.088  23.267   6.998  1.00  0.00     0.135 A 
ATOM     88  C   UNL     1       8.237  22.727   9.040  1.00  0.00     0.135 A 
ATOM     89  F   UNL     1       6.444  22.904   5.877  1.00  0.00    -0.206 F 
ATOM     90  C   UNL     1       7.295  24.623   7.229  1.00  0.00     0.059 A 
ATOM     91  C   UNL     1       8.427  24.079   9.308  1.00  0.00     0.059 A 
ATOM     92  F   UNL     1       8.703  21.836   9.929  1.00  0.00    -0.206 F 
ATOM     93  C   UNL     1       7.965  25.019   8.388  1.00  0.00     0.060 A 
BRANCH  93  94
ATOM     94  S   UNL     1       8.207  26.782   8.687  1.00  0.00     0.124 S 
ATOM     95  O   UNL     1       9.239  27.107   7.707  1.00  0.00    -0.237 OA
ATOM     96  O   UNL     1       6.881  27.329   8.417  1.00  0.00    -0.237 OA
ATOM     97  O   UNL     1       8.629  26.836  10.084  1.00  0.00    -0.744 OA
ENDBRANCH  93  94
ENDBRANCH  61  86
ENDBRANCH  35  36
ENDBRANCH  27  30
ENDBRANCH  25  26
ENDBRANCH  24  25
ENDBRANCH   1  24
TORSDOF 20
