REMARK SMILES CC[C@@](C)(NC(=O)N[C@@H](C)c1cccc(Br)c1)C(=O)NCCCNC(=O)c1ccc(-c2c3nc(c(-c4c(F)cc(S(=O)(=O)[O-])cc4F)c4ccc([nH]4)c(-c4c(F)cc(S(=O)(=O)[O-])cc4F)c4nc(c(-c5c(F)cc(S(=O)(=O)[O-])cc5F)c5ccc2[nH]5)C=C4)C=C3)cc1
REMARK SMILES IDX 22 1 21 2 20 3 18 4 19 5 3 7 4 8 2 9 1 10 5 11 6 12 7 14
REMARK SMILES IDX 8 15 9 17 10 18 11 19 12 20 17 21 13 22 15 23 14 24 16 25
REMARK SMILES IDX 23 26 24 27 25 28 26 30 27 31 28 32 92 33 29 34 91 35 30 36
REMARK SMILES IDX 31 37 32 38 85 39 33 40 90 41 84 42 86 43 34 44 89 45 83 46
REMARK SMILES IDX 82 47 35 49 69 50 48 51 68 52 49 53 52 54 67 55 87 56 50 57
REMARK SMILES IDX 51 58 66 60 88 61 53 62 36 63 37 64 46 65 38 66 39 67 45 68
REMARK SMILES IDX 47 69 40 70 41 71 42 72 43 73 44 74 70 75 71 76 80 77 72 78
REMARK SMILES IDX 73 79 79 80 81 81 74 82 75 83 76 84 77 85 78 86 54 87 55 88
REMARK SMILES IDX 64 89 56 90 57 91 63 92 65 93 58 94 59 95 60 96 61 97 62 98
REMARK H PARENT 20 6 5 13 8 16 24 29 86 48 52 59
REMARK Flexibility Score: inf
ROOT
ATOM      1  C   UNL     1       2.300   2.457   5.832  1.00  0.00     0.042 C 
ENDROOT
BRANCH   1   2
ATOM      2  C   UNL     1       1.925   3.093   4.489  1.00  0.00     0.117 C 
BRANCH   2   3
ATOM      3  N   UNL     1       2.567   2.654   3.257  1.00  0.00    -0.354 N 
ATOM      4  C   UNL     1       2.158   1.838   2.232  1.00  0.00     0.245 C 
ATOM      5  O   UNL     1       2.715   2.029   1.144  1.00  0.00    -0.272 OA
ATOM      6  H   UNL     1       3.475   3.013   3.136  1.00  0.00     0.163 HD
BRANCH   4   7
ATOM      7  C   UNL     1       0.994   0.809   2.372  1.00  0.00     0.117 C 
ATOM      8  C   UNL     1      -0.313   1.621   2.200  1.00  0.00     0.045 C 
BRANCH   7   9
ATOM      9  C   UNL     1       0.940  -0.359   1.338  1.00  0.00     0.035 C 
ATOM     10  C   UNL     1       1.001  -0.018  -0.144  1.00  0.00     0.007 C 
ENDBRANCH   7   9
BRANCH   7  11
ATOM     11  N   UNL     1       1.020   0.195   3.712  1.00  0.00    -0.324 N 
ATOM     12  C   UNL     1       1.884  -0.582   4.375  1.00  0.00     0.316 C 
ATOM     13  H   UNL     1       0.216   0.405   4.240  1.00  0.00     0.166 HD
ATOM     14  O   UNL     1       1.463  -1.113   5.407  1.00  0.00    -0.249 OA
ATOM     15  N   UNL     1       3.164  -0.792   4.063  1.00  0.00    -0.332 N 
ATOM     16  H   UNL     1       3.618  -1.315   4.762  1.00  0.00     0.165 HD
BRANCH  15  17
ATOM     17  C   UNL     1       4.082  -0.463   2.970  1.00  0.00     0.111 C 
ATOM     18  C   UNL     1       5.114   0.568   3.444  1.00  0.00     0.036 C 
BRANCH  17  19
ATOM     19  C   UNL     1       4.753  -1.698   2.378  1.00  0.00    -0.025 A 
ATOM     20  C   UNL     1       5.833  -1.549   1.486  1.00  0.00     0.006 A 
ATOM     21  C   UNL     1       4.258  -2.993   2.602  1.00  0.00     0.021 A 
ATOM     22  C   UNL     1       6.415  -2.651   0.861  1.00  0.00     0.002 A 
ATOM     23  C   UNL     1       4.838  -4.091   1.966  1.00  0.00     0.018 A 
ATOM     24  C   UNL     1       5.915  -3.926   1.099  1.00  0.00     0.016 A 
ATOM     25  Br  UNL     1       4.133  -5.820   2.261  1.00  0.00    -0.051 Br
ENDBRANCH  17  19
ENDBRANCH  15  17
ENDBRANCH   7  11
ENDBRANCH   4   7
ENDBRANCH   2   3
ENDBRANCH   1   2
BRANCH   1  26
ATOM     26  C   UNL     1       3.750   2.397   6.305  1.00  0.00     0.118 C 
BRANCH  26  27
ATOM     27  N   UNL     1       4.536   3.582   6.031  1.00  0.00    -0.352 N 
ATOM     28  C   UNL     1       5.507   4.170   6.807  1.00  0.00     0.251 C 
ATOM     29  H   UNL     1       4.351   4.026   5.172  1.00  0.00     0.163 HD
ATOM     30  O   UNL     1       6.009   5.230   6.446  1.00  0.00    -0.269 OA
BRANCH  28  31
ATOM     31  C   UNL     1       5.929   3.551   8.087  1.00  0.00     0.039 A 
ATOM     32  C   UNL     1       5.973   4.354   9.230  1.00  0.00     0.014 A 
ATOM     33  C   UNL     1       6.317   2.209   8.164  1.00  0.00     0.014 A 
ATOM     34  C   UNL     1       6.364   3.804  10.454  1.00  0.00     0.010 A 
ATOM     35  C   UNL     1       6.665   1.651   9.399  1.00  0.00     0.010 A 
ATOM     36  C   UNL     1       6.694   2.442  10.559  1.00  0.00    -0.014 A 
BRANCH  36  37
ATOM     37  C   UNL     1       7.042   1.858  11.885  1.00  0.00     0.031 A 
ATOM     38  C   UNL     1       8.434   1.362  12.178  1.00  0.00     0.074 A 
ATOM     39  C   UNL     1       6.091   1.775  12.839  1.00  0.00     0.049 A 
ATOM     40  N   UNL     1       8.924   0.892  13.298  1.00  0.00    -0.248 NA
ATOM     41  C   UNL     1       9.396   1.380  11.066  1.00  0.00     0.031 C 
ATOM     42  C   UNL     1       4.691   2.167  12.667  1.00  0.00     0.029 A 
ATOM     43  N   UNL     1       6.156   1.343  14.141  1.00  0.00    -0.354 N 
ATOM     44  C   UNL     1      10.248   0.562  13.029  1.00  0.00     0.074 A 
ATOM     45  C   UNL     1      10.468   0.834  11.624  1.00  0.00     0.031 C 
ATOM     46  C   UNL     1       4.039   1.990  13.828  1.00  0.00     0.029 A 
ATOM     47  C   UNL     1       4.963   1.448  14.819  1.00  0.00     0.049 A 
ATOM     48  H   UNL     1       6.979   0.990  14.551  1.00  0.00     0.167 HD
ATOM     49  C   UNL     1      11.199   0.098  13.877  1.00  0.00     0.037 A 
ATOM     50  C   UNL     1       4.648   1.151  16.095  1.00  0.00     0.037 A 
ATOM     51  C   UNL     1      10.978  -0.167  15.278  1.00  0.00     0.049 A 
ATOM     52  C   UNL     1       5.723   0.644  17.019  1.00  0.00     0.074 A 
ATOM     53  C   UNL     1      11.891  -0.591  16.229  1.00  0.00     0.029 A 
ATOM     54  N   UNL     1       9.758  -0.044  15.928  1.00  0.00    -0.354 N 
ATOM     55  N   UNL     1       6.989   0.415  16.766  1.00  0.00    -0.248 NA
ATOM     56  C   UNL     1       5.328   0.370  18.408  1.00  0.00     0.031 C 
ATOM     57  C   UNL     1      11.214  -0.770  17.441  1.00  0.00     0.029 A 
ATOM     58  C   UNL     1       9.890  -0.403  17.261  1.00  0.00     0.049 A 
ATOM     59  H   UNL     1       8.921   0.256  15.505  1.00  0.00     0.167 HD
ATOM     60  C   UNL     1       7.548  -0.005  17.969  1.00  0.00     0.074 A 
ATOM     61  C   UNL     1       6.485   0.022  18.953  1.00  0.00     0.031 C 
ATOM     62  C   UNL     1       8.826  -0.377  18.234  1.00  0.00     0.037 A 
BRANCH  49  63
ATOM     63  C   UNL     1      12.576  -0.152  13.317  1.00  0.00     0.058 A 
ATOM     64  C   UNL     1      13.411   0.904  12.917  1.00  0.00     0.135 A 
ATOM     65  C   UNL     1      13.086  -1.458  13.222  1.00  0.00     0.135 A 
ATOM     66  F   UNL     1      12.974   2.172  12.976  1.00  0.00    -0.206 F 
ATOM     67  C   UNL     1      14.688   0.673  12.414  1.00  0.00     0.059 A 
ATOM     68  C   UNL     1      14.371  -1.710  12.749  1.00  0.00     0.059 A 
ATOM     69  F   UNL     1      12.334  -2.506  13.593  1.00  0.00    -0.206 F 
ATOM     70  C   UNL     1      15.160  -0.638  12.333  1.00  0.00     0.060 A 
BRANCH  70  71
ATOM     71  S   UNL     1      16.820  -0.918  11.681  1.00  0.00     0.124 S 
ATOM     72  O   UNL     1      16.627  -0.633  10.262  1.00  0.00    -0.237 OA
ATOM     73  O   UNL     1      17.614   0.058  12.420  1.00  0.00    -0.237 OA
ATOM     74  O   UNL     1      17.084  -2.315  12.010  1.00  0.00    -0.744 OA
ENDBRANCH  70  71
ENDBRANCH  49  63
BRANCH  50  75
ATOM     75  C   UNL     1       3.258   1.359  16.585  1.00  0.00     0.058 A 
ATOM     76  C   UNL     1       2.958   2.371  17.510  1.00  0.00     0.135 A 
ATOM     77  C   UNL     1       2.200   0.556  16.132  1.00  0.00     0.135 A 
ATOM     78  F   UNL     1       3.936   3.162  17.979  1.00  0.00    -0.206 F 
ATOM     79  C   UNL     1       1.665   2.567  17.984  1.00  0.00     0.059 A 
ATOM     80  C   UNL     1       0.894   0.751  16.569  1.00  0.00     0.059 A 
ATOM     81  F   UNL     1       2.430  -0.416  15.235  1.00  0.00    -0.206 F 
ATOM     82  C   UNL     1       0.638   1.753  17.504  1.00  0.00     0.060 A 
BRANCH  82  83
ATOM     83  S   UNL     1      -1.046   2.047  18.087  1.00  0.00     0.124 S 
ATOM     84  O   UNL     1      -0.978   1.537  19.452  1.00  0.00    -0.237 OA
ATOM     85  O   UNL     1      -1.168   3.495  17.951  1.00  0.00    -0.237 OA
ATOM     86  O   UNL     1      -1.863   1.268  17.161  1.00  0.00    -0.744 OA
ENDBRANCH  82  83
ENDBRANCH  50  75
BRANCH  62  87
ATOM     87  C   UNL     1       9.152  -0.756  19.655  1.00  0.00     0.058 A 
ATOM     88  C   UNL     1       8.668  -1.938  20.238  1.00  0.00     0.135 A 
ATOM     89  C   UNL     1       9.975   0.070  20.439  1.00  0.00     0.135 A 
ATOM     90  F   UNL     1       7.875  -2.763  19.535  1.00  0.00    -0.206 F 
ATOM     91  C   UNL     1       8.952  -2.267  21.560  1.00  0.00     0.059 A 
ATOM     92  C   UNL     1      10.297  -0.256  21.754  1.00  0.00     0.059 A 
ATOM     93  F   UNL     1      10.477   1.206  19.930  1.00  0.00    -0.206 F 
ATOM     94  C   UNL     1       9.764  -1.416  22.312  1.00  0.00     0.060 A 
BRANCH  94  95
ATOM     95  S   UNL     1      10.124  -1.852  24.026  1.00  0.00     0.124 S 
ATOM     96  O   UNL     1       8.856  -1.546  24.680  1.00  0.00    -0.237 OA
ATOM     97  O   UNL     1      10.459  -3.269  23.926  1.00  0.00    -0.237 OA
ATOM     98  O   UNL     1      11.238  -0.974  24.374  1.00  0.00    -0.744 OA
ENDBRANCH  94  95
ENDBRANCH  62  87
ENDBRANCH  36  37
ENDBRANCH  28  31
ENDBRANCH  26  27
ENDBRANCH   1  26
TORSDOF 17
