REMARK SMILES O=C(Cn1c(=O)[nH]c2ccccc2c1=O)NC[C@H]1CC[C@@H](C(=O)N2CCC(C(=O)NCCCNC(=O)c3ccc(-c4c5nc(c(-c6c(F)cc(S(=O)(=O)[O-])cc6F)c6ccc([nH]6)c(-c6c(F)cc(S(=O)(=O)[O-])cc6F)c6nc(c(-c7c(F)cc(S(=O)(=O)[O-])cc7F)c7ccc4[nH]7)C=C6)C=C5)cc3)CC2)CC1
REMARK SMILES IDX 31 1 30 2 28 3 29 4 27 6 22 7 23 8 24 9 25 10 104 11 26 12
REMARK SMILES IDX 103 13 21 14 18 15 19 16 106 17 20 18 105 19 17 20 16 21
REMARK SMILES IDX 1 22 2 23 3 25 4 26 5 27 14 28 6 29 7 30 13 31 15 32 8 33
REMARK SMILES IDX 12 35 9 36 11 37 10 38 32 39 33 40 34 41 35 42 36 44 37 45
REMARK SMILES IDX 38 46 102 47 39 48 101 49 40 50 41 51 42 52 95 53 43 54
REMARK SMILES IDX 100 55 94 56 96 57 44 58 99 59 93 60 92 61 45 63 79 64 58 65
REMARK SMILES IDX 78 66 59 67 62 68 77 69 97 70 60 71 61 72 76 74 98 75 63 76
REMARK SMILES IDX 46 77 47 78 56 79 48 80 49 81 55 82 57 83 50 84 51 85 52 86
REMARK SMILES IDX 53 87 54 88 80 89 81 90 90 91 82 92 83 93 89 94 91 95 84 96
REMARK SMILES IDX 85 97 86 98 87 99 88 100 64 101 65 102 74 103 66 104 67 105
REMARK SMILES IDX 73 106 75 107 68 108 69 109 70 110 71 111 72 112
REMARK H PARENT 30 5 16 24 7 34 34 43 96 62 62 73
REMARK Flexibility Score: inf
ROOT
ATOM      1  C   UNL     1      -4.114   1.564   4.188  1.00  0.00     0.117 C 
ENDROOT
BRANCH   1   2
ATOM      2  N   UNL     1      -4.580   1.513   2.806  1.00  0.00    -0.356 N 
ATOM      3  C   UNL     1      -3.974   1.893   1.646  1.00  0.00     0.223 C 
ATOM      4  O   UNL     1      -4.594   1.752   0.590  1.00  0.00    -0.275 OA
ATOM      5  H   UNL     1      -5.485   1.142   2.692  1.00  0.00     0.163 HD
BRANCH   3   6
ATOM      6  C   UNL     1      -2.563   2.459   1.650  1.00  0.00     0.082 C 
ATOM      7  C   UNL     1       0.097   3.490   4.700  1.00  0.00     0.225 C 
ATOM      8  O   UNL     1      -0.553   4.172   5.502  1.00  0.00    -0.275 OA
ATOM      9  N   UNL     1      -0.438   3.198   3.462  1.00  0.00    -0.342 N 
ATOM     10  C   UNL     1      -1.145   4.249   2.751  1.00  0.00     0.120 C 
ATOM     11  C   UNL     1      -0.291   1.944   2.758  1.00  0.00     0.120 C 
ATOM     12  C   UNL     1      -2.538   3.820   2.351  1.00  0.00     0.035 C 
ATOM     13  C   UNL     1      -1.578   1.401   2.158  1.00  0.00     0.035 C 
BRANCH   7  14
ATOM     14  C   UNL     1       1.594   3.235   4.994  1.00  0.00     0.078 C 
ATOM     15  C   UNL     1       3.337   2.616   2.592  1.00  0.00     0.008 C 
ATOM     16  C   UNL     1       2.715   3.998   2.853  1.00  0.00     0.006 C 
ATOM     17  C   UNL     1       2.784   1.482   3.470  1.00  0.00     0.006 C 
ATOM     18  C   UNL     1       2.462   4.299   4.319  1.00  0.00     0.014 C 
ATOM     19  C   UNL     1       2.219   1.853   4.843  1.00  0.00     0.014 C 
BRANCH  15  20
ATOM     20  C   UNL     1       3.198   2.330   1.079  1.00  0.00     0.119 C 
BRANCH  20  21
ATOM     21  N   UNL     1       3.587   1.011   0.620  1.00  0.00    -0.354 N 
ATOM     22  O   UNL     1       1.486   0.085   0.746  1.00  0.00    -0.273 OA
ATOM     23  C   UNL     1       2.613   0.098   0.250  1.00  0.00     0.240 C 
ATOM     24  H   UNL     1       4.538   0.765   0.572  1.00  0.00     0.163 HD
BRANCH  23  25
ATOM     25  C   UNL     1       3.040  -0.999  -0.725  1.00  0.00     0.230 C 
BRANCH  25  26
ATOM     26  N   UNL     1       3.957  -0.614  -1.796  1.00  0.00    -0.250 N 
ATOM     27  C   UNL     1       4.710  -1.634  -2.356  1.00  0.00     0.329 A 
ATOM     28  C   UNL     1       3.740   0.596  -2.453  1.00  0.00     0.264 A 
ATOM     29  O   UNL     1       4.733  -2.788  -1.931  1.00  0.00    -0.248 OA
ATOM     30  N   UNL     1       5.435  -1.330  -3.475  1.00  0.00    -0.307 N 
ATOM     31  C   UNL     1       4.688   0.948  -3.521  1.00  0.00     0.064 A 
ATOM     32  O   UNL     1       2.822   1.373  -2.208  1.00  0.00    -0.268 OA
ATOM     33  C   UNL     1       5.481  -0.062  -4.046  1.00  0.00     0.055 A 
ATOM     34  H   UNL     1       5.954  -2.050  -3.901  1.00  0.00     0.171 HD
ATOM     35  C   UNL     1       4.770   2.250  -4.021  1.00  0.00     0.016 A 
ATOM     36  C   UNL     1       6.317   0.198  -5.130  1.00  0.00     0.027 A 
ATOM     37  C   UNL     1       5.637   2.525  -5.078  1.00  0.00     0.001 A 
ATOM     38  C   UNL     1       6.394   1.496  -5.644  1.00  0.00     0.002 A 
ENDBRANCH  25  26
ENDBRANCH  23  25
ENDBRANCH  20  21
ENDBRANCH  15  20
ENDBRANCH   7  14
ENDBRANCH   3   6
ENDBRANCH   1   2
BRANCH   1  39
ATOM     39  C   UNL     1      -4.893   2.560   5.028  1.00  0.00     0.042 C 
BRANCH  39  40
ATOM     40  C   UNL     1      -6.369   2.229   5.141  1.00  0.00     0.118 C 
BRANCH  40  41
ATOM     41  N   UNL     1      -6.618   1.009   5.899  1.00  0.00    -0.352 N 
ATOM     42  C   UNL     1      -7.255   0.841   7.106  1.00  0.00     0.251 C 
ATOM     43  H   UNL     1      -6.281   0.182   5.485  1.00  0.00     0.163 HD
ATOM     44  O   UNL     1      -7.211  -0.246   7.675  1.00  0.00    -0.269 OA
BRANCH  42  45
ATOM     45  C   UNL     1      -7.965   1.981   7.726  1.00  0.00     0.039 A 
ATOM     46  C   UNL     1      -8.735   2.839   6.942  1.00  0.00     0.014 A 
ATOM     47  C   UNL     1      -7.837   2.214   9.098  1.00  0.00     0.014 A 
ATOM     48  C   UNL     1      -9.189   4.035   7.478  1.00  0.00     0.010 A 
ATOM     49  C   UNL     1      -8.412   3.358   9.664  1.00  0.00     0.010 A 
ATOM     50  C   UNL     1      -9.049   4.306   8.849  1.00  0.00    -0.014 A 
BRANCH  50  51
ATOM     51  C   UNL     1      -9.607   5.576   9.384  1.00  0.00     0.031 A 
ATOM     52  C   UNL     1      -8.719   6.614  10.019  1.00  0.00     0.074 A 
ATOM     53  C   UNL     1     -10.922   5.824   9.209  1.00  0.00     0.049 A 
ATOM     54  N   UNL     1      -9.040   7.800  10.472  1.00  0.00    -0.248 NA
ATOM     55  C   UNL     1      -7.293   6.284  10.174  1.00  0.00     0.031 C 
ATOM     56  C   UNL     1     -11.879   4.891   8.607  1.00  0.00     0.029 A 
ATOM     57  N   UNL     1     -11.673   6.941   9.469  1.00  0.00    -0.354 N 
ATOM     58  C   UNL     1      -7.867   8.348  10.979  1.00  0.00     0.074 A 
ATOM     59  C   UNL     1      -6.831   7.354  10.808  1.00  0.00     0.031 C 
ATOM     60  C   UNL     1     -13.061   5.505   8.459  1.00  0.00     0.029 A 
ATOM     61  C   UNL     1     -12.972   6.844   9.028  1.00  0.00     0.049 A 
ATOM     62  H   UNL     1     -11.317   7.737   9.928  1.00  0.00     0.167 HD
ATOM     63  C   UNL     1      -7.672   9.573  11.525  1.00  0.00     0.037 A 
ATOM     64  C   UNL     1     -13.986   7.729   9.077  1.00  0.00     0.037 A 
ATOM     65  C   UNL     1      -8.705  10.568  11.663  1.00  0.00     0.049 A 
ATOM     66  C   UNL     1     -13.747   9.071   9.703  1.00  0.00     0.074 A 
ATOM     67  C   UNL     1      -8.605  11.842  12.194  1.00  0.00     0.029 A 
ATOM     68  N   UNL     1     -10.022  10.407  11.257  1.00  0.00    -0.354 N 
ATOM     69  N   UNL     1     -12.632   9.563  10.187  1.00  0.00    -0.248 NA
ATOM     70  C   UNL     1     -14.902   9.971   9.807  1.00  0.00     0.031 C 
ATOM     71  C   UNL     1      -9.868  12.438  12.144  1.00  0.00     0.029 A 
ATOM     72  C   UNL     1     -10.747  11.553  11.540  1.00  0.00     0.049 A 
ATOM     73  H   UNL     1     -10.387   9.598  10.832  1.00  0.00     0.167 HD
ATOM     74  C   UNL     1     -12.948  10.836  10.645  1.00  0.00     0.074 A 
ATOM     75  C   UNL     1     -14.355  11.044  10.364  1.00  0.00     0.031 C 
ATOM     76  C   UNL     1     -12.146  11.746  11.248  1.00  0.00     0.037 A 
BRANCH  63  77
ATOM     77  C   UNL     1      -6.293   9.915  12.020  1.00  0.00     0.058 A 
ATOM     78  C   UNL     1      -5.242  10.197  11.134  1.00  0.00     0.135 A 
ATOM     79  C   UNL     1      -6.037  10.033  13.396  1.00  0.00     0.135 A 
ATOM     80  F   UNL     1      -5.427  10.087   9.809  1.00  0.00    -0.206 F 
ATOM     81  C   UNL     1      -3.982  10.571  11.594  1.00  0.00     0.059 A 
ATOM     82  C   UNL     1      -4.792  10.428  13.878  1.00  0.00     0.059 A 
ATOM     83  F   UNL     1      -7.007   9.775  14.288  1.00  0.00    -0.206 F 
ATOM     84  C   UNL     1      -3.768  10.687  12.969  1.00  0.00     0.060 A 
BRANCH  84  85
ATOM     85  S   UNL     1      -2.135  11.199  13.547  1.00  0.00     0.124 S 
ATOM     86  O   UNL     1      -1.337  10.011  13.261  1.00  0.00    -0.237 OA
ATOM     87  O   UNL     1      -1.859  12.363  12.712  1.00  0.00    -0.237 OA
ATOM     88  O   UNL     1      -2.348  11.484  14.963  1.00  0.00    -0.744 OA
ENDBRANCH  84  85
ENDBRANCH  63  77
BRANCH  64  89
ATOM     89  C   UNL     1     -15.309   7.364   8.507  1.00  0.00     0.058 A 
ATOM     90  C   UNL     1     -15.781   7.970   7.334  1.00  0.00     0.135 A 
ATOM     91  C   UNL     1     -16.104   6.366   9.094  1.00  0.00     0.135 A 
ATOM     92  F   UNL     1     -15.059   8.931   6.738  1.00  0.00    -0.206 F 
ATOM     93  C   UNL     1     -16.995   7.602   6.762  1.00  0.00     0.059 A 
ATOM     94  C   UNL     1     -17.308   5.963   8.527  1.00  0.00     0.059 A 
ATOM     95  F   UNL     1     -15.688   5.744  10.207  1.00  0.00    -0.206 F 
ATOM     96  C   UNL     1     -17.748   6.592   7.363  1.00  0.00     0.060 A 
BRANCH  96  97
ATOM     97  S   UNL     1     -19.290   6.076   6.578  1.00  0.00     0.124 S 
ATOM     98  O   UNL     1     -20.163   7.206   6.876  1.00  0.00    -0.237 OA
ATOM     99  O   UNL     1     -18.889   5.929   5.182  1.00  0.00    -0.237 OA
ATOM    100  O   UNL     1     -19.615   4.829   7.263  1.00  0.00    -0.744 OA
ENDBRANCH  96  97
ENDBRANCH  64  89
BRANCH  76 101
ATOM    101  C   UNL     1     -12.758  13.061  11.634  1.00  0.00     0.058 A 
ATOM    102  C   UNL     1     -13.594  13.177  12.755  1.00  0.00     0.135 A 
ATOM    103  C   UNL     1     -12.435  14.230  10.927  1.00  0.00     0.135 A 
ATOM    104  F   UNL     1     -13.939  12.086  13.456  1.00  0.00    -0.206 F 
ATOM    105  C   UNL     1     -14.092  14.410  13.161  1.00  0.00     0.059 A 
ATOM    106  C   UNL     1     -12.904  15.476  11.329  1.00  0.00     0.059 A 
ATOM    107  F   UNL     1     -11.634  14.171   9.852  1.00  0.00    -0.206 F 
ATOM    108  C   UNL     1     -13.735  15.555  12.446  1.00  0.00     0.060 A 
BRANCH 108 109
ATOM    109  S   UNL     1     -14.337  17.155  13.026  1.00  0.00     0.124 S 
ATOM    110  O   UNL     1     -15.750  17.085  12.669  1.00  0.00    -0.237 OA
ATOM    111  O   UNL     1     -14.040  17.101  14.454  1.00  0.00    -0.237 OA
ATOM    112  O   UNL     1     -13.544  18.115  12.263  1.00  0.00    -0.744 OA
ENDBRANCH 108 109
ENDBRANCH  76 101
ENDBRANCH  50  51
ENDBRANCH  42  45
ENDBRANCH  40  41
ENDBRANCH  39  40
ENDBRANCH   1  39
TORSDOF 18
