REMARK SMILES CC1(C)CSC[C@H](N(CCC(=O)NCCCNC(=O)c2ccc(-c3c4nc(c(-c5c(F)cc(S(=O)(=O)[O-])cc5F)c5ccc([nH]5)c(-c5c(F)cc(S(=O)(=O)[O-])cc5F)c5nc(c(-c6c(F)cc(S(=O)(=O)[O-])cc6F)c6ccc3[nH]6)C=C5)C=C4)cc2)c2ccccc2)C1
REMARK SMILES IDX 15 1 14 2 13 3 11 4 12 5 10 7 9 8 8 9 7 10 1 11 2 12 3 13
REMARK SMILES IDX 4 14 92 15 5 16 6 17 86 18 87 19 91 20 88 21 90 22 89 23
REMARK SMILES IDX 16 24 17 25 18 26 19 28 20 29 21 30 85 31 22 32 84 33 23 34
REMARK SMILES IDX 24 35 25 36 78 37 26 38 83 39 77 40 79 41 27 42 82 43 76 44
REMARK SMILES IDX 75 45 28 47 62 48 41 49 61 50 42 51 45 52 60 53 80 54 43 55
REMARK SMILES IDX 44 56 59 58 81 59 46 60 29 61 30 62 39 63 31 64 32 65 38 66
REMARK SMILES IDX 40 67 33 68 34 69 35 70 36 71 37 72 63 73 64 74 73 75 65 76
REMARK SMILES IDX 66 77 72 78 74 79 67 80 68 81 69 82 70 83 71 84 47 85 48 86
REMARK SMILES IDX 57 87 49 88 50 89 56 90 58 91 51 92 52 93 53 94 54 95 55 96
REMARK H PARENT 13 6 17 27 79 46 45 57
REMARK Flexibility Score: inf
ROOT
ATOM      1  C   UNL     1       3.249  -3.490  -1.525  1.00  0.00     0.042 C 
ENDROOT
BRANCH   1   2
ATOM      2  C   UNL     1       3.547  -3.250  -3.003  1.00  0.00     0.117 C 
BRANCH   2   3
ATOM      3  N   UNL     1       3.036  -4.254  -3.924  1.00  0.00    -0.356 N 
ATOM      4  C   UNL     1       1.843  -4.346  -4.580  1.00  0.00     0.221 C 
ATOM      5  O   UNL     1       1.733  -5.206  -5.460  1.00  0.00    -0.275 OA
ATOM      6  H   UNL     1       3.658  -4.995  -4.105  1.00  0.00     0.163 HD
BRANCH   4   7
ATOM      7  C   UNL     1       0.671  -3.459  -4.234  1.00  0.00     0.121 C 
BRANCH   7   8
ATOM      8  C   UNL     1      -0.424  -4.196  -3.451  1.00  0.00     0.127 C 
BRANCH   8   9
ATOM      9  N   UNL     1      -0.214  -4.229  -1.972  1.00  0.00    -0.367 N 
BRANCH   9  10
ATOM     10  C   UNL     1      -0.400  -2.891  -1.262  1.00  0.00     0.092 C 
ATOM     11  C   UNL     1       1.038  -0.332  -0.015  1.00  0.00     0.012 C 
ATOM     12  C   UNL     1       0.145  -1.313   0.772  1.00  0.00    -0.024 C 
ATOM     13  C   UNL     1       0.719  -1.388   2.207  1.00  0.00     0.012 C 
ATOM     14  C   UNL     1      -1.308  -0.805   0.863  1.00  0.00     0.076 C 
ATOM     15  C   UNL     1       0.149  -2.752   0.178  1.00  0.00     0.033 C 
ATOM     16  S   UNL     1      -2.131  -0.699  -0.755  1.00  0.00    -0.159 SA
ATOM     17  C   UNL     1      -1.866  -2.412  -1.333  1.00  0.00     0.094 C 
ENDBRANCH   9  10
BRANCH   9  18
ATOM     18  C   UNL     1       0.246  -5.432  -1.429  1.00  0.00     0.037 A 
ATOM     19  C   UNL     1       0.945  -6.389  -2.201  1.00  0.00     0.026 A 
ATOM     20  C   UNL     1       0.066  -5.810  -0.096  1.00  0.00     0.026 A 
ATOM     21  C   UNL     1       1.526  -7.552  -1.676  1.00  0.00     0.002 A 
ATOM     22  C   UNL     1       0.643  -6.972   0.455  1.00  0.00     0.002 A 
ATOM     23  C   UNL     1       1.393  -7.834  -0.332  1.00  0.00     0.000 A 
ENDBRANCH   9  18
ENDBRANCH   8   9
ENDBRANCH   7   8
ENDBRANCH   4   7
ENDBRANCH   2   3
ENDBRANCH   1   2
BRANCH   1  24
ATOM     24  C   UNL     1       3.770  -4.769  -0.858  1.00  0.00     0.118 C 
BRANCH  24  25
ATOM     25  N   UNL     1       5.117  -4.627  -0.331  1.00  0.00    -0.352 N 
ATOM     26  C   UNL     1       5.634  -4.817   0.930  1.00  0.00     0.251 C 
ATOM     27  H   UNL     1       5.782  -4.343  -0.999  1.00  0.00     0.163 HD
ATOM     28  O   UNL     1       6.813  -4.507   1.109  1.00  0.00    -0.269 OA
BRANCH  26  29
ATOM     29  C   UNL     1       4.859  -5.351   2.090  1.00  0.00     0.039 A 
ATOM     30  C   UNL     1       5.109  -4.785   3.348  1.00  0.00     0.014 A 
ATOM     31  C   UNL     1       4.025  -6.471   2.024  1.00  0.00     0.014 A 
ATOM     32  C   UNL     1       4.522  -5.309   4.511  1.00  0.00     0.010 A 
ATOM     33  C   UNL     1       3.408  -6.978   3.191  1.00  0.00     0.010 A 
ATOM     34  C   UNL     1       3.650  -6.408   4.454  1.00  0.00    -0.014 A 
BRANCH  34  35
ATOM     35  C   UNL     1       3.005  -6.920   5.710  1.00  0.00     0.031 A 
ATOM     36  C   UNL     1       3.349  -8.273   6.291  1.00  0.00     0.074 A 
ATOM     37  C   UNL     1       2.114  -6.148   6.371  1.00  0.00     0.049 A 
ATOM     38  N   UNL     1       2.922  -8.832   7.400  1.00  0.00    -0.248 NA
ATOM     39  C   UNL     1       4.286  -9.109   5.528  1.00  0.00     0.031 C 
ATOM     40  C   UNL     1       1.665  -4.824   5.939  1.00  0.00     0.029 A 
ATOM     41  N   UNL     1       1.434  -6.358   7.551  1.00  0.00    -0.354 N 
ATOM     42  C   UNL     1       3.540 -10.077   7.473  1.00  0.00     0.074 A 
ATOM     43  C   UNL     1       4.336 -10.210   6.269  1.00  0.00     0.031 C 
ATOM     44  C   UNL     1       0.810  -4.330   6.849  1.00  0.00     0.029 A 
ATOM     45  C   UNL     1       0.618  -5.311   7.916  1.00  0.00     0.049 A 
ATOM     46  H   UNL     1       1.522  -7.181   8.083  1.00  0.00     0.167 HD
ATOM     47  C   UNL     1       3.472 -11.016   8.453  1.00  0.00     0.037 A 
ATOM     48  C   UNL     1      -0.196  -5.146   8.980  1.00  0.00     0.037 A 
ATOM     49  C   UNL     1       2.687 -10.897   9.659  1.00  0.00     0.049 A 
ATOM     50  C   UNL     1      -0.288  -6.219  10.035  1.00  0.00     0.074 A 
ATOM     51  C   UNL     1       2.595 -11.789  10.717  1.00  0.00     0.029 A 
ATOM     52  N   UNL     1       1.854  -9.833   9.972  1.00  0.00    -0.354 N 
ATOM     53  N   UNL     1       0.349  -7.362  10.106  1.00  0.00    -0.248 NA
ATOM     54  C   UNL     1      -1.206  -5.974  11.158  1.00  0.00     0.031 C 
ATOM     55  C   UNL     1       1.669 -11.291  11.640  1.00  0.00     0.029 A 
ATOM     56  C   UNL     1       1.226 -10.060  11.189  1.00  0.00     0.049 A 
ATOM     57  H   UNL     1       1.726  -9.034   9.411  1.00  0.00     0.167 HD
ATOM     58  C   UNL     1      -0.068  -7.957  11.294  1.00  0.00     0.074 A 
ATOM     59  C   UNL     1      -1.002  -7.044  11.915  1.00  0.00     0.031 C 
ATOM     60  C   UNL     1       0.297  -9.153  11.819  1.00  0.00     0.037 A 
BRANCH  47  61
ATOM     61  C   UNL     1       4.274 -12.282   8.271  1.00  0.00     0.058 A 
ATOM     62  C   UNL     1       5.675 -12.286   8.365  1.00  0.00     0.135 A 
ATOM     63  C   UNL     1       3.632 -13.516   8.069  1.00  0.00     0.135 A 
ATOM     64  F   UNL     1       6.342 -11.137   8.555  1.00  0.00    -0.206 F 
ATOM     65  C   UNL     1       6.411 -13.459   8.232  1.00  0.00     0.059 A 
ATOM     66  C   UNL     1       4.347 -14.707   7.963  1.00  0.00     0.059 A 
ATOM     67  F   UNL     1       2.293 -13.576   7.984  1.00  0.00    -0.206 F 
ATOM     68  C   UNL     1       5.739 -14.665   8.030  1.00  0.00     0.060 A 
BRANCH  68  69
ATOM     69  S   UNL     1       6.708 -16.179   7.856  1.00  0.00     0.124 S 
ATOM     70  O   UNL     1       7.307 -15.989   6.536  1.00  0.00    -0.237 OA
ATOM     71  O   UNL     1       7.633 -16.088   8.986  1.00  0.00    -0.237 OA
ATOM     72  O   UNL     1       5.714 -17.237   7.947  1.00  0.00    -0.744 OA
ENDBRANCH  68  69
ENDBRANCH  47  61
BRANCH  48  73
ATOM     73  C   UNL     1      -0.994  -3.895   9.116  1.00  0.00     0.058 A 
ATOM     74  C   UNL     1      -0.712  -2.959  10.123  1.00  0.00     0.135 A 
ATOM     75  C   UNL     1      -2.056  -3.614   8.243  1.00  0.00     0.135 A 
ATOM     76  F   UNL     1       0.284  -3.189  10.993  1.00  0.00    -0.206 F 
ATOM     77  C   UNL     1      -1.460  -1.795  10.267  1.00  0.00     0.059 A 
ATOM     78  C   UNL     1      -2.801  -2.444   8.349  1.00  0.00     0.059 A 
ATOM     79  F   UNL     1      -2.362  -4.472   7.257  1.00  0.00    -0.206 F 
ATOM     80  C   UNL     1      -2.500  -1.544   9.371  1.00  0.00     0.060 A 
BRANCH  80  81
ATOM     81  S   UNL     1      -3.428  -0.002   9.528  1.00  0.00     0.124 S 
ATOM     82  O   UNL     1      -4.220  -0.256  10.725  1.00  0.00    -0.237 OA
ATOM     83  O   UNL     1      -2.360   0.984   9.664  1.00  0.00    -0.237 OA
ATOM     84  O   UNL     1      -4.176   0.067   8.277  1.00  0.00    -0.744 OA
ENDBRANCH  80  81
ENDBRANCH  48  73
BRANCH  60  85
ATOM     85  C   UNL     1      -0.284  -9.542  13.155  1.00  0.00     0.058 A 
ATOM     86  C   UNL     1      -1.634  -9.899  13.303  1.00  0.00     0.135 A 
ATOM     87  C   UNL     1       0.532  -9.600  14.298  1.00  0.00     0.135 A 
ATOM     88  F   UNL     1      -2.464  -9.856  12.249  1.00  0.00    -0.206 F 
ATOM     89  C   UNL     1      -2.160 -10.272  14.538  1.00  0.00     0.059 A 
ATOM     90  C   UNL     1       0.035  -9.998  15.537  1.00  0.00     0.059 A 
ATOM     91  F   UNL     1       1.833  -9.278  14.216  1.00  0.00    -0.206 F 
ATOM     92  C   UNL     1      -1.316 -10.320  15.650  1.00  0.00     0.060 A 
BRANCH  92  93
ATOM     93  S   UNL     1      -2.004 -10.834  17.239  1.00  0.00     0.124 S 
ATOM     94  O   UNL     1      -2.797  -9.666  17.609  1.00  0.00    -0.237 OA
ATOM     95  O   UNL     1      -2.764 -12.028  16.880  1.00  0.00    -0.237 OA
ATOM     96  O   UNL     1      -0.822 -11.075  18.061  1.00  0.00    -0.744 OA
ENDBRANCH  92  93
ENDBRANCH  60  85
ENDBRANCH  34  35
ENDBRANCH  26  29
ENDBRANCH  24  25
ENDBRANCH   1  24
TORSDOF 17
