REMARK SMILES O=C(C[C@H]1C[N@@H+]([C@@H]2CC(=O)NC2=O)CCO1)NCCCNC(=O)c1ccc(-c2c3nc(c(-c4c(F)cc(S(=O)(=O)[O-])cc4F)c4ccc([nH]4)c(-c4c(F)cc(S(=O)(=O)[O-])cc4F)c4nc(c(-c5c(F)cc(S(=O)(=O)[O-])cc5F)c5ccc2[nH]5)C=C4)C=C3)cc1
REMARK SMILES IDX 19 1 18 2 17 3 1 4 2 5 3 7 4 8 5 9 16 10 6 11 15 12 14 13
REMARK SMILES IDX 7 15 8 16 12 17 9 18 11 19 13 20 10 21 20 23 21 24 22 25
REMARK SMILES IDX 23 27 24 28 25 29 89 30 26 31 88 32 27 33 28 34 29 35 82 36
REMARK SMILES IDX 30 37 87 38 81 39 83 40 31 41 86 42 80 43 79 44 32 46 66 47
REMARK SMILES IDX 45 48 65 49 46 50 49 51 64 52 84 53 47 54 48 55 63 57 85 58
REMARK SMILES IDX 50 59 33 60 34 61 43 62 35 63 36 64 42 65 44 66 37 67 38 68
REMARK SMILES IDX 39 69 40 70 41 71 67 72 68 73 77 74 69 75 70 76 76 77 78 78
REMARK SMILES IDX 71 79 72 80 73 81 74 82 75 83 51 84 52 85 61 86 53 87 54 88
REMARK SMILES IDX 60 89 62 90 55 91 56 92 57 93 58 94 59 95
REMARK H PARENT 17 6 6 14 11 22 21 26 83 45 49 56
REMARK Flexibility Score: inf
ROOT
ATOM      1  C   UNL     1       6.458   1.901  -3.211  1.00  0.00     0.042 C 
ENDROOT
BRANCH   1   2
ATOM      2  C   UNL     1       6.752   0.604  -2.474  1.00  0.00     0.117 C 
BRANCH   2   3
ATOM      3  N   UNL     1       5.729   0.240  -1.521  1.00  0.00    -0.356 N 
ATOM      4  O   UNL     1       4.177  -0.379  -3.075  1.00  0.00    -0.275 OA
ATOM      5  C   UNL     1       4.530  -0.300  -1.904  1.00  0.00     0.222 C 
ATOM      6  H   UNL     1       5.901   0.384  -0.562  1.00  0.00     0.163 HD
BRANCH   5   7
ATOM      7  C   UNL     1       3.641  -0.750  -0.770  1.00  0.00     0.138 C 
BRANCH   7   8
ATOM      8  C   UNL     1       4.236  -1.677   0.305  1.00  0.00     0.182 C 
ATOM      9  C   UNL     1       3.668  -3.118   0.318  1.00  0.00     0.295 C 
ATOM     10  O   UNL     1       5.667  -1.647   0.428  1.00  0.00    -0.366 OA
ATOM     11  N   UNL     1       4.389  -4.136  -0.443  1.00  0.00    -0.320 N 
ATOM     12  C   UNL     1       6.348  -2.574  -0.431  1.00  0.00     0.222 C 
ATOM     13  C   UNL     1       5.837  -4.009  -0.298  1.00  0.00     0.291 C 
ATOM     14  H   UNL     1       4.115  -4.991   0.040  1.00  0.00     0.348 HD
BRANCH  11  15
ATOM     15  C   UNL     1       3.880  -4.601  -1.737  1.00  0.00     0.284 C 
ATOM     16  C   UNL     1       3.988  -3.680  -2.950  1.00  0.00     0.176 C 
ATOM     17  C   UNL     1       2.388  -4.919  -1.667  1.00  0.00     0.285 C 
ATOM     18  C   UNL     1       2.566  -3.389  -3.326  1.00  0.00     0.233 C 
ATOM     19  N   UNL     1       1.735  -4.112  -2.542  1.00  0.00    -0.291 N 
ATOM     20  O   UNL     1       1.846  -5.736  -0.942  1.00  0.00    -0.268 OA
ATOM     21  O   UNL     1       2.193  -2.676  -4.247  1.00  0.00    -0.274 OA
ATOM     22  H   UNL     1       0.754  -4.058  -2.599  1.00  0.00     0.173 HD
ENDBRANCH  11  15
ENDBRANCH   7   8
ENDBRANCH   5   7
ENDBRANCH   2   3
ENDBRANCH   1   2
BRANCH   1  23
ATOM     23  C   UNL     1       6.057   3.051  -2.300  1.00  0.00     0.118 C 
BRANCH  23  24
ATOM     24  N   UNL     1       7.036   3.317  -1.255  1.00  0.00    -0.352 N 
ATOM     25  C   UNL     1       7.607   4.503  -0.870  1.00  0.00     0.251 C 
ATOM     26  H   UNL     1       7.332   2.527  -0.748  1.00  0.00     0.163 HD
ATOM     27  O   UNL     1       8.526   4.497  -0.056  1.00  0.00    -0.269 OA
BRANCH  25  28
ATOM     28  C   UNL     1       7.130   5.776  -1.449  1.00  0.00     0.039 A 
ATOM     29  C   UNL     1       8.069   6.746  -1.806  1.00  0.00     0.014 A 
ATOM     30  C   UNL     1       5.765   6.022  -1.623  1.00  0.00     0.014 A 
ATOM     31  C   UNL     1       7.639   7.947  -2.371  1.00  0.00     0.010 A 
ATOM     32  C   UNL     1       5.345   7.179  -2.271  1.00  0.00     0.010 A 
ATOM     33  C   UNL     1       6.276   8.165  -2.627  1.00  0.00    -0.014 A 
BRANCH  33  34
ATOM     34  C   UNL     1       5.804   9.443  -3.216  1.00  0.00     0.031 A 
ATOM     35  C   UNL     1       4.905  10.350  -2.417  1.00  0.00     0.074 A 
ATOM     36  C   UNL     1       6.158   9.771  -4.474  1.00  0.00     0.049 A 
ATOM     37  N   UNL     1       4.375  11.496  -2.756  1.00  0.00    -0.248 NA
ATOM     38  C   UNL     1       4.529   9.894  -1.068  1.00  0.00     0.031 C 
ATOM     39  C   UNL     1       6.979   8.947  -5.365  1.00  0.00     0.029 A 
ATOM     40  N   UNL     1       5.871  10.883  -5.223  1.00  0.00    -0.354 N 
ATOM     41  C   UNL     1       3.597  11.889  -1.673  1.00  0.00     0.074 A 
ATOM     42  C   UNL     1       3.670  10.830  -0.692  1.00  0.00     0.031 C 
ATOM     43  C   UNL     1       7.155   9.597  -6.526  1.00  0.00     0.029 A 
ATOM     44  C   UNL     1       6.436  10.866  -6.477  1.00  0.00     0.049 A 
ATOM     45  H   UNL     1       5.312  11.624  -4.895  1.00  0.00     0.167 HD
ATOM     46  C   UNL     1       2.909  13.042  -1.497  1.00  0.00     0.037 A 
ATOM     47  C   UNL     1       6.382  11.774  -7.471  1.00  0.00     0.037 A 
ATOM     48  C   UNL     1       2.866  14.104  -2.468  1.00  0.00     0.049 A 
ATOM     49  C   UNL     1       5.625  13.055  -7.247  1.00  0.00     0.074 A 
ATOM     50  C   UNL     1       2.241  15.335  -2.371  1.00  0.00     0.029 A 
ATOM     51  N   UNL     1       3.474  14.061  -3.714  1.00  0.00    -0.354 N 
ATOM     52  N   UNL     1       4.947  13.440  -6.190  1.00  0.00    -0.248 NA
ATOM     53  C   UNL     1       5.637  14.034  -8.342  1.00  0.00     0.031 C 
ATOM     54  C   UNL     1       2.437  16.019  -3.575  1.00  0.00     0.029 A 
ATOM     55  C   UNL     1       3.230  15.238  -4.401  1.00  0.00     0.049 A 
ATOM     56  H   UNL     1       4.002  13.305  -4.059  1.00  0.00     0.167 HD
ATOM     57  C   UNL     1       4.484  14.719  -6.480  1.00  0.00     0.074 A 
ATOM     58  C   UNL     1       4.966  15.044  -7.807  1.00  0.00     0.031 C 
ATOM     59  C   UNL     1       3.731  15.550  -5.717  1.00  0.00     0.037 A 
BRANCH  46  60
ATOM     60  C   UNL     1       2.157  13.216  -0.205  1.00  0.00     0.058 A 
ATOM     61  C   UNL     1       2.823  13.379   1.021  1.00  0.00     0.135 A 
ATOM     62  C   UNL     1       0.753  13.242  -0.193  1.00  0.00     0.135 A 
ATOM     63  F   UNL     1       4.164  13.345   1.072  1.00  0.00    -0.206 F 
ATOM     64  C   UNL     1       2.126  13.529   2.215  1.00  0.00     0.059 A 
ATOM     65  C   UNL     1       0.035  13.423   0.987  1.00  0.00     0.059 A 
ATOM     66  F   UNL     1       0.063  13.089  -1.334  1.00  0.00    -0.206 F 
ATOM     67  C   UNL     1       0.731  13.549   2.188  1.00  0.00     0.060 A 
BRANCH  67  68
ATOM     68  S   UNL     1      -0.158  13.748   3.746  1.00  0.00     0.124 S 
ATOM     69  O   UNL     1       0.048  12.443   4.367  1.00  0.00    -0.237 OA
ATOM     70  O   UNL     1       0.548  14.863   4.368  1.00  0.00    -0.237 OA
ATOM     71  O   UNL     1      -1.526  14.032   3.324  1.00  0.00    -0.744 OA
ENDBRANCH  67  68
ENDBRANCH  46  60
BRANCH  47  72
ATOM     72  C   UNL     1       7.098  11.520  -8.750  1.00  0.00     0.058 A 
ATOM     73  C   UNL     1       8.236  12.261  -9.101  1.00  0.00     0.135 A 
ATOM     74  C   UNL     1       6.666  10.526  -9.643  1.00  0.00     0.135 A 
ATOM     75  F   UNL     1       8.687  13.225  -8.284  1.00  0.00    -0.206 F 
ATOM     76  C   UNL     1       8.908  12.044 -10.300  1.00  0.00     0.059 A 
ATOM     77  C   UNL     1       7.337  10.271 -10.835  1.00  0.00     0.059 A 
ATOM     78  F   UNL     1       5.594   9.775  -9.346  1.00  0.00    -0.206 F 
ATOM     79  C   UNL     1       8.451  11.044 -11.160  1.00  0.00     0.060 A 
BRANCH  79  80
ATOM     80  S   UNL     1       9.355  10.743 -12.694  1.00  0.00     0.124 S 
ATOM     81  O   UNL     1       8.988  11.911 -13.486  1.00  0.00    -0.237 OA
ATOM     82  O   UNL     1      10.738  10.694 -12.230  1.00  0.00    -0.237 OA
ATOM     83  O   UNL     1       8.813   9.469 -13.158  1.00  0.00    -0.744 OA
ENDBRANCH  79  80
ENDBRANCH  47  72
BRANCH  59  84
ATOM     84  C   UNL     1       3.426  16.914  -6.273  1.00  0.00     0.058 A 
ATOM     85  C   UNL     1       2.529  17.100  -7.336  1.00  0.00     0.135 A 
ATOM     86  C   UNL     1       4.012  18.056  -5.702  1.00  0.00     0.135 A 
ATOM     87  F   UNL     1       1.945  16.042  -7.921  1.00  0.00    -0.206 F 
ATOM     88  C   UNL     1       2.249  18.367  -7.835  1.00  0.00     0.059 A 
ATOM     89  C   UNL     1       3.722  19.335  -6.164  1.00  0.00     0.059 A 
ATOM     90  F   UNL     1       4.866  17.935  -4.673  1.00  0.00    -0.206 F 
ATOM     91  C   UNL     1       2.851  19.479  -7.242  1.00  0.00     0.060 A 
BRANCH  91  92
ATOM     92  S   UNL     1       2.464  21.120  -7.886  1.00  0.00     0.124 S 
ATOM     93  O   UNL     1       3.215  21.130  -9.137  1.00  0.00    -0.237 OA
ATOM     94  O   UNL     1       1.011  21.070  -8.019  1.00  0.00    -0.237 OA
ATOM     95  O   UNL     1       2.961  22.019  -6.848  1.00  0.00    -0.744 OA
ENDBRANCH  91  92
ENDBRANCH  59  84
ENDBRANCH  33  34
ENDBRANCH  25  28
ENDBRANCH  23  24
ENDBRANCH   1  23
TORSDOF 15
