REMARK SMILES C[NH+](C)CCCN1c2ccccc2CCc2cc(O[C@@H]3O[C@H](C(=O)NCCCNC(=O)c4ccc(-c5c6nc(c(-c7c(F)cc(S(=O)(=O)[O-])cc7F)c7ccc([nH]7)c(-c7c(F)cc(S(=O)(=O)[O-])cc7F)c7nc(c(-c8c(F)cc(S(=O)(=O)[O-])cc8F)c8ccc5[nH]8)C=C7)C=C6)cc4)[C@@H](O)[C@H](O)[C@H]3O)ccc21
REMARK SMILES IDX 23 1 24 2 25 3 22 5 20 6 21 7 102 8 100 9 98 10 19 11 18 12
REMARK SMILES IDX 106 13 16 14 105 15 17 16 104 17 7 18 6 19 5 20 4 21 2 22
REMARK SMILES IDX 1 23 3 24 8 26 9 27 13 28 10 29 12 30 11 31 14 32 15 34
REMARK SMILES IDX 103 36 101 38 99 40 26 42 27 43 28 44 29 45 30 46 31 48
REMARK SMILES IDX 32 49 33 50 97 51 34 52 96 53 35 54 36 55 37 56 90 57 38 58
REMARK SMILES IDX 95 59 89 60 91 61 39 62 94 63 88 64 87 65 40 67 74 68 53 69
REMARK SMILES IDX 73 70 54 71 57 72 72 73 92 74 55 75 56 76 71 78 93 79 58 80
REMARK SMILES IDX 41 81 42 82 51 83 43 84 44 85 50 86 52 87 45 88 46 89 47 90
REMARK SMILES IDX 48 91 49 92 75 93 76 94 85 95 77 96 78 97 84 98 86 99 79 100
REMARK SMILES IDX 80 101 81 102 82 103 83 104 59 105 60 106 69 107 61 108
REMARK SMILES IDX 62 109 68 110 70 111 63 112 64 113 65 114 66 115 67 116
REMARK H PARENT 25 4 2 25 103 37 101 39 99 41 29 47 91 66 57 77
REMARK Flexibility Score: 100.00
ROOT
ATOM      1  C   UNL     1       1.934   4.150   2.379  1.00  0.00     0.252 C 
ATOM      2  O   UNL     1       1.074   3.543   1.732  1.00  0.00    -0.272 OA
ATOM      3  N   UNL     1       1.514   5.138   3.221  1.00  0.00    -0.354 N 
ATOM      4  H   UNL     1       0.538   5.229   3.312  1.00  0.00     0.163 HD
ENDROOT
BRANCH   1   5
ATOM      5  C   UNL     1       3.423   3.764   2.258  1.00  0.00     0.242 C 
ATOM      6  C   UNL     1       5.614   4.479   1.632  1.00  0.00     0.339 C 
ATOM      7  O   UNL     1       4.254   4.861   1.881  1.00  0.00    -0.324 OA
ATOM      8  C   UNL     1       6.272   3.796   2.860  1.00  0.00     0.214 C 
ATOM      9  C   UNL     1       5.382   2.651   3.365  1.00  0.00     0.181 C 
ATOM     10  C   UNL     1       3.923   3.096   3.550  1.00  0.00     0.184 C 
BRANCH   6  11
ATOM     11  O   UNL     1       6.425   5.547   1.106  1.00  0.00    -0.462 OA
BRANCH  11  12
ATOM     12  C   UNL     1       6.724   6.621   1.894  1.00  0.00     0.123 A 
ATOM     13  C   UNL     1       7.442   8.924   3.359  1.00  0.00     0.045 A 
ATOM     14  C   UNL     1       6.314   8.185   3.720  1.00  0.00    -0.020 A 
ATOM     15  C   UNL     1       8.244   8.457   2.306  1.00  0.00     0.030 A 
ATOM     16  C   UNL     1       5.954   7.063   2.964  1.00  0.00     0.052 A 
ATOM     17  C   UNL     1       7.880   7.324   1.570  1.00  0.00     0.049 A 
BRANCH  13  18
ATOM     18  N   UNL     1       7.773  10.128   4.003  1.00  0.00    -0.341 N 
BRANCH  18  19
ATOM     19  C   UNL     1       7.078  11.342   3.470  1.00  0.00     0.128 C 
BRANCH  19  20
ATOM     20  C   UNL     1       7.246  11.629   1.968  1.00  0.00     0.083 C 
BRANCH  20  21
ATOM     21  C   UNL     1       6.362  10.889   0.939  1.00  0.00     0.263 C 
BRANCH  21  22
ATOM     22  N   UNL     1       4.930  11.174   0.787  1.00  0.00    -0.340 N 
ATOM     23  C   UNL     1       4.103  10.828   1.926  1.00  0.00     0.332 C 
ATOM     24  C   UNL     1       4.651  12.518   0.298  1.00  0.00     0.332 C 
ATOM     25  H   UNL     1       4.647  10.525   0.053  1.00  0.00     0.347 HD
ENDBRANCH  21  22
ENDBRANCH  20  21
ENDBRANCH  19  20
ENDBRANCH  18  19
BRANCH  18  26
ATOM     26  C   UNL     1       8.067  10.219   5.393  1.00  0.00     0.044 A 
ATOM     27  C   UNL     1       9.108  11.088   5.779  1.00  0.00     0.026 A 
ATOM     28  C   UNL     1       7.451   9.442   6.400  1.00  0.00    -0.024 A 
ATOM     29  C   UNL     1       9.551  11.171   7.102  1.00  0.00     0.002 A 
ATOM     30  C   UNL     1       7.921   9.530   7.731  1.00  0.00     0.006 A 
ATOM     31  C   UNL     1       8.962  10.383   8.079  1.00  0.00     0.000 A 
BRANCH  28  32
ATOM     32  C   UNL     1       6.311   8.474   6.198  1.00  0.00     0.042 CG0
ATOM     33  G   UNL     1       5.500   8.582   4.919  1.00  0.00     0.000 G0
ENDBRANCH  28  32
ENDBRANCH  18  26
ENDBRANCH  13  18
BRANCH  14  34
ATOM     34  C   UNL     1       5.500   8.582   4.919  1.00  0.00     0.042 CG0
ATOM     35  G   UNL     1       6.311   8.474   6.198  1.00  0.00     0.000 G0
ENDBRANCH  14  34
ENDBRANCH  11  12
ENDBRANCH   6  11
BRANCH   8  36
ATOM     36  O   UNL     1       7.584   3.290   2.572  1.00  0.00    -0.384 OA
ATOM     37  H   UNL     1       7.523   2.606   1.888  1.00  0.00     0.211 HD
ENDBRANCH   8  36
BRANCH   9  38
ATOM     38  O   UNL     1       5.885   2.111   4.596  1.00  0.00    -0.387 OA
ATOM     39  H   UNL     1       5.866   2.797   5.281  1.00  0.00     0.211 HD
ENDBRANCH   9  38
BRANCH  10  40
ATOM     40  O   UNL     1       3.102   1.981   3.914  1.00  0.00    -0.387 OA
ATOM     41  H   UNL     1       3.133   1.313   3.211  1.00  0.00     0.211 HD
ENDBRANCH  10  40
ENDBRANCH   1   5
BRANCH   3  42
ATOM     42  C   UNL     1       2.300   6.070   3.998  1.00  0.00     0.117 C 
BRANCH  42  43
ATOM     43  C   UNL     1       2.217   7.478   3.427  1.00  0.00     0.042 C 
BRANCH  43  44
ATOM     44  C   UNL     1       1.050   8.292   3.965  1.00  0.00     0.118 C 
BRANCH  44  45
ATOM     45  N   UNL     1       1.069   8.437   5.420  1.00  0.00    -0.352 N 
ATOM     46  C   UNL     1       1.267   9.517   6.244  1.00  0.00     0.251 C 
ATOM     47  H   UNL     1       0.909   7.594   5.904  1.00  0.00     0.163 HD
ATOM     48  O   UNL     1       1.397   9.318   7.452  1.00  0.00    -0.269 OA
BRANCH  46  49
ATOM     49  C   UNL     1       1.351  10.897   5.715  1.00  0.00     0.039 A 
ATOM     50  C   UNL     1       2.179  11.825   6.360  1.00  0.00     0.014 A 
ATOM     51  C   UNL     1       0.599  11.303   4.615  1.00  0.00     0.014 A 
ATOM     52  C   UNL     1       2.316  13.118   5.845  1.00  0.00     0.010 A 
ATOM     53  C   UNL     1       0.831  12.543   4.033  1.00  0.00     0.010 A 
ATOM     54  C   UNL     1       1.687  13.470   4.642  1.00  0.00    -0.014 A 
BRANCH  54  55
ATOM     55  C   UNL     1       1.879  14.793   3.990  1.00  0.00     0.031 A 
ATOM     56  C   UNL     1       0.680  15.655   3.687  1.00  0.00     0.074 A 
ATOM     57  C   UNL     1       3.104  15.163   3.563  1.00  0.00     0.049 A 
ATOM     58  N   UNL     1       0.596  16.725   2.940  1.00  0.00    -0.248 NA
ATOM     59  C   UNL     1      -0.603  15.236   4.277  1.00  0.00     0.031 C 
ATOM     60  C   UNL     1       4.346  14.418   3.783  1.00  0.00     0.029 A 
ATOM     61  N   UNL     1       3.502  16.250   2.824  1.00  0.00    -0.354 N 
ATOM     62  C   UNL     1      -0.746  17.088   2.948  1.00  0.00     0.074 A 
ATOM     63  C   UNL     1      -1.449  16.093   3.726  1.00  0.00     0.031 C 
ATOM     64  C   UNL     1       5.362  15.066   3.192  1.00  0.00     0.029 A 
ATOM     65  C   UNL     1       4.839  16.240   2.503  1.00  0.00     0.049 A 
ATOM     66  H   UNL     1       2.887  16.969   2.550  1.00  0.00     0.167 HD
ATOM     67  C   UNL     1      -1.336  18.168   2.380  1.00  0.00     0.037 A 
ATOM     68  C   UNL     1       5.561  17.064   1.719  1.00  0.00     0.037 A 
ATOM     69  C   UNL     1      -0.620  19.176   1.643  1.00  0.00     0.049 A 
ATOM     70  C   UNL     1       4.884  18.243   1.079  1.00  0.00     0.074 A 
ATOM     71  C   UNL     1      -1.110  20.341   1.082  1.00  0.00     0.029 A 
ATOM     72  N   UNL     1       0.740  19.140   1.370  1.00  0.00    -0.354 N 
ATOM     73  N   UNL     1       3.620  18.591   1.127  1.00  0.00    -0.248 NA
ATOM     74  C   UNL     1       5.731  19.149   0.293  1.00  0.00     0.031 C 
ATOM     75  C   UNL     1      -0.056  20.989   0.431  1.00  0.00     0.029 A 
ATOM     76  C   UNL     1       1.103  20.256   0.634  1.00  0.00     0.049 A 
ATOM     77  H   UNL     1       1.356  18.428   1.656  1.00  0.00     0.167 HD
ATOM     78  C   UNL     1       3.529  19.782   0.416  1.00  0.00     0.074 A 
ATOM     79  C   UNL     1       4.863  20.089  -0.057  1.00  0.00     0.031 C 
ATOM     80  C   UNL     1       2.440  20.556   0.187  1.00  0.00     0.037 A 
BRANCH  67  81
ATOM     81  C   UNL     1      -2.825  18.321   2.541  1.00  0.00     0.058 A 
ATOM     82  C   UNL     1      -3.408  18.616   3.784  1.00  0.00     0.135 A 
ATOM     83  C   UNL     1      -3.678  18.209   1.431  1.00  0.00     0.135 A 
ATOM     84  F   UNL     1      -2.642  18.720   4.883  1.00  0.00    -0.206 F 
ATOM     85  C   UNL     1      -4.783  18.761   3.928  1.00  0.00     0.059 A 
ATOM     86  C   UNL     1      -5.055  18.381   1.546  1.00  0.00     0.059 A 
ATOM     87  F   UNL     1      -3.176  17.929   0.218  1.00  0.00    -0.206 F 
ATOM     88  C   UNL     1      -5.599  18.642   2.802  1.00  0.00     0.060 A 
BRANCH  88  89
ATOM     89  S   UNL     1      -7.382  18.838   3.006  1.00  0.00     0.124 S 
ATOM     90  O   UNL     1      -7.734  17.597   3.689  1.00  0.00    -0.237 OA
ATOM     91  O   UNL     1      -7.472  20.052   3.812  1.00  0.00    -0.237 OA
ATOM     92  O   UNL     1      -7.870  18.961   1.636  1.00  0.00    -0.744 OA
ENDBRANCH  88  89
ENDBRANCH  67  81
BRANCH  68  93
ATOM     93  C   UNL     1       7.011  16.811   1.513  1.00  0.00     0.058 A 
ATOM     94  C   UNL     1       7.977  17.621   2.125  1.00  0.00     0.135 A 
ATOM     95  C   UNL     1       7.460  15.744   0.719  1.00  0.00     0.135 A 
ATOM     96  F   UNL     1       7.596  18.660   2.885  1.00  0.00    -0.206 F 
ATOM     97  C   UNL     1       9.337  17.391   1.951  1.00  0.00     0.059 A 
ATOM     98  C   UNL     1       8.814  15.476   0.551  1.00  0.00     0.059 A 
ATOM     99  F   UNL     1       6.575  14.936   0.117  1.00  0.00    -0.206 F 
ATOM    100  C   UNL     1       9.746  16.312   1.165  1.00  0.00     0.060 A 
BRANCH 100 101
ATOM    101  S   UNL     1      11.514  15.987   0.992  1.00  0.00     0.124 S 
ATOM    102  O   UNL     1      11.922  17.058   0.091  1.00  0.00    -0.237 OA
ATOM    103  O   UNL     1      11.980  16.097   2.371  1.00  0.00    -0.237 OA
ATOM    104  O   UNL     1      11.551  14.639   0.433  1.00  0.00    -0.744 OA
ENDBRANCH 100 101
ENDBRANCH  68  93
BRANCH  80 105
ATOM    105  C   UNL     1       2.647  21.846  -0.555  1.00  0.00     0.058 A 
ATOM    106  C   UNL     1       2.891  21.877  -1.936  1.00  0.00     0.135 A 
ATOM    107  C   UNL     1       2.526  23.072   0.119  1.00  0.00     0.135 A 
ATOM    108  F   UNL     1       3.025  20.732  -2.625  1.00  0.00    -0.206 F 
ATOM    109  C   UNL     1       3.021  23.080  -2.622  1.00  0.00     0.059 A 
ATOM    110  C   UNL     1       2.623  24.286  -0.551  1.00  0.00     0.059 A 
ATOM    111  F   UNL     1       2.285  23.096   1.440  1.00  0.00    -0.206 F 
ATOM    112  C   UNL     1       2.878  24.280  -1.921  1.00  0.00     0.060 A 
BRANCH 112 113
ATOM    113  S   UNL     1       2.993  25.833  -2.833  1.00  0.00     0.124 S 
ATOM    114  O   UNL     1       4.425  25.910  -3.104  1.00  0.00    -0.237 OA
ATOM    115  O   UNL     1       2.141  25.579  -3.990  1.00  0.00    -0.237 OA
ATOM    116  O   UNL     1       2.479  26.821  -1.889  1.00  0.00    -0.744 OA
ENDBRANCH 112 113
ENDBRANCH  80 105
ENDBRANCH  54  55
ENDBRANCH  46  49
ENDBRANCH  44  45
ENDBRANCH  43  44
ENDBRANCH  42  43
ENDBRANCH   3  42
TORSDOF 22
