REMARK SMILES O=C(NCCCNC(=O)c1ccnc(-n2cnnn2)c1)c1ccc(-c2c3nc(c(-c4c(F)cc(S(=O)(=O)[O-])cc4F)c4ccc([nH]4)c(-c4c(F)cc(S(=O)(=O)[O-])cc4F)c4nc(c(-c5c(F)cc(S(=O)(=O)[O-])cc5F)c5ccc2[nH]5)C=C4)C=C3)cc1
REMARK SMILES IDX 4 1 3 2 1 3 2 4 21 6 22 7 86 8 23 9 85 10 24 11 25 12 26 13
REMARK SMILES IDX 79 14 27 15 84 16 78 17 80 18 28 19 83 20 77 21 76 22 29 24
REMARK SMILES IDX 63 25 42 26 62 27 43 28 46 29 61 30 81 31 44 32 45 33 60 35
REMARK SMILES IDX 82 36 47 37 30 38 31 39 40 40 32 41 33 42 39 43 41 44 34 45
REMARK SMILES IDX 35 46 36 47 37 48 38 49 64 50 65 51 74 52 66 53 67 54 73 55
REMARK SMILES IDX 75 56 68 57 69 58 70 59 71 60 72 61 48 62 49 63 58 64 50 65
REMARK SMILES IDX 51 66 57 67 59 68 52 69 53 70 54 71 55 72 56 73 5 74 6 75
REMARK SMILES IDX 7 76 8 77 9 79 10 80 11 81 20 82 12 83 14 84 13 85 15 86
REMARK SMILES IDX 16 87 19 88 17 89 18 90
REMARK H PARENT 3 5 80 23 46 34 7 78
REMARK Flexibility Score: inf
ROOT
ATOM      1  C   UNL     1       4.724   1.013  -0.547  1.00  0.00     0.118 C 
ENDROOT
BRANCH   1   2
ATOM      2  N   UNL     1       3.318   1.167  -0.238  1.00  0.00    -0.352 N 
ATOM      3  O   UNL     1       1.263   0.824   0.473  1.00  0.00    -0.269 OA
ATOM      4  C   UNL     1       2.294   0.303   0.036  1.00  0.00     0.251 C 
ATOM      5  H   UNL     1       3.034   2.109  -0.221  1.00  0.00     0.163 HD
BRANCH   4   6
ATOM      6  C   UNL     1       2.307  -1.164  -0.217  1.00  0.00     0.039 A 
ATOM      7  C   UNL     1       3.405  -1.911  -0.646  1.00  0.00     0.014 A 
ATOM      8  C   UNL     1       1.071  -1.820  -0.063  1.00  0.00     0.014 A 
ATOM      9  C   UNL     1       3.251  -3.246  -1.016  1.00  0.00     0.010 A 
ATOM     10  C   UNL     1       0.914  -3.157  -0.411  1.00  0.00     0.010 A 
ATOM     11  C   UNL     1       1.998  -3.857  -0.931  1.00  0.00    -0.014 A 
BRANCH  11  12
ATOM     12  C   UNL     1       1.892  -5.274  -1.273  1.00  0.00     0.031 A 
ATOM     13  C   UNL     1       2.625  -6.196  -0.354  1.00  0.00     0.074 A 
ATOM     14  C   UNL     1       1.068  -5.742  -2.232  1.00  0.00     0.049 A 
ATOM     15  N   UNL     1       3.573  -7.032  -0.629  1.00  0.00    -0.248 NA
ATOM     16  C   UNL     1       2.330  -6.087   1.085  1.00  0.00     0.031 C 
ATOM     17  C   UNL     1       0.064  -4.996  -2.997  1.00  0.00     0.029 A 
ATOM     18  N   UNL     1       0.876  -7.025  -2.650  1.00  0.00    -0.354 N 
ATOM     19  C   UNL     1       3.852  -7.705   0.563  1.00  0.00     0.074 A 
ATOM     20  C   UNL     1       3.178  -6.974   1.602  1.00  0.00     0.031 C 
ATOM     21  C   UNL     1      -0.772  -5.868  -3.604  1.00  0.00     0.029 A 
ATOM     22  C   UNL     1      -0.292  -7.221  -3.380  1.00  0.00     0.049 A 
ATOM     23  H   UNL     1       1.510  -7.752  -2.452  1.00  0.00     0.167 HD
ATOM     24  C   UNL     1       4.440  -8.935   0.579  1.00  0.00     0.037 A 
ATOM     25  C   UNL     1      -0.859  -8.411  -3.707  1.00  0.00     0.037 A 
ATOM     26  C   UNL     1       5.120  -9.204  -0.662  1.00  0.00     0.049 A 
ATOM     27  C   UNL     1       0.195  -9.452  -3.591  1.00  0.00     0.074 A 
ATOM     28  C   UNL     1       6.148  -8.601  -1.360  1.00  0.00     0.029 A 
ATOM     29  N   UNL     1       4.526 -10.064  -1.553  1.00  0.00    -0.354 N 
ATOM     30  N   UNL     1       1.243  -9.521  -4.365  1.00  0.00    -0.248 NA
ATOM     31  C   UNL     1       0.307 -10.161  -2.325  1.00  0.00     0.031 C 
ATOM     32  C   UNL     1       5.796  -8.747  -2.734  1.00  0.00     0.029 A 
ATOM     33  C   UNL     1       4.607  -9.476  -2.788  1.00  0.00     0.049 A 
ATOM     34  H   UNL     1       4.120 -10.936  -1.345  1.00  0.00     0.167 HD
ATOM     35  C   UNL     1       2.278  -9.912  -3.529  1.00  0.00     0.074 A 
ATOM     36  C   UNL     1       1.625 -10.374  -2.306  1.00  0.00     0.031 C 
ATOM     37  C   UNL     1       3.574  -9.571  -3.794  1.00  0.00     0.037 A 
BRANCH  24  38
ATOM     38  C   UNL     1       4.096 -10.038   1.563  1.00  0.00     0.058 A 
ATOM     39  C   UNL     1       4.813 -11.255   1.511  1.00  0.00     0.135 A 
ATOM     40  C   UNL     1       2.912 -10.071   2.333  1.00  0.00     0.135 A 
ATOM     41  F   UNL     1       5.965 -11.343   0.828  1.00  0.00    -0.206 F 
ATOM     42  C   UNL     1       4.328 -12.436   2.074  1.00  0.00     0.059 A 
ATOM     43  C   UNL     1       2.439 -11.225   2.947  1.00  0.00     0.059 A 
ATOM     44  F   UNL     1       2.100  -9.015   2.451  1.00  0.00    -0.206 F 
ATOM     45  C   UNL     1       3.122 -12.414   2.767  1.00  0.00     0.060 A 
BRANCH  45  46
ATOM     46  S   UNL     1       2.414 -13.961   3.358  1.00  0.00     0.124 S 
ATOM     47  O   UNL     1       2.050 -14.608   2.107  1.00  0.00    -0.237 OA
ATOM     48  O   UNL     1       3.533 -14.548   4.086  1.00  0.00    -0.237 OA
ATOM     49  O   UNL     1       1.296 -13.517   4.192  1.00  0.00    -0.744 OA
ENDBRANCH  45  46
ENDBRANCH  24  38
BRANCH  25  50
ATOM     50  C   UNL     1      -2.310  -8.746  -3.755  1.00  0.00     0.058 A 
ATOM     51  C   UNL     1      -2.774  -9.934  -4.350  1.00  0.00     0.135 A 
ATOM     52  C   UNL     1      -3.248  -8.041  -2.972  1.00  0.00     0.135 A 
ATOM     53  F   UNL     1      -1.944 -10.685  -5.089  1.00  0.00    -0.206 F 
ATOM     54  C   UNL     1      -4.075 -10.413  -4.150  1.00  0.00     0.059 A 
ATOM     55  C   UNL     1      -4.551  -8.492  -2.768  1.00  0.00     0.059 A 
ATOM     56  F   UNL     1      -2.897  -6.934  -2.302  1.00  0.00    -0.206 F 
ATOM     57  C   UNL     1      -4.953  -9.691  -3.341  1.00  0.00     0.060 A 
BRANCH  57  58
ATOM     58  S   UNL     1      -6.579 -10.379  -2.945  1.00  0.00     0.124 S 
ATOM     59  O   UNL     1      -7.269 -10.280  -4.226  1.00  0.00    -0.237 OA
ATOM     60  O   UNL     1      -6.244 -11.729  -2.503  1.00  0.00    -0.237 OA
ATOM     61  O   UNL     1      -7.077  -9.490  -1.898  1.00  0.00    -0.744 OA
ENDBRANCH  57  58
ENDBRANCH  25  50
BRANCH  37  62
ATOM     62  C   UNL     1       3.909  -9.019  -5.154  1.00  0.00     0.058 A 
ATOM     63  C   UNL     1       3.430  -7.794  -5.651  1.00  0.00     0.135 A 
ATOM     64  C   UNL     1       4.895  -9.674  -5.908  1.00  0.00     0.135 A 
ATOM     65  F   UNL     1       2.565  -7.053  -4.945  1.00  0.00    -0.206 F 
ATOM     66  C   UNL     1       3.888  -7.261  -6.857  1.00  0.00     0.059 A 
ATOM     67  C   UNL     1       5.390  -9.146  -7.096  1.00  0.00     0.059 A 
ATOM     68  F   UNL     1       5.439 -10.817  -5.455  1.00  0.00    -0.206 F 
ATOM     69  C   UNL     1       4.875  -7.941  -7.570  1.00  0.00     0.060 A 
BRANCH  69  70
ATOM     70  S   UNL     1       5.545  -7.193  -9.071  1.00  0.00     0.124 S 
ATOM     71  O   UNL     1       4.443  -7.354 -10.012  1.00  0.00    -0.237 OA
ATOM     72  O   UNL     1       5.821  -5.823  -8.645  1.00  0.00    -0.237 OA
ATOM     73  O   UNL     1       6.732  -7.998  -9.353  1.00  0.00    -0.744 OA
ENDBRANCH  69  70
ENDBRANCH  37  62
ENDBRANCH  11  12
ENDBRANCH   4   6
ENDBRANCH   1   2
BRANCH   1  74
ATOM     74  C   UNL     1       5.043   0.824  -2.031  1.00  0.00     0.042 C 
BRANCH  74  75
ATOM     75  C   UNL     1       4.516   1.923  -2.950  1.00  0.00     0.118 C 
BRANCH  75  76
ATOM     76  N   UNL     1       5.087   3.225  -2.638  1.00  0.00    -0.352 N 
ATOM     77  C   UNL     1       5.934   4.008  -3.362  1.00  0.00     0.251 C 
ATOM     78  H   UNL     1       4.819   3.598  -1.767  1.00  0.00     0.163 HD
ATOM     79  O   UNL     1       6.479   4.985  -2.825  1.00  0.00    -0.269 OA
BRANCH  77  80
ATOM     80  C   UNL     1       6.228   3.737  -4.780  1.00  0.00     0.045 A 
ATOM     81  C   UNL     1       5.205   3.534  -5.703  1.00  0.00     0.034 A 
ATOM     82  C   UNL     1       7.554   3.835  -5.207  1.00  0.00     0.063 A 
ATOM     83  C   UNL     1       5.556   3.432  -7.034  1.00  0.00     0.114 A 
ATOM     84  C   UNL     1       7.813   3.741  -6.569  1.00  0.00     0.157 A 
ATOM     85  N   UNL     1       6.824   3.557  -7.482  1.00  0.00    -0.237 NA
BRANCH  84  86
ATOM     86  N   UNL     1       9.144   3.879  -7.039  1.00  0.00    -0.182 N 
ATOM     87  C   UNL     1      10.322   3.743  -6.349  1.00  0.00     0.254 A 
ATOM     88  N   UNL     1       9.445   4.216  -8.314  1.00  0.00    -0.039 NA
ATOM     89  N   UNL     1      11.326   4.056  -7.136  1.00  0.00    -0.117 NA
ATOM     90  N   UNL     1      10.764   4.356  -8.350  1.00  0.00    -0.024 NA
ENDBRANCH  84  86
ENDBRANCH  77  80
ENDBRANCH  75  76
ENDBRANCH  74  75
ENDBRANCH   1  74
TORSDOF 14
