REMARK SMILES Cc1cccc2nc(C(=O)N3CCC[C@@H](C(=O)NCCCNC(=O)c4ccc(-c5c6nc(c(-c7c(F)cc(S(=O)(=O)[O-])cc7F)c7ccc([nH]7)c(-c7c(F)cc(S(=O)(=O)[O-])cc7F)c7nc(c(-c8c(F)cc(S(=O)(=O)[O-])cc8F)c8ccc5[nH]8)C=C7)C=C6)cc4)C3)cn12
REMARK SMILES IDX 20 1 19 2 18 3 16 4 17 5 15 7 11 8 12 9 91 10 13 11 14 12
REMARK SMILES IDX 9 13 10 14 8 15 1 16 2 17 3 18 93 19 4 20 6 21 92 22 5 23
REMARK SMILES IDX 7 24 21 25 22 26 23 27 24 29 25 30 26 31 90 32 27 33 89 34
REMARK SMILES IDX 28 35 29 36 30 37 83 38 31 39 88 40 82 41 84 42 32 43 87 44
REMARK SMILES IDX 81 45 80 46 33 48 67 49 46 50 66 51 47 52 50 53 65 54 85 55
REMARK SMILES IDX 48 56 49 57 64 59 86 60 51 61 34 62 35 63 44 64 36 65 37 66
REMARK SMILES IDX 43 67 45 68 38 69 39 70 40 71 41 72 42 73 68 74 69 75 78 76
REMARK SMILES IDX 70 77 71 78 77 79 79 80 72 81 73 82 74 83 75 84 76 85 52 86
REMARK SMILES IDX 53 87 62 88 54 89 55 90 61 91 63 92 56 93 57 94 58 95 59 96
REMARK SMILES IDX 60 97
REMARK H PARENT 18 6 22 28 84 47 50 58
REMARK Flexibility Score: inf
ROOT
ATOM      1  C   UNL     1       1.517   5.499   9.701  1.00  0.00     0.042 C 
ENDROOT
BRANCH   1   2
ATOM      2  C   UNL     1       1.574   4.204   8.889  1.00  0.00     0.117 C 
BRANCH   2   3
ATOM      3  N   UNL     1       0.904   3.091   9.546  1.00  0.00    -0.356 N 
ATOM      4  C   UNL     1      -0.217   2.400   9.194  1.00  0.00     0.224 C 
ATOM      5  O   UNL     1      -0.541   1.422   9.866  1.00  0.00    -0.275 OA
ATOM      6  H   UNL     1       1.330   2.788  10.381  1.00  0.00     0.163 HD
BRANCH   4   7
ATOM      7  C   UNL     1      -1.051   2.864   8.020  1.00  0.00     0.098 C 
ATOM      8  N   UNL     1      -2.087   2.200   5.917  1.00  0.00    -0.336 N 
ATOM      9  C   UNL     1      -3.380   2.754   6.289  1.00  0.00     0.120 C 
ATOM     10  C   UNL     1      -1.251   1.715   7.019  1.00  0.00     0.133 C 
ATOM     11  C   UNL     1      -3.244   3.864   7.325  1.00  0.00     0.022 C 
ATOM     12  C   UNL     1      -2.401   3.401   8.514  1.00  0.00     0.017 C 
BRANCH   8  13
ATOM     13  C   UNL     1      -1.639   2.325   4.607  1.00  0.00     0.274 C 
ATOM     14  O   UNL     1      -1.966   3.280   3.901  1.00  0.00    -0.267 OA
BRANCH  13  15
ATOM     15  C   UNL     1      -0.865   1.207   4.046  1.00  0.00     0.147 A 
ATOM     16  C   UNL     1       0.986   0.154   0.182  1.00  0.00     0.065 C 
ATOM     17  C   UNL     1       0.649  -0.678   1.382  1.00  0.00     0.021 A 
ATOM     18  C   UNL     1       0.832  -2.016   1.376  1.00  0.00     0.022 A 
ATOM     19  N   UNL     1       0.103  -0.092   2.542  1.00  0.00    -0.304 N 
ATOM     20  C   UNL     1       0.490  -2.800   2.551  1.00  0.00     0.006 A 
ATOM     21  C   UNL     1      -0.242  -0.820   3.682  1.00  0.00     0.137 A 
ATOM     22  C   UNL     1      -0.256   1.207   2.803  1.00  0.00     0.127 A 
ATOM     23  C   UNL     1      -0.015  -2.224   3.657  1.00  0.00     0.048 A 
ATOM     24  N   UNL     1      -0.791  -0.057   4.602  1.00  0.00    -0.223 NA
ENDBRANCH  13  15
ENDBRANCH   8  13
ENDBRANCH   4   7
ENDBRANCH   2   3
ENDBRANCH   1   2
BRANCH   1  25
ATOM     25  C   UNL     1       2.446   5.459  10.903  1.00  0.00     0.118 C 
BRANCH  25  26
ATOM     26  N   UNL     1       3.857   5.427  10.517  1.00  0.00    -0.352 N 
ATOM     27  C   UNL     1       4.975   5.532  11.319  1.00  0.00     0.251 C 
ATOM     28  H   UNL     1       4.032   5.316   9.554  1.00  0.00     0.163 HD
ATOM     29  O   UNL     1       6.064   5.781  10.828  1.00  0.00    -0.269 OA
BRANCH  27  30
ATOM     30  C   UNL     1       4.833   5.333  12.774  1.00  0.00     0.039 A 
ATOM     31  C   UNL     1       5.572   6.106  13.677  1.00  0.00     0.014 A 
ATOM     32  C   UNL     1       3.968   4.341  13.229  1.00  0.00     0.014 A 
ATOM     33  C   UNL     1       5.392   5.906  15.044  1.00  0.00     0.010 A 
ATOM     34  C   UNL     1       3.693   4.232  14.566  1.00  0.00     0.010 A 
ATOM     35  C   UNL     1       4.448   4.967  15.475  1.00  0.00    -0.014 A 
BRANCH  35  36
ATOM     36  C   UNL     1       4.159   4.772  16.890  1.00  0.00     0.031 A 
ATOM     37  C   UNL     1       3.501   5.933  17.555  1.00  0.00     0.074 A 
ATOM     38  C   UNL     1       4.212   3.538  17.437  1.00  0.00     0.049 A 
ATOM     39  N   UNL     1       3.927   6.637  18.552  1.00  0.00    -0.248 NA
ATOM     40  C   UNL     1       2.262   6.459  16.949  1.00  0.00     0.031 C 
ATOM     41  C   UNL     1       4.507   2.265  16.761  1.00  0.00     0.029 A 
ATOM     42  N   UNL     1       3.874   3.130  18.688  1.00  0.00    -0.354 N 
ATOM     43  C   UNL     1       2.909   7.546  18.839  1.00  0.00     0.074 A 
ATOM     44  C   UNL     1       2.015   7.524  17.712  1.00  0.00     0.031 C 
ATOM     45  C   UNL     1       4.099   1.236  17.535  1.00  0.00     0.029 A 
ATOM     46  C   UNL     1       3.666   1.759  18.816  1.00  0.00     0.049 A 
ATOM     47  H   UNL     1       3.784   3.755  19.444  1.00  0.00     0.167 HD
ATOM     48  C   UNL     1       2.742   8.069  20.086  1.00  0.00     0.037 A 
ATOM     49  C   UNL     1       3.123   1.121  19.885  1.00  0.00     0.037 A 
ATOM     50  C   UNL     1       3.904   7.849  20.907  1.00  0.00     0.049 A 
ATOM     51  C   UNL     1       3.221   2.060  21.034  1.00  0.00     0.074 A 
ATOM     52  C   UNL     1       5.228   8.232  20.838  1.00  0.00     0.029 A 
ATOM     53  N   UNL     1       3.861   6.796  21.787  1.00  0.00    -0.354 N 
ATOM     54  N   UNL     1       4.348   2.462  21.556  1.00  0.00    -0.248 NA
ATOM     55  C   UNL     1       2.072   2.908  21.309  1.00  0.00     0.031 C 
ATOM     56  C   UNL     1       5.964   7.102  21.299  1.00  0.00     0.029 A 
ATOM     57  C   UNL     1       5.051   6.119  21.688  1.00  0.00     0.049 A 
ATOM     58  H   UNL     1       3.112   6.567  22.383  1.00  0.00     0.167 HD
ATOM     59  C   UNL     1       4.147   3.803  21.853  1.00  0.00     0.074 A 
ATOM     60  C   UNL     1       2.701   3.995  21.763  1.00  0.00     0.031 C 
ATOM     61  C   UNL     1       5.188   4.688  21.863  1.00  0.00     0.037 A 
BRANCH  48  62
ATOM     62  C   UNL     1       1.406   8.466  20.669  1.00  0.00     0.058 A 
ATOM     63  C   UNL     1       1.355   9.237  21.848  1.00  0.00     0.135 A 
ATOM     64  C   UNL     1       0.177   7.902  20.258  1.00  0.00     0.135 A 
ATOM     65  F   UNL     1       2.470   9.796  22.347  1.00  0.00    -0.206 F 
ATOM     66  C   UNL     1       0.178   9.404  22.581  1.00  0.00     0.059 A 
ATOM     67  C   UNL     1      -1.017   8.103  20.941  1.00  0.00     0.059 A 
ATOM     68  F   UNL     1       0.096   7.049  19.229  1.00  0.00    -0.206 F 
ATOM     69  C   UNL     1      -1.002   8.827  22.121  1.00  0.00     0.060 A 
BRANCH  69  70
ATOM     70  S   UNL     1      -2.505   8.977  23.104  1.00  0.00     0.124 S 
ATOM     71  O   UNL     1      -2.169   8.178  24.276  1.00  0.00    -0.237 OA
ATOM     72  O   UNL     1      -2.585  10.419  23.314  1.00  0.00    -0.237 OA
ATOM     73  O   UNL     1      -3.534   8.419  22.232  1.00  0.00    -0.744 OA
ENDBRANCH  69  70
ENDBRANCH  48  62
BRANCH  49  74
ATOM     74  C   UNL     1       2.196  -0.046  19.893  1.00  0.00     0.058 A 
ATOM     75  C   UNL     1       1.867  -0.693  21.100  1.00  0.00     0.135 A 
ATOM     76  C   UNL     1       1.380  -0.354  18.785  1.00  0.00     0.135 A 
ATOM     77  F   UNL     1       2.583  -0.454  22.209  1.00  0.00    -0.206 F 
ATOM     78  C   UNL     1       0.753  -1.531  21.220  1.00  0.00     0.059 A 
ATOM     79  C   UNL     1       0.271  -1.195  18.879  1.00  0.00     0.059 A 
ATOM     80  F   UNL     1       1.576   0.233  17.596  1.00  0.00    -0.206 F 
ATOM     81  C   UNL     1      -0.058  -1.753  20.108  1.00  0.00     0.060 A 
BRANCH  81  82
ATOM     82  S   UNL     1      -1.611  -2.661  20.309  1.00  0.00     0.124 S 
ATOM     83  O   UNL     1      -1.137  -4.007  20.613  1.00  0.00    -0.237 OA
ATOM     84  O   UNL     1      -2.243  -1.944  21.411  1.00  0.00    -0.237 OA
ATOM     85  O   UNL     1      -2.264  -2.506  19.012  1.00  0.00    -0.744 OA
ENDBRANCH  81  82
ENDBRANCH  49  74
BRANCH  61  86
ATOM     86  C   UNL     1       6.593   4.131  21.843  1.00  0.00     0.058 A 
ATOM     87  C   UNL     1       7.151   3.393  20.783  1.00  0.00     0.135 A 
ATOM     88  C   UNL     1       7.456   4.485  22.891  1.00  0.00     0.135 A 
ATOM     89  F   UNL     1       6.431   3.098  19.693  1.00  0.00    -0.206 F 
ATOM     90  C   UNL     1       8.488   2.987  20.786  1.00  0.00     0.059 A 
ATOM     91  C   UNL     1       8.800   4.121  22.900  1.00  0.00     0.059 A 
ATOM     92  F   UNL     1       7.005   5.241  23.905  1.00  0.00    -0.206 F 
ATOM     93  C   UNL     1       9.307   3.358  21.851  1.00  0.00     0.060 A 
BRANCH  93  94
ATOM     94  S   UNL     1      11.049   2.883  21.831  1.00  0.00     0.124 S 
ATOM     95  O   UNL     1      10.976   1.435  21.990  1.00  0.00    -0.237 OA
ATOM     96  O   UNL     1      11.491   3.355  20.521  1.00  0.00    -0.237 OA
ATOM     97  O   UNL     1      11.615   3.607  22.967  1.00  0.00    -0.744 OA
ENDBRANCH  93  94
ENDBRANCH  61  86
ENDBRANCH  35  36
ENDBRANCH  27  30
ENDBRANCH  25  26
ENDBRANCH   1  25
TORSDOF 15
