REMARK SMILES Cc1ccc(-c2cc(Cl)cc3c2O[C@@H](C(F)(F)F)C(C(=O)NCCCNC(=O)c2ccc(-c4c5nc(c(-c6c(F)cc(S(=O)(=O)[O-])cc6F)c6ccc([nH]6)c(-c6c(F)cc(S(=O)(=O)[O-])cc6F)c6nc(c(-c7c(F)cc(S(=O)(=O)[O-])cc7F)c7ccc4[nH]7)C=C6)C=C5)cc2)=C3)cc1
REMARK SMILES IDX 25 1 24 2 23 3 22 4 20 5 21 6 19 8 6 9 7 10 12 11 8 12 11 13
REMARK SMILES IDX 13 14 9 15 10 16 95 17 14 18 5 19 1 20 2 21 3 22 97 23 4 24
REMARK SMILES IDX 96 25 15 26 16 27 17 28 18 29 26 30 27 31 28 33 29 34 30 35
REMARK SMILES IDX 94 36 31 37 93 38 32 39 33 40 34 41 87 42 35 43 92 44 86 45
REMARK SMILES IDX 88 46 36 47 91 48 85 49 84 50 37 52 71 53 50 54 70 55 51 56
REMARK SMILES IDX 54 57 69 58 89 59 52 60 53 61 68 63 90 64 55 65 38 66 39 67
REMARK SMILES IDX 48 68 40 69 41 70 47 71 49 72 42 73 43 74 44 75 45 76 46 77
REMARK SMILES IDX 72 78 73 79 82 80 74 81 75 82 81 83 83 84 76 85 77 86 78 87
REMARK SMILES IDX 79 88 80 89 56 90 57 91 66 92 58 93 59 94 65 95 67 96 60 97
REMARK SMILES IDX 61 98 62 99 63 100 64 101
REMARK H PARENT 22 7 26 32 88 51 54 62
REMARK Flexibility Score: inf
ROOT
ATOM      1  C   UNL     1      -2.643  -4.494   4.710  1.00  0.00     0.118 C 
ENDROOT
BRANCH   1   2
ATOM      2  C   UNL     1      -4.013  -3.874   4.931  1.00  0.00     0.042 C 
BRANCH   2   3
ATOM      3  C   UNL     1      -4.031  -2.456   5.530  1.00  0.00     0.118 C 
BRANCH   3   4
ATOM      4  N   UNL     1      -3.582  -1.377   4.655  1.00  0.00    -0.352 N 
ATOM      5  C   UNL     1      -4.198  -0.278   4.119  1.00  0.00     0.251 C 
ATOM      6  O   UNL     1      -3.497   0.714   3.899  1.00  0.00    -0.270 OA
ATOM      7  H   UNL     1      -2.636  -1.456   4.396  1.00  0.00     0.163 HD
BRANCH   5   8
ATOM      8  C   UNL     1      -5.653  -0.277   3.641  1.00  0.00     0.067 C 
ATOM      9  C   UNL     1      -3.839  -1.118   0.208  1.00  0.00     0.026 A 
ATOM     10  C   UNL     1      -4.266  -0.528  -1.007  1.00  0.00     0.033 A 
ATOM     11  C   UNL     1      -4.730  -0.990   1.278  1.00  0.00     0.135 A 
ATOM     12  C   UNL     1      -5.341   0.366  -1.035  1.00  0.00     0.042 A 
ATOM     13  C   UNL     1      -5.532   0.180   1.343  1.00  0.00     0.019 A 
ATOM     14  O   UNL     1      -4.984  -2.040   2.215  1.00  0.00    -0.475 OA
ATOM     15  Cl  UNL     1      -5.817   1.088  -2.522  1.00  0.00    -0.084 Cl
ATOM     16  C   UNL     1      -5.920   0.793   0.157  1.00  0.00     0.032 A 
ATOM     17  C   UNL     1      -5.956   0.662   2.707  1.00  0.00     0.025 C 
ATOM     18  C   UNL     1      -6.096  -1.609   3.085  1.00  0.00     0.314 C 
BRANCH   9  19
ATOM     19  C   UNL     1      -2.359  -1.003   0.412  1.00  0.00    -0.015 A 
ATOM     20  C   UNL     1       1.927  -0.270   0.138  1.00  0.00     0.044 C 
ATOM     21  C   UNL     1       0.452  -0.520   0.290  1.00  0.00    -0.051 A 
ATOM     22  C   UNL     1      -0.070  -1.823   0.247  1.00  0.00     0.004 A 
ATOM     23  C   UNL     1      -0.431   0.541   0.464  1.00  0.00     0.004 A 
ATOM     24  C   UNL     1      -1.460  -2.064   0.300  1.00  0.00     0.009 A 
ATOM     25  C   UNL     1      -1.806   0.299   0.538  1.00  0.00     0.009 A 
ENDBRANCH   9  19
BRANCH  18  26
ATOM     26  C   UNL     1      -6.916  -2.399   4.129  1.00  0.00     0.429 C 
ATOM     27  F   UNL     1      -8.241  -2.337   3.789  1.00  0.00    -0.167 F 
ATOM     28  F   UNL     1      -6.628  -3.704   4.234  1.00  0.00    -0.167 F 
ATOM     29  F   UNL     1      -6.878  -1.843   5.364  1.00  0.00    -0.167 F 
ENDBRANCH  18  26
ENDBRANCH   5   8
ENDBRANCH   3   4
ENDBRANCH   2   3
ENDBRANCH   1   2
BRANCH   1  30
ATOM     30  N   UNL     1      -1.755  -4.111   5.765  1.00  0.00    -0.352 N 
ATOM     31  C   UNL     1      -1.445  -4.661   6.992  1.00  0.00     0.251 C 
ATOM     32  H   UNL     1      -1.261  -3.281   5.576  1.00  0.00     0.163 HD
ATOM     33  O   UNL     1      -1.095  -3.868   7.822  1.00  0.00    -0.269 OA
BRANCH  31  34
ATOM     34  C   UNL     1      -1.181  -6.183   7.152  1.00  0.00     0.039 A 
ATOM     35  C   UNL     1      -0.119  -6.281   8.065  1.00  0.00     0.014 A 
ATOM     36  C   UNL     1      -0.914  -6.784   5.933  1.00  0.00     0.014 A 
ATOM     37  C   UNL     1       1.144  -5.962   7.579  1.00  0.00     0.010 A 
ATOM     38  C   UNL     1       0.283  -6.416   5.364  1.00  0.00     0.010 A 
ATOM     39  C   UNL     1       1.255  -5.849   6.200  1.00  0.00    -0.014 A 
BRANCH  39  40
ATOM     40  C   UNL     1       2.268  -5.066   5.524  1.00  0.00     0.031 A 
ATOM     41  C   UNL     1       3.325  -5.824   4.843  1.00  0.00     0.074 A 
ATOM     42  C   UNL     1       2.076  -3.729   5.414  1.00  0.00     0.049 A 
ATOM     43  N   UNL     1       4.405  -5.334   4.362  1.00  0.00    -0.248 NA
ATOM     44  C   UNL     1       3.232  -7.275   4.682  1.00  0.00     0.031 C 
ATOM     45  C   UNL     1       2.767  -2.784   4.539  1.00  0.00     0.029 A 
ATOM     46  N   UNL     1       1.321  -2.897   6.254  1.00  0.00    -0.354 N 
ATOM     47  C   UNL     1       5.003  -6.317   3.599  1.00  0.00     0.074 A 
ATOM     48  C   UNL     1       4.258  -7.518   3.868  1.00  0.00     0.031 C 
ATOM     49  C   UNL     1       2.679  -1.556   5.083  1.00  0.00     0.029 A 
ATOM     50  C   UNL     1       2.064  -1.718   6.396  1.00  0.00     0.049 A 
ATOM     51  H   UNL     1       0.449  -3.101   6.662  1.00  0.00     0.167 HD
ATOM     52  C   UNL     1       5.975  -5.946   2.720  1.00  0.00     0.037 A 
ATOM     53  C   UNL     1       2.665  -1.377   7.575  1.00  0.00     0.037 A 
ATOM     54  C   UNL     1       6.332  -4.546   2.958  1.00  0.00     0.049 A 
ATOM     55  C   UNL     1       4.183  -1.372   7.414  1.00  0.00     0.074 A 
ATOM     56  C   UNL     1       5.869  -3.363   2.402  1.00  0.00     0.029 A 
ATOM     57  N   UNL     1       6.913  -4.202   4.179  1.00  0.00    -0.354 N 
ATOM     58  N   UNL     1       4.842  -2.104   6.548  1.00  0.00    -0.248 NA
ATOM     59  C   UNL     1       5.059  -0.469   8.156  1.00  0.00     0.031 C 
ATOM     60  C   UNL     1       6.047  -2.333   3.366  1.00  0.00     0.029 A 
ATOM     61  C   UNL     1       6.649  -2.878   4.489  1.00  0.00     0.049 A 
ATOM     62  H   UNL     1       7.438  -4.816   4.742  1.00  0.00     0.167 HD
ATOM     63  C   UNL     1       6.173  -1.762   6.572  1.00  0.00     0.074 A 
ATOM     64  C   UNL     1       6.255  -0.742   7.606  1.00  0.00     0.031 C 
ATOM     65  C   UNL     1       7.121  -2.292   5.738  1.00  0.00     0.037 A 
BRANCH  52  66
ATOM     66  C   UNL     1       6.322  -6.749   1.482  1.00  0.00     0.058 A 
ATOM     67  C   UNL     1       6.692  -6.089   0.290  1.00  0.00     0.135 A 
ATOM     68  C   UNL     1       6.236  -8.153   1.369  1.00  0.00     0.135 A 
ATOM     69  F   UNL     1       6.870  -4.762   0.254  1.00  0.00    -0.206 F 
ATOM     70  C   UNL     1       6.882  -6.754  -0.924  1.00  0.00     0.059 A 
ATOM     71  C   UNL     1       6.366  -8.837   0.154  1.00  0.00     0.059 A 
ATOM     72  F   UNL     1       6.075  -8.933   2.445  1.00  0.00    -0.206 F 
ATOM     73  C   UNL     1       6.693  -8.127  -0.991  1.00  0.00     0.060 A 
BRANCH  73  74
ATOM     74  S   UNL     1       6.920  -8.962  -2.573  1.00  0.00     0.124 S 
ATOM     75  O   UNL     1       5.993  -8.240  -3.439  1.00  0.00    -0.237 OA
ATOM     76  O   UNL     1       8.338  -8.735  -2.832  1.00  0.00    -0.237 OA
ATOM     77  O   UNL     1       6.550 -10.345  -2.286  1.00  0.00    -0.744 OA
ENDBRANCH  73  74
ENDBRANCH  52  66
BRANCH  53  78
ATOM     78  C   UNL     1       1.888  -1.747   8.805  1.00  0.00     0.058 A 
ATOM     79  C   UNL     1       0.646  -1.110   9.027  1.00  0.00     0.135 A 
ATOM     80  C   UNL     1       2.124  -2.921   9.533  1.00  0.00     0.135 A 
ATOM     81  F   UNL     1       0.362   0.033   8.380  1.00  0.00    -0.206 F 
ATOM     82  C   UNL     1      -0.359  -1.673   9.820  1.00  0.00     0.059 A 
ATOM     83  C   UNL     1       1.130  -3.505  10.338  1.00  0.00     0.059 A 
ATOM     84  F   UNL     1       3.276  -3.589   9.378  1.00  0.00    -0.206 F 
ATOM     85  C   UNL     1      -0.128  -2.900  10.438  1.00  0.00     0.060 A 
BRANCH  85  86
ATOM     86  S   UNL     1      -1.531  -3.793  11.185  1.00  0.00     0.124 S 
ATOM     87  O   UNL     1      -1.580  -3.203  12.520  1.00  0.00    -0.237 OA
ATOM     88  O   UNL     1      -2.667  -3.467  10.327  1.00  0.00    -0.237 OA
ATOM     89  O   UNL     1      -1.109  -5.192  11.146  1.00  0.00    -0.744 OA
ENDBRANCH  85  86
ENDBRANCH  53  78
BRANCH  65  90
ATOM     90  C   UNL     1       8.616  -2.207   5.971  1.00  0.00     0.058 A 
ATOM     91  C   UNL     1       9.193  -2.102   7.249  1.00  0.00     0.135 A 
ATOM     92  C   UNL     1       9.531  -2.403   4.907  1.00  0.00     0.135 A 
ATOM     93  F   UNL     1       8.437  -2.043   8.355  1.00  0.00    -0.206 F 
ATOM     94  C   UNL     1      10.572  -2.099   7.449  1.00  0.00     0.059 A 
ATOM     95  C   UNL     1      10.909  -2.474   5.093  1.00  0.00     0.059 A 
ATOM     96  F   UNL     1       9.117  -2.553   3.639  1.00  0.00    -0.206 F 
ATOM     97  C   UNL     1      11.423  -2.282   6.365  1.00  0.00     0.060 A 
BRANCH  97  98
ATOM     98  S   UNL     1      13.203  -2.312   6.629  1.00  0.00     0.124 S 
ATOM     99  O   UNL     1      13.527  -0.890   6.561  1.00  0.00    -0.237 OA
ATOM    100  O   UNL     1      13.323  -2.924   7.950  1.00  0.00    -0.237 OA
ATOM    101  O   UNL     1      13.694  -3.127   5.523  1.00  0.00    -0.744 OA
ENDBRANCH  97  98
ENDBRANCH  65  90
ENDBRANCH  39  40
ENDBRANCH  31  34
ENDBRANCH   1  30
TORSDOF 15
