REMARK SMILES CCCC[C@H](C(=O)NCCCNC(=O)c1ccc(-c2c3nc(c(-c4c(F)cc(S(=O)(=O)[O-])cc4F)c4ccc([nH]4)c(-c4c(F)cc(S(=O)(=O)[O-])cc4F)c4nc(c(-c5c(F)cc(S(=O)(=O)[O-])cc5F)c5ccc2[nH]5)C=C4)C=C3)cc1)[C@](C)(O)c1ccc(Cl)c(Cl)c1
REMARK SMILES IDX 10 1 9 2 8 3 6 4 7 5 5 7 4 8 3 9 2 10 1 11 81 12 82 13 83 14
REMARK SMILES IDX 84 16 85 17 91 18 86 19 89 20 87 21 90 22 88 23 11 24 12 25
REMARK SMILES IDX 13 26 14 28 15 29 16 30 80 31 17 32 79 33 18 34 19 35 20 36
REMARK SMILES IDX 73 37 21 38 78 39 72 40 74 41 22 42 77 43 71 44 70 45 23 47
REMARK SMILES IDX 57 48 36 49 56 50 37 51 40 52 55 53 75 54 38 55 39 56 54 58
REMARK SMILES IDX 76 59 41 60 24 61 25 62 34 63 26 64 27 65 33 66 35 67 28 68
REMARK SMILES IDX 29 69 30 70 31 71 32 72 58 73 59 74 68 75 60 76 61 77 67 78
REMARK SMILES IDX 69 79 62 80 63 81 64 82 65 83 66 84 42 85 43 86 52 87 44 88
REMARK SMILES IDX 45 89 51 90 53 91 46 92 47 93 48 94 49 95 50 96
REMARK H PARENT 8 6 83 15 12 27 74 46 40 57
REMARK Flexibility Score: inf
ROOT
ATOM      1  C   UNL     1       0.157   2.650  -6.287  1.00  0.00     0.042 C 
ENDROOT
BRANCH   1   2
ATOM      2  C   UNL     1       0.093   2.901  -4.791  1.00  0.00     0.117 C 
BRANCH   2   3
ATOM      3  N   UNL     1      -1.158   3.484  -4.346  1.00  0.00    -0.356 N 
ATOM      4  C   UNL     1      -1.580   3.816  -3.099  1.00  0.00     0.226 C 
ATOM      5  O   UNL     1      -2.677   4.380  -3.030  1.00  0.00    -0.275 OA
ATOM      6  H   UNL     1      -1.806   3.669  -5.064  1.00  0.00     0.163 HD
BRANCH   4   7
ATOM      7  C   UNL     1      -0.819   3.390  -1.837  1.00  0.00     0.114 C 
BRANCH   7   8
ATOM      8  C   UNL     1       0.714   3.614  -1.839  1.00  0.00     0.017 C 
BRANCH   8   9
ATOM      9  C   UNL     1       1.363   4.978  -2.148  1.00  0.00     0.001 C 
BRANCH   9  10
ATOM     10  C   UNL     1       0.598   6.025  -2.953  1.00  0.00    -0.003 C 
ATOM     11  C   UNL     1       1.278   7.385  -2.870  1.00  0.00     0.004 C 
ENDBRANCH   9  10
ENDBRANCH   8   9
ENDBRANCH   7   8
BRANCH   7  12
ATOM     12  C   UNL     1      -1.546   3.818  -0.494  1.00  0.00     0.098 C 
ATOM     13  C   UNL     1      -1.184   2.811   0.625  1.00  0.00     0.048 C 
BRANCH  12  14
ATOM     14  O   UNL     1      -2.974   3.636  -0.579  1.00  0.00    -0.385 OA
ATOM     15  H   UNL     1      -3.385   3.907   0.257  1.00  0.00     0.211 HD
ENDBRANCH  12  14
BRANCH  12  16
ATOM     16  C   UNL     1      -1.280   5.266  -0.065  1.00  0.00    -0.014 A 
ATOM     17  C   UNL     1      -0.228   5.599   0.807  1.00  0.00     0.008 A 
ATOM     18  C   UNL     1      -2.057   6.328  -0.572  1.00  0.00     0.028 A 
ATOM     19  C   UNL     1       0.063   6.931   1.121  1.00  0.00     0.022 A 
ATOM     20  C   UNL     1      -1.761   7.665  -0.272  1.00  0.00     0.060 A 
ATOM     21  C   UNL     1      -0.693   7.966   0.574  1.00  0.00     0.059 A 
ATOM     22  Cl  UNL     1      -2.726   8.891  -1.013  1.00  0.00    -0.083 Cl
ATOM     23  Cl  UNL     1      -0.242   9.587   0.966  1.00  0.00    -0.083 Cl
ENDBRANCH  12  16
ENDBRANCH   7  12
ENDBRANCH   4   7
ENDBRANCH   2   3
ENDBRANCH   1   2
BRANCH   1  24
ATOM     24  C   UNL     1      -0.186   3.854  -7.157  1.00  0.00     0.118 C 
BRANCH  24  25
ATOM     25  N   UNL     1       0.694   5.006  -6.994  1.00  0.00    -0.352 N 
ATOM     26  C   UNL     1       1.650   5.559  -7.817  1.00  0.00     0.251 C 
ATOM     27  H   UNL     1       0.584   5.476  -6.136  1.00  0.00     0.163 HD
ATOM     28  O   UNL     1       2.307   6.518  -7.418  1.00  0.00    -0.269 OA
BRANCH  26  29
ATOM     29  C   UNL     1       1.937   4.971  -9.144  1.00  0.00     0.039 A 
ATOM     30  C   UNL     1       3.265   4.838  -9.558  1.00  0.00     0.014 A 
ATOM     31  C   UNL     1       0.913   4.501  -9.960  1.00  0.00     0.014 A 
ATOM     32  C   UNL     1       3.562   4.104 -10.710  1.00  0.00     0.010 A 
ATOM     33  C   UNL     1       1.213   3.649 -11.014  1.00  0.00     0.010 A 
ATOM     34  C   UNL     1       2.543   3.428 -11.399  1.00  0.00    -0.014 A 
BRANCH  34  35
ATOM     35  C   UNL     1       2.825   2.470 -12.504  1.00  0.00     0.031 A 
ATOM     36  C   UNL     1       2.139   2.632 -13.837  1.00  0.00     0.074 A 
ATOM     37  C   UNL     1       3.594   1.386 -12.274  1.00  0.00     0.049 A 
ATOM     38  N   UNL     1       2.095   1.808 -14.851  1.00  0.00    -0.248 NA
ATOM     39  C   UNL     1       1.349   3.859 -14.029  1.00  0.00     0.031 C 
ATOM     40  C   UNL     1       4.261   1.065 -11.008  1.00  0.00     0.029 A 
ATOM     41  N   UNL     1       3.938   0.342 -13.096  1.00  0.00    -0.354 N 
ATOM     42  C   UNL     1       1.232   2.389 -15.773  1.00  0.00     0.074 A 
ATOM     43  C   UNL     1       0.731   3.606 -15.171  1.00  0.00     0.031 C 
ATOM     44  C   UNL     1       4.970  -0.065 -11.154  1.00  0.00     0.029 A 
ATOM     45  C   UNL     1       4.769  -0.580 -12.503  1.00  0.00     0.049 A 
ATOM     46  H   UNL     1       3.619   0.260 -14.024  1.00  0.00     0.167 HD
ATOM     47  C   UNL     1       0.906   1.968 -17.019  1.00  0.00     0.037 A 
ATOM     48  C   UNL     1       5.308  -1.714 -12.989  1.00  0.00     0.037 A 
ATOM     49  C   UNL     1       1.467   0.799 -17.642  1.00  0.00     0.049 A 
ATOM     50  C   UNL     1       4.995  -2.127 -14.399  1.00  0.00     0.074 A 
ATOM     51  C   UNL     1       1.269   0.325 -18.927  1.00  0.00     0.029 A 
ATOM     52  N   UNL     1       2.358  -0.071 -17.028  1.00  0.00    -0.354 N 
ATOM     53  N   UNL     1       4.204  -1.546 -15.270  1.00  0.00    -0.248 NA
ATOM     54  C   UNL     1       5.646  -3.347 -14.895  1.00  0.00     0.031 C 
ATOM     55  C   UNL     1       2.027  -0.841 -19.084  1.00  0.00     0.029 A 
ATOM     56  C   UNL     1       2.720  -1.077 -17.907  1.00  0.00     0.049 A 
ATOM     57  H   UNL     1       2.683   0.015 -16.103  1.00  0.00     0.167 HD
ATOM     58  C   UNL     1       4.281  -2.315 -16.425  1.00  0.00     0.074 A 
ATOM     59  C   UNL     1       5.202  -3.399 -16.144  1.00  0.00     0.031 C 
ATOM     60  C   UNL     1       3.648  -2.139 -17.611  1.00  0.00     0.037 A 
BRANCH  47  61
ATOM     61  C   UNL     1      -0.091   2.794 -17.785  1.00  0.00     0.058 A 
ATOM     62  C   UNL     1       0.221   4.083 -18.248  1.00  0.00     0.135 A 
ATOM     63  C   UNL     1      -1.384   2.306 -18.034  1.00  0.00     0.135 A 
ATOM     64  F   UNL     1       1.438   4.606 -18.024  1.00  0.00    -0.206 F 
ATOM     65  C   UNL     1      -0.729   4.882 -18.874  1.00  0.00     0.059 A 
ATOM     66  C   UNL     1      -2.342   3.076 -18.688  1.00  0.00     0.059 A 
ATOM     67  F   UNL     1      -1.736   1.078 -17.621  1.00  0.00    -0.206 F 
ATOM     68  C   UNL     1      -2.013   4.374 -19.078  1.00  0.00     0.060 A 
BRANCH  68  69
ATOM     69  S   UNL     1      -3.252   5.436 -19.848  1.00  0.00     0.124 S 
ATOM     70  O   UNL     1      -3.642   6.285 -18.726  1.00  0.00    -0.237 OA
ATOM     71  O   UNL     1      -2.492   6.096 -20.905  1.00  0.00    -0.237 OA
ATOM     72  O   UNL     1      -4.268   4.493 -20.306  1.00  0.00    -0.744 OA
ENDBRANCH  68  69
ENDBRANCH  47  61
BRANCH  48  73
ATOM     73  C   UNL     1       6.248  -2.503 -12.151  1.00  0.00     0.058 A 
ATOM     74  C   UNL     1       7.627  -2.466 -12.407  1.00  0.00     0.135 A 
ATOM     75  C   UNL     1       5.805  -3.264 -11.059  1.00  0.00     0.135 A 
ATOM     76  F   UNL     1       8.097  -1.755 -13.443  1.00  0.00    -0.206 F 
ATOM     77  C   UNL     1       8.535  -3.159 -11.614  1.00  0.00     0.059 A 
ATOM     78  C   UNL     1       6.695  -3.951 -10.239  1.00  0.00     0.059 A 
ATOM     79  F   UNL     1       4.497  -3.314 -10.761  1.00  0.00    -0.206 F 
ATOM     80  C   UNL     1       8.059  -3.895 -10.527  1.00  0.00     0.060 A 
BRANCH  80  81
ATOM     81  S   UNL     1       9.253  -4.729  -9.459  1.00  0.00     0.124 S 
ATOM     82  O   UNL     1       9.645  -5.865 -10.285  1.00  0.00    -0.237 OA
ATOM     83  O   UNL     1      10.268  -3.697  -9.268  1.00  0.00    -0.237 OA
ATOM     84  O   UNL     1       8.469  -5.051  -8.270  1.00  0.00    -0.744 OA
ENDBRANCH  80  81
ENDBRANCH  48  73
BRANCH  60  85
ATOM     85  C   UNL     1       3.958  -3.118 -18.706  1.00  0.00     0.058 A 
ATOM     86  C   UNL     1       3.426  -4.416 -18.703  1.00  0.00     0.135 A 
ATOM     87  C   UNL     1       4.755  -2.733 -19.795  1.00  0.00     0.135 A 
ATOM     88  F   UNL     1       2.664  -4.832 -17.679  1.00  0.00    -0.206 F 
ATOM     89  C   UNL     1       3.688  -5.308 -19.738  1.00  0.00     0.059 A 
ATOM     90  C   UNL     1       5.012  -3.601 -20.851  1.00  0.00     0.059 A 
ATOM     91  F   UNL     1       5.279  -1.499 -19.846  1.00  0.00    -0.206 F 
ATOM     92  C   UNL     1       4.482  -4.890 -20.808  1.00  0.00     0.060 A 
BRANCH  92  93
ATOM     93  S   UNL     1       4.784  -6.042 -22.165  1.00  0.00     0.124 S 
ATOM     94  O   UNL     1       5.793  -6.921 -21.584  1.00  0.00    -0.237 OA
ATOM     95  O   UNL     1       3.468  -6.637 -22.372  1.00  0.00    -0.237 OA
ATOM     96  O   UNL     1       5.250  -5.177 -23.245  1.00  0.00    -0.744 OA
ENDBRANCH  92  93
ENDBRANCH  60  85
ENDBRANCH  34  35
ENDBRANCH  26  29
ENDBRANCH  24  25
ENDBRANCH   1  24
TORSDOF 19
