REMARK SMILES O=C(NCCCNC(=O)[C@H]1C[C@H](O)CN1C(=O)CS[C@H]1CCS(=O)(=O)C1)c1ccc(-c2c3nc(c(-c4c(F)cc(S(=O)(=O)[O-])cc4F)c4ccc([nH]4)c(-c4c(F)cc(S(=O)(=O)[O-])cc4F)c4nc(c(-c5c(F)cc(S(=O)(=O)[O-])cc5F)c5ccc2[nH]5)C=C4)C=C3)cc1
REMARK SMILES IDX 5 1 4 2 3 3 1 4 2 5 27 7 28 8 92 9 29 10 91 11 30 12 31 13
REMARK SMILES IDX 32 14 85 15 33 16 90 17 84 18 86 19 34 20 89 21 83 22 82 23
REMARK SMILES IDX 35 25 69 26 48 27 68 28 49 29 52 30 67 31 87 32 50 33 51 34
REMARK SMILES IDX 66 36 88 37 53 38 36 39 37 40 46 41 38 42 39 43 45 44 47 45
REMARK SMILES IDX 40 46 41 47 42 48 43 49 44 50 70 51 71 52 80 53 72 54 73 55
REMARK SMILES IDX 79 56 81 57 74 58 75 59 76 60 77 61 78 62 54 63 55 64 64 65
REMARK SMILES IDX 56 66 57 67 63 68 65 69 58 70 59 71 60 72 61 73 62 74 6 75
REMARK SMILES IDX 7 76 8 77 9 79 10 80 11 81 15 82 12 83 14 84 16 85 17 86
REMARK SMILES IDX 18 87 19 88 20 89 21 90 26 91 22 92 23 93 24 94 25 95 13 96
REMARK H PARENT 3 6 86 24 52 35 7 78 13 97
REMARK Flexibility Score: inf
ROOT
ATOM      1  C   UNL     1       5.082   6.725  -1.447  1.00  0.00     0.042 C 
ENDROOT
BRANCH   1   2
ATOM      2  C   UNL     1       5.380   6.713  -2.928  1.00  0.00     0.118 C 
BRANCH   2   3
ATOM      3  N   UNL     1       5.234   5.389  -3.524  1.00  0.00    -0.352 N 
ATOM      4  O   UNL     1       4.154   3.700  -4.565  1.00  0.00    -0.269 OA
ATOM      5  C   UNL     1       4.217   4.898  -4.312  1.00  0.00     0.251 C 
ATOM      6  H   UNL     1       5.965   4.758  -3.336  1.00  0.00     0.163 HD
BRANCH   5   7
ATOM      7  C   UNL     1       3.196   5.836  -4.814  1.00  0.00     0.039 A 
ATOM      8  C   UNL     1       3.594   7.087  -5.282  1.00  0.00     0.014 A 
ATOM      9  C   UNL     1       1.843   5.493  -4.778  1.00  0.00     0.014 A 
ATOM     10  C   UNL     1       2.649   8.072  -5.491  1.00  0.00     0.010 A 
ATOM     11  C   UNL     1       0.890   6.437  -5.167  1.00  0.00     0.010 A 
ATOM     12  C   UNL     1       1.289   7.738  -5.510  1.00  0.00    -0.014 A 
BRANCH  12  13
ATOM     13  C   UNL     1       0.344   8.727  -6.076  1.00  0.00     0.031 A 
ATOM     14  C   UNL     1      -0.795   9.280  -5.274  1.00  0.00     0.074 A 
ATOM     15  C   UNL     1       0.556   9.116  -7.351  1.00  0.00     0.049 A 
ATOM     16  N   UNL     1      -1.726  10.113  -5.657  1.00  0.00    -0.248 NA
ATOM     17  C   UNL     1      -0.918   8.845  -3.874  1.00  0.00     0.031 C 
ATOM     18  C   UNL     1       1.637   8.618  -8.215  1.00  0.00     0.029 A 
ATOM     19  N   UNL     1      -0.104  10.013  -8.145  1.00  0.00    -0.354 N 
ATOM     20  C   UNL     1      -2.566  10.277  -4.563  1.00  0.00     0.074 A 
ATOM     21  C   UNL     1      -2.035   9.457  -3.496  1.00  0.00     0.031 C 
ATOM     22  C   UNL     1       1.591   9.246  -9.395  1.00  0.00     0.029 A 
ATOM     23  C   UNL     1       0.418  10.103  -9.415  1.00  0.00     0.049 A 
ATOM     24  H   UNL     1      -0.875  10.543  -7.838  1.00  0.00     0.167 HD
ATOM     25  C   UNL     1      -3.681  11.040  -4.478  1.00  0.00     0.037 A 
ATOM     26  C   UNL     1      -0.031  10.753 -10.502  1.00  0.00     0.037 A 
ATOM     27  C   UNL     1      -4.170  11.867  -5.553  1.00  0.00     0.049 A 
ATOM     28  C   UNL     1      -1.290  11.556 -10.378  1.00  0.00     0.074 A 
ATOM     29  C   UNL     1      -5.246  12.737  -5.543  1.00  0.00     0.029 A 
ATOM     30  N   UNL     1      -3.632  11.913  -6.832  1.00  0.00    -0.354 N 
ATOM     31  N   UNL     1      -2.032  11.755  -9.315  1.00  0.00    -0.248 NA
ATOM     32  C   UNL     1      -1.782  12.210 -11.595  1.00  0.00     0.031 C 
ATOM     33  C   UNL     1      -5.401  13.254  -6.832  1.00  0.00     0.029 A 
ATOM     34  C   UNL     1      -4.385  12.757  -7.632  1.00  0.00     0.049 A 
ATOM     35  H   UNL     1      -2.833  11.419  -7.127  1.00  0.00     0.167 HD
ATOM     36  C   UNL     1      -3.079  12.562  -9.735  1.00  0.00     0.074 A 
ATOM     37  C   UNL     1      -2.853  12.843 -11.139  1.00  0.00     0.031 C 
ATOM     38  C   UNL     1      -4.139  13.020  -9.027  1.00  0.00     0.037 A 
BRANCH  25  39
ATOM     39  C   UNL     1      -4.481  11.014  -3.204  1.00  0.00     0.058 A 
ATOM     40  C   UNL     1      -4.049  11.662  -2.039  1.00  0.00     0.135 A 
ATOM     41  C   UNL     1      -5.760  10.431  -3.194  1.00  0.00     0.135 A 
ATOM     42  F   UNL     1      -2.829  12.222  -1.987  1.00  0.00    -0.206 F 
ATOM     43  C   UNL     1      -4.859  11.741  -0.909  1.00  0.00     0.059 A 
ATOM     44  C   UNL     1      -6.596  10.518  -2.084  1.00  0.00     0.059 A 
ATOM     45  F   UNL     1      -6.220   9.793  -4.282  1.00  0.00    -0.206 F 
ATOM     46  C   UNL     1      -6.136  11.176  -0.946  1.00  0.00     0.060 A 
BRANCH  46  47
ATOM     47  S   UNL     1      -7.195  11.342   0.507  1.00  0.00     0.124 S 
ATOM     48  O   UNL     1      -6.518  10.471   1.463  1.00  0.00    -0.237 OA
ATOM     49  O   UNL     1      -7.114  12.772   0.787  1.00  0.00    -0.237 OA
ATOM     50  O   UNL     1      -8.494  10.869   0.040  1.00  0.00    -0.744 OA
ENDBRANCH  46  47
ENDBRANCH  25  39
BRANCH  26  51
ATOM     51  C   UNL     1       0.670  10.599 -11.804  1.00  0.00     0.058 A 
ATOM     52  C   UNL     1       1.298  11.686 -12.424  1.00  0.00     0.135 A 
ATOM     53  C   UNL     1       0.720   9.354 -12.455  1.00  0.00     0.135 A 
ATOM     54  F   UNL     1       1.282  12.894 -11.840  1.00  0.00    -0.206 F 
ATOM     55  C   UNL     1       1.918  11.556 -13.662  1.00  0.00     0.059 A 
ATOM     56  C   UNL     1       1.366   9.191 -13.674  1.00  0.00     0.059 A 
ATOM     57  F   UNL     1       0.157   8.274 -11.891  1.00  0.00    -0.206 F 
ATOM     58  C   UNL     1       1.942  10.304 -14.281  1.00  0.00     0.060 A 
BRANCH  58  59
ATOM     59  S   UNL     1       2.741  10.147 -15.890  1.00  0.00     0.124 S 
ATOM     60  O   UNL     1       1.777  10.812 -16.759  1.00  0.00    -0.237 OA
ATOM     61  O   UNL     1       4.002  10.851 -15.676  1.00  0.00    -0.237 OA
ATOM     62  O   UNL     1       2.860   8.703 -16.067  1.00  0.00    -0.744 OA
ENDBRANCH  58  59
ENDBRANCH  26  51
BRANCH  38  63
ATOM     63  C   UNL     1      -5.129  13.878  -9.761  1.00  0.00     0.058 A 
ATOM     64  C   UNL     1      -6.010  13.331 -10.707  1.00  0.00     0.135 A 
ATOM     65  C   UNL     1      -5.235  15.248  -9.475  1.00  0.00     0.135 A 
ATOM     66  F   UNL     1      -5.935  12.029 -11.027  1.00  0.00    -0.206 F 
ATOM     67  C   UNL     1      -6.956  14.116 -11.353  1.00  0.00     0.059 A 
ATOM     68  C   UNL     1      -6.196  16.045 -10.086  1.00  0.00     0.059 A 
ATOM     69  F   UNL     1      -4.417  15.817  -8.576  1.00  0.00    -0.206 F 
ATOM     70  C   UNL     1      -7.048  15.471 -11.028  1.00  0.00     0.060 A 
BRANCH  70  71
ATOM     71  S   UNL     1      -8.323  16.462 -11.831  1.00  0.00     0.124 S 
ATOM     72  O   UNL     1      -7.809  16.557 -13.194  1.00  0.00    -0.237 OA
ATOM     73  O   UNL     1      -9.513  15.636 -11.658  1.00  0.00    -0.237 OA
ATOM     74  O   UNL     1      -8.315  17.708 -11.070  1.00  0.00    -0.744 OA
ENDBRANCH  70  71
ENDBRANCH  38  63
ENDBRANCH  12  13
ENDBRANCH   5   7
ENDBRANCH   2   3
ENDBRANCH   1   2
BRANCH   1  75
ATOM     75  C   UNL     1       6.035   5.881  -0.642  1.00  0.00     0.117 C 
BRANCH  75  76
ATOM     76  N   UNL     1       7.433   6.150  -0.925  1.00  0.00    -0.354 N 
ATOM     77  C   UNL     1       8.464   6.322  -0.053  1.00  0.00     0.242 C 
ATOM     78  H   UNL     1       7.667   6.217  -1.879  1.00  0.00     0.163 HD
ATOM     79  O   UNL     1       9.598   6.453  -0.522  1.00  0.00    -0.273 OA
BRANCH  77  80
ATOM     80  C   UNL     1       8.176   6.318   1.464  1.00  0.00     0.177 C 
ATOM     81  C   UNL     1       7.541   5.014   1.932  1.00  0.00     0.069 C 
ATOM     82  N   UNL     1       9.447   6.297   2.197  1.00  0.00    -0.327 N 
ATOM     83  C   UNL     1       8.711   4.041   1.913  1.00  0.00     0.136 C 
ATOM     84  C   UNL     1       9.899   4.910   2.326  1.00  0.00     0.152 C 
BRANCH  82  85
ATOM     85  C   UNL     1      10.056   7.479   2.587  1.00  0.00     0.233 C 
ATOM     86  O   UNL     1       9.482   8.559   2.419  1.00  0.00    -0.274 OA
BRANCH  85  87
ATOM     87  C   UNL     1      11.447   7.430   3.228  1.00  0.00     0.169 C 
BRANCH  87  88
ATOM     88  S   UNL     1      11.532   8.243   4.902  1.00  0.00    -0.148 SA
BRANCH  88  89
ATOM     89  C   UNL     1      10.774   7.045   6.088  1.00  0.00     0.063 C 
ATOM     90  C   UNL     1      10.120   5.878   5.394  1.00  0.00     0.031 C 
ATOM     91  C   UNL     1      11.794   6.405   7.035  1.00  0.00     0.151 C 
ATOM     92  C   UNL     1       9.729   4.818   6.394  1.00  0.00     0.138 C 
ATOM     93  S   UNL     1      10.980   4.921   7.649  1.00  0.00     0.151 S 
ATOM     94  O   UNL     1      10.318   5.225   8.905  1.00  0.00    -0.229 OA
ATOM     95  O   UNL     1      11.873   3.796   7.498  1.00  0.00    -0.229 OA
ENDBRANCH  88  89
ENDBRANCH  87  88
ENDBRANCH  85  87
ENDBRANCH  82  85
BRANCH  83  96
ATOM     96  O   UNL     1       8.481   2.969   2.818  1.00  0.00    -0.391 OA
ATOM     97  H   UNL     1       8.328   3.325   3.708  1.00  0.00     0.211 HD
ENDBRANCH  83  96
ENDBRANCH  77  80
ENDBRANCH  75  76
ENDBRANCH   1  75
TORSDOF 18
