REMARK SMILES CCCCCN(C)S(=O)(=O)c1cc(Cl)cc(C(=O)NCCCNC(=O)c2ccc(-c3c4nc(c(-c5c(F)cc(S(=O)(=O)[O-])cc5F)c5ccc([nH]5)c(-c5c(F)cc(S(=O)(=O)[O-])cc5F)c5nc(c(-c6c(F)cc(S(=O)(=O)[O-])cc6F)c6ccc3[nH]6)C=C5)C=C4)cc2)c1F
REMARK SMILES IDX 17 1 18 2 19 3 16 5 11 6 12 7 92 8 13 9 93 10 14 11 15 12
REMARK SMILES IDX 8 13 9 14 10 15 6 16 7 17 5 18 4 19 3 20 2 21 1 22 20 23
REMARK SMILES IDX 21 24 22 25 23 26 24 27 25 29 26 30 27 31 91 32 28 33 90 34
REMARK SMILES IDX 29 35 30 36 31 37 84 38 32 39 89 40 83 41 85 42 33 43 88 44
REMARK SMILES IDX 82 45 81 46 34 48 68 49 47 50 67 51 48 52 51 53 66 54 86 55
REMARK SMILES IDX 49 56 50 57 65 59 87 60 52 61 35 62 36 63 45 64 37 65 38 66
REMARK SMILES IDX 44 67 46 68 39 69 40 70 41 71 42 72 43 73 69 74 70 75 79 76
REMARK SMILES IDX 71 77 72 78 78 79 80 80 73 81 74 82 75 83 76 84 77 85 53 86
REMARK SMILES IDX 54 87 63 88 55 89 56 90 62 91 64 92 57 93 58 94 59 95 60 96
REMARK SMILES IDX 61 97
REMARK H PARENT 19 4 23 28 85 47 51 58
REMARK Flexibility Score: inf
ROOT
ATOM      1  C   UNL     1      -2.625  -0.135  -8.206  1.00  0.00     0.254 C 
ATOM      2  O   UNL     1      -2.666  -0.382  -9.412  1.00  0.00    -0.269 OA
ATOM      3  N   UNL     1      -2.859   1.158  -7.800  1.00  0.00    -0.352 N 
ATOM      4  H   UNL     1      -2.930   1.801  -8.543  1.00  0.00     0.163 HD
ENDROOT
BRANCH   1   5
ATOM      5  C   UNL     1      -2.390  -1.266  -7.274  1.00  0.00     0.078 A 
ATOM      6  C   UNL     1      -1.575  -2.213  -5.200  1.00  0.00     0.120 A 
ATOM      7  C   UNL     1      -1.969  -3.491  -5.577  1.00  0.00     0.045 A 
ATOM      8  C   UNL     1      -1.712  -1.136  -6.073  1.00  0.00     0.156 A 
ATOM      9  C   UNL     1      -2.576  -3.651  -6.822  1.00  0.00     0.043 A 
ATOM     10  F   UNL     1      -1.098   0.007  -5.768  1.00  0.00    -0.205 F 
ATOM     11  Cl  UNL     1      -3.062  -5.221  -7.330  1.00  0.00    -0.084 Cl
ATOM     12  C   UNL     1      -2.808  -2.550  -7.658  1.00  0.00     0.037 A 
BRANCH   6  13
ATOM     13  S   UNL     1      -0.866  -1.825  -3.640  1.00  0.00     0.245 S 
ATOM     14  O   UNL     1      -1.433  -0.558  -3.231  1.00  0.00    -0.207 OA
ATOM     15  O   UNL     1       0.550  -2.028  -3.831  1.00  0.00    -0.207 OA
BRANCH  13  16
ATOM     16  N   UNL     1      -1.433  -2.964  -2.477  1.00  0.00    -0.201 NA
ATOM     17  C   UNL     1      -2.926  -3.054  -2.401  1.00  0.00     0.124 C 
BRANCH  16  18
ATOM     18  C   UNL     1      -0.935  -2.657  -1.069  1.00  0.00     0.102 C 
BRANCH  18  19
ATOM     19  C   UNL     1       0.559  -2.838  -0.799  1.00  0.00     0.017 C 
BRANCH  19  20
ATOM     20  C   UNL     1       1.540  -1.675  -1.045  1.00  0.00     0.001 C 
BRANCH  20  21
ATOM     21  C   UNL     1       1.040  -0.246  -0.827  1.00  0.00    -0.003 C 
ATOM     22  C   UNL     1       1.040   0.173   0.632  1.00  0.00     0.004 C 
ENDBRANCH  20  21
ENDBRANCH  19  20
ENDBRANCH  18  19
ENDBRANCH  16  18
ENDBRANCH  13  16
ENDBRANCH   6  13
ENDBRANCH   1   5
BRANCH   3  23
ATOM     23  C   UNL     1      -3.023   1.761  -6.481  1.00  0.00     0.118 C 
BRANCH  23  24
ATOM     24  C   UNL     1      -1.797   2.571  -6.049  1.00  0.00     0.042 C 
BRANCH  24  25
ATOM     25  C   UNL     1      -1.714   3.970  -6.646  1.00  0.00     0.118 C 
BRANCH  25  26
ATOM     26  N   UNL     1      -2.655   4.894  -6.035  1.00  0.00    -0.352 N 
ATOM     27  C   UNL     1      -2.440   6.132  -5.477  1.00  0.00     0.251 C 
ATOM     28  H   UNL     1      -3.590   4.587  -6.019  1.00  0.00     0.163 HD
ATOM     29  O   UNL     1      -3.357   6.669  -4.858  1.00  0.00    -0.269 OA
BRANCH  27  30
ATOM     30  C   UNL     1      -1.129   6.818  -5.592  1.00  0.00     0.039 A 
ATOM     31  C   UNL     1      -0.659   7.548  -4.494  1.00  0.00     0.014 A 
ATOM     32  C   UNL     1      -0.386   6.804  -6.777  1.00  0.00     0.014 A 
ATOM     33  C   UNL     1       0.567   8.219  -4.566  1.00  0.00     0.010 A 
ATOM     34  C   UNL     1       0.864   7.425  -6.829  1.00  0.00     0.010 A 
ATOM     35  C   UNL     1       1.351   8.144  -5.727  1.00  0.00    -0.014 A 
BRANCH  35  36
ATOM     36  C   UNL     1       2.668   8.829  -5.814  1.00  0.00     0.031 A 
ATOM     37  C   UNL     1       2.860   9.979  -6.768  1.00  0.00     0.074 A 
ATOM     38  C   UNL     1       3.704   8.392  -5.069  1.00  0.00     0.049 A 
ATOM     39  N   UNL     1       3.952  10.639  -7.059  1.00  0.00    -0.248 NA
ATOM     40  C   UNL     1       1.670  10.435  -7.505  1.00  0.00     0.031 C 
ATOM     41  C   UNL     1       3.656   7.273  -4.126  1.00  0.00     0.029 A 
ATOM     42  N   UNL     1       5.003   8.830  -4.997  1.00  0.00    -0.354 N 
ATOM     43  C   UNL     1       3.586  11.579  -8.015  1.00  0.00     0.074 A 
ATOM     44  C   UNL     1       2.179  11.378  -8.287  1.00  0.00     0.031 C 
ATOM     45  C   UNL     1       4.866   7.120  -3.562  1.00  0.00     0.029 A 
ATOM     46  C   UNL     1       5.783   8.106  -4.125  1.00  0.00     0.049 A 
ATOM     47  H   UNL     1       5.344   9.591  -5.519  1.00  0.00     0.167 HD
ATOM     48  C   UNL     1       4.346  12.537  -8.599  1.00  0.00     0.037 A 
ATOM     49  C   UNL     1       7.091   8.218  -3.824  1.00  0.00     0.037 A 
ATOM     50  C   UNL     1       5.740  12.753  -8.312  1.00  0.00     0.049 A 
ATOM     51  C   UNL     1       7.914   9.288  -4.490  1.00  0.00     0.074 A 
ATOM     52  C   UNL     1       6.593  13.705  -8.846  1.00  0.00     0.029 A 
ATOM     53  N   UNL     1       6.483  12.019  -7.400  1.00  0.00    -0.354 N 
ATOM     54  N   UNL     1       7.544  10.176  -5.382  1.00  0.00    -0.248 NA
ATOM     55  C   UNL     1       9.330   9.375  -4.106  1.00  0.00     0.031 C 
ATOM     56  C   UNL     1       7.856  13.535  -8.269  1.00  0.00     0.029 A 
ATOM     57  C   UNL     1       7.782  12.498  -7.354  1.00  0.00     0.049 A 
ATOM     58  H   UNL     1       6.138  11.268  -6.865  1.00  0.00     0.167 HD
ATOM     59  C   UNL     1       8.675  10.942  -5.644  1.00  0.00     0.074 A 
ATOM     60  C   UNL     1       9.738  10.421  -4.810  1.00  0.00     0.031 C 
ATOM     61  C   UNL     1       8.820  11.982  -6.501  1.00  0.00     0.037 A 
BRANCH  48  62
ATOM     62  C   UNL     1       3.682  13.442  -9.598  1.00  0.00     0.058 A 
ATOM     63  C   UNL     1       2.801  14.455  -9.188  1.00  0.00     0.135 A 
ATOM     64  C   UNL     1       3.966  13.335 -10.968  1.00  0.00     0.135 A 
ATOM     65  F   UNL     1       2.483  14.589  -7.890  1.00  0.00    -0.206 F 
ATOM     66  C   UNL     1       2.212  15.321 -10.103  1.00  0.00     0.059 A 
ATOM     67  C   UNL     1       3.405  14.205 -11.900  1.00  0.00     0.059 A 
ATOM     68  F   UNL     1       4.801  12.383 -11.414  1.00  0.00    -0.206 F 
ATOM     69  C   UNL     1       2.521  15.188 -11.457  1.00  0.00     0.060 A 
BRANCH  69  70
ATOM     70  S   UNL     1       1.766  16.334 -12.631  1.00  0.00     0.124 S 
ATOM     71  O   UNL     1       0.404  15.815 -12.707  1.00  0.00    -0.237 OA
ATOM     72  O   UNL     1       1.917  17.620 -11.957  1.00  0.00    -0.237 OA
ATOM     73  O   UNL     1       2.571  16.164 -13.837  1.00  0.00    -0.744 OA
ENDBRANCH  69  70
ENDBRANCH  48  62
BRANCH  49  74
ATOM     74  C   UNL     1       7.716   7.298  -2.837  1.00  0.00     0.058 A 
ATOM     75  C   UNL     1       8.110   7.760  -1.572  1.00  0.00     0.135 A 
ATOM     76  C   UNL     1       7.960   5.952  -3.148  1.00  0.00     0.135 A 
ATOM     77  F   UNL     1       7.903   9.041  -1.232  1.00  0.00    -0.206 F 
ATOM     78  C   UNL     1       8.755   6.929  -0.661  1.00  0.00     0.059 A 
ATOM     79  C   UNL     1       8.582   5.096  -2.245  1.00  0.00     0.059 A 
ATOM     80  F   UNL     1       7.587   5.458  -4.339  1.00  0.00    -0.206 F 
ATOM     81  C   UNL     1       8.993   5.599  -1.011  1.00  0.00     0.060 A 
BRANCH  81  82
ATOM     82  S   UNL     1       9.822   4.521   0.177  1.00  0.00     0.124 S 
ATOM     83  O   UNL     1      11.216   4.909   0.001  1.00  0.00    -0.237 OA
ATOM     84  O   UNL     1       9.205   4.914   1.440  1.00  0.00    -0.237 OA
ATOM     85  O   UNL     1       9.473   3.182  -0.290  1.00  0.00    -0.744 OA
ENDBRANCH  81  82
ENDBRANCH  49  74
BRANCH  61  86
ATOM     86  C   UNL     1      10.162  12.654  -6.546  1.00  0.00     0.058 A 
ATOM     87  C   UNL     1      11.255  12.070  -7.205  1.00  0.00     0.135 A 
ATOM     88  C   UNL     1      10.343  13.917  -5.961  1.00  0.00     0.135 A 
ATOM     89  F   UNL     1      11.133  10.861  -7.774  1.00  0.00    -0.206 F 
ATOM     90  C   UNL     1      12.489  12.708  -7.266  1.00  0.00     0.059 A 
ATOM     91  C   UNL     1      11.563  14.582  -6.027  1.00  0.00     0.059 A 
ATOM     92  F   UNL     1       9.325  14.520  -5.327  1.00  0.00    -0.206 F 
ATOM     93  C   UNL     1      12.634  13.964  -6.672  1.00  0.00     0.060 A 
BRANCH  93  94
ATOM     94  S   UNL     1      14.230  14.800  -6.785  1.00  0.00     0.124 S 
ATOM     95  O   UNL     1      14.999  14.104  -5.759  1.00  0.00    -0.237 OA
ATOM     96  O   UNL     1      14.629  14.537  -8.164  1.00  0.00    -0.237 OA
ATOM     97  O   UNL     1      13.904  16.192  -6.490  1.00  0.00    -0.744 OA
ENDBRANCH  93  94
ENDBRANCH  61  86
ENDBRANCH  35  36
ENDBRANCH  27  30
ENDBRANCH  25  26
ENDBRANCH  24  25
ENDBRANCH  23  24
ENDBRANCH   3  23
TORSDOF 19
