REMARK SMILES CC(=O)/C=C(/C)NCC(=O)NCCCNC(=O)c1ccc(-c2c3nc(c(-c4c(F)cc(S(=O)(=O)[O-])cc4F)c4ccc([nH]4)c(-c4c(F)cc(S(=O)(=O)[O-])cc4F)c4nc(c(-c5c(F)cc(S(=O)(=O)[O-])cc5F)c5ccc2[nH]5)C=C4)C=C3)cc1
REMARK SMILES IDX 13 1 12 2 11 3 9 4 10 5 8 7 7 8 5 10 4 11 6 12 2 13 1 14
REMARK SMILES IDX 3 15 14 16 15 17 16 18 17 20 18 21 19 22 83 23 20 24 82 25
REMARK SMILES IDX 21 26 22 27 23 28 76 29 24 30 81 31 75 32 77 33 25 34 80 35
REMARK SMILES IDX 74 36 73 37 26 39 60 40 39 41 59 42 40 43 43 44 58 45 78 46
REMARK SMILES IDX 41 47 42 48 57 50 79 51 44 52 27 53 28 54 37 55 29 56 30 57
REMARK SMILES IDX 36 58 38 59 31 60 32 61 33 62 34 63 35 64 61 65 62 66 71 67
REMARK SMILES IDX 63 68 64 69 70 70 72 71 65 72 66 73 67 74 68 75 69 76 45 77
REMARK SMILES IDX 46 78 55 79 47 80 48 81 54 82 56 83 49 84 50 85 51 86 52 87
REMARK SMILES IDX 53 88
REMARK H PARENT 11 6 7 9 15 19 77 38 43 49
REMARK Flexibility Score: inf
ROOT
ATOM      1  C   UNL     1       4.621  -2.142  -0.711  1.00  0.00     0.042 C 
ENDROOT
BRANCH   1   2
ATOM      2  C   UNL     1       3.697  -1.296   0.155  1.00  0.00     0.117 C 
BRANCH   2   3
ATOM      3  N   UNL     1       3.982   0.121   0.060  1.00  0.00    -0.355 N 
ATOM      4  C   UNL     1       3.412   1.092  -0.708  1.00  0.00     0.239 C 
ATOM      5  O   UNL     1       3.847   2.241  -0.563  1.00  0.00    -0.273 OA
ATOM      6  H   UNL     1       4.708   0.435   0.646  1.00  0.00     0.163 HD
BRANCH   4   7
ATOM      7  C   UNL     1       2.226   0.837  -1.651  1.00  0.00     0.213 C 
BRANCH   7   8
ATOM      8  N   UNL     1       2.272  -0.414  -2.379  1.00  0.00    -0.380 N 
ATOM      9  H   UNL     1       3.075  -0.505  -2.942  1.00  0.00     0.160 HD
BRANCH   8  10
ATOM     10  C   UNL     1       1.429  -1.508  -2.454  1.00  0.00     0.011 C 
ATOM     11  C   UNL     1       0.480  -2.010  -1.635  1.00  0.00     0.067 C 
ATOM     12  C   UNL     1       1.726  -2.356  -3.695  1.00  0.00     0.064 C 
BRANCH  11  13
ATOM     13  C   UNL     1      -0.141  -1.727  -0.306  1.00  0.00     0.154 C 
ATOM     14  C   UNL     1       0.009  -0.422   0.410  1.00  0.00     0.093 C 
ATOM     15  O   UNL     1      -0.829  -2.621   0.199  1.00  0.00    -0.295 OA
ENDBRANCH  11  13
ENDBRANCH   8  10
ENDBRANCH   7   8
ENDBRANCH   4   7
ENDBRANCH   2   3
ENDBRANCH   1   2
BRANCH   1  16
ATOM     16  C   UNL     1       6.053  -2.186  -0.192  1.00  0.00     0.118 C 
BRANCH  16  17
ATOM     17  N   UNL     1       6.163  -2.861   1.095  1.00  0.00    -0.352 N 
ATOM     18  C   UNL     1       6.986  -3.892   1.482  1.00  0.00     0.251 C 
ATOM     19  H   UNL     1       5.555  -2.528   1.794  1.00  0.00     0.163 HD
ATOM     20  O   UNL     1       6.811  -4.431   2.567  1.00  0.00    -0.269 OA
BRANCH  18  21
ATOM     21  C   UNL     1       8.059  -4.361   0.578  1.00  0.00     0.039 A 
ATOM     22  C   UNL     1       8.256  -5.736   0.426  1.00  0.00     0.014 A 
ATOM     23  C   UNL     1       8.863  -3.455  -0.116  1.00  0.00     0.014 A 
ATOM     24  C   UNL     1       9.212  -6.201  -0.480  1.00  0.00     0.010 A 
ATOM     25  C   UNL     1       9.757  -3.918  -1.076  1.00  0.00     0.010 A 
ATOM     26  C   UNL     1       9.939  -5.296  -1.270  1.00  0.00    -0.014 A 
BRANCH  26  27
ATOM     27  C   UNL     1      10.879  -5.767  -2.319  1.00  0.00     0.031 A 
ATOM     28  C   UNL     1      12.343  -5.436  -2.229  1.00  0.00     0.074 A 
ATOM     29  C   UNL     1      10.397  -6.421  -3.395  1.00  0.00     0.049 A 
ATOM     30  N   UNL     1      13.299  -5.681  -3.087  1.00  0.00    -0.248 NA
ATOM     31  C   UNL     1      12.787  -4.708  -1.029  1.00  0.00     0.031 C 
ATOM     32  C   UNL     1       8.988  -6.753  -3.621  1.00  0.00     0.029 A 
ATOM     33  N   UNL     1      11.034  -6.909  -4.508  1.00  0.00    -0.354 N 
ATOM     34  C   UNL     1      14.450  -5.124  -2.543  1.00  0.00     0.074 A 
ATOM     35  C   UNL     1      14.063  -4.484  -1.304  1.00  0.00     0.031 C 
ATOM     36  C   UNL     1       8.871  -7.403  -4.790  1.00  0.00     0.029 A 
ATOM     37  C   UNL     1      10.185  -7.496  -5.417  1.00  0.00     0.049 A 
ATOM     38  H   UNL     1      12.007  -6.845  -4.644  1.00  0.00     0.167 HD
ATOM     39  C   UNL     1      15.716  -5.160  -3.022  1.00  0.00     0.037 A 
ATOM     40  C   UNL     1      10.433  -8.035  -6.627  1.00  0.00     0.037 A 
ATOM     41  C   UNL     1      16.094  -5.819  -4.246  1.00  0.00     0.049 A 
ATOM     42  C   UNL     1      11.846  -8.063  -7.141  1.00  0.00     0.074 A 
ATOM     43  C   UNL     1      17.360  -5.975  -4.782  1.00  0.00     0.029 A 
ATOM     44  N   UNL     1      15.210  -6.423  -5.128  1.00  0.00    -0.354 N 
ATOM     45  N   UNL     1      12.936  -7.598  -6.576  1.00  0.00    -0.248 NA
ATOM     46  C   UNL     1      12.067  -8.690  -8.450  1.00  0.00     0.031 C 
ATOM     47  C   UNL     1      17.235  -6.626  -6.014  1.00  0.00     0.029 A 
ATOM     48  C   UNL     1      15.898  -6.926  -6.220  1.00  0.00     0.049 A 
ATOM     49  H   UNL     1      14.236  -6.485  -4.997  1.00  0.00     0.167 HD
ATOM     50  C   UNL     1      13.974  -7.896  -7.452  1.00  0.00     0.074 A 
ATOM     51  C   UNL     1      13.384  -8.593  -8.576  1.00  0.00     0.031 C 
ATOM     52  C   UNL     1      15.296  -7.618  -7.333  1.00  0.00     0.037 A 
BRANCH  39  53
ATOM     53  C   UNL     1      16.785  -4.462  -2.225  1.00  0.00     0.058 A 
ATOM     54  C   UNL     1      17.211  -4.944  -0.976  1.00  0.00     0.135 A 
ATOM     55  C   UNL     1      17.414  -3.312  -2.729  1.00  0.00     0.135 A 
ATOM     56  F   UNL     1      16.637  -6.032  -0.439  1.00  0.00    -0.206 F 
ATOM     57  C   UNL     1      18.195  -4.291  -0.241  1.00  0.00     0.059 A 
ATOM     58  C   UNL     1      18.422  -2.660  -2.025  1.00  0.00     0.059 A 
ATOM     59  F   UNL     1      17.048  -2.807  -3.918  1.00  0.00    -0.206 F 
ATOM     60  C   UNL     1      18.794  -3.148  -0.773  1.00  0.00     0.060 A 
BRANCH  60  61
ATOM     61  S   UNL     1      20.065  -2.310   0.197  1.00  0.00     0.124 S 
ATOM     62  O   UNL     1      19.267  -1.696   1.254  1.00  0.00    -0.237 OA
ATOM     63  O   UNL     1      20.920  -3.417   0.612  1.00  0.00    -0.237 OA
ATOM     64  O   UNL     1      20.665  -1.382  -0.756  1.00  0.00    -0.744 OA
ENDBRANCH  60  61
ENDBRANCH  39  53
BRANCH  40  65
ATOM     65  C   UNL     1       9.313  -8.601  -7.425  1.00  0.00     0.058 A 
ATOM     66  C   UNL     1       9.186  -9.985  -7.613  1.00  0.00     0.135 A 
ATOM     67  C   UNL     1       8.328  -7.773  -7.987  1.00  0.00     0.135 A 
ATOM     68  F   UNL     1      10.106 -10.818  -7.102  1.00  0.00    -0.206 F 
ATOM     69  C   UNL     1       8.129 -10.529  -8.335  1.00  0.00     0.059 A 
ATOM     70  C   UNL     1       7.248  -8.294  -8.691  1.00  0.00     0.059 A 
ATOM     71  F   UNL     1       8.394  -6.442  -7.822  1.00  0.00    -0.206 F 
ATOM     72  C   UNL     1       7.160  -9.675  -8.865  1.00  0.00     0.060 A 
BRANCH  72  73
ATOM     73  S   UNL     1       5.756 -10.396  -9.743  1.00  0.00     0.124 S 
ATOM     74  O   UNL     1       6.381 -10.835 -10.985  1.00  0.00    -0.237 OA
ATOM     75  O   UNL     1       5.335 -11.453  -8.830  1.00  0.00    -0.237 OA
ATOM     76  O   UNL     1       4.827  -9.276  -9.865  1.00  0.00    -0.744 OA
ENDBRANCH  72  73
ENDBRANCH  40  65
BRANCH  52  77
ATOM     77  C   UNL     1      16.206  -8.087  -8.436  1.00  0.00     0.058 A 
ATOM     78  C   UNL     1      16.218  -7.469  -9.696  1.00  0.00     0.135 A 
ATOM     79  C   UNL     1      17.123  -9.127  -8.207  1.00  0.00     0.135 A 
ATOM     80  F   UNL     1      15.357  -6.477  -9.970  1.00  0.00    -0.206 F 
ATOM     81  C   UNL     1      17.095  -7.876 -10.696  1.00  0.00     0.059 A 
ATOM     82  C   UNL     1      18.028  -9.531  -9.182  1.00  0.00     0.059 A 
ATOM     83  F   UNL     1      17.159  -9.746  -7.016  1.00  0.00    -0.206 F 
ATOM     84  C   UNL     1      18.001  -8.905 -10.428  1.00  0.00     0.060 A 
BRANCH  84  85
ATOM     85  S   UNL     1      19.164  -9.391 -11.720  1.00  0.00     0.124 S 
ATOM     86  O   UNL     1      18.291 -10.096 -12.652  1.00  0.00    -0.237 OA
ATOM     87  O   UNL     1      19.675  -8.104 -12.180  1.00  0.00    -0.237 OA
ATOM     88  O   UNL     1      20.130 -10.226 -11.011  1.00  0.00    -0.744 OA
ENDBRANCH  84  85
ENDBRANCH  52  77
ENDBRANCH  26  27
ENDBRANCH  18  21
ENDBRANCH  16  17
ENDBRANCH   1  16
TORSDOF 16
