REMARK SMILES Cc1ccc(-c2c(C(=O)NCCCNC(=O)c3ccc(-c4c5nc(c(-c6c(F)cc(S(=O)(=O)[O-])cc6F)c6ccc([nH]6)c(-c6c(F)cc(S(=O)(=O)[O-])cc6F)c6nc(c(-c7c(F)cc(S(=O)(=O)[O-])cc7F)c7ccc4[nH]7)C=C6)C=C5)cc3)nnn2Cc2c(F)cccc2Cl)cc1
REMARK SMILES IDX 12 1 11 2 10 3 8 4 9 5 7 7 6 8 85 9 83 10 84 11 5 12 1 13
REMARK SMILES IDX 2 14 3 15 96 16 4 17 95 18 86 19 87 20 88 21 93 22 89 23
REMARK SMILES IDX 90 24 92 25 94 26 91 27 13 28 14 29 15 30 16 32 17 33 18 34
REMARK SMILES IDX 82 35 19 36 81 37 20 38 21 39 22 40 75 41 23 42 80 43 74 44
REMARK SMILES IDX 76 45 24 46 79 47 73 48 72 49 25 51 59 52 38 53 58 54 39 55
REMARK SMILES IDX 42 56 57 57 77 58 40 59 41 60 56 62 78 63 43 64 26 65 27 66
REMARK SMILES IDX 36 67 28 68 29 69 35 70 37 71 30 72 31 73 32 74 33 75 34 76
REMARK SMILES IDX 60 77 61 78 70 79 62 80 63 81 69 82 71 83 64 84 65 85 66 86
REMARK SMILES IDX 67 87 68 88 44 89 45 90 54 91 46 92 47 93 53 94 55 95 48 96
REMARK SMILES IDX 49 97 50 98 51 99 52 100
REMARK H PARENT 10 6 14 31 76 50 42 61
REMARK Flexibility Score: inf
ROOT
ATOM      1  C   UNL     1      -1.031  -0.584   2.721  1.00  0.00     0.042 C 
ENDROOT
BRANCH   1   2
ATOM      2  C   UNL     1      -1.828  -1.845   2.431  1.00  0.00     0.118 C 
BRANCH   2   3
ATOM      3  N   UNL     1      -3.227  -1.642   2.731  1.00  0.00    -0.351 N 
ATOM      4  C   UNL     1      -4.277  -1.039   2.097  1.00  0.00     0.274 C 
ATOM      5  O   UNL     1      -5.322  -1.074   2.760  1.00  0.00    -0.267 OA
ATOM      6  H   UNL     1      -3.485  -2.032   3.598  1.00  0.00     0.163 HD
BRANCH   4   7
ATOM      7  C   UNL     1      -4.288  -0.417   0.762  1.00  0.00     0.178 A 
ATOM      8  C   UNL     1      -3.374   0.006  -0.214  1.00  0.00     0.102 A 
ATOM      9  N   UNL     1      -4.195   0.444  -1.242  1.00  0.00    -0.239 N 
ATOM     10  N   UNL     1      -5.564  -0.090   0.302  1.00  0.00    -0.124 NA
ATOM     11  N   UNL     1      -5.484   0.458  -0.889  1.00  0.00    -0.066 NA
BRANCH   8  12
ATOM     12  C   UNL     1      -1.923   0.082  -0.348  1.00  0.00     0.002 A 
ATOM     13  C   UNL     1       2.393   0.249  -0.418  1.00  0.00     0.044 C 
ATOM     14  C   UNL     1       0.893   0.231  -0.511  1.00  0.00    -0.051 A 
ATOM     15  C   UNL     1       0.228  -0.971  -0.777  1.00  0.00     0.004 A 
ATOM     16  C   UNL     1       0.137   1.375  -0.226  1.00  0.00     0.004 A 
ATOM     17  C   UNL     1      -1.169  -1.038  -0.718  1.00  0.00     0.011 A 
ATOM     18  C   UNL     1      -1.261   1.303  -0.150  1.00  0.00     0.011 A 
ENDBRANCH   8  12
BRANCH   9  19
ATOM     19  C   UNL     1      -3.864   0.952  -2.569  1.00  0.00     0.187 C 
BRANCH  19  20
ATOM     20  C   UNL     1      -2.981   0.072  -3.416  1.00  0.00     0.028 A 
ATOM     21  C   UNL     1      -2.014   0.713  -4.203  1.00  0.00     0.129 A 
ATOM     22  C   UNL     1      -3.074  -1.324  -3.528  1.00  0.00     0.049 A 
ATOM     23  F   UNL     1      -1.949   2.054  -4.211  1.00  0.00    -0.207 F 
ATOM     24  C   UNL     1      -1.117   0.010  -5.002  1.00  0.00     0.040 A 
ATOM     25  C   UNL     1      -2.149  -2.042  -4.299  1.00  0.00     0.021 A 
ATOM     26  Cl  UNL     1      -4.314  -2.252  -2.767  1.00  0.00    -0.084 Cl
ATOM     27  C   UNL     1      -1.166  -1.378  -5.029  1.00  0.00     0.005 A 
ENDBRANCH  19  20
ENDBRANCH   9  19
ENDBRANCH   4   7
ENDBRANCH   2   3
ENDBRANCH   1   2
BRANCH   1  28
ATOM     28  C   UNL     1       0.046  -0.747   3.775  1.00  0.00     0.118 C 
BRANCH  28  29
ATOM     29  N   UNL     1       1.400  -0.609   3.236  1.00  0.00    -0.352 N 
ATOM     30  C   UNL     1       2.587  -0.530   3.945  1.00  0.00     0.251 C 
ATOM     31  H   UNL     1       1.475  -0.568   2.255  1.00  0.00     0.163 HD
ATOM     32  O   UNL     1       3.661  -0.312   3.415  1.00  0.00    -0.269 OA
BRANCH  30  33
ATOM     33  C   UNL     1       2.478  -0.783   5.396  1.00  0.00     0.039 A 
ATOM     34  C   UNL     1       2.828  -2.059   5.846  1.00  0.00     0.014 A 
ATOM     35  C   UNL     1       1.645   0.051   6.136  1.00  0.00     0.014 A 
ATOM     36  C   UNL     1       2.164  -2.591   6.947  1.00  0.00     0.010 A 
ATOM     37  C   UNL     1       0.909  -0.522   7.154  1.00  0.00     0.010 A 
ATOM     38  C   UNL     1       1.129  -1.859   7.527  1.00  0.00    -0.014 A 
BRANCH  38  39
ATOM     39  C   UNL     1       0.163  -2.425   8.466  1.00  0.00     0.031 A 
ATOM     40  C   UNL     1       0.127  -1.930   9.863  1.00  0.00     0.074 A 
ATOM     41  C   UNL     1      -0.743  -3.348   8.070  1.00  0.00     0.049 A 
ATOM     42  N   UNL     1      -0.462  -2.529  10.844  1.00  0.00    -0.248 NA
ATOM     43  C   UNL     1       0.852  -0.738  10.284  1.00  0.00     0.031 C 
ATOM     44  C   UNL     1      -1.972  -3.718   8.768  1.00  0.00     0.029 A 
ATOM     45  N   UNL     1      -0.636  -4.288   7.047  1.00  0.00    -0.354 N 
ATOM     46  C   UNL     1      -0.444  -1.687  11.934  1.00  0.00     0.074 A 
ATOM     47  C   UNL     1       0.476  -0.643  11.561  1.00  0.00     0.031 C 
ATOM     48  C   UNL     1      -2.388  -4.912   8.323  1.00  0.00     0.029 A 
ATOM     49  C   UNL     1      -1.367  -5.426   7.430  1.00  0.00     0.049 A 
ATOM     50  H   UNL     1      -0.138  -4.175   6.206  1.00  0.00     0.167 HD
ATOM     51  C   UNL     1      -1.313  -1.919  12.962  1.00  0.00     0.037 A 
ATOM     52  C   UNL     1      -0.775  -6.651   7.565  1.00  0.00     0.037 A 
ATOM     53  C   UNL     1      -1.946  -3.235  12.811  1.00  0.00     0.049 A 
ATOM     54  C   UNL     1      -0.837  -7.221   8.963  1.00  0.00     0.074 A 
ATOM     55  C   UNL     1      -3.193  -3.645  12.369  1.00  0.00     0.029 A 
ATOM     56  N   UNL     1      -1.161  -4.384  12.885  1.00  0.00    -0.354 N 
ATOM     57  N   UNL     1      -1.146  -6.525  10.022  1.00  0.00    -0.248 NA
ATOM     58  C   UNL     1      -0.536  -8.614   9.286  1.00  0.00     0.031 C 
ATOM     59  C   UNL     1      -3.136  -5.040  12.119  1.00  0.00     0.029 A 
ATOM     60  C   UNL     1      -1.862  -5.485  12.430  1.00  0.00     0.049 A 
ATOM     61  H   UNL     1      -0.235  -4.409  13.217  1.00  0.00     0.167 HD
ATOM     62  C   UNL     1      -1.046  -7.312  11.141  1.00  0.00     0.074 A 
ATOM     63  C   UNL     1      -0.696  -8.621  10.622  1.00  0.00     0.031 C 
ATOM     64  C   UNL     1      -1.244  -6.806  12.396  1.00  0.00     0.037 A 
BRANCH  51  65
ATOM     65  C   UNL     1      -1.808  -0.864  13.952  1.00  0.00     0.058 A 
ATOM     66  C   UNL     1      -3.002  -1.074  14.685  1.00  0.00     0.135 A 
ATOM     67  C   UNL     1      -1.239   0.410  14.159  1.00  0.00     0.135 A 
ATOM     68  F   UNL     1      -3.629  -2.259  14.678  1.00  0.00    -0.206 F 
ATOM     69  C   UNL     1      -3.621  -0.080  15.454  1.00  0.00     0.059 A 
ATOM     70  C   UNL     1      -1.849   1.427  14.899  1.00  0.00     0.059 A 
ATOM     71  F   UNL     1      -0.037   0.745  13.691  1.00  0.00    -0.206 F 
ATOM     72  C   UNL     1      -3.053   1.183  15.529  1.00  0.00     0.060 A 
BRANCH  72  73
ATOM     73  S   UNL     1      -3.882   2.485  16.455  1.00  0.00     0.124 S 
ATOM     74  O   UNL     1      -5.155   2.598  15.750  1.00  0.00    -0.237 OA
ATOM     75  O   UNL     1      -3.943   1.917  17.797  1.00  0.00    -0.237 OA
ATOM     76  O   UNL     1      -2.988   3.632  16.306  1.00  0.00    -0.744 OA
ENDBRANCH  72  73
ENDBRANCH  51  65
BRANCH  52  77
ATOM     77  C   UNL     1       0.304  -6.893   6.572  1.00  0.00     0.058 A 
ATOM     78  C   UNL     1      -0.088  -7.064   5.232  1.00  0.00     0.135 A 
ATOM     79  C   UNL     1       1.622  -6.486   6.821  1.00  0.00     0.135 A 
ATOM     80  F   UNL     1      -1.334  -7.476   4.944  1.00  0.00    -0.206 F 
ATOM     81  C   UNL     1       0.726  -6.665   4.180  1.00  0.00     0.059 A 
ATOM     82  C   UNL     1       2.460  -6.085   5.778  1.00  0.00     0.059 A 
ATOM     83  F   UNL     1       2.051  -6.314   8.080  1.00  0.00    -0.206 F 
ATOM     84  C   UNL     1       1.968  -6.103   4.471  1.00  0.00     0.060 A 
BRANCH  84  85
ATOM     85  S   UNL     1       2.804  -5.198   3.147  1.00  0.00     0.124 S 
ATOM     86  O   UNL     1       2.997  -6.235   2.140  1.00  0.00    -0.237 OA
ATOM     87  O   UNL     1       1.809  -4.177   2.821  1.00  0.00    -0.237 OA
ATOM     88  O   UNL     1       4.018  -4.708   3.790  1.00  0.00    -0.744 OA
ENDBRANCH  84  85
ENDBRANCH  52  77
BRANCH  64  89
ATOM     89  C   UNL     1      -0.965  -7.517  13.706  1.00  0.00     0.058 A 
ATOM     90  C   UNL     1       0.000  -8.525  13.874  1.00  0.00     0.135 A 
ATOM     91  C   UNL     1      -1.599  -7.086  14.899  1.00  0.00     0.135 A 
ATOM     92  F   UNL     1       0.759  -8.945  12.852  1.00  0.00    -0.206 F 
ATOM     93  C   UNL     1       0.267  -9.113  15.115  1.00  0.00     0.059 A 
ATOM     94  C   UNL     1      -1.307  -7.618  16.154  1.00  0.00     0.059 A 
ATOM     95  F   UNL     1      -2.522  -6.113  14.890  1.00  0.00    -0.206 F 
ATOM     96  C   UNL     1      -0.390  -8.653  16.251  1.00  0.00     0.060 A 
BRANCH  96  97
ATOM     97  S   UNL     1      -0.004  -9.352  17.867  1.00  0.00     0.124 S 
ATOM     98  O   UNL     1      -1.018 -10.395  17.984  1.00  0.00    -0.237 OA
ATOM     99  O   UNL     1       1.368  -9.824  17.700  1.00  0.00    -0.237 OA
ATOM    100  O   UNL     1      -0.159  -8.213  18.766  1.00  0.00    -0.744 OA
ENDBRANCH  96  97
ENDBRANCH  64  89
ENDBRANCH  38  39
ENDBRANCH  30  33
ENDBRANCH  28  29
ENDBRANCH   1  28
TORSDOF 16
