REMARK SMILES CCc1c(C)nn(CC(=O)N[C@H](C(=O)NCCCNC(=O)c2ccc(-c3c4nc(c(-c5c(F)cc(S(=O)(=O)[O-])cc5F)c5ccc([nH]5)c(-c5c(F)cc(S(=O)(=O)[O-])cc5F)c5nc(c(-c6c(F)cc(S(=O)(=O)[O-])cc6F)c6ccc3[nH]6)C=C5)C=C4)cc2)c2c(C)n[nH]c2C)c1C
REMARK SMILES IDX 16 1 15 2 13 3 14 4 12 6 11 7 9 8 10 9 8 11 7 12 3 13 4 14
REMARK SMILES IDX 95 15 5 16 6 17 96 18 2 19 1 20 88 21 89 22 93 23 90 24
REMARK SMILES IDX 91 25 92 26 94 27 17 29 18 30 19 31 20 32 21 34 22 35 23 36
REMARK SMILES IDX 87 37 24 38 86 39 25 40 26 41 27 42 80 43 28 44 85 45 79 46
REMARK SMILES IDX 81 47 29 48 84 49 78 50 77 51 30 53 64 54 43 55 63 56 44 57
REMARK SMILES IDX 47 58 62 59 82 60 45 61 46 62 61 64 83 65 48 66 31 67 32 68
REMARK SMILES IDX 41 69 33 70 34 71 40 72 42 73 35 74 36 75 37 76 38 77 39 78
REMARK SMILES IDX 65 79 66 80 75 81 67 82 68 83 74 84 76 85 69 86 70 87 71 88
REMARK SMILES IDX 72 89 73 90 49 91 50 92 59 93 51 94 52 95 58 96 60 97 53 98
REMARK SMILES IDX 54 99 55 100 56 101 57 102
REMARK H PARENT 15 5 11 10 92 28 19 33 81 52 47 63
REMARK Flexibility Score: inf
ROOT
ATOM      1  C   UNL     1       0.493  -4.991   1.197  1.00  0.00     0.117 C 
ENDROOT
BRANCH   1   2
ATOM      2  N   UNL     1       1.725  -5.752   1.147  1.00  0.00    -0.354 N 
ATOM      3  C   UNL     1       2.892  -5.353   0.597  1.00  0.00     0.247 C 
ATOM      4  O   UNL     1       3.634  -4.830   1.452  1.00  0.00    -0.272 OA
ATOM      5  H   UNL     1       1.710  -6.649   1.553  1.00  0.00     0.163 HD
BRANCH   3   6
ATOM      6  C   UNL     1       3.338  -5.389  -0.915  1.00  0.00     0.206 C 
BRANCH   6   7
ATOM      7  N   UNL     1       4.753  -5.094  -0.805  1.00  0.00    -0.339 N 
ATOM      8  C   UNL     1       5.648  -5.887  -0.137  1.00  0.00     0.242 C 
ATOM      9  O   UNL     1       6.770  -5.413   0.067  1.00  0.00    -0.273 OA
ATOM     10  H   UNL     1       5.091  -4.275  -1.235  1.00  0.00     0.164 HD
BRANCH   8  11
ATOM     11  C   UNL     1       5.333  -7.347   0.109  1.00  0.00     0.244 C 
BRANCH  11  12
ATOM     12  N   UNL     1       4.312  -7.810   1.066  1.00  0.00    -0.260 N 
ATOM     13  C   UNL     1       2.870  -9.130   2.173  1.00  0.00    -0.004 A 
ATOM     14  C   UNL     1       3.929  -8.680   2.991  1.00  0.00     0.063 A 
ATOM     15  C   UNL     1       3.050  -8.428   0.979  1.00  0.00     0.039 A 
ATOM     16  C   UNL     1       4.216  -8.882   4.426  1.00  0.00     0.069 C 
ATOM     17  N   UNL     1       4.782  -7.907   2.323  1.00  0.00    -0.177 NA
ATOM     18  C   UNL     1       1.910  -8.320   0.002  1.00  0.00     0.066 C 
BRANCH  13  19
ATOM     19  C   UNL     1       1.691 -10.039   2.411  1.00  0.00     0.036 C 
ATOM     20  C   UNL     1       1.425 -10.516   3.815  1.00  0.00     0.009 C 
ENDBRANCH  13  19
ENDBRANCH  11  12
ENDBRANCH   8  11
ENDBRANCH   6   7
BRANCH   6  21
ATOM     21  C   UNL     1       3.197  -6.344  -2.182  1.00  0.00     0.027 A 
ATOM     22  C   UNL     1       2.972  -5.670  -3.458  1.00  0.00     0.065 A 
ATOM     23  C   UNL     1       3.409  -7.693  -2.641  1.00  0.00     0.038 A 
ATOM     24  C   UNL     1       2.929  -4.212  -3.742  1.00  0.00     0.069 C 
ATOM     25  N   UNL     1       2.865  -6.490  -4.496  1.00  0.00    -0.180 NA
ATOM     26  N   UNL     1       3.075  -7.680  -3.978  1.00  0.00    -0.282 N 
ATOM     27  C   UNL     1       3.845  -9.096  -2.237  1.00  0.00     0.066 C 
ATOM     28  H   UNL     1       3.000  -8.505  -4.510  1.00  0.00     0.190 HD
ENDBRANCH   6  21
ENDBRANCH   3   6
ENDBRANCH   1   2
BRANCH   1  29
ATOM     29  C   UNL     1      -0.700  -5.875   1.563  1.00  0.00     0.042 C 
BRANCH  29  30
ATOM     30  C   UNL     1      -0.553  -6.734   2.827  1.00  0.00     0.118 C 
BRANCH  30  31
ATOM     31  N   UNL     1      -0.594  -5.989   4.076  1.00  0.00    -0.352 N 
ATOM     32  C   UNL     1      -1.521  -6.000   5.090  1.00  0.00     0.251 C 
ATOM     33  H   UNL     1       0.165  -5.378   4.217  1.00  0.00     0.163 HD
ATOM     34  O   UNL     1      -1.391  -5.207   6.031  1.00  0.00    -0.269 OA
BRANCH  32  35
ATOM     35  C   UNL     1      -2.691  -6.907   5.067  1.00  0.00     0.039 A 
ATOM     36  C   UNL     1      -3.947  -6.384   5.393  1.00  0.00     0.014 A 
ATOM     37  C   UNL     1      -2.571  -8.265   4.758  1.00  0.00     0.014 A 
ATOM     38  C   UNL     1      -5.083  -7.196   5.328  1.00  0.00     0.010 A 
ATOM     39  C   UNL     1      -3.715  -9.055   4.618  1.00  0.00     0.010 A 
ATOM     40  C   UNL     1      -4.987  -8.529   4.895  1.00  0.00    -0.014 A 
BRANCH  40  41
ATOM     41  C   UNL     1      -6.209  -9.361   4.710  1.00  0.00     0.031 A 
ATOM     42  C   UNL     1      -6.425 -10.609   5.527  1.00  0.00     0.074 A 
ATOM     43  C   UNL     1      -7.111  -9.016   3.767  1.00  0.00     0.049 A 
ATOM     44  N   UNL     1      -7.413 -11.466   5.479  1.00  0.00    -0.248 NA
ATOM     45  C   UNL     1      -5.384 -10.953   6.508  1.00  0.00     0.031 C 
ATOM     46  C   UNL     1      -6.996  -7.863   2.870  1.00  0.00     0.029 A 
ATOM     47  N   UNL     1      -8.298  -9.601   3.397  1.00  0.00    -0.354 N 
ATOM     48  C   UNL     1      -7.110 -12.453   6.411  1.00  0.00     0.074 A 
ATOM     49  C   UNL     1      -5.820 -12.115   6.973  1.00  0.00     0.031 C 
ATOM     50  C   UNL     1      -8.076  -7.812   2.075  1.00  0.00     0.029 A 
ATOM     51  C   UNL     1      -8.943  -8.947   2.373  1.00  0.00     0.049 A 
ATOM     52  H   UNL     1      -8.654 -10.413   3.826  1.00  0.00     0.167 HD
ATOM     53  C   UNL     1      -7.847 -13.528   6.781  1.00  0.00     0.037 A 
ATOM     54  C   UNL     1     -10.097  -9.230   1.736  1.00  0.00     0.037 A 
ATOM     55  C   UNL     1      -9.142 -13.848   6.235  1.00  0.00     0.049 A 
ATOM     56  C   UNL     1     -10.900 -10.428   2.169  1.00  0.00     0.074 A 
ATOM     57  C   UNL     1      -9.996 -14.877   6.595  1.00  0.00     0.029 A 
ATOM     58  N   UNL     1      -9.770 -13.150   5.214  1.00  0.00    -0.354 N 
ATOM     59  N   UNL     1     -10.631 -11.305   3.107  1.00  0.00    -0.248 NA
ATOM     60  C   UNL     1     -12.167 -10.669   1.465  1.00  0.00     0.031 C 
ATOM     61  C   UNL     1     -11.112 -14.836   5.753  1.00  0.00     0.029 A 
ATOM     62  C   UNL     1     -10.985 -13.744   4.910  1.00  0.00     0.049 A 
ATOM     63  H   UNL     1      -9.406 -12.351   4.769  1.00  0.00     0.167 HD
ATOM     64  C   UNL     1     -11.708 -12.185   3.123  1.00  0.00     0.074 A 
ATOM     65  C   UNL     1     -12.639 -11.725   2.114  1.00  0.00     0.031 C 
ATOM     66  C   UNL     1     -11.907 -13.276   3.904  1.00  0.00     0.037 A 
BRANCH  53  67
ATOM     67  C   UNL     1      -7.274 -14.449   7.827  1.00  0.00     0.058 A 
ATOM     68  C   UNL     1      -7.144 -14.055   9.169  1.00  0.00     0.135 A 
ATOM     69  C   UNL     1      -6.902 -15.762   7.495  1.00  0.00     0.135 A 
ATOM     70  F   UNL     1      -7.471 -12.807   9.542  1.00  0.00    -0.206 F 
ATOM     71  C   UNL     1      -6.641 -14.919  10.136  1.00  0.00     0.059 A 
ATOM     72  C   UNL     1      -6.426 -16.653   8.452  1.00  0.00     0.059 A 
ATOM     73  F   UNL     1      -7.007 -16.194   6.228  1.00  0.00    -0.206 F 
ATOM     74  C   UNL     1      -6.286 -16.218   9.768  1.00  0.00     0.060 A 
BRANCH  74  75
ATOM     75  S   UNL     1      -5.648 -17.329  11.040  1.00  0.00     0.124 S 
ATOM     76  O   UNL     1      -4.329 -16.758  11.290  1.00  0.00    -0.237 OA
ATOM     77  O   UNL     1      -6.623 -17.166  12.113  1.00  0.00    -0.237 OA
ATOM     78  O   UNL     1      -5.652 -18.634  10.385  1.00  0.00    -0.744 OA
ENDBRANCH  74  75
ENDBRANCH  53  67
BRANCH  54  79
ATOM     79  C   UNL     1     -10.569  -8.357   0.626  1.00  0.00     0.058 A 
ATOM     80  C   UNL     1     -11.709  -7.552   0.767  1.00  0.00     0.135 A 
ATOM     81  C   UNL     1      -9.884  -8.307  -0.599  1.00  0.00     0.135 A 
ATOM     82  F   UNL     1     -12.403  -7.569   1.915  1.00  0.00    -0.206 F 
ATOM     83  C   UNL     1     -12.166  -6.745  -0.270  1.00  0.00     0.059 A 
ATOM     84  C   UNL     1     -10.304  -7.486  -1.640  1.00  0.00     0.059 A 
ATOM     85  F   UNL     1      -8.777  -9.044  -0.782  1.00  0.00    -0.206 F 
ATOM     86  C   UNL     1     -11.454  -6.716  -1.470  1.00  0.00     0.060 A 
BRANCH  86  87
ATOM     87  S   UNL     1     -12.028  -5.631  -2.795  1.00  0.00     0.124 S 
ATOM     88  O   UNL     1     -13.224  -6.330  -3.250  1.00  0.00    -0.237 OA
ATOM     89  O   UNL     1     -12.252  -4.375  -2.085  1.00  0.00    -0.237 OA
ATOM     90  O   UNL     1     -10.907  -5.622  -3.729  1.00  0.00    -0.744 OA
ENDBRANCH  86  87
ENDBRANCH  54  79
BRANCH  66  91
ATOM     91  C   UNL     1     -13.197 -14.032   3.725  1.00  0.00     0.058 A 
ATOM     92  C   UNL     1     -13.452 -14.801   2.579  1.00  0.00     0.135 A 
ATOM     93  C   UNL     1     -14.174 -14.017   4.734  1.00  0.00     0.135 A 
ATOM     94  F   UNL     1     -12.555 -14.847   1.581  1.00  0.00    -0.206 F 
ATOM     95  C   UNL     1     -14.645 -15.502   2.424  1.00  0.00     0.059 A 
ATOM     96  C   UNL     1     -15.360 -14.736   4.615  1.00  0.00     0.059 A 
ATOM     97  F   UNL     1     -13.977 -13.307   5.856  1.00  0.00    -0.206 F 
ATOM     98  C   UNL     1     -15.592 -15.463   3.449  1.00  0.00     0.060 A 
BRANCH  98  99
ATOM     99  S   UNL     1     -17.126 -16.393   3.244  1.00  0.00     0.124 S 
ATOM    100  O   UNL     1     -17.830 -15.585   2.254  1.00  0.00    -0.237 OA
ATOM    101  O   UNL     1     -16.645 -17.690   2.778  1.00  0.00    -0.237 OA
ATOM    102  O   UNL     1     -17.707 -16.391   4.583  1.00  0.00    -0.744 OA
ENDBRANCH  98  99
ENDBRANCH  66  91
ENDBRANCH  40  41
ENDBRANCH  32  35
ENDBRANCH  30  31
ENDBRANCH  29  30
ENDBRANCH   1  29
TORSDOF 18
