REMARK SMILES C=CCCCOC(F)(F)C(=O)NCCCNC(=O)c1ccc(-c2c3nc(c(-c4c(F)cc(S(=O)(=O)[O-])cc4F)c4ccc([nH]4)c(-c4c(F)cc(S(=O)(=O)[O-])cc4F)c4nc(c(-c5c(F)cc(S(=O)(=O)[O-])cc5F)c5ccc2[nH]5)C=C4)C=C3)cc1
REMARK SMILES IDX 13 1 12 2 10 3 11 4 7 6 8 7 9 8 6 9 5 10 4 11 3 12 2 13 1 14
REMARK SMILES IDX 14 15 15 16 16 17 17 18 18 20 19 21 20 22 84 23 21 24 83 25
REMARK SMILES IDX 22 26 23 27 24 28 77 29 25 30 82 31 76 32 78 33 26 34 81 35
REMARK SMILES IDX 75 36 74 37 27 39 61 40 40 41 60 42 41 43 44 44 59 45 79 46
REMARK SMILES IDX 42 47 43 48 58 50 80 51 45 52 28 53 29 54 38 55 30 56 31 57
REMARK SMILES IDX 37 58 39 59 32 60 33 61 34 62 35 63 36 64 62 65 63 66 72 67
REMARK SMILES IDX 64 68 65 69 71 70 73 71 66 72 67 73 68 74 69 75 70 76 46 77
REMARK SMILES IDX 47 78 56 79 48 80 49 81 55 82 57 83 50 84 51 85 52 86 53 87
REMARK SMILES IDX 54 88
REMARK H PARENT 12 5 16 19 78 38 44 49
REMARK Flexibility Score: inf
ROOT
ATOM      1  C   UNL     1      -0.302  -4.247   2.182  1.00  0.00     0.118 C 
ENDROOT
BRANCH   1   2
ATOM      2  N   UNL     1      -1.072  -5.246   1.450  1.00  0.00    -0.348 N 
ATOM      3  C   UNL     1      -1.571  -5.126   0.160  1.00  0.00     0.320 C 
ATOM      4  O   UNL     1      -2.130  -6.099  -0.350  1.00  0.00    -0.265 OA
ATOM      5  H   UNL     1      -1.256  -6.092   1.918  1.00  0.00     0.163 HD
BRANCH   3   6
ATOM      6  C   UNL     1      -1.387  -3.735  -0.544  1.00  0.00     0.436 C 
ATOM      7  F   UNL     1      -0.054  -3.441  -0.586  1.00  0.00    -0.165 F 
ATOM      8  F   UNL     1      -1.975  -2.797   0.249  1.00  0.00    -0.165 F 
BRANCH   6   9
ATOM      9  O   UNL     1      -1.899  -3.522  -1.837  1.00  0.00    -0.313 OA
BRANCH   9  10
ATOM     10  C   UNL     1      -1.252  -2.464  -2.547  1.00  0.00     0.168 C 
BRANCH  10  11
ATOM     11  C   UNL     1      -1.603  -1.035  -2.099  1.00  0.00     0.033 C 
BRANCH  11  12
ATOM     12  C   UNL     1      -0.930  -0.438  -0.848  1.00  0.00     0.029 C 
BRANCH  12  13
ATOM     13  C   UNL     1       0.566  -0.545  -0.759  1.00  0.00    -0.035 C 
ATOM     14  C   UNL     1       1.326   0.360  -0.128  1.00  0.00     0.004 C 
ENDBRANCH  12  13
ENDBRANCH  11  12
ENDBRANCH  10  11
ENDBRANCH   9  10
ENDBRANCH   6   9
ENDBRANCH   3   6
ENDBRANCH   1   2
BRANCH   1  15
ATOM     15  C   UNL     1      -1.107  -3.511   3.245  1.00  0.00     0.042 C 
BRANCH  15  16
ATOM     16  C   UNL     1      -1.577  -4.387   4.399  1.00  0.00     0.118 C 
BRANCH  16  17
ATOM     17  N   UNL     1      -0.485  -5.086   5.060  1.00  0.00    -0.352 N 
ATOM     18  C   UNL     1      -0.138  -5.163   6.382  1.00  0.00     0.251 C 
ATOM     19  H   UNL     1       0.105  -5.589   4.453  1.00  0.00     0.163 HD
ATOM     20  O   UNL     1       0.933  -5.700   6.679  1.00  0.00    -0.269 OA
BRANCH  18  21
ATOM     21  C   UNL     1      -1.001  -4.605   7.445  1.00  0.00     0.039 A 
ATOM     22  C   UNL     1      -0.389  -4.014   8.554  1.00  0.00     0.014 A 
ATOM     23  C   UNL     1      -2.395  -4.691   7.388  1.00  0.00     0.014 A 
ATOM     24  C   UNL     1      -1.170  -3.463   9.572  1.00  0.00     0.010 A 
ATOM     25  C   UNL     1      -3.174  -4.068   8.362  1.00  0.00     0.010 A 
ATOM     26  C   UNL     1      -2.571  -3.452   9.468  1.00  0.00    -0.014 A 
BRANCH  26  27
ATOM     27  C   UNL     1      -3.403  -2.784  10.502  1.00  0.00     0.031 A 
ATOM     28  C   UNL     1      -4.376  -3.572  11.337  1.00  0.00     0.074 A 
ATOM     29  C   UNL     1      -3.311  -1.447  10.656  1.00  0.00     0.049 A 
ATOM     30  N   UNL     1      -5.183  -3.152  12.278  1.00  0.00    -0.248 NA
ATOM     31  C   UNL     1      -4.476  -5.014  11.062  1.00  0.00     0.031 C 
ATOM     32  C   UNL     1      -2.455  -0.563   9.861  1.00  0.00     0.029 A 
ATOM     33  N   UNL     1      -3.945  -0.598  11.527  1.00  0.00    -0.354 N 
ATOM     34  C   UNL     1      -5.892  -4.271  12.699  1.00  0.00     0.074 A 
ATOM     35  C   UNL     1      -5.458  -5.378  11.874  1.00  0.00     0.031 C 
ATOM     36  C   UNL     1      -2.599   0.698  10.297  1.00  0.00     0.029 A 
ATOM     37  C   UNL     1      -3.579   0.719  11.378  1.00  0.00     0.049 A 
ATOM     38  H   UNL     1      -4.601  -0.903  12.195  1.00  0.00     0.167 HD
ATOM     39  C   UNL     1      -6.806  -4.371  13.695  1.00  0.00     0.037 A 
ATOM     40  C   UNL     1      -3.989   1.822  12.033  1.00  0.00     0.037 A 
ATOM     41  C   UNL     1      -7.219  -3.268  14.526  1.00  0.00     0.049 A 
ATOM     42  C   UNL     1      -4.985   1.682  13.151  1.00  0.00     0.074 A 
ATOM     43  C   UNL     1      -8.081  -3.281  15.608  1.00  0.00     0.029 A 
ATOM     44  N   UNL     1      -6.808  -1.953  14.362  1.00  0.00    -0.354 N 
ATOM     45  N   UNL     1      -5.581   0.601  13.593  1.00  0.00    -0.248 NA
ATOM     46  C   UNL     1      -5.353   2.910  13.868  1.00  0.00     0.031 C 
ATOM     47  C   UNL     1      -8.232  -1.968  16.066  1.00  0.00     0.029 A 
ATOM     48  C   UNL     1      -7.420  -1.142  15.306  1.00  0.00     0.049 A 
ATOM     49  H   UNL     1      -6.174  -1.641  13.676  1.00  0.00     0.167 HD
ATOM     50  C   UNL     1      -6.381   1.014  14.652  1.00  0.00     0.074 A 
ATOM     51  C   UNL     1      -6.173   2.441  14.798  1.00  0.00     0.031 C 
ATOM     52  C   UNL     1      -7.214   0.280  15.433  1.00  0.00     0.037 A 
BRANCH  39  53
ATOM     53  C   UNL     1      -7.424  -5.722  13.943  1.00  0.00     0.058 A 
ATOM     54  C   UNL     1      -6.683  -6.791  14.473  1.00  0.00     0.135 A 
ATOM     55  C   UNL     1      -8.786  -5.943  13.676  1.00  0.00     0.135 A 
ATOM     56  F   UNL     1      -5.375  -6.642  14.735  1.00  0.00    -0.206 F 
ATOM     57  C   UNL     1      -7.259  -8.037  14.698  1.00  0.00     0.059 A 
ATOM     58  C   UNL     1      -9.391  -7.172  13.922  1.00  0.00     0.059 A 
ATOM     59  F   UNL     1      -9.544  -4.957  13.170  1.00  0.00    -0.206 F 
ATOM     60  C   UNL     1      -8.614  -8.219  14.418  1.00  0.00     0.060 A 
BRANCH  60  61
ATOM     61  S   UNL     1      -9.346  -9.842  14.714  1.00  0.00     0.124 S 
ATOM     62  O   UNL     1      -8.771 -10.624  13.623  1.00  0.00    -0.237 OA
ATOM     63  O   UNL     1      -8.857 -10.166  16.051  1.00  0.00    -0.237 OA
ATOM     64  O   UNL     1     -10.781  -9.592  14.618  1.00  0.00    -0.744 OA
ENDBRANCH  60  61
ENDBRANCH  39  53
BRANCH  40  65
ATOM     65  C   UNL     1      -3.435   3.151  11.659  1.00  0.00     0.058 A 
ATOM     66  C   UNL     1      -2.550   3.833  12.506  1.00  0.00     0.135 A 
ATOM     67  C   UNL     1      -3.760   3.752  10.432  1.00  0.00     0.135 A 
ATOM     68  F   UNL     1      -2.212   3.302  13.691  1.00  0.00    -0.206 F 
ATOM     69  C   UNL     1      -2.016   5.070  12.159  1.00  0.00     0.059 A 
ATOM     70  C   UNL     1      -3.218   4.975  10.051  1.00  0.00     0.059 A 
ATOM     71  F   UNL     1      -4.589   3.131   9.578  1.00  0.00    -0.206 F 
ATOM     72  C   UNL     1      -2.353   5.631  10.925  1.00  0.00     0.060 A 
BRANCH  72  73
ATOM     73  S   UNL     1      -1.607   7.207  10.457  1.00  0.00     0.124 S 
ATOM     74  O   UNL     1      -2.324   8.139  11.319  1.00  0.00    -0.237 OA
ATOM     75  O   UNL     1      -0.201   6.989  10.781  1.00  0.00    -0.237 OA
ATOM     76  O   UNL     1      -1.905   7.308   9.031  1.00  0.00    -0.744 OA
ENDBRANCH  72  73
ENDBRANCH  40  65
BRANCH  52  77
ATOM     77  C   UNL     1      -7.946   1.008  16.528  1.00  0.00     0.058 A 
ATOM     78  C   UNL     1      -8.980   1.916  16.250  1.00  0.00     0.135 A 
ATOM     79  C   UNL     1      -7.618   0.783  17.875  1.00  0.00     0.135 A 
ATOM     80  F   UNL     1      -9.331   2.171  14.979  1.00  0.00    -0.206 F 
ATOM     81  C   UNL     1      -9.633   2.608  17.265  1.00  0.00     0.059 A 
ATOM     82  C   UNL     1      -8.280   1.440  18.908  1.00  0.00     0.059 A 
ATOM     83  F   UNL     1      -6.647  -0.085  18.200  1.00  0.00    -0.206 F 
ATOM     84  C   UNL     1      -9.273   2.366  18.591  1.00  0.00     0.060 A 
BRANCH  84  85
ATOM     85  S   UNL     1     -10.125   3.272  19.900  1.00  0.00     0.124 S 
ATOM     86  O   UNL     1      -9.530   4.598  19.773  1.00  0.00    -0.237 OA
ATOM     87  O   UNL     1     -11.524   3.164  19.496  1.00  0.00    -0.237 OA
ATOM     88  O   UNL     1      -9.770   2.536  21.109  1.00  0.00    -0.744 OA
ENDBRANCH  84  85
ENDBRANCH  52  77
ENDBRANCH  26  27
ENDBRANCH  18  21
ENDBRANCH  16  17
ENDBRANCH  15  16
ENDBRANCH   1  15
TORSDOF 18
