REMARK SMILES O=C(N/N=C/c1ccccc1O)C(=O)Nc1cccc(C(=O)NCCCNC(=O)c2ccc(-c3c4nc(c(-c5c(F)cc(S(=O)(=O)[O-])cc5F)c5ccc([nH]5)c(-c5c(F)cc(S(=O)(=O)[O-])cc5F)c5nc(c(-c6c(F)cc(S(=O)(=O)[O-])cc6F)c6ccc3[nH]6)C=C5)C=C4)cc2)c1
REMARK SMILES IDX 24 1 23 2 21 3 22 4 20 6 16 7 17 8 96 9 18 10 19 11 15 12
REMARK SMILES IDX 13 13 14 14 2 16 1 17 3 18 4 20 5 21 6 22 7 23 11 24 8 25
REMARK SMILES IDX 10 26 9 27 12 28 25 30 26 31 27 32 28 33 29 35 30 36 31 37
REMARK SMILES IDX 95 38 32 39 94 40 33 41 34 42 35 43 88 44 36 45 93 46 87 47
REMARK SMILES IDX 89 48 37 49 92 50 86 51 85 52 38 54 72 55 51 56 71 57 52 58
REMARK SMILES IDX 55 59 70 60 90 61 53 62 54 63 69 65 91 66 56 67 39 68 40 69
REMARK SMILES IDX 49 70 41 71 42 72 48 73 50 74 43 75 44 76 45 77 46 78 47 79
REMARK SMILES IDX 73 80 74 81 83 82 75 83 76 84 82 85 84 86 77 87 78 88 79 89
REMARK SMILES IDX 80 90 81 91 57 92 58 93 67 94 59 95 60 96 66 97 68 98 61 99
REMARK SMILES IDX 62 100 63 101 64 102 65 103
REMARK H PARENT 23 5 15 15 3 19 12 29 27 34 89 53 55 64
REMARK Flexibility Score: inf
ROOT
ATOM      1  C   UNL     1       2.987   3.530   0.025  1.00  0.00     0.118 C 
ENDROOT
BRANCH   1   2
ATOM      2  N   UNL     1       4.110   4.096  -0.700  1.00  0.00    -0.352 N 
ATOM      3  C   UNL     1       5.209   3.497  -1.252  1.00  0.00     0.251 C 
ATOM      4  O   UNL     1       5.939   4.141  -2.010  1.00  0.00    -0.269 OA
ATOM      5  H   UNL     1       4.075   5.074  -0.812  1.00  0.00     0.163 HD
BRANCH   3   6
ATOM      6  C   UNL     1       5.593   2.085  -0.998  1.00  0.00     0.041 A 
ATOM      7  C   UNL     1       5.309  -0.673   0.496  1.00  0.00     0.042 A 
ATOM      8  C   UNL     1       6.108  -1.544  -0.908  1.00  0.00     0.026 A 
ATOM      9  C   UNL     1       5.146   1.137   0.502  1.00  0.00     0.040 A 
ATOM     10  C   UNL     1       6.735  -0.562  -2.318  1.00  0.00     0.003 A 
ATOM     11  C   UNL     1       6.424   1.226  -2.384  1.00  0.00     0.014 A 
BRANCH   7  12
ATOM     12  N   UNL     1       4.332  -1.408   1.161  1.00  0.00    -0.318 N 
ATOM     13  C   UNL     1       2.959  -1.374   0.949  1.00  0.00     0.315 C 
ATOM     14  O   UNL     1       2.279  -2.154   1.623  1.00  0.00    -0.263 OA
ATOM     15  H   UNL     1       4.649  -2.023   1.861  1.00  0.00     0.170 HD
BRANCH  13  16
ATOM     16  C   UNL     1       2.205  -0.538  -0.127  1.00  0.00     0.329 C 
ATOM     17  O   UNL     1       1.002  -0.323   0.032  1.00  0.00    -0.262 OA
ATOM     18  N   UNL     1       2.792  -0.153  -1.338  1.00  0.00    -0.239 N 
ATOM     19  H   UNL     1       2.462  -0.494  -2.201  1.00  0.00     0.194 HD
BRANCH  18  20
ATOM     20  N   UNL     1       3.843   0.717  -1.268  1.00  0.00    -0.180 NA
ATOM     21  C   UNL     1       5.089   0.144  -1.311  1.00  0.00     0.145 C 
BRANCH  21  22
ATOM     22  C   UNL     1       6.993   0.464  -0.409  1.00  0.00     0.036 A 
ATOM     23  C   UNL     1       7.907  -0.581   0.237  1.00  0.00     0.013 A 
ATOM     24  C   UNL     1       7.920   1.674  -0.251  1.00  0.00     0.124 A 
ATOM     25  C   UNL     1       9.297  -0.555   0.555  1.00  0.00     0.001 A 
ATOM     26  C   UNL     1       9.329   1.706   0.030  1.00  0.00     0.047 A 
ATOM     27  C   UNL     1      10.032   0.580   0.369  1.00  0.00     0.004 A 
BRANCH  24  28
ATOM     28  O   UNL     1       7.532   3.008  -0.132  1.00  0.00    -0.507 OA
ATOM     29  H   UNL     1       6.638   3.250  -0.272  1.00  0.00     0.293 HD
ENDBRANCH  24  28
ENDBRANCH  21  22
ENDBRANCH  18  20
ENDBRANCH  13  16
ENDBRANCH   7  12
ENDBRANCH   3   6
ENDBRANCH   1   2
BRANCH   1  30
ATOM     30  C   UNL     1       3.032   3.844   1.512  1.00  0.00     0.042 C 
BRANCH  30  31
ATOM     31  C   UNL     1       2.548   5.246   1.834  1.00  0.00     0.118 C 
BRANCH  31  32
ATOM     32  N   UNL     1       1.127   5.409   1.560  1.00  0.00    -0.352 N 
ATOM     33  C   UNL     1       0.112   5.827   2.381  1.00  0.00     0.251 C 
ATOM     34  H   UNL     1       0.852   5.184   0.642  1.00  0.00     0.163 HD
ATOM     35  O   UNL     1      -1.051   5.704   2.008  1.00  0.00    -0.269 OA
BRANCH  33  36
ATOM     36  C   UNL     1       0.408   6.417   3.704  1.00  0.00     0.039 A 
ATOM     37  C   UNL     1      -0.456   6.145   4.768  1.00  0.00     0.014 A 
ATOM     38  C   UNL     1       1.496   7.274   3.890  1.00  0.00     0.014 A 
ATOM     39  C   UNL     1      -0.214   6.714   6.019  1.00  0.00     0.010 A 
ATOM     40  C   UNL     1       1.790   7.763   5.157  1.00  0.00     0.010 A 
ATOM     41  C   UNL     1       0.919   7.517   6.226  1.00  0.00    -0.014 A 
BRANCH  41  42
ATOM     42  C   UNL     1       1.165   8.164   7.537  1.00  0.00     0.031 A 
ATOM     43  C   UNL     1       1.142   9.666   7.644  1.00  0.00     0.074 A 
ATOM     44  C   UNL     1       1.436   7.404   8.616  1.00  0.00     0.049 A 
ATOM     45  N   UNL     1       1.363  10.424   8.687  1.00  0.00    -0.248 NA
ATOM     46  C   UNL     1       0.865  10.419   6.408  1.00  0.00     0.031 C 
ATOM     47  C   UNL     1       1.547   5.943   8.617  1.00  0.00     0.029 A 
ATOM     48  N   UNL     1       1.670   7.755   9.920  1.00  0.00    -0.354 N 
ATOM     49  C   UNL     1       1.258  11.734   8.232  1.00  0.00     0.074 A 
ATOM     50  C   UNL     1       1.026  11.671   6.807  1.00  0.00     0.031 C 
ATOM     51  C   UNL     1       1.805   5.523   9.866  1.00  0.00     0.029 A 
ATOM     52  C   UNL     1       1.900   6.682  10.747  1.00  0.00     0.049 A 
ATOM     53  H   UNL     1       1.674   8.688  10.234  1.00  0.00     0.167 HD
ATOM     54  C   UNL     1       1.312  12.885   8.943  1.00  0.00     0.037 A 
ATOM     55  C   UNL     1       2.156   6.642  12.068  1.00  0.00     0.037 A 
ATOM     56  C   UNL     1       1.511  12.937  10.367  1.00  0.00     0.049 A 
ATOM     57  C   UNL     1       2.175   7.931  12.843  1.00  0.00     0.074 A 
ATOM     58  C   UNL     1       1.549  14.046  11.193  1.00  0.00     0.029 A 
ATOM     59  N   UNL     1       1.693  11.826  11.177  1.00  0.00    -0.354 N 
ATOM     60  N   UNL     1       2.025   9.159  12.405  1.00  0.00    -0.248 NA
ATOM     61  C   UNL     1       2.382   7.831  14.294  1.00  0.00     0.031 C 
ATOM     62  C   UNL     1       1.779  13.606  12.502  1.00  0.00     0.029 A 
ATOM     63  C   UNL     1       1.846  12.221  12.495  1.00  0.00     0.049 A 
ATOM     64  H   UNL     1       1.711  10.893  10.862  1.00  0.00     0.167 HD
ATOM     65  C   UNL     1       2.100   9.976  13.527  1.00  0.00     0.074 A 
ATOM     66  C   UNL     1       2.286   9.100  14.666  1.00  0.00     0.031 C 
ATOM     67  C   UNL     1       2.028  11.328  13.611  1.00  0.00     0.037 A 
BRANCH  54  68
ATOM     68  C   UNL     1       1.125  14.174   8.190  1.00  0.00     0.058 A 
ATOM     69  C   UNL     1      -0.122  14.532   7.652  1.00  0.00     0.135 A 
ATOM     70  C   UNL     1       2.192  15.072   8.020  1.00  0.00     0.135 A 
ATOM     71  F   UNL     1      -1.171  13.703   7.768  1.00  0.00    -0.206 F 
ATOM     72  C   UNL     1      -0.299  15.718   6.946  1.00  0.00     0.059 A 
ATOM     73  C   UNL     1       2.030  16.277   7.341  1.00  0.00     0.059 A 
ATOM     74  F   UNL     1       3.406  14.780   8.511  1.00  0.00    -0.206 F 
ATOM     75  C   UNL     1       0.784  16.584   6.795  1.00  0.00     0.060 A 
BRANCH  75  76
ATOM     76  S   UNL     1       0.536  18.122   5.884  1.00  0.00     0.124 S 
ATOM     77  O   UNL     1       0.467  17.638   4.508  1.00  0.00    -0.237 OA
ATOM     78  O   UNL     1      -0.717  18.619   6.443  1.00  0.00    -0.237 OA
ATOM     79  O   UNL     1       1.721  18.908   6.214  1.00  0.00    -0.744 OA
ENDBRANCH  75  76
ENDBRANCH  54  68
BRANCH  55  80
ATOM     80  C   UNL     1       2.385   5.337  12.743  1.00  0.00     0.058 A 
ATOM     81  C   UNL     1       1.436   4.799  13.624  1.00  0.00     0.135 A 
ATOM     82  C   UNL     1       3.557   4.599  12.515  1.00  0.00     0.135 A 
ATOM     83  F   UNL     1       0.300   5.467  13.875  1.00  0.00    -0.206 F 
ATOM     84  C   UNL     1       1.649   3.589  14.277  1.00  0.00     0.059 A 
ATOM     85  C   UNL     1       3.783   3.375  13.137  1.00  0.00     0.059 A 
ATOM     86  F   UNL     1       4.487   5.059  11.664  1.00  0.00    -0.206 F 
ATOM     87  C   UNL     1       2.829   2.885  14.028  1.00  0.00     0.060 A 
BRANCH  87  88
ATOM     88  S   UNL     1       3.088   1.301  14.857  1.00  0.00     0.124 S 
ATOM     89  O   UNL     1       3.435   1.730  16.206  1.00  0.00    -0.237 OA
ATOM     90  O   UNL     1       1.787   0.657  14.706  1.00  0.00    -0.237 OA
ATOM     91  O   UNL     1       4.171   0.695  14.088  1.00  0.00    -0.744 OA
ENDBRANCH  87  88
ENDBRANCH  55  80
BRANCH  67  92
ATOM     92  C   UNL     1       2.129  11.932  14.982  1.00  0.00     0.058 A 
ATOM     93  C   UNL     1       3.348  11.977  15.676  1.00  0.00     0.135 A 
ATOM     94  C   UNL     1       1.000  12.497  15.597  1.00  0.00     0.135 A 
ATOM     95  F   UNL     1       4.455  11.447  15.133  1.00  0.00    -0.206 F 
ATOM     96  C   UNL     1       3.437  12.530  16.949  1.00  0.00     0.059 A 
ATOM     97  C   UNL     1       1.072  13.079  16.857  1.00  0.00     0.059 A 
ATOM     98  F   UNL     1      -0.186  12.491  14.968  1.00  0.00    -0.206 F 
ATOM     99  C   UNL     1       2.292  13.075  17.533  1.00  0.00     0.060 A 
BRANCH  99 100
ATOM    100  S   UNL     1       2.421  13.800  19.181  1.00  0.00     0.124 S 
ATOM    101  O   UNL     1       2.469  12.609  20.021  1.00  0.00    -0.237 OA
ATOM    102  O   UNL     1       3.663  14.563  19.093  1.00  0.00    -0.237 OA
ATOM    103  O   UNL     1       1.207  14.602  19.294  1.00  0.00    -0.744 OA
ENDBRANCH  99 100
ENDBRANCH  67  92
ENDBRANCH  41  42
ENDBRANCH  33  36
ENDBRANCH  31  32
ENDBRANCH  30  31
ENDBRANCH   1  30
TORSDOF 18
