REMARK SMILES N#Cc1ccc(-c2ccc(F)c(C(=O)NCCCNC(=O)c3ccc(-c4c5nc(c(-c6c(F)cc(S(=O)(=O)[O-])cc6F)c6ccc([nH]6)c(-c6c(F)cc(S(=O)(=O)[O-])cc6F)c6nc(c(-c7c(F)cc(S(=O)(=O)[O-])cc7F)c7ccc4[nH]7)C=C6)C=C5)cc3)c2)cc1
REMARK SMILES IDX 17 1 16 2 15 3 13 4 14 5 12 7 7 8 8 9 88 10 9 11 10 12 11 13
REMARK SMILES IDX 6 14 3 15 4 16 90 17 5 18 89 19 2 20 1 21 18 22 19 23 20 24
REMARK SMILES IDX 21 26 22 27 23 28 87 29 24 30 86 31 25 32 26 33 27 34 80 35
REMARK SMILES IDX 28 36 85 37 79 38 81 39 29 40 84 41 78 42 77 43 30 45 64 46
REMARK SMILES IDX 43 47 63 48 44 49 47 50 62 51 82 52 45 53 46 54 61 56 83 57
REMARK SMILES IDX 48 58 31 59 32 60 41 61 33 62 34 63 40 64 42 65 35 66 36 67
REMARK SMILES IDX 37 68 38 69 39 70 65 71 66 72 75 73 67 74 68 75 74 76 76 77
REMARK SMILES IDX 69 78 70 79 71 80 72 81 73 82 49 83 50 84 59 85 51 86 52 87
REMARK SMILES IDX 58 88 60 89 53 90 54 91 55 92 56 93 57 94
REMARK H PARENT 15 6 19 25 81 44 47 55
REMARK Flexibility Score: inf
ROOT
ATOM      1  C   UNL     1       9.761   1.253   1.185  1.00  0.00     0.042 C 
ENDROOT
BRANCH   1   2
ATOM      2  C   UNL     1       8.924   0.296   2.030  1.00  0.00     0.118 C 
BRANCH   2   3
ATOM      3  N   UNL     1       7.778   0.977   2.592  1.00  0.00    -0.352 N 
ATOM      4  C   UNL     1       6.469   1.086   2.223  1.00  0.00     0.254 C 
ATOM      5  O   UNL     1       5.761   1.751   2.987  1.00  0.00    -0.269 OA
ATOM      6  H   UNL     1       7.988   1.466   3.420  1.00  0.00     0.163 HD
BRANCH   4   7
ATOM      7  C   UNL     1       5.822   0.448   1.039  1.00  0.00     0.076 A 
ATOM      8  C   UNL     1       3.638  -0.116   0.031  1.00  0.00    -0.017 A 
ATOM      9  C   UNL     1       4.304  -0.725  -1.038  1.00  0.00     0.012 A 
ATOM     10  C   UNL     1       4.409   0.447   1.061  1.00  0.00     0.025 A 
ATOM     11  C   UNL     1       5.694  -0.719  -1.092  1.00  0.00     0.041 A 
ATOM     12  C   UNL     1       6.439  -0.107  -0.081  1.00  0.00     0.135 A 
ATOM     13  F   UNL     1       7.755  -0.039  -0.297  1.00  0.00    -0.206 F 
BRANCH   8  14
ATOM     14  C   UNL     1       2.174  -0.059   0.064  1.00  0.00    -0.018 A 
ATOM     15  C   UNL     1      -0.642   0.037   0.033  1.00  0.00     0.052 A 
ATOM     16  C   UNL     1       0.099   1.222   0.050  1.00  0.00     0.020 A 
ATOM     17  C   UNL     1       0.020  -1.194   0.046  1.00  0.00     0.020 A 
ATOM     18  C   UNL     1       1.497   1.172   0.069  1.00  0.00     0.010 A 
ATOM     19  C   UNL     1       1.415  -1.239   0.061  1.00  0.00     0.010 A 
BRANCH  15  20
ATOM     20  C   UNL     1      -2.075   0.077  -0.009  1.00  0.00     0.099 C 
ATOM     21  N   UNL     1      -3.233   0.093  -0.047  1.00  0.00    -0.192 NA
ENDBRANCH  15  20
ENDBRANCH   8  14
ENDBRANCH   4   7
ENDBRANCH   2   3
ENDBRANCH   1   2
BRANCH   1  22
ATOM     22  C   UNL     1      10.734   2.067   2.033  1.00  0.00     0.118 C 
BRANCH  22  23
ATOM     23  N   UNL     1      11.739   1.214   2.666  1.00  0.00    -0.352 N 
ATOM     24  C   UNL     1      13.103   1.212   2.520  1.00  0.00     0.251 C 
ATOM     25  H   UNL     1      11.384   0.542   3.291  1.00  0.00     0.163 HD
ATOM     26  O   UNL     1      13.764   0.258   2.920  1.00  0.00    -0.269 OA
BRANCH  24  27
ATOM     27  C   UNL     1      13.759   2.366   1.881  1.00  0.00     0.039 A 
ATOM     28  C   UNL     1      14.782   2.156   0.953  1.00  0.00     0.014 A 
ATOM     29  C   UNL     1      13.345   3.659   2.205  1.00  0.00     0.014 A 
ATOM     30  C   UNL     1      15.346   3.252   0.299  1.00  0.00     0.010 A 
ATOM     31  C   UNL     1      13.834   4.734   1.482  1.00  0.00     0.010 A 
ATOM     32  C   UNL     1      14.850   4.543   0.534  1.00  0.00    -0.014 A 
BRANCH  32  33
ATOM     33  C   UNL     1      15.387   5.738  -0.158  1.00  0.00     0.031 A 
ATOM     34  C   UNL     1      16.000   6.841   0.658  1.00  0.00     0.074 A 
ATOM     35  C   UNL     1      15.224   5.878  -1.487  1.00  0.00     0.049 A 
ATOM     36  N   UNL     1      16.366   8.038   0.286  1.00  0.00    -0.248 NA
ATOM     37  C   UNL     1      16.188   6.574   2.095  1.00  0.00     0.031 C 
ATOM     38  C   UNL     1      14.620   4.882  -2.374  1.00  0.00     0.029 A 
ATOM     39  N   UNL     1      15.531   6.923  -2.321  1.00  0.00    -0.354 N 
ATOM     40  C   UNL     1      16.800   8.672   1.444  1.00  0.00     0.074 A 
ATOM     41  C   UNL     1      16.591   7.753   2.539  1.00  0.00     0.031 C 
ATOM     42  C   UNL     1      14.618   5.357  -3.630  1.00  0.00     0.029 A 
ATOM     43  C   UNL     1      15.165   6.712  -3.629  1.00  0.00     0.049 A 
ATOM     44  H   UNL     1      15.972   7.748  -2.011  1.00  0.00     0.167 HD
ATOM     45  C   UNL     1      17.347   9.903   1.574  1.00  0.00     0.037 A 
ATOM     46  C   UNL     1      15.240   7.524  -4.702  1.00  0.00     0.037 A 
ATOM     47  C   UNL     1      17.566  10.794   0.467  1.00  0.00     0.049 A 
ATOM     48  C   UNL     1      15.819   8.902  -4.534  1.00  0.00     0.074 A 
ATOM     49  C   UNL     1      18.161  12.042   0.478  1.00  0.00     0.029 A 
ATOM     50  N   UNL     1      17.192  10.538  -0.845  1.00  0.00    -0.354 N 
ATOM     51  N   UNL     1      16.269   9.476  -3.443  1.00  0.00    -0.248 NA
ATOM     52  C   UNL     1      15.903   9.746  -5.734  1.00  0.00     0.031 C 
ATOM     53  C   UNL     1      18.082  12.570  -0.812  1.00  0.00     0.029 A 
ATOM     54  C   UNL     1      17.514  11.619  -1.647  1.00  0.00     0.049 A 
ATOM     55  H   UNL     1      16.762   9.710  -1.159  1.00  0.00     0.167 HD
ATOM     56  C   UNL     1      16.720  10.733  -3.829  1.00  0.00     0.074 A 
ATOM     57  C   UNL     1      16.484  10.840  -5.254  1.00  0.00     0.031 C 
ATOM     58  C   UNL     1      17.287  11.704  -3.070  1.00  0.00     0.037 A 
BRANCH  45  59
ATOM     59  C   UNL     1      17.736  10.357   2.955  1.00  0.00     0.058 A 
ATOM     60  C   UNL     1      17.079  11.443   3.557  1.00  0.00     0.135 A 
ATOM     61  C   UNL     1      18.776   9.745   3.674  1.00  0.00     0.135 A 
ATOM     62  F   UNL     1      16.074  12.065   2.921  1.00  0.00    -0.206 F 
ATOM     63  C   UNL     1      17.442  11.906   4.817  1.00  0.00     0.059 A 
ATOM     64  C   UNL     1      19.129  10.167   4.952  1.00  0.00     0.059 A 
ATOM     65  F   UNL     1      19.427   8.690   3.156  1.00  0.00    -0.206 F 
ATOM     66  C   UNL     1      18.463  11.256   5.510  1.00  0.00     0.060 A 
BRANCH  66  67
ATOM     67  S   UNL     1      18.874  11.830   7.171  1.00  0.00     0.124 S 
ATOM     68  O   UNL     1      19.461  13.137   6.902  1.00  0.00    -0.237 OA
ATOM     69  O   UNL     1      17.567  11.838   7.821  1.00  0.00    -0.237 OA
ATOM     70  O   UNL     1      19.800  10.813   7.660  1.00  0.00    -0.744 OA
ENDBRANCH  66  67
ENDBRANCH  45  59
BRANCH  46  71
ATOM     71  C   UNL     1      14.781   7.021  -6.024  1.00  0.00     0.058 A 
ATOM     72  C   UNL     1      13.425   6.761  -6.278  1.00  0.00     0.135 A 
ATOM     73  C   UNL     1      15.706   6.698  -7.028  1.00  0.00     0.135 A 
ATOM     74  F   UNL     1      12.500   7.039  -5.346  1.00  0.00    -0.206 F 
ATOM     75  C   UNL     1      13.007   6.156  -7.458  1.00  0.00     0.059 A 
ATOM     76  C   UNL     1      15.310   6.117  -8.230  1.00  0.00     0.059 A 
ATOM     77  F   UNL     1      17.012   6.939  -6.838  1.00  0.00    -0.206 F 
ATOM     78  C   UNL     1      13.960   5.827  -8.424  1.00  0.00     0.060 A 
BRANCH  78  79
ATOM     79  S   UNL     1      13.403   4.981  -9.919  1.00  0.00     0.124 S 
ATOM     80  O   UNL     1      12.918   3.716  -9.376  1.00  0.00    -0.237 OA
ATOM     81  O   UNL     1      12.378   5.892 -10.418  1.00  0.00    -0.237 OA
ATOM     82  O   UNL     1      14.613   4.893 -10.730  1.00  0.00    -0.744 OA
ENDBRANCH  78  79
ENDBRANCH  46  71
BRANCH  58  83
ATOM     83  C   UNL     1      17.741  12.970  -3.745  1.00  0.00     0.058 A 
ATOM     84  C   UNL     1      19.112  13.271  -3.815  1.00  0.00     0.135 A 
ATOM     85  C   UNL     1      16.831  13.950  -4.168  1.00  0.00     0.135 A 
ATOM     86  F   UNL     1      20.024  12.370  -3.417  1.00  0.00    -0.206 F 
ATOM     87  C   UNL     1      19.562  14.518  -4.232  1.00  0.00     0.059 A 
ATOM     88  C   UNL     1      17.262  15.195  -4.620  1.00  0.00     0.059 A 
ATOM     89  F   UNL     1      15.511  13.707  -4.133  1.00  0.00    -0.206 F 
ATOM     90  C   UNL     1      18.628  15.478  -4.621  1.00  0.00     0.060 A 
BRANCH  90  91
ATOM     91  S   UNL     1      19.232  17.108  -5.107  1.00  0.00     0.124 S 
ATOM     92  O   UNL     1      19.785  17.610  -3.854  1.00  0.00    -0.237 OA
ATOM     93  O   UNL     1      20.206  16.776  -6.143  1.00  0.00    -0.237 OA
ATOM     94  O   UNL     1      18.030  17.789  -5.580  1.00  0.00    -0.744 OA
ENDBRANCH  90  91
ENDBRANCH  58  83
ENDBRANCH  32  33
ENDBRANCH  24  27
ENDBRANCH  22  23
ENDBRANCH   1  22
TORSDOF 15
