REMARK SMILES CCc1ccc(N2C(=O)C[C@@H](SC[C@@H](NC(C)=O)C(=O)NCCCNC(=O)c3ccc(-c4c5nc(c(-c6c(F)cc(S(=O)(=O)[O-])cc6F)c6ccc([nH]6)c(-c6c(F)cc(S(=O)(=O)[O-])cc6F)c6nc(c(-c7c(F)cc(S(=O)(=O)[O-])cc7F)c7ccc4[nH]7)C=C6)C=C5)cc3)C2=O)cc1
REMARK SMILES IDX 22 1 21 2 19 3 20 4 14 6 13 7 12 8 11 9 7 10 8 11 94 12 9 13
REMARK SMILES IDX 10 14 95 15 6 16 3 17 4 18 97 19 5 20 96 21 2 22 1 23 15 24
REMARK SMILES IDX 16 25 17 27 18 28 23 29 24 30 25 31 26 32 27 34 28 35 29 36
REMARK SMILES IDX 93 37 30 38 92 39 31 40 32 41 33 42 86 43 34 44 91 45 85 46
REMARK SMILES IDX 87 47 35 48 90 49 84 50 83 51 36 53 70 54 49 55 69 56 50 57
REMARK SMILES IDX 53 58 68 59 88 60 51 61 52 62 67 64 89 65 54 66 37 67 38 68
REMARK SMILES IDX 47 69 39 70 40 71 46 72 48 73 41 74 42 75 43 76 44 77 45 78
REMARK SMILES IDX 71 79 72 80 81 81 73 82 74 83 80 84 82 85 75 86 76 87 77 88
REMARK SMILES IDX 78 89 79 90 55 91 56 92 65 93 57 94 58 95 64 96 66 97 59 98
REMARK SMILES IDX 60 99 61 100 62 101 63 102
REMARK H PARENT 21 5 15 26 25 33 87 52 53 63
REMARK Flexibility Score: inf
ROOT
ATOM      1  C   UNL     1       5.543   4.879  -2.135  1.00  0.00     0.117 C 
ENDROOT
BRANCH   1   2
ATOM      2  N   UNL     1       6.769   5.404  -2.705  1.00  0.00    -0.354 N 
ATOM      3  C   UNL     1       6.952   6.338  -3.681  1.00  0.00     0.243 C 
ATOM      4  O   UNL     1       8.095   6.479  -4.128  1.00  0.00    -0.273 OA
ATOM      5  H   UNL     1       7.597   5.027  -2.330  1.00  0.00     0.163 HD
BRANCH   3   6
ATOM      6  C   UNL     1       5.754   7.042  -4.351  1.00  0.00     0.181 C 
BRANCH   6   7
ATOM      7  C   UNL     1       5.169   6.023  -5.357  1.00  0.00     0.105 C 
BRANCH   7   8
ATOM      8  S   UNL     1       4.023   6.754  -6.593  1.00  0.00    -0.145 SA
BRANCH   8   9
ATOM      9  C   UNL     1       2.350   6.193  -6.099  1.00  0.00     0.146 C 
ATOM     10  N   UNL     1       1.756   5.214  -4.044  1.00  0.00    -0.250 N 
ATOM     11  C   UNL     1       1.541   6.567  -3.918  1.00  0.00     0.235 C 
ATOM     12  C   UNL     1       2.270   4.920  -5.295  1.00  0.00     0.247 C 
ATOM     13  O   UNL     1       1.364   7.240  -2.913  1.00  0.00    -0.274 OA
ATOM     14  C   UNL     1       1.640   7.221  -5.258  1.00  0.00     0.125 C 
ATOM     15  O   UNL     1       2.639   3.843  -5.744  1.00  0.00    -0.273 OA
BRANCH  10  16
ATOM     16  C   UNL     1       1.523   4.262  -2.995  1.00  0.00     0.052 A 
ATOM     17  C   UNL     1       0.979   2.358  -0.918  1.00  0.00    -0.048 A 
ATOM     18  C   UNL     1       1.655   1.987  -2.079  1.00  0.00     0.006 A 
ATOM     19  C   UNL     1       0.585   3.694  -0.799  1.00  0.00     0.006 A 
ATOM     20  C   UNL     1       1.915   2.920  -3.099  1.00  0.00     0.027 A 
ATOM     21  C   UNL     1       0.850   4.623  -1.816  1.00  0.00     0.027 A 
BRANCH  17  22
ATOM     22  C   UNL     1       0.635   1.405   0.204  1.00  0.00     0.032 C 
ATOM     23  C   UNL     1       1.039  -0.052   0.022  1.00  0.00     0.009 C 
ENDBRANCH  17  22
ENDBRANCH  10  16
ENDBRANCH   8   9
ENDBRANCH   7   8
ENDBRANCH   6   7
BRANCH   6  24
ATOM     24  N   UNL     1       4.748   7.543  -3.407  1.00  0.00    -0.344 N 
ATOM     25  C   UNL     1       5.089   8.293  -2.301  1.00  0.00     0.217 C 
ATOM     26  H   UNL     1       3.799   7.337  -3.568  1.00  0.00     0.164 HD
ATOM     27  C   UNL     1       3.898   8.785  -1.524  1.00  0.00     0.114 C 
ATOM     28  O   UNL     1       6.239   8.500  -1.938  1.00  0.00    -0.275 OA
ENDBRANCH   6  24
ENDBRANCH   3   6
ENDBRANCH   1   2
BRANCH   1  29
ATOM     29  C   UNL     1       5.525   3.360  -2.198  1.00  0.00     0.042 C 
BRANCH  29  30
ATOM     30  C   UNL     1       6.493   2.710  -1.223  1.00  0.00     0.118 C 
BRANCH  30  31
ATOM     31  N   UNL     1       6.093   2.922   0.162  1.00  0.00    -0.352 N 
ATOM     32  C   UNL     1       5.838   1.993   1.140  1.00  0.00     0.251 C 
ATOM     33  H   UNL     1       5.992   3.862   0.435  1.00  0.00     0.163 HD
ATOM     34  O   UNL     1       5.294   2.335   2.186  1.00  0.00    -0.269 OA
BRANCH  32  35
ATOM     35  C   UNL     1       6.206   0.581   0.914  1.00  0.00     0.039 A 
ATOM     36  C   UNL     1       5.308  -0.424   1.283  1.00  0.00     0.014 A 
ATOM     37  C   UNL     1       7.431   0.252   0.328  1.00  0.00     0.014 A 
ATOM     38  C   UNL     1       5.616  -1.756   1.004  1.00  0.00     0.010 A 
ATOM     39  C   UNL     1       7.694  -1.063  -0.032  1.00  0.00     0.010 A 
ATOM     40  C   UNL     1       6.794  -2.082   0.312  1.00  0.00    -0.014 A 
BRANCH  40  41
ATOM     41  C   UNL     1       7.117  -3.484  -0.051  1.00  0.00     0.031 A 
ATOM     42  C   UNL     1       8.350  -4.138   0.512  1.00  0.00     0.074 A 
ATOM     43  C   UNL     1       6.344  -4.136  -0.942  1.00  0.00     0.049 A 
ATOM     44  N   UNL     1       8.850  -5.318   0.253  1.00  0.00    -0.248 NA
ATOM     45  C   UNL     1       9.143  -3.348   1.469  1.00  0.00     0.031 C 
ATOM     46  C   UNL     1       5.158  -3.582  -1.599  1.00  0.00     0.029 A 
ATOM     47  N   UNL     1       6.447  -5.402  -1.458  1.00  0.00    -0.354 N 
ATOM     48  C   UNL     1      10.023  -5.403   0.994  1.00  0.00     0.074 A 
ATOM     49  C   UNL     1      10.189  -4.136   1.671  1.00  0.00     0.031 C 
ATOM     50  C   UNL     1       4.631  -4.512  -2.412  1.00  0.00     0.029 A 
ATOM     51  C   UNL     1       5.460  -5.712  -2.363  1.00  0.00     0.049 A 
ATOM     52  H   UNL     1       7.162  -6.030  -1.205  1.00  0.00     0.167 HD
ATOM     53  C   UNL     1      10.869  -6.452   1.121  1.00  0.00     0.037 A 
ATOM     54  C   UNL     1       5.251  -6.835  -3.076  1.00  0.00     0.037 A 
ATOM     55  C   UNL     1      10.676  -7.721   0.472  1.00  0.00     0.049 A 
ATOM     56  C   UNL     1       6.194  -7.994  -2.904  1.00  0.00     0.074 A 
ATOM     57  C   UNL     1      11.437  -8.870   0.584  1.00  0.00     0.029 A 
ATOM     58  N   UNL     1       9.643  -8.008  -0.410  1.00  0.00    -0.354 N 
ATOM     59  N   UNL     1       7.263  -8.081  -2.148  1.00  0.00    -0.248 NA
ATOM     60  C   UNL     1       5.901  -9.210  -3.674  1.00  0.00     0.031 C 
ATOM     61  C   UNL     1      10.886  -9.842  -0.259  1.00  0.00     0.029 A 
ATOM     62  C   UNL     1       9.756  -9.312  -0.861  1.00  0.00     0.049 A 
ATOM     63  H   UNL     1       8.935  -7.378  -0.675  1.00  0.00     0.167 HD
ATOM     64  C   UNL     1       7.755  -9.368  -2.332  1.00  0.00     0.074 A 
ATOM     65  C   UNL     1       6.861 -10.027  -3.262  1.00  0.00     0.031 C 
ATOM     66  C   UNL     1       8.848  -9.952  -1.781  1.00  0.00     0.037 A 
BRANCH  53  67
ATOM     67  C   UNL     1      12.074  -6.271   2.003  1.00  0.00     0.058 A 
ATOM     68  C   UNL     1      11.955  -6.168   3.399  1.00  0.00     0.135 A 
ATOM     69  C   UNL     1      13.364  -6.222   1.452  1.00  0.00     0.135 A 
ATOM     70  F   UNL     1      10.744  -6.191   3.978  1.00  0.00    -0.206 F 
ATOM     71  C   UNL     1      13.069  -5.992   4.214  1.00  0.00     0.059 A 
ATOM     72  C   UNL     1      14.495  -6.075   2.251  1.00  0.00     0.059 A 
ATOM     73  F   UNL     1      13.536  -6.314   0.124  1.00  0.00    -0.206 F 
ATOM     74  C   UNL     1      14.335  -5.945   3.630  1.00  0.00     0.060 A 
BRANCH  74  75
ATOM     75  S   UNL     1      15.770  -5.718   4.701  1.00  0.00     0.124 S 
ATOM     76  O   UNL     1      15.652  -4.306   5.051  1.00  0.00    -0.237 OA
ATOM     77  O   UNL     1      15.506  -6.662   5.782  1.00  0.00    -0.237 OA
ATOM     78  O   UNL     1      16.896  -6.059   3.837  1.00  0.00    -0.744 OA
ENDBRANCH  74  75
ENDBRANCH  53  67
BRANCH  54  79
ATOM     79  C   UNL     1       4.083  -6.926  -3.992  1.00  0.00     0.058 A 
ATOM     80  C   UNL     1       2.986  -7.741  -3.679  1.00  0.00     0.135 A 
ATOM     81  C   UNL     1       4.030  -6.187  -5.184  1.00  0.00     0.135 A 
ATOM     82  F   UNL     1       2.992  -8.470  -2.552  1.00  0.00    -0.206 F 
ATOM     83  C   UNL     1       1.882  -7.834  -4.521  1.00  0.00     0.059 A 
ATOM     84  C   UNL     1       2.927  -6.244  -6.031  1.00  0.00     0.059 A 
ATOM     85  F   UNL     1       5.046  -5.377  -5.519  1.00  0.00    -0.206 F 
ATOM     86  C   UNL     1       1.861  -7.079  -5.695  1.00  0.00     0.060 A 
BRANCH  86  87
ATOM     87  S   UNL     1       0.401  -7.165  -6.754  1.00  0.00     0.124 S 
ATOM     88  O   UNL     1       0.560  -8.479  -7.367  1.00  0.00    -0.237 OA
ATOM     89  O   UNL     1      -0.686  -7.038  -5.788  1.00  0.00    -0.237 OA
ATOM     90  O   UNL     1       0.569  -6.024  -7.649  1.00  0.00    -0.744 OA
ENDBRANCH  86  87
ENDBRANCH  54  79
BRANCH  66  91
ATOM     91  C   UNL     1       9.120 -11.384  -2.143  1.00  0.00     0.058 A 
ATOM     92  C   UNL     1       9.619 -11.744  -3.404  1.00  0.00     0.135 A 
ATOM     93  C   UNL     1       8.930 -12.403  -1.195  1.00  0.00     0.135 A 
ATOM     94  F   UNL     1       9.811 -10.808  -4.347  1.00  0.00    -0.206 F 
ATOM     95  C   UNL     1       9.901 -13.069  -3.721  1.00  0.00     0.059 A 
ATOM     96  C   UNL     1       9.230 -13.730  -1.482  1.00  0.00     0.059 A 
ATOM     97  F   UNL     1       8.465 -12.110   0.030  1.00  0.00    -0.206 F 
ATOM     98  C   UNL     1       9.704 -14.055  -2.752  1.00  0.00     0.060 A 
BRANCH  98  99
ATOM     99  S   UNL     1      10.107 -15.766  -3.164  1.00  0.00     0.124 S 
ATOM    100  O   UNL     1       8.986 -16.132  -4.022  1.00  0.00    -0.237 OA
ATOM    101  O   UNL     1      11.399 -15.632  -3.830  1.00  0.00    -0.237 OA
ATOM    102  O   UNL     1      10.145 -16.428  -1.863  1.00  0.00    -0.744 OA
ENDBRANCH  98  99
ENDBRANCH  66  91
ENDBRANCH  40  41
ENDBRANCH  32  35
ENDBRANCH  30  31
ENDBRANCH  29  30
ENDBRANCH   1  29
TORSDOF 19
