REMARK SMILES Cc1cccc(-c2ncc(C[NH+]3CCC4(CC3)NC(=O)C[C@H]4C(=O)NCCCNC(=O)c3ccc(-c4c5nc(c(-c6c(F)cc(S(=O)(=O)[O-])cc6F)c6ccc([nH]6)c(-c6c(F)cc(S(=O)(=O)[O-])cc6F)c6nc(c(-c7c(F)cc(S(=O)(=O)[O-])cc7F)c7ccc4[nH]7)C=C6)C=C5)cc3)cn2)c1
REMARK SMILES IDX 27 1 26 2 25 3 23 4 24 5 22 7 12 8 13 9 17 10 14 12 16 13
REMARK SMILES IDX 15 14 18 15 19 16 21 18 20 19 11 20 10 21 7 22 8 23 99 24
REMARK SMILES IDX 9 25 98 26 6 27 1 28 2 29 3 30 100 31 4 32 5 33 28 34 29 35
REMARK SMILES IDX 30 36 31 38 32 39 33 40 97 41 34 42 96 43 35 44 36 45 37 46
REMARK SMILES IDX 90 47 38 48 95 49 89 50 91 51 39 52 94 53 88 54 87 55 40 57
REMARK SMILES IDX 74 58 53 59 73 60 54 61 57 62 72 63 92 64 55 65 56 66 71 68
REMARK SMILES IDX 93 69 58 70 41 71 42 72 51 73 43 74 44 75 50 76 52 77 45 78
REMARK SMILES IDX 46 79 47 80 48 81 49 82 75 83 76 84 85 85 77 86 78 87 84 88
REMARK SMILES IDX 86 89 79 90 80 91 81 92 82 93 83 94 59 95 60 96 69 97 61 98
REMARK SMILES IDX 62 99 68 100 70 101 63 102 64 103 65 104 66 105 67 106
REMARK H PARENT 25 6 12 11 18 17 29 37 91 56 57 67
REMARK Flexibility Score: inf
ROOT
ATOM      1  C   UNL     1      -0.016   3.025  -2.772  1.00  0.00     0.042 C 
ENDROOT
BRANCH   1   2
ATOM      2  C   UNL     1       1.231   3.900  -2.872  1.00  0.00     0.117 C 
BRANCH   2   3
ATOM      3  N   UNL     1       1.004   5.318  -3.178  1.00  0.00    -0.356 N 
ATOM      4  C   UNL     1       0.942   6.466  -2.443  1.00  0.00     0.226 C 
ATOM      5  O   UNL     1       0.842   7.524  -3.079  1.00  0.00    -0.275 OA
ATOM      6  H   UNL     1       0.865   5.478  -4.139  1.00  0.00     0.163 HD
BRANCH   4   7
ATOM      7  C   UNL     1       0.898   6.552  -0.906  1.00  0.00     0.114 C 
ATOM      8  N   UNL     1      -3.121   6.932   0.138  1.00  0.00    -0.331 N 
ATOM      9  C   UNL     1      -2.095   7.355   1.080  1.00  0.00     0.264 C 
ATOM     10  C   UNL     1      -2.550   6.751  -1.183  1.00  0.00     0.264 C 
ATOM     11  H   UNL     1      -3.763   7.724   0.117  1.00  0.00     0.348 HD
ATOM     12  C   UNL     1      -0.801   6.530   1.115  1.00  0.00     0.091 C 
ATOM     13  C   UNL     1      -1.482   5.675  -1.191  1.00  0.00     0.091 C 
ATOM     14  C   UNL     1      -0.315   5.883  -0.221  1.00  0.00     0.063 C 
ATOM     15  N   UNL     1       0.287   4.628   0.209  1.00  0.00    -0.349 N 
ATOM     16  C   UNL     1       1.659   4.677   0.353  1.00  0.00     0.221 C 
ATOM     17  H   UNL     1      -0.239   3.815   0.381  1.00  0.00     0.164 HD
ATOM     18  C   UNL     1       2.153   5.953  -0.270  1.00  0.00     0.116 C 
ATOM     19  O   UNL     1       2.337   3.841   0.904  1.00  0.00    -0.275 OA
BRANCH   8  20
ATOM     20  C   UNL     1      -4.145   5.950   0.547  1.00  0.00     0.302 C 
BRANCH  20  21
ATOM     21  C   UNL     1      -3.760   4.495   0.575  1.00  0.00     0.043 A 
ATOM     22  C   UNL     1      -2.549   2.055   0.427  1.00  0.00     0.159 A 
ATOM     23  N   UNL     1      -2.412   2.764   1.566  1.00  0.00    -0.236 NA
ATOM     24  N   UNL     1      -3.340   2.423  -0.601  1.00  0.00    -0.236 NA
ATOM     25  C   UNL     1      -3.062   3.945   1.626  1.00  0.00     0.124 A 
ATOM     26  C   UNL     1      -3.930   3.638  -0.502  1.00  0.00     0.124 A 
BRANCH  22  27
ATOM     27  C   UNL     1      -1.686   0.876   0.265  1.00  0.00     0.019 A 
ATOM     28  C   UNL     1       2.058   0.052   0.031  1.00  0.00     0.044 C 
ATOM     29  C   UNL     1       0.567  -0.116   0.099  1.00  0.00    -0.050 A 
ATOM     30  C   UNL     1      -0.006  -1.378  -0.041  1.00  0.00     0.003 A 
ATOM     31  C   UNL     1      -0.279   0.989   0.278  1.00  0.00     0.015 A 
ATOM     32  C   UNL     1      -1.394  -1.522  -0.046  1.00  0.00     0.001 A 
ATOM     33  C   UNL     1      -2.226  -0.403   0.087  1.00  0.00     0.012 A 
ENDBRANCH  22  27
ENDBRANCH  20  21
ENDBRANCH   8  20
ENDBRANCH   4   7
ENDBRANCH   2   3
ENDBRANCH   1   2
BRANCH   1  34
ATOM     34  C   UNL     1      -0.572   2.504  -4.090  1.00  0.00     0.118 C 
BRANCH  34  35
ATOM     35  N   UNL     1      -0.268   1.079  -4.229  1.00  0.00    -0.352 N 
ATOM     36  C   UNL     1      -1.028   0.044  -4.739  1.00  0.00     0.251 C 
ATOM     37  H   UNL     1       0.624   0.814  -3.906  1.00  0.00     0.163 HD
ATOM     38  O   UNL     1      -0.875  -1.134  -4.449  1.00  0.00    -0.269 OA
BRANCH  36  39
ATOM     39  C   UNL     1      -1.932   0.412  -5.836  1.00  0.00     0.039 A 
ATOM     40  C   UNL     1      -1.397   0.235  -7.123  1.00  0.00     0.014 A 
ATOM     41  C   UNL     1      -2.922   1.341  -5.556  1.00  0.00     0.014 A 
ATOM     42  C   UNL     1      -1.661   1.185  -8.089  1.00  0.00     0.010 A 
ATOM     43  C   UNL     1      -3.075   2.354  -6.465  1.00  0.00     0.010 A 
ATOM     44  C   UNL     1      -2.400   2.290  -7.696  1.00  0.00    -0.014 A 
BRANCH  44  45
ATOM     45  C   UNL     1      -2.639   3.433  -8.540  1.00  0.00     0.031 A 
ATOM     46  C   UNL     1      -3.927   3.431  -9.246  1.00  0.00     0.074 A 
ATOM     47  C   UNL     1      -1.796   4.482  -8.448  1.00  0.00     0.049 A 
ATOM     48  N   UNL     1      -4.223   4.199 -10.225  1.00  0.00    -0.248 NA
ATOM     49  C   UNL     1      -5.004   2.497  -8.909  1.00  0.00     0.031 C 
ATOM     50  C   UNL     1      -2.006   5.859  -8.875  1.00  0.00     0.029 A 
ATOM     51  N   UNL     1      -0.442   4.438  -8.090  1.00  0.00    -0.354 N 
ATOM     52  C   UNL     1      -5.588   4.113 -10.413  1.00  0.00     0.074 A 
ATOM     53  C   UNL     1      -6.008   2.970  -9.647  1.00  0.00     0.031 C 
ATOM     54  C   UNL     1      -0.808   6.449  -9.042  1.00  0.00     0.029 A 
ATOM     55  C   UNL     1       0.202   5.415  -8.874  1.00  0.00     0.049 A 
ATOM     56  H   UNL     1      -0.025   3.844  -7.425  1.00  0.00     0.167 HD
ATOM     57  C   UNL     1      -6.200   5.142 -11.060  1.00  0.00     0.037 A 
ATOM     58  C   UNL     1       1.071   5.023  -9.855  1.00  0.00     0.037 A 
ATOM     59  C   UNL     1      -5.181   6.075 -11.543  1.00  0.00     0.049 A 
ATOM     60  C   UNL     1       0.554   5.359 -11.238  1.00  0.00     0.074 A 
ATOM     61  C   UNL     1      -4.653   7.235 -10.999  1.00  0.00     0.029 A 
ATOM     62  N   UNL     1      -4.267   5.634 -12.493  1.00  0.00    -0.354 N 
ATOM     63  N   UNL     1      -0.713   5.471 -11.544  1.00  0.00    -0.248 NA
ATOM     64  C   UNL     1       1.430   5.696 -12.355  1.00  0.00     0.031 C 
ATOM     65  C   UNL     1      -3.380   7.453 -11.588  1.00  0.00     0.029 A 
ATOM     66  C   UNL     1      -3.140   6.433 -12.494  1.00  0.00     0.049 A 
ATOM     67  H   UNL     1      -4.404   4.859 -13.085  1.00  0.00     0.167 HD
ATOM     68  C   UNL     1      -0.837   5.914 -12.839  1.00  0.00     0.074 A 
ATOM     69  C   UNL     1       0.535   6.043 -13.297  1.00  0.00     0.031 C 
ATOM     70  C   UNL     1      -2.048   6.175 -13.424  1.00  0.00     0.037 A 
BRANCH  57  71
ATOM     71  C   UNL     1      -7.677   5.463 -10.986  1.00  0.00     0.058 A 
ATOM     72  C   UNL     1      -8.111   6.798 -11.146  1.00  0.00     0.135 A 
ATOM     73  C   UNL     1      -8.711   4.540 -10.724  1.00  0.00     0.135 A 
ATOM     74  F   UNL     1      -7.257   7.785 -11.447  1.00  0.00    -0.206 F 
ATOM     75  C   UNL     1      -9.440   7.194 -10.998  1.00  0.00     0.059 A 
ATOM     76  C   UNL     1     -10.046   4.918 -10.531  1.00  0.00     0.059 A 
ATOM     77  F   UNL     1      -8.488   3.222 -10.693  1.00  0.00    -0.206 F 
ATOM     78  C   UNL     1     -10.402   6.251 -10.673  1.00  0.00     0.060 A 
BRANCH  78  79
ATOM     79  S   UNL     1     -12.108   6.793 -10.485  1.00  0.00     0.124 S 
ATOM     80  O   UNL     1     -11.996   7.797  -9.431  1.00  0.00    -0.237 OA
ATOM     81  O   UNL     1     -12.412   7.303 -11.818  1.00  0.00    -0.237 OA
ATOM     82  O   UNL     1     -12.815   5.572 -10.106  1.00  0.00    -0.744 OA
ENDBRANCH  78  79
ENDBRANCH  57  71
BRANCH  58  83
ATOM     83  C   UNL     1       1.875   3.827  -9.449  1.00  0.00     0.058 A 
ATOM     84  C   UNL     1       2.766   3.993  -8.366  1.00  0.00     0.135 A 
ATOM     85  C   UNL     1       1.461   2.519  -9.738  1.00  0.00     0.135 A 
ATOM     86  F   UNL     1       3.209   5.221  -8.047  1.00  0.00    -0.206 F 
ATOM     87  C   UNL     1       3.093   2.947  -7.507  1.00  0.00     0.059 A 
ATOM     88  C   UNL     1       1.791   1.449  -8.894  1.00  0.00     0.059 A 
ATOM     89  F   UNL     1       0.622   2.284 -10.756  1.00  0.00    -0.206 F 
ATOM     90  C   UNL     1       2.555   1.687  -7.749  1.00  0.00     0.060 A 
BRANCH  90  91
ATOM     91  S   UNL     1       2.739   0.425  -6.462  1.00  0.00     0.124 S 
ATOM     92  O   UNL     1       4.160   0.112  -6.552  1.00  0.00    -0.237 OA
ATOM     93  O   UNL     1       2.329   1.148  -5.256  1.00  0.00    -0.237 OA
ATOM     94  O   UNL     1       1.829  -0.627  -6.896  1.00  0.00    -0.744 OA
ENDBRANCH  90  91
ENDBRANCH  58  83
BRANCH  70  95
ATOM     95  C   UNL     1      -2.328   6.329 -14.912  1.00  0.00     0.058 A 
ATOM     96  C   UNL     1      -1.458   5.910 -15.931  1.00  0.00     0.135 A 
ATOM     97  C   UNL     1      -3.594   6.792 -15.367  1.00  0.00     0.135 A 
ATOM     98  F   UNL     1      -0.286   5.320 -15.664  1.00  0.00    -0.206 F 
ATOM     99  C   UNL     1      -1.774   6.028 -17.286  1.00  0.00     0.059 A 
ATOM    100  C   UNL     1      -3.962   6.836 -16.708  1.00  0.00     0.059 A 
ATOM    101  F   UNL     1      -4.549   7.209 -14.524  1.00  0.00    -0.206 F 
ATOM    102  C   UNL     1      -3.028   6.490 -17.666  1.00  0.00     0.060 A 
BRANCH 102 103
ATOM    103  S   UNL     1      -3.438   6.603 -19.412  1.00  0.00     0.124 S 
ATOM    104  O   UNL     1      -2.782   7.854 -19.780  1.00  0.00    -0.237 OA
ATOM    105  O   UNL     1      -2.836   5.390 -19.956  1.00  0.00    -0.237 OA
ATOM    106  O   UNL     1      -4.897   6.628 -19.419  1.00  0.00    -0.744 OA
ENDBRANCH 102 103
ENDBRANCH  70  95
ENDBRANCH  44  45
ENDBRANCH  36  39
ENDBRANCH  34  35
ENDBRANCH   1  34
TORSDOF 16
