REMARK SMILES C/C=C/C=C/C=C/C(=O)O[C@H]1C=C(C=O)[C@@](O)(C(=O)NCCCNC(=O)c2ccc(-c3c4nc(c(-c5c(F)cc(S(=O)(=O)[O-])cc5F)c5ccc([nH]5)c(-c5c(F)cc(S(=O)(=O)[O-])cc5F)c5nc(c(-c6c(F)cc(S(=O)(=O)[O-])cc6F)c6ccc3[nH]6)C=C5)C=C4)cc2)[C@]2(C)CCCC(C)(C)[C@@H]12
REMARK SMILES IDX 21 1 20 2 18 3 19 4 16 6 11 7 12 8 101 9 13 10 93 11 98 12
REMARK SMILES IDX 95 13 94 14 97 15 99 16 100 17 96 18 10 19 8 20 9 21 7 22
REMARK SMILES IDX 6 23 5 24 4 25 3 26 1 27 2 28 14 29 15 30 17 31 22 33 23 34
REMARK SMILES IDX 24 35 25 36 26 38 27 39 28 40 92 41 29 42 91 43 30 44 31 45
REMARK SMILES IDX 32 46 85 47 33 48 90 49 84 50 86 51 34 52 89 53 83 54 82 55
REMARK SMILES IDX 35 57 69 58 48 59 68 60 49 61 52 62 67 63 87 64 50 65 51 66
REMARK SMILES IDX 66 68 88 69 53 70 36 71 37 72 46 73 38 74 39 75 45 76 47 77
REMARK SMILES IDX 40 78 41 79 42 80 43 81 44 82 70 83 71 84 80 85 72 86 73 87
REMARK SMILES IDX 79 88 81 89 74 90 75 91 76 92 77 93 78 94 54 95 55 96 64 97
REMARK SMILES IDX 56 98 57 99 63 100 65 101 58 102 59 103 60 104 61 105 62 106
REMARK H PARENT 20 5 17 32 24 37 86 56 52 67
REMARK Flexibility Score: inf
ROOT
ATOM      1  C   UNL     1       3.510   4.483   2.961  1.00  0.00     0.117 C 
ENDROOT
BRANCH   1   2
ATOM      2  N   UNL     1       3.284   5.017   1.630  1.00  0.00    -0.353 N 
ATOM      3  C   UNL     1       2.228   5.744   1.141  1.00  0.00     0.257 C 
ATOM      4  O   UNL     1       2.301   6.129  -0.029  1.00  0.00    -0.271 OA
ATOM      5  H   UNL     1       3.997   4.828   0.979  1.00  0.00     0.163 HD
BRANCH   3   6
ATOM      6  C   UNL     1       0.992   6.051   2.043  1.00  0.00     0.176 C 
ATOM      7  C   UNL     1      -1.787   6.851   2.983  1.00  0.00     0.204 C 
ATOM      8  C   UNL     1      -1.355   5.722   2.089  1.00  0.00     0.028 C 
ATOM      9  C   UNL     1      -0.456   7.519   3.631  1.00  0.00     0.049 C 
ATOM     10  C   UNL     1      -0.298   5.899   1.280  1.00  0.00     0.033 C 
ATOM     11  C   UNL     1       0.936   7.472   2.760  1.00  0.00     0.017 C 
ATOM     12  C   UNL     1      -0.575   8.667   4.701  1.00  0.00    -0.028 C 
ATOM     13  C   UNL     1       2.122   7.624   3.760  1.00  0.00     0.011 C 
ATOM     14  C   UNL     1       1.140   8.631   1.741  1.00  0.00     0.016 C 
ATOM     15  C   UNL     1       0.768   8.784   5.493  1.00  0.00     0.007 C 
ATOM     16  C   UNL     1      -0.949  10.049   4.154  1.00  0.00     0.011 C 
ATOM     17  C   UNL     1      -1.654   8.282   5.744  1.00  0.00     0.011 C 
ATOM     18  C   UNL     1       2.014   8.875   4.619  1.00  0.00     0.001 C 
BRANCH   7  19
ATOM     19  O   UNL     1      -2.806   7.635   2.334  1.00  0.00    -0.455 OA
BRANCH  19  20
ATOM     20  C   UNL     1      -3.951   7.007   1.856  1.00  0.00     0.331 C 
ATOM     21  O   UNL     1      -5.072   7.460   2.062  1.00  0.00    -0.247 OA
BRANCH  20  22
ATOM     22  C   UNL     1      -3.764   5.897   0.865  1.00  0.00     0.093 C 
ATOM     23  C   UNL     1      -3.702   4.587   1.196  1.00  0.00     0.007 C 
BRANCH  23  24
ATOM     24  C   UNL     1      -2.974   3.620   0.359  1.00  0.00     0.000 C 
ATOM     25  C   UNL     1      -2.168   2.680   0.897  1.00  0.00    -0.000 C 
BRANCH  25  26
ATOM     26  C   UNL     1      -1.205   1.878   0.155  1.00  0.00    -0.005 C 
ATOM     27  C   UNL     1       0.730   0.255   0.048  1.00  0.00     0.035 C 
ATOM     28  C   UNL     1      -0.300   1.083   0.757  1.00  0.00    -0.030 C 
ENDBRANCH  25  26
ENDBRANCH  23  24
ENDBRANCH  20  22
ENDBRANCH  19  20
ENDBRANCH   7  19
BRANCH  10  29
ATOM     29  C   UNL     1      -0.556   6.693   0.044  1.00  0.00     0.259 C 
ATOM     30  O   UNL     1      -1.294   7.673   0.002  1.00  0.00    -0.298 OA
ENDBRANCH  10  29
BRANCH   6  31
ATOM     31  O   UNL     1       0.891   4.993   3.030  1.00  0.00    -0.375 OA
ATOM     32  H   UNL     1       0.128   5.159   3.606  1.00  0.00     0.212 HD
ENDBRANCH   6  31
ENDBRANCH   3   6
ENDBRANCH   1   2
BRANCH   1  33
ATOM     33  C   UNL     1       2.921   3.089   3.179  1.00  0.00     0.042 C 
BRANCH  33  34
ATOM     34  C   UNL     1       3.918   1.994   2.864  1.00  0.00     0.118 C 
BRANCH  34  35
ATOM     35  N   UNL     1       5.054   2.041   3.780  1.00  0.00    -0.352 N 
ATOM     36  C   UNL     1       5.539   1.075   4.615  1.00  0.00     0.251 C 
ATOM     37  H   UNL     1       5.544   2.894   3.798  1.00  0.00     0.163 HD
ATOM     38  O   UNL     1       6.342   1.390   5.502  1.00  0.00    -0.269 OA
BRANCH  36  39
ATOM     39  C   UNL     1       5.102  -0.322   4.463  1.00  0.00     0.039 A 
ATOM     40  C   UNL     1       4.879  -1.095   5.604  1.00  0.00     0.014 A 
ATOM     41  C   UNL     1       4.924  -0.870   3.189  1.00  0.00     0.014 A 
ATOM     42  C   UNL     1       4.424  -2.406   5.466  1.00  0.00     0.010 A 
ATOM     43  C   UNL     1       4.385  -2.141   3.056  1.00  0.00     0.010 A 
ATOM     44  C   UNL     1       4.143  -2.925   4.192  1.00  0.00    -0.014 A 
BRANCH  44  45
ATOM     45  C   UNL     1       3.608  -4.294   4.011  1.00  0.00     0.031 A 
ATOM     46  C   UNL     1       4.414  -5.311   3.251  1.00  0.00     0.074 A 
ATOM     47  C   UNL     1       2.369  -4.586   4.449  1.00  0.00     0.049 A 
ATOM     48  N   UNL     1       4.075  -6.515   2.873  1.00  0.00    -0.248 NA
ATOM     49  C   UNL     1       5.768  -4.909   2.834  1.00  0.00     0.031 C 
ATOM     50  C   UNL     1       1.484  -3.663   5.164  1.00  0.00     0.029 A 
ATOM     51  N   UNL     1       1.631  -5.736   4.342  1.00  0.00    -0.354 N 
ATOM     52  C   UNL     1       5.162  -7.006   2.161  1.00  0.00     0.074 A 
ATOM     53  C   UNL     1       6.151  -5.952   2.113  1.00  0.00     0.031 C 
ATOM     54  C   UNL     1       0.330  -4.288   5.443  1.00  0.00     0.029 A 
ATOM     55  C   UNL     1       0.373  -5.636   4.886  1.00  0.00     0.049 A 
ATOM     56  H   UNL     1       1.970  -6.556   3.915  1.00  0.00     0.167 HD
ATOM     57  C   UNL     1       5.327  -8.234   1.616  1.00  0.00     0.037 A 
ATOM     58  C   UNL     1      -0.638  -6.526   4.916  1.00  0.00     0.037 A 
ATOM     59  C   UNL     1       4.344  -9.282   1.693  1.00  0.00     0.049 A 
ATOM     60  C   UNL     1      -0.437  -7.879   4.290  1.00  0.00     0.074 A 
ATOM     61  C   UNL     1       4.433 -10.580   1.223  1.00  0.00     0.029 A 
ATOM     62  N   UNL     1       3.091  -9.151   2.276  1.00  0.00    -0.354 N 
ATOM     63  N   UNL     1       0.620  -8.350   3.670  1.00  0.00    -0.248 NA
ATOM     64  C   UNL     1      -1.559  -8.823   4.368  1.00  0.00     0.031 C 
ATOM     65  C   UNL     1       3.216 -11.219   1.477  1.00  0.00     0.029 A 
ATOM     66  C   UNL     1       2.390 -10.338   2.157  1.00  0.00     0.049 A 
ATOM     67  H   UNL     1       2.752  -8.335   2.709  1.00  0.00     0.167 HD
ATOM     68  C   UNL     1       0.301  -9.655   3.314  1.00  0.00     0.074 A 
ATOM     69  C   UNL     1      -1.044  -9.901   3.792  1.00  0.00     0.031 C 
ATOM     70  C   UNL     1       1.056 -10.569   2.656  1.00  0.00     0.037 A 
BRANCH  57  71
ATOM     71  C   UNL     1       6.615  -8.511   0.890  1.00  0.00     0.058 A 
ATOM     72  C   UNL     1       7.838  -8.621   1.571  1.00  0.00     0.135 A 
ATOM     73  C   UNL     1       6.622  -8.705  -0.501  1.00  0.00     0.135 A 
ATOM     74  F   UNL     1       7.893  -8.428   2.899  1.00  0.00    -0.206 F 
ATOM     75  C   UNL     1       9.025  -8.886   0.897  1.00  0.00     0.059 A 
ATOM     76  C   UNL     1       7.793  -9.002  -1.192  1.00  0.00     0.059 A 
ATOM     77  F   UNL     1       5.482  -8.609  -1.203  1.00  0.00    -0.206 F 
ATOM     78  C   UNL     1       8.993  -9.075  -0.485  1.00  0.00     0.060 A 
BRANCH  78  79
ATOM     79  S   UNL     1      10.542  -9.424  -1.343  1.00  0.00     0.124 S 
ATOM     80  O   UNL     1      11.204  -8.124  -1.285  1.00  0.00    -0.237 OA
ATOM     81  O   UNL     1      11.129 -10.471  -0.512  1.00  0.00    -0.237 OA
ATOM     82  O   UNL     1      10.109  -9.848  -2.670  1.00  0.00    -0.744 OA
ENDBRANCH  78  79
ENDBRANCH  57  71
BRANCH  58  83
ATOM     83  C   UNL     1      -1.922  -6.167   5.574  1.00  0.00     0.058 A 
ATOM     84  C   UNL     1      -2.307  -6.770   6.780  1.00  0.00     0.135 A 
ATOM     85  C   UNL     1      -2.779  -5.200   5.024  1.00  0.00     0.135 A 
ATOM     86  F   UNL     1      -1.523  -7.702   7.343  1.00  0.00    -0.206 F 
ATOM     87  C   UNL     1      -3.502  -6.442   7.410  1.00  0.00     0.059 A 
ATOM     88  C   UNL     1      -3.967  -4.835   5.649  1.00  0.00     0.059 A 
ATOM     89  F   UNL     1      -2.447  -4.578   3.882  1.00  0.00    -0.206 F 
ATOM     90  C   UNL     1      -4.325  -5.470   6.837  1.00  0.00     0.060 A 
BRANCH  90  91
ATOM     91  S   UNL     1      -5.851  -5.017   7.690  1.00  0.00     0.124 S 
ATOM     92  O   UNL     1      -6.679  -6.193   7.453  1.00  0.00    -0.237 OA
ATOM     93  O   UNL     1      -5.388  -4.825   9.061  1.00  0.00    -0.237 OA
ATOM     94  O   UNL     1      -6.269  -3.799   7.003  1.00  0.00    -0.744 OA
ENDBRANCH  90  91
ENDBRANCH  58  83
BRANCH  70  95
ATOM     95  C   UNL     1       0.474 -11.940   2.451  1.00  0.00     0.058 A 
ATOM     96  C   UNL     1      -0.537 -12.180   1.509  1.00  0.00     0.135 A 
ATOM     97  C   UNL     1       1.000 -13.040   3.148  1.00  0.00     0.135 A 
ATOM     98  F   UNL     1      -1.079 -11.161   0.823  1.00  0.00    -0.206 F 
ATOM     99  C   UNL     1      -1.011 -13.466   1.268  1.00  0.00     0.059 A 
ATOM    100  C   UNL     1       0.560 -14.337   2.903  1.00  0.00     0.059 A 
ATOM    101  F   UNL     1       1.974 -12.864   4.055  1.00  0.00    -0.206 F 
ATOM    102  C   UNL     1      -0.450 -14.539   1.964  1.00  0.00     0.060 A 
BRANCH 102 103
ATOM    103  S   UNL     1      -1.028 -16.207   1.592  1.00  0.00     0.124 S 
ATOM    104  O   UNL     1      -2.352 -16.204   2.206  1.00  0.00    -0.237 OA
ATOM    105  O   UNL     1      -1.006 -16.226   0.133  1.00  0.00    -0.237 OA
ATOM    106  O   UNL     1      -0.038 -17.063   2.239  1.00  0.00    -0.744 OA
ENDBRANCH 102 103
ENDBRANCH  70  95
ENDBRANCH  44  45
ENDBRANCH  36  39
ENDBRANCH  34  35
ENDBRANCH  33  34
ENDBRANCH   1  33
TORSDOF 20
