REMARK SMILES Cc1cc2n(n1)[C@H](C(F)(F)F)CCN2C(=O)c1cnn([C@@H](C)C(=O)NCCCNC(=O)c2ccc(-c3c4nc(c(-c5c(F)cc(S(=O)(=O)[O-])cc5F)c5ccc([nH]5)c(-c5c(F)cc(S(=O)(=O)[O-])cc5F)c5nc(c(-c6c(F)cc(S(=O)(=O)[O-])cc6F)c6ccc3[nH]6)C=C5)C=C4)cc2)c1
REMARK SMILES IDX 26 1 25 2 23 3 24 4 21 6 22 7 20 8 17 9 18 10 98 11 19 12
REMARK SMILES IDX 15 13 16 14 14 15 1 16 2 17 3 18 6 19 4 20 5 21 7 22 13 23
REMARK SMILES IDX 12 24 8 25 9 26 10 27 11 28 27 29 28 30 29 31 30 32 31 34
REMARK SMILES IDX 32 35 33 36 97 37 34 38 96 39 35 40 36 41 37 42 90 43 38 44
REMARK SMILES IDX 95 45 89 46 91 47 39 48 94 49 88 50 87 51 40 53 74 54 53 55
REMARK SMILES IDX 73 56 54 57 57 58 72 59 92 60 55 61 56 62 71 64 93 65 58 66
REMARK SMILES IDX 41 67 42 68 51 69 43 70 44 71 50 72 52 73 45 74 46 75 47 76
REMARK SMILES IDX 48 77 49 78 75 79 76 80 85 81 77 82 78 83 84 84 86 85 79 86
REMARK SMILES IDX 80 87 81 88 82 89 83 90 59 91 60 92 69 93 61 94 62 95 68 96
REMARK SMILES IDX 70 97 63 98 64 99 65 100 66 101 67 102
REMARK H PARENT 25 5 29 33 91 52 57 63
REMARK Flexibility Score: inf
ROOT
ATOM      1  C   UNL     1       0.950  -9.300  -7.347  1.00  0.00     0.117 C 
ENDROOT
BRANCH   1   2
ATOM      2  N   UNL     1       0.913 -10.116  -6.139  1.00  0.00    -0.354 N 
ATOM      3  C   UNL     1       0.160 -10.033  -5.005  1.00  0.00     0.244 C 
ATOM      4  O   UNL     1       0.368 -10.895  -4.142  1.00  0.00    -0.273 OA
ATOM      5  H   UNL     1       1.550 -10.867  -6.143  1.00  0.00     0.163 HD
BRANCH   3   6
ATOM      6  C   UNL     1      -0.921  -8.983  -4.753  1.00  0.00     0.193 C 
ATOM      7  C   UNL     1      -2.091  -9.015  -5.730  1.00  0.00     0.044 C 
BRANCH   6   8
ATOM      8  N   UNL     1      -0.359  -7.655  -4.541  1.00  0.00    -0.260 N 
ATOM      9  C   UNL     1       0.308  -5.743  -3.669  1.00  0.00     0.078 A 
ATOM     10  C   UNL     1       0.844  -5.975  -4.944  1.00  0.00     0.149 A 
ATOM     11  C   UNL     1      -0.418  -6.892  -3.403  1.00  0.00     0.123 A 
ATOM     12  N   UNL     1       0.245  -6.998  -5.545  1.00  0.00    -0.180 NA
BRANCH   9  13
ATOM     13  C   UNL     1       0.513  -4.617  -2.796  1.00  0.00     0.262 C 
ATOM     14  O   UNL     1       0.841  -4.709  -1.628  1.00  0.00    -0.269 OA
BRANCH  13  15
ATOM     15  N   UNL     1       0.188  -3.331  -3.424  1.00  0.00    -0.293 N 
ATOM     16  C   UNL     1       1.118   0.249  -0.025  1.00  0.00     0.069 C 
ATOM     17  C   UNL     1       0.762  -0.519  -1.242  1.00  0.00     0.062 A 
ATOM     18  C   UNL     1       0.903  -1.915  -1.453  1.00  0.00     0.072 A 
ATOM     19  N   UNL     1       0.234   0.091  -2.309  1.00  0.00    -0.176 NA
ATOM     20  C   UNL     1       0.366  -2.148  -2.697  1.00  0.00     0.134 A 
ATOM     21  N   UNL     1      -0.023  -0.916  -3.151  1.00  0.00    -0.237 N 
ATOM     22  C   UNL     1      -0.662  -0.679  -4.426  1.00  0.00     0.216 C 
ATOM     23  C   UNL     1      -0.569  -3.233  -4.702  1.00  0.00     0.130 C 
ATOM     24  C   UNL     1      -0.416  -1.864  -5.365  1.00  0.00     0.059 C 
BRANCH  22  25
ATOM     25  C   UNL     1      -2.136  -0.406  -4.227  1.00  0.00     0.410 C 
ATOM     26  F   UNL     1      -2.744  -0.268  -5.433  1.00  0.00    -0.169 F 
ATOM     27  F   UNL     1      -2.753  -1.430  -3.598  1.00  0.00    -0.169 F 
ATOM     28  F   UNL     1      -2.379   0.726  -3.539  1.00  0.00    -0.169 F 
ENDBRANCH  22  25
ENDBRANCH  13  15
ENDBRANCH   9  13
ENDBRANCH   6   8
ENDBRANCH   3   6
ENDBRANCH   1   2
BRANCH   1  29
ATOM     29  C   UNL     1       2.120  -8.309  -7.395  1.00  0.00     0.042 C 
BRANCH  29  30
ATOM     30  C   UNL     1       3.419  -8.929  -7.852  1.00  0.00     0.118 C 
BRANCH  30  31
ATOM     31  N   UNL     1       3.423  -9.318  -9.263  1.00  0.00    -0.352 N 
ATOM     32  C   UNL     1       4.446  -9.951  -9.953  1.00  0.00     0.251 C 
ATOM     33  H   UNL     1       2.611  -9.106  -9.779  1.00  0.00     0.163 HD
ATOM     34  O   UNL     1       4.480  -9.944 -11.177  1.00  0.00    -0.269 OA
BRANCH  32  35
ATOM     35  C   UNL     1       5.500 -10.607  -9.159  1.00  0.00     0.039 A 
ATOM     36  C   UNL     1       6.860 -10.413  -9.414  1.00  0.00     0.014 A 
ATOM     37  C   UNL     1       5.081 -11.305  -8.037  1.00  0.00     0.014 A 
ATOM     38  C   UNL     1       7.787 -10.837  -8.460  1.00  0.00     0.010 A 
ATOM     39  C   UNL     1       5.965 -11.482  -7.008  1.00  0.00     0.010 A 
ATOM     40  C   UNL     1       7.330 -11.346  -7.236  1.00  0.00    -0.014 A 
BRANCH  40  41
ATOM     41  C   UNL     1       8.243 -11.717  -6.155  1.00  0.00     0.031 A 
ATOM     42  C   UNL     1       9.260 -10.704  -5.751  1.00  0.00     0.074 A 
ATOM     43  C   UNL     1       8.036 -12.813  -5.390  1.00  0.00     0.049 A 
ATOM     44  N   UNL     1      10.547 -10.776  -5.851  1.00  0.00    -0.248 NA
ATOM     45  C   UNL     1       8.779  -9.408  -5.247  1.00  0.00     0.031 C 
ATOM     46  C   UNL     1       6.915 -13.767  -5.430  1.00  0.00     0.029 A 
ATOM     47  N   UNL     1       8.744 -13.243  -4.313  1.00  0.00    -0.354 N 
ATOM     48  C   UNL     1      11.052  -9.636  -5.226  1.00  0.00     0.074 A 
ATOM     49  C   UNL     1       9.926  -8.758  -5.037  1.00  0.00     0.031 C 
ATOM     50  C   UNL     1       6.885 -14.486  -4.291  1.00  0.00     0.029 A 
ATOM     51  C   UNL     1       8.097 -14.206  -3.553  1.00  0.00     0.049 A 
ATOM     52  H   UNL     1       9.640 -12.900  -4.091  1.00  0.00     0.167 HD
ATOM     53  C   UNL     1      12.314  -9.596  -4.710  1.00  0.00     0.037 A 
ATOM     54  C   UNL     1       8.521 -14.755  -2.393  1.00  0.00     0.037 A 
ATOM     55  C   UNL     1      13.119 -10.684  -5.207  1.00  0.00     0.049 A 
ATOM     56  C   UNL     1       9.991 -14.566  -2.344  1.00  0.00     0.074 A 
ATOM     57  C   UNL     1      13.532 -11.102  -6.457  1.00  0.00     0.029 A 
ATOM     58  N   UNL     1      13.331 -11.756  -4.373  1.00  0.00    -0.354 N 
ATOM     59  N   UNL     1      10.822 -15.114  -3.191  1.00  0.00    -0.248 NA
ATOM     60  C   UNL     1      10.511 -13.418  -1.621  1.00  0.00     0.031 C 
ATOM     61  C   UNL     1      13.497 -12.528  -6.401  1.00  0.00     0.029 A 
ATOM     62  C   UNL     1      13.115 -12.894  -5.109  1.00  0.00     0.049 A 
ATOM     63  H   UNL     1      13.590 -11.715  -3.425  1.00  0.00     0.167 HD
ATOM     64  C   UNL     1      11.800 -14.156  -3.409  1.00  0.00     0.074 A 
ATOM     65  C   UNL     1      11.617 -13.185  -2.332  1.00  0.00     0.031 C 
ATOM     66  C   UNL     1      12.486 -14.093  -4.590  1.00  0.00     0.037 A 
BRANCH  53  67
ATOM     67  C   UNL     1      12.728  -8.790  -3.494  1.00  0.00     0.058 A 
ATOM     68  C   UNL     1      14.095  -8.697  -3.151  1.00  0.00     0.135 A 
ATOM     69  C   UNL     1      11.827  -8.347  -2.500  1.00  0.00     0.135 A 
ATOM     70  F   UNL     1      15.045  -9.088  -4.016  1.00  0.00    -0.206 F 
ATOM     71  C   UNL     1      14.528  -8.281  -1.889  1.00  0.00     0.059 A 
ATOM     72  C   UNL     1      12.238  -7.875  -1.258  1.00  0.00     0.059 A 
ATOM     73  F   UNL     1      10.500  -8.444  -2.642  1.00  0.00    -0.206 F 
ATOM     74  C   UNL     1      13.586  -7.893  -0.942  1.00  0.00     0.060 A 
BRANCH  74  75
ATOM     75  S   UNL     1      14.118  -7.495   0.733  1.00  0.00     0.124 S 
ATOM     76  O   UNL     1      14.494  -8.811   1.235  1.00  0.00    -0.237 OA
ATOM     77  O   UNL     1      15.214  -6.562   0.491  1.00  0.00    -0.237 OA
ATOM     78  O   UNL     1      12.923  -6.907   1.331  1.00  0.00    -0.744 OA
ENDBRANCH  74  75
ENDBRANCH  53  67
BRANCH  54  79
ATOM     79  C   UNL     1       7.682 -15.132  -1.231  1.00  0.00     0.058 A 
ATOM     80  C   UNL     1       8.171 -15.966  -0.215  1.00  0.00     0.135 A 
ATOM     81  C   UNL     1       6.463 -14.470  -0.967  1.00  0.00     0.135 A 
ATOM     82  F   UNL     1       9.333 -16.616  -0.379  1.00  0.00    -0.206 F 
ATOM     83  C   UNL     1       7.513 -16.104   1.012  1.00  0.00     0.059 A 
ATOM     84  C   UNL     1       5.784 -14.600   0.242  1.00  0.00     0.059 A 
ATOM     85  F   UNL     1       5.940 -13.603  -1.848  1.00  0.00    -0.206 F 
ATOM     86  C   UNL     1       6.329 -15.401   1.238  1.00  0.00     0.060 A 
BRANCH  86  87
ATOM     87  S   UNL     1       5.571 -15.439   2.879  1.00  0.00     0.124 S 
ATOM     88  O   UNL     1       5.079 -16.810   2.951  1.00  0.00    -0.237 OA
ATOM     89  O   UNL     1       6.700 -15.118   3.746  1.00  0.00    -0.237 OA
ATOM     90  O   UNL     1       4.539 -14.408   2.800  1.00  0.00    -0.744 OA
ENDBRANCH  86  87
ENDBRANCH  54  79
BRANCH  66  91
ATOM     91  C   UNL     1      12.371 -15.258  -5.546  1.00  0.00     0.058 A 
ATOM     92  C   UNL     1      11.189 -15.601  -6.227  1.00  0.00     0.135 A 
ATOM     93  C   UNL     1      13.537 -15.940  -5.921  1.00  0.00     0.135 A 
ATOM     94  F   UNL     1      10.051 -14.932  -6.009  1.00  0.00    -0.206 F 
ATOM     95  C   UNL     1      11.159 -16.592  -7.209  1.00  0.00     0.059 A 
ATOM     96  C   UNL     1      13.538 -16.914  -6.920  1.00  0.00     0.059 A 
ATOM     97  F   UNL     1      14.713 -15.617  -5.357  1.00  0.00    -0.206 F 
ATOM     98  C   UNL     1      12.342 -17.240  -7.555  1.00  0.00     0.060 A 
BRANCH  98  99
ATOM     99  S   UNL     1      12.317 -18.441  -8.904  1.00  0.00     0.124 S 
ATOM    100  O   UNL     1      11.630 -19.575  -8.294  1.00  0.00    -0.237 OA
ATOM    101  O   UNL     1      11.573 -17.736  -9.945  1.00  0.00    -0.237 OA
ATOM    102  O   UNL     1      13.732 -18.652  -9.198  1.00  0.00    -0.744 OA
ENDBRANCH  98  99
ENDBRANCH  66  91
ENDBRANCH  40  41
ENDBRANCH  32  35
ENDBRANCH  30  31
ENDBRANCH  29  30
ENDBRANCH   1  29
TORSDOF 17
