REMARK SMILES Cc1ccc(C(=O)NC2(CC(=O)NCCCNC(=O)c3ccc(-c4c5nc(c(-c6c(F)cc(S(=O)(=O)[O-])cc6F)c6ccc([nH]6)c(-c6c(F)cc(S(=O)(=O)[O-])cc6F)c6nc(c(-c7c(F)cc(S(=O)(=O)[O-])cc7F)c7ccc4[nH]7)C=C6)C=C5)cc3)CCC2)cc1
REMARK SMILES IDX 15 1 14 2 13 3 11 4 12 5 10 7 9 8 86 9 88 10 87 11 8 12 6 13
REMARK SMILES IDX 7 14 5 16 1 17 2 18 3 19 90 20 4 21 89 22 16 23 17 24 18 25
REMARK SMILES IDX 19 27 20 28 21 29 85 30 22 31 84 32 23 33 24 34 25 35 78 36
REMARK SMILES IDX 26 37 83 38 77 39 79 40 27 41 82 42 76 43 75 44 28 46 62 47
REMARK SMILES IDX 41 48 61 49 42 50 45 51 60 52 80 53 43 54 44 55 59 57 81 58
REMARK SMILES IDX 46 59 29 60 30 61 39 62 31 63 32 64 38 65 40 66 33 67 34 68
REMARK SMILES IDX 35 69 36 70 37 71 63 72 64 73 73 74 65 75 66 76 72 77 74 78
REMARK SMILES IDX 67 79 68 80 69 81 70 82 71 83 47 84 48 85 57 86 49 87 50 88
REMARK SMILES IDX 56 89 58 90 51 91 52 92 53 93 54 94 55 95
REMARK H PARENT 13 6 8 15 17 26 79 45 45 56
REMARK Flexibility Score: inf
ROOT
ATOM      1  C   UNL     1      -0.517   2.043   2.631  1.00  0.00     0.042 C 
ENDROOT
BRANCH   1   2
ATOM      2  C   UNL     1       0.343   1.793   1.405  1.00  0.00     0.117 C 
BRANCH   2   3
ATOM      3  N   UNL     1      -0.330   0.678   0.323  1.00  0.00    -0.356 N 
ATOM      4  C   UNL     1      -1.385   0.690  -1.348  1.00  0.00     0.222 C 
ATOM      5  O   UNL     1      -1.407  -0.116  -2.319  1.00  0.00    -0.275 OA
ATOM      6  H   UNL     1      -0.142  -0.245   0.610  1.00  0.00     0.163 HD
BRANCH   4   7
ATOM      7  C   UNL     1      -2.714   1.969  -1.740  1.00  0.00     0.128 C 
BRANCH   7   8
ATOM      8  C   UNL     1      -3.776   2.608  -0.626  1.00  0.00     0.049 C 
ATOM      9  C   UNL     1      -4.555   3.893  -1.085  1.00  0.00     0.029 C 
ATOM     10  C   UNL     1      -3.682   3.500   0.804  1.00  0.00     0.029 C 
ATOM     11  C   UNL     1      -3.753   4.743  -0.052  1.00  0.00     0.005 C 
BRANCH   8  12
ATOM     12  N   UNL     1      -4.516   1.461  -0.124  1.00  0.00    -0.346 N 
ATOM     13  C   UNL     1      -3.789   0.603   0.658  1.00  0.00     0.251 C 
ATOM     14  O   UNL     1      -4.299  -0.309   1.290  1.00  0.00    -0.269 OA
ATOM     15  H   UNL     1      -5.467   1.312  -0.331  1.00  0.00     0.164 HD
BRANCH  13  16
ATOM     16  C   UNL     1      -2.301   0.757   0.486  1.00  0.00     0.039 A 
ATOM     17  C   UNL     1       2.323   0.163  -1.277  1.00  0.00     0.044 C 
ATOM     18  C   UNL     1       0.817   0.346  -1.347  1.00  0.00    -0.051 A 
ATOM     19  C   UNL     1      -0.113  -1.100  -0.791  1.00  0.00     0.004 A 
ATOM     20  C   UNL     1       0.197   2.025  -1.102  1.00  0.00     0.004 A 
ATOM     21  C   UNL     1      -1.656  -0.892   0.104  1.00  0.00     0.014 A 
ATOM     22  C   UNL     1      -1.335   2.273  -0.100  1.00  0.00     0.014 A 
ENDBRANCH  13  16
ENDBRANCH   8  12
ENDBRANCH   7   8
ENDBRANCH   4   7
ENDBRANCH   2   3
ENDBRANCH   1   2
BRANCH   1  23
ATOM     23  C   UNL     1      -0.013   1.167   3.721  1.00  0.00     0.118 C 
BRANCH  23  24
ATOM     24  N   UNL     1       1.157   1.748   4.354  1.00  0.00    -0.352 N 
ATOM     25  C   UNL     1       1.540   1.532   5.664  1.00  0.00     0.251 C 
ATOM     26  H   UNL     1       1.721   2.343   3.808  1.00  0.00     0.163 HD
ATOM     27  O   UNL     1       1.979   2.405   6.397  1.00  0.00    -0.269 OA
BRANCH  25  28
ATOM     28  C   UNL     1       1.565   0.109   6.065  1.00  0.00     0.039 A 
ATOM     29  C   UNL     1       2.837  -0.482   6.090  1.00  0.00     0.014 A 
ATOM     30  C   UNL     1       0.429  -0.630   5.773  1.00  0.00     0.014 A 
ATOM     31  C   UNL     1       2.988  -1.756   5.576  1.00  0.00     0.010 A 
ATOM     32  C   UNL     1       0.617  -1.735   4.996  1.00  0.00     0.010 A 
ATOM     33  C   UNL     1       1.895  -2.296   4.917  1.00  0.00    -0.014 A 
BRANCH  33  34
ATOM     34  C   UNL     1       1.840  -3.616   4.348  1.00  0.00     0.031 A 
ATOM     35  C   UNL     1       1.349  -4.616   5.325  1.00  0.00     0.074 A 
ATOM     36  C   UNL     1       1.949  -3.695   3.002  1.00  0.00     0.049 A 
ATOM     37  N   UNL     1       1.613  -5.866   5.303  1.00  0.00    -0.248 NA
ATOM     38  C   UNL     1       0.565  -4.255   6.525  1.00  0.00     0.031 C 
ATOM     39  C   UNL     1       1.524  -4.741   2.083  1.00  0.00     0.029 A 
ATOM     40  N   UNL     1       2.665  -2.809   2.178  1.00  0.00    -0.354 N 
ATOM     41  C   UNL     1       0.678  -6.468   6.128  1.00  0.00     0.074 A 
ATOM     42  C   UNL     1       0.205  -5.444   7.008  1.00  0.00     0.031 C 
ATOM     43  C   UNL     1       2.235  -4.635   0.941  1.00  0.00     0.029 A 
ATOM     44  C   UNL     1       3.228  -3.588   1.145  1.00  0.00     0.049 A 
ATOM     45  H   UNL     1       2.756  -1.837   2.298  1.00  0.00     0.167 HD
ATOM     46  C   UNL     1       0.220  -7.700   5.777  1.00  0.00     0.037 A 
ATOM     47  C   UNL     1       4.583  -3.792   1.131  1.00  0.00     0.037 A 
ATOM     48  C   UNL     1       0.880  -8.092   4.536  1.00  0.00     0.049 A 
ATOM     49  C   UNL     1       4.931  -5.220   1.487  1.00  0.00     0.074 A 
ATOM     50  C   UNL     1       0.494  -7.975   3.212  1.00  0.00     0.029 A 
ATOM     51  N   UNL     1       2.258  -8.234   4.536  1.00  0.00    -0.354 N 
ATOM     52  N   UNL     1       4.190  -5.985   2.243  1.00  0.00    -0.248 NA
ATOM     53  C   UNL     1       6.096  -5.917   0.950  1.00  0.00     0.031 C 
ATOM     54  C   UNL     1       1.665  -8.027   2.413  1.00  0.00     0.029 A 
ATOM     55  C   UNL     1       2.759  -8.146   3.255  1.00  0.00     0.049 A 
ATOM     56  H   UNL     1       2.805  -8.378   5.341  1.00  0.00     0.167 HD
ATOM     57  C   UNL     1       4.744  -7.237   2.306  1.00  0.00     0.074 A 
ATOM     58  C   UNL     1       5.925  -7.145   1.469  1.00  0.00     0.031 C 
ATOM     59  C   UNL     1       4.189  -8.256   3.029  1.00  0.00     0.037 A 
BRANCH  46  60
ATOM     60  C   UNL     1      -1.001  -8.400   6.322  1.00  0.00     0.058 A 
ATOM     61  C   UNL     1      -1.653  -9.368   5.525  1.00  0.00     0.135 A 
ATOM     62  C   UNL     1      -1.570  -8.208   7.599  1.00  0.00     0.135 A 
ATOM     63  F   UNL     1      -1.218  -9.685   4.299  1.00  0.00    -0.206 F 
ATOM     64  C   UNL     1      -2.779 -10.069   5.941  1.00  0.00     0.059 A 
ATOM     65  C   UNL     1      -2.721  -8.884   8.030  1.00  0.00     0.059 A 
ATOM     66  F   UNL     1      -1.007  -7.397   8.504  1.00  0.00    -0.206 F 
ATOM     67  C   UNL     1      -3.311  -9.823   7.194  1.00  0.00     0.060 A 
BRANCH  67  68
ATOM     68  S   UNL     1      -4.739 -10.792   7.705  1.00  0.00     0.124 S 
ATOM     69  O   UNL     1      -5.712 -10.475   6.664  1.00  0.00    -0.237 OA
ATOM     70  O   UNL     1      -4.206 -12.151   7.681  1.00  0.00    -0.237 OA
ATOM     71  O   UNL     1      -5.053 -10.267   9.030  1.00  0.00    -0.744 OA
ENDBRANCH  67  68
ENDBRANCH  46  60
BRANCH  47  72
ATOM     72  C   UNL     1       5.333  -2.570   1.572  1.00  0.00     0.058 A 
ATOM     73  C   UNL     1       5.315  -1.458   0.705  1.00  0.00     0.135 A 
ATOM     74  C   UNL     1       5.559  -2.317   2.933  1.00  0.00     0.135 A 
ATOM     75  F   UNL     1       5.140  -1.640  -0.614  1.00  0.00    -0.206 F 
ATOM     76  C   UNL     1       5.303  -0.150   1.187  1.00  0.00     0.059 A 
ATOM     77  C   UNL     1       5.556  -1.011   3.435  1.00  0.00     0.059 A 
ATOM     78  F   UNL     1       5.608  -3.329   3.811  1.00  0.00    -0.206 F 
ATOM     79  C   UNL     1       5.341   0.056   2.563  1.00  0.00     0.060 A 
BRANCH  79  80
ATOM     80  S   UNL     1       4.934   1.704   3.193  1.00  0.00     0.124 S 
ATOM     81  O   UNL     1       5.977   2.524   2.587  1.00  0.00    -0.237 OA
ATOM     82  O   UNL     1       3.581   1.909   2.670  1.00  0.00    -0.237 OA
ATOM     83  O   UNL     1       5.016   1.540   4.637  1.00  0.00    -0.744 OA
ENDBRANCH  79  80
ENDBRANCH  47  72
BRANCH  59  84
ATOM     84  C   UNL     1       4.915  -9.494   3.518  1.00  0.00     0.058 A 
ATOM     85  C   UNL     1       6.312  -9.613   3.564  1.00  0.00     0.135 A 
ATOM     86  C   UNL     1       4.205 -10.579   4.103  1.00  0.00     0.135 A 
ATOM     87  F   UNL     1       7.123  -8.605   3.217  1.00  0.00    -0.206 F 
ATOM     88  C   UNL     1       6.950 -10.767   4.013  1.00  0.00     0.059 A 
ATOM     89  C   UNL     1       4.825 -11.693   4.652  1.00  0.00     0.059 A 
ATOM     90  F   UNL     1       2.867 -10.607   4.180  1.00  0.00    -0.206 F 
ATOM     91  C   UNL     1       6.197 -11.805   4.546  1.00  0.00     0.060 A 
BRANCH  91  92
ATOM     92  S   UNL     1       7.027 -13.298   5.093  1.00  0.00     0.124 S 
ATOM     93  O   UNL     1       7.312 -13.947   3.817  1.00  0.00    -0.237 OA
ATOM     94  O   UNL     1       8.186 -12.768   5.806  1.00  0.00    -0.237 OA
ATOM     95  O   UNL     1       6.031 -13.958   5.929  1.00  0.00    -0.744 OA
ENDBRANCH  91  92
ENDBRANCH  59  84
ENDBRANCH  33  34
ENDBRANCH  25  28
ENDBRANCH  23  24
ENDBRANCH   1  23
TORSDOF 16
