REMARK SMILES C[C@@H](C(=O)NCCCNC(=O)c1ccc(-c2c3nc(c(-c4c(F)cc(S(=O)(=O)[O-])cc4F)c4ccc([nH]4)c(-c4c(F)cc(S(=O)(=O)[O-])cc4F)c4nc(c(-c5c(F)cc(S(=O)(=O)[O-])cc5F)c5ccc2[nH]5)C=C4)C=C3)cc1)c1ccc(C[C@H]2CCC[C@@H]2O)cc1F
REMARK SMILES IDX 6 1 5 2 3 3 4 4 2 6 1 7 78 8 79 9 90 10 80 11 89 12 91 13
REMARK SMILES IDX 81 14 82 15 83 16 84 17 87 18 85 19 86 20 88 21 7 23 8 24
REMARK SMILES IDX 9 25 10 26 11 28 12 29 13 30 77 31 14 32 76 33 15 34 16 35
REMARK SMILES IDX 17 36 70 37 18 38 75 39 69 40 71 41 19 42 74 43 68 44 67 45
REMARK SMILES IDX 20 47 54 48 33 49 53 50 34 51 37 52 52 53 72 54 35 55 36 56
REMARK SMILES IDX 51 58 73 59 38 60 21 61 22 62 31 63 23 64 24 65 30 66 32 67
REMARK SMILES IDX 25 68 26 69 27 70 28 71 29 72 55 73 56 74 65 75 57 76 58 77
REMARK SMILES IDX 64 78 66 79 59 80 60 81 61 82 62 83 63 84 39 85 40 86 49 87
REMARK SMILES IDX 41 88 42 89 48 90 50 91 43 92 44 93 45 94 46 95 47 96
REMARK H PARENT 5 5 88 22 9 27 71 46 37 57
REMARK Flexibility Score: inf
ROOT
ATOM      1  C   UNL     1       3.466  -2.048   0.464  1.00  0.00     0.117 C 
ENDROOT
BRANCH   1   2
ATOM      2  N   UNL     1       2.357  -2.199   1.387  1.00  0.00    -0.356 N 
ATOM      3  C   UNL     1       1.076  -1.732   1.305  1.00  0.00     0.227 C 
ATOM      4  O   UNL     1       0.389  -1.810   2.326  1.00  0.00    -0.274 OA
ATOM      5  H   UNL     1       2.559  -2.718   2.198  1.00  0.00     0.163 HD
BRANCH   3   6
ATOM      6  C   UNL     1       0.547  -1.145  -0.021  1.00  0.00     0.108 C 
ATOM      7  C   UNL     1       1.115   0.267  -0.206  1.00  0.00     0.023 C 
BRANCH   6   8
ATOM      8  C   UNL     1      -0.979  -1.197  -0.087  1.00  0.00    -0.000 A 
ATOM      9  C   UNL     1      -1.776  -0.065  -0.306  1.00  0.00     0.008 A 
ATOM     10  C   UNL     1      -1.636  -2.420   0.103  1.00  0.00     0.127 A 
ATOM     11  C   UNL     1      -3.168  -0.145  -0.252  1.00  0.00     0.004 A 
ATOM     12  C   UNL     1      -3.025  -2.498   0.204  1.00  0.00     0.043 A 
ATOM     13  F   UNL     1      -0.923  -3.550   0.224  1.00  0.00    -0.207 F 
ATOM     14  C   UNL     1      -3.805  -1.345   0.076  1.00  0.00    -0.045 A 
BRANCH  14  15
ATOM     15  C   UNL     1      -5.291  -1.373   0.338  1.00  0.00     0.041 C 
BRANCH  15  16
ATOM     16  C   UNL     1      -5.740  -0.825   1.707  1.00  0.00     0.022 C 
ATOM     17  C   UNL     1      -5.120  -1.503   2.941  1.00  0.00     0.007 C 
ATOM     18  C   UNL     1      -5.510   0.672   1.943  1.00  0.00     0.117 C 
ATOM     19  C   UNL     1      -4.930  -0.397   3.985  1.00  0.00     0.003 C 
ATOM     20  C   UNL     1      -5.685   0.808   3.448  1.00  0.00     0.032 C 
BRANCH  18  21
ATOM     21  O   UNL     1      -6.453   1.453   1.232  1.00  0.00    -0.393 OA
ATOM     22  H   UNL     1      -7.351   1.194   1.494  1.00  0.00     0.210 HD
ENDBRANCH  18  21
ENDBRANCH  15  16
ENDBRANCH  14  15
ENDBRANCH   6   8
ENDBRANCH   3   6
ENDBRANCH   1   2
BRANCH   1  23
ATOM     23  C   UNL     1       4.401  -0.919   0.900  1.00  0.00     0.042 C 
BRANCH  23  24
ATOM     24  C   UNL     1       5.148  -1.191   2.200  1.00  0.00     0.118 C 
BRANCH  24  25
ATOM     25  N   UNL     1       6.130  -2.252   2.059  1.00  0.00    -0.352 N 
ATOM     26  C   UNL     1       7.478  -2.241   2.312  1.00  0.00     0.251 C 
ATOM     27  H   UNL     1       5.774  -3.110   1.733  1.00  0.00     0.163 HD
ATOM     28  O   UNL     1       8.162  -3.189   1.926  1.00  0.00    -0.269 OA
BRANCH  26  29
ATOM     29  C   UNL     1       8.119  -1.111   3.026  1.00  0.00     0.039 A 
ATOM     30  C   UNL     1       9.402  -0.716   2.636  1.00  0.00     0.014 A 
ATOM     31  C   UNL     1       7.504  -0.486   4.115  1.00  0.00     0.014 A 
ATOM     32  C   UNL     1      10.056   0.313   3.318  1.00  0.00     0.010 A 
ATOM     33  C   UNL     1       8.125   0.592   4.746  1.00  0.00     0.010 A 
ATOM     34  C   UNL     1       9.418   0.984   4.373  1.00  0.00    -0.014 A 
BRANCH  34  35
ATOM     35  C   UNL     1      10.117   2.052   5.135  1.00  0.00     0.031 A 
ATOM     36  C   UNL     1      10.446   1.845   6.591  1.00  0.00     0.074 A 
ATOM     37  C   UNL     1      10.425   3.218   4.533  1.00  0.00     0.049 A 
ATOM     38  N   UNL     1      11.009   2.667   7.438  1.00  0.00    -0.248 NA
ATOM     39  C   UNL     1      10.065   0.549   7.178  1.00  0.00     0.031 C 
ATOM     40  C   UNL     1      10.118   3.560   3.143  1.00  0.00     0.029 A 
ATOM     41  N   UNL     1      11.061   4.333   5.017  1.00  0.00    -0.354 N 
ATOM     42  C   UNL     1      11.034   1.999   8.657  1.00  0.00     0.074 A 
ATOM     43  C   UNL     1      10.379   0.725   8.453  1.00  0.00     0.031 C 
ATOM     44  C   UNL     1      10.580   4.794   2.882  1.00  0.00     0.029 A 
ATOM     45  C   UNL     1      11.194   5.339   4.090  1.00  0.00     0.049 A 
ATOM     46  H   UNL     1      11.390   4.407   5.942  1.00  0.00     0.167 HD
ATOM     47  C   UNL     1      11.577   2.395   9.834  1.00  0.00     0.037 A 
ATOM     48  C   UNL     1      11.751   6.561   4.199  1.00  0.00     0.037 A 
ATOM     49  C   UNL     1      12.255   3.650  10.025  1.00  0.00     0.049 A 
ATOM     50  C   UNL     1      12.386   6.964   5.502  1.00  0.00     0.074 A 
ATOM     51  C   UNL     1      12.870   4.134  11.168  1.00  0.00     0.029 A 
ATOM     52  N   UNL     1      12.419   4.617   9.044  1.00  0.00    -0.354 N 
ATOM     53  N   UNL     1      12.438   6.302   6.633  1.00  0.00    -0.248 NA
ATOM     54  C   UNL     1      13.057   8.271   5.539  1.00  0.00     0.031 C 
ATOM     55  C   UNL     1      13.385   5.404  10.883  1.00  0.00     0.029 A 
ATOM     56  C   UNL     1      13.127   5.693   9.553  1.00  0.00     0.049 A 
ATOM     57  H   UNL     1      12.082   4.548   8.122  1.00  0.00     0.167 HD
ATOM     58  C   UNL     1      13.174   7.096   7.506  1.00  0.00     0.074 A 
ATOM     59  C   UNL     1      13.552   8.284   6.769  1.00  0.00     0.031 C 
ATOM     60  C   UNL     1      13.509   6.861   8.799  1.00  0.00     0.037 A 
BRANCH  47  61
ATOM     61  C   UNL     1      11.463   1.451  11.000  1.00  0.00     0.058 A 
ATOM     62  C   UNL     1      12.186   0.247  11.044  1.00  0.00     0.135 A 
ATOM     63  C   UNL     1      10.632   1.753  12.090  1.00  0.00     0.135 A 
ATOM     64  F   UNL     1      12.984  -0.100  10.021  1.00  0.00    -0.206 F 
ATOM     65  C   UNL     1      12.058  -0.641  12.106  1.00  0.00     0.059 A 
ATOM     66  C   UNL     1      10.511   0.892  13.178  1.00  0.00     0.059 A 
ATOM     67  F   UNL     1       9.919   2.891  12.103  1.00  0.00    -0.206 F 
ATOM     68  C   UNL     1      11.213  -0.312  13.167  1.00  0.00     0.060 A 
BRANCH  68  69
ATOM     69  S   UNL     1      11.047  -1.480  14.534  1.00  0.00     0.124 S 
ATOM     70  O   UNL     1      10.193  -2.503  13.938  1.00  0.00    -0.237 OA
ATOM     71  O   UNL     1      12.431  -1.875  14.780  1.00  0.00    -0.237 OA
ATOM     72  O   UNL     1      10.430  -0.682  15.588  1.00  0.00    -0.744 OA
ENDBRANCH  68  69
ENDBRANCH  47  61
BRANCH  48  73
ATOM     73  C   UNL     1      11.769   7.472   3.025  1.00  0.00     0.058 A 
ATOM     74  C   UNL     1      12.958   7.723   2.323  1.00  0.00     0.135 A 
ATOM     75  C   UNL     1      10.596   8.088   2.565  1.00  0.00     0.135 A 
ATOM     76  F   UNL     1      14.106   7.159   2.728  1.00  0.00    -0.206 F 
ATOM     77  C   UNL     1      12.987   8.565   1.216  1.00  0.00     0.059 A 
ATOM     78  C   UNL     1      10.595   8.916   1.446  1.00  0.00     0.059 A 
ATOM     79  F   UNL     1       9.429   7.864   3.190  1.00  0.00    -0.206 F 
ATOM     80  C   UNL     1      11.799   9.155   0.784  1.00  0.00     0.060 A 
BRANCH  80  81
ATOM     81  S   UNL     1      11.835  10.199  -0.690  1.00  0.00     0.124 S 
ATOM     82  O   UNL     1      12.452  11.415  -0.172  1.00  0.00    -0.237 OA
ATOM     83  O   UNL     1      12.650   9.409  -1.607  1.00  0.00    -0.237 OA
ATOM     84  O   UNL     1      10.426  10.311  -1.054  1.00  0.00    -0.744 OA
ENDBRANCH  80  81
ENDBRANCH  48  73
BRANCH  60  85
ATOM     85  C   UNL     1      14.370   7.885   9.485  1.00  0.00     0.058 A 
ATOM     86  C   UNL     1      13.863   9.130   9.887  1.00  0.00     0.135 A 
ATOM     87  C   UNL     1      15.714   7.597   9.774  1.00  0.00     0.135 A 
ATOM     88  F   UNL     1      12.586   9.454   9.632  1.00  0.00    -0.206 F 
ATOM     89  C   UNL     1      14.668  10.068  10.525  1.00  0.00     0.059 A 
ATOM     90  C   UNL     1      16.530   8.511  10.433  1.00  0.00     0.059 A 
ATOM     91  F   UNL     1      16.244   6.415   9.421  1.00  0.00    -0.206 F 
ATOM     92  C   UNL     1      16.002   9.751  10.790  1.00  0.00     0.060 A 
BRANCH  92  93
ATOM     93  S   UNL     1      17.035  10.969  11.632  1.00  0.00     0.124 S 
ATOM     94  O   UNL     1      17.323  11.905  10.550  1.00  0.00    -0.237 OA
ATOM     95  O   UNL     1      16.147  11.465  12.680  1.00  0.00    -0.237 OA
ATOM     96  O   UNL     1      18.171  10.183  12.102  1.00  0.00    -0.744 OA
ENDBRANCH  92  93
ENDBRANCH  60  85
ENDBRANCH  34  35
ENDBRANCH  26  29
ENDBRANCH  24  25
ENDBRANCH  23  24
ENDBRANCH   1  23
TORSDOF 17
