REMARK SMILES O=C(NCCCNC(=O)[C@@H]1[C@@H](C(=O)NCCCn2ccnc2)[C@@H]2C=C[C@H]1C2)c1ccc(-c2c3nc(c(-c4c(F)cc(S(=O)(=O)[O-])cc4F)c4ccc([nH]4)c(-c4c(F)cc(S(=O)(=O)[O-])cc4F)c4nc(c(-c5c(F)cc(S(=O)(=O)[O-])cc5F)c5ccc2[nH]5)C=C4)C=C3)cc1
REMARK SMILES IDX 6 1 5 2 4 3 3 4 1 5 2 6 28 8 29 9 93 10 30 11 92 12 31 13
REMARK SMILES IDX 32 14 33 15 86 16 34 17 91 18 85 19 87 20 35 21 90 22 84 23
REMARK SMILES IDX 83 24 36 26 70 27 49 28 69 29 50 30 53 31 68 32 88 33 51 34
REMARK SMILES IDX 52 35 67 37 89 38 54 39 37 40 38 41 47 42 39 43 40 44 46 45
REMARK SMILES IDX 48 46 41 47 42 48 43 49 44 50 45 51 71 52 72 53 81 54 73 55
REMARK SMILES IDX 74 56 80 57 82 58 75 59 76 60 77 61 78 62 79 63 55 64 56 65
REMARK SMILES IDX 65 66 57 67 58 68 64 69 66 70 59 71 60 72 61 73 62 74 63 75
REMARK SMILES IDX 7 76 8 77 9 79 10 80 11 81 26 82 23 83 25 84 27 85 24 86
REMARK SMILES IDX 12 87 13 88 14 89 15 91 16 92 17 93 18 94 19 95 22 96 20 97
REMARK SMILES IDX 21 98
REMARK H PARENT 3 7 87 25 53 36 7 78 14 90
REMARK Flexibility Score: inf
ROOT
ATOM      1  C   UNL     1       4.393  -3.013   1.684  1.00  0.00     0.117 C 
ENDROOT
BRANCH   1   2
ATOM      2  C   UNL     1       4.925  -1.601   1.461  1.00  0.00     0.042 C 
BRANCH   2   3
ATOM      3  C   UNL     1       4.648  -1.019   0.076  1.00  0.00     0.118 C 
BRANCH   3   4
ATOM      4  N   UNL     1       3.251  -0.949  -0.304  1.00  0.00    -0.352 N 
ATOM      5  O   UNL     1       1.174  -0.281  -0.643  1.00  0.00    -0.269 OA
ATOM      6  C   UNL     1       2.210  -0.117   0.006  1.00  0.00     0.251 C 
ATOM      7  H   UNL     1       2.991  -1.664  -0.930  1.00  0.00     0.163 HD
BRANCH   6   8
ATOM      8  C   UNL     1       2.226   0.905   1.089  1.00  0.00     0.039 A 
ATOM      9  C   UNL     1       3.370   1.408   1.710  1.00  0.00     0.014 A 
ATOM     10  C   UNL     1       0.971   1.393   1.499  1.00  0.00     0.014 A 
ATOM     11  C   UNL     1       3.265   2.313   2.763  1.00  0.00     0.010 A 
ATOM     12  C   UNL     1       0.860   2.320   2.531  1.00  0.00     0.010 A 
ATOM     13  C   UNL     1       2.011   2.765   3.178  1.00  0.00    -0.014 A 
BRANCH  13  14
ATOM     14  C   UNL     1       1.966   3.858   4.151  1.00  0.00     0.031 A 
ATOM     15  C   UNL     1       2.507   5.159   3.658  1.00  0.00     0.074 A 
ATOM     16  C   UNL     1       1.320   3.793   5.332  1.00  0.00     0.049 A 
ATOM     17  N   UNL     1       3.456   5.884   4.157  1.00  0.00    -0.248 NA
ATOM     18  C   UNL     1       1.970   5.673   2.386  1.00  0.00     0.031 C 
ATOM     19  C   UNL     1       0.472   2.701   5.813  1.00  0.00     0.029 A 
ATOM     20  N   UNL     1       1.181   4.749   6.300  1.00  0.00    -0.354 N 
ATOM     21  C   UNL     1       3.480   7.051   3.393  1.00  0.00     0.074 A 
ATOM     22  C   UNL     1       2.668   6.797   2.234  1.00  0.00     0.031 C 
ATOM     23  C   UNL     1      -0.260   3.141   6.860  1.00  0.00     0.029 A 
ATOM     24  C   UNL     1       0.141   4.500   7.189  1.00  0.00     0.049 A 
ATOM     25  H   UNL     1       1.764   5.540   6.362  1.00  0.00     0.167 HD
ATOM     26  C   UNL     1       3.962   8.226   3.887  1.00  0.00     0.037 A 
ATOM     27  C   UNL     1      -0.410   5.370   8.072  1.00  0.00     0.037 A 
ATOM     28  C   UNL     1       4.838   8.015   5.010  1.00  0.00     0.049 A 
ATOM     29  C   UNL     1       0.560   6.470   8.298  1.00  0.00     0.074 A 
ATOM     30  C   UNL     1       5.989   7.281   5.230  1.00  0.00     0.029 A 
ATOM     31  N   UNL     1       4.396   8.386   6.255  1.00  0.00    -0.354 N 
ATOM     32  N   UNL     1       1.694   6.340   8.929  1.00  0.00    -0.248 NA
ATOM     33  C   UNL     1       0.428   7.683   7.505  1.00  0.00     0.031 C 
ATOM     34  C   UNL     1       5.908   6.854   6.588  1.00  0.00     0.029 A 
ATOM     35  C   UNL     1       4.733   7.381   7.122  1.00  0.00     0.049 A 
ATOM     36  H   UNL     1       3.924   9.220   6.482  1.00  0.00     0.167 HD
ATOM     37  C   UNL     1       2.557   7.214   8.290  1.00  0.00     0.074 A 
ATOM     38  C   UNL     1       1.695   8.101   7.518  1.00  0.00     0.031 C 
ATOM     39  C   UNL     1       3.897   6.959   8.223  1.00  0.00     0.037 A 
BRANCH  26  40
ATOM     40  C   UNL     1       3.330   9.575   3.599  1.00  0.00     0.058 A 
ATOM     41  C   UNL     1       3.968  10.748   4.054  1.00  0.00     0.135 A 
ATOM     42  C   UNL     1       1.989   9.739   3.182  1.00  0.00     0.135 A 
ATOM     43  F   UNL     1       5.243  10.714   4.475  1.00  0.00    -0.206 F 
ATOM     44  C   UNL     1       3.295  11.964   4.187  1.00  0.00     0.059 A 
ATOM     45  C   UNL     1       1.317  10.954   3.249  1.00  0.00     0.059 A 
ATOM     46  F   UNL     1       1.228   8.712   2.785  1.00  0.00    -0.206 F 
ATOM     47  C   UNL     1       1.959  12.047   3.805  1.00  0.00     0.060 A 
BRANCH  47  48
ATOM     48  S   UNL     1       1.039  13.564   4.111  1.00  0.00     0.124 S 
ATOM     49  O   UNL     1       0.878  13.510   5.559  1.00  0.00    -0.237 OA
ATOM     50  O   UNL     1       1.952  14.583   3.604  1.00  0.00    -0.237 OA
ATOM     51  O   UNL     1      -0.180  13.377   3.329  1.00  0.00    -0.744 OA
ENDBRANCH  47  48
ENDBRANCH  26  40
BRANCH  27  52
ATOM     52  C   UNL     1      -1.823   5.457   8.532  1.00  0.00     0.058 A 
ATOM     53  C   UNL     1      -2.184   6.265   9.627  1.00  0.00     0.135 A 
ATOM     54  C   UNL     1      -2.888   4.965   7.751  1.00  0.00     0.135 A 
ATOM     55  F   UNL     1      -1.239   6.798  10.415  1.00  0.00    -0.206 F 
ATOM     56  C   UNL     1      -3.514   6.606   9.898  1.00  0.00     0.059 A 
ATOM     57  C   UNL     1      -4.221   5.273   8.014  1.00  0.00     0.059 A 
ATOM     58  F   UNL     1      -2.664   4.243   6.643  1.00  0.00    -0.206 F 
ATOM     59  C   UNL     1      -4.526   6.118   9.073  1.00  0.00     0.060 A 
BRANCH  59  60
ATOM     60  S   UNL     1      -6.224   6.693   9.306  1.00  0.00     0.124 S 
ATOM     61  O   UNL     1      -6.594   6.043  10.558  1.00  0.00    -0.237 OA
ATOM     62  O   UNL     1      -6.054   8.141   9.363  1.00  0.00    -0.237 OA
ATOM     63  O   UNL     1      -6.915   6.197   8.118  1.00  0.00    -0.744 OA
ENDBRANCH  59  60
ENDBRANCH  27  52
BRANCH  39  64
ATOM     64  C   UNL     1       4.489   5.976   9.195  1.00  0.00     0.058 A 
ATOM     65  C   UNL     1       4.131   4.620   9.282  1.00  0.00     0.135 A 
ATOM     66  C   UNL     1       5.558   6.411   9.996  1.00  0.00     0.135 A 
ATOM     67  F   UNL     1       3.200   4.096   8.471  1.00  0.00    -0.206 F 
ATOM     68  C   UNL     1       4.769   3.751  10.168  1.00  0.00     0.059 A 
ATOM     69  C   UNL     1       6.231   5.553  10.860  1.00  0.00     0.059 A 
ATOM     70  F   UNL     1       5.990   7.680   9.912  1.00  0.00    -0.206 F 
ATOM     71  C   UNL     1       5.818   4.227  10.954  1.00  0.00     0.060 A 
BRANCH  71  72
ATOM     72  S   UNL     1       6.693   3.085  12.046  1.00  0.00     0.124 S 
ATOM     73  O   UNL     1       5.721   2.885  13.120  1.00  0.00    -0.237 OA
ATOM     74  O   UNL     1       6.920   1.928  11.178  1.00  0.00    -0.237 OA
ATOM     75  O   UNL     1       7.893   3.817  12.418  1.00  0.00    -0.744 OA
ENDBRANCH  71  72
ENDBRANCH  39  64
ENDBRANCH  13  14
ENDBRANCH   6   8
ENDBRANCH   3   4
ENDBRANCH   2   3
ENDBRANCH   1   2
BRANCH   1  76
ATOM     76  N   UNL     1       4.952  -3.976   0.752  1.00  0.00    -0.356 N 
ATOM     77  C   UNL     1       5.682  -5.103   0.986  1.00  0.00     0.224 C 
ATOM     78  H   UNL     1       4.775  -3.785  -0.198  1.00  0.00     0.163 HD
ATOM     79  O   UNL     1       6.103  -5.722   0.007  1.00  0.00    -0.275 OA
BRANCH  77  80
ATOM     80  C   UNL     1       5.968  -5.528   2.417  1.00  0.00     0.098 C 
ATOM     81  C   UNL     1       6.859  -6.825   2.505  1.00  0.00     0.098 C 
ATOM     82  C   UNL     1       4.696  -5.957   3.198  1.00  0.00     0.025 C 
ATOM     83  C   UNL     1       6.005  -7.750   3.414  1.00  0.00     0.025 C 
ATOM     84  C   UNL     1       4.013  -7.101   2.480  1.00  0.00    -0.027 C 
ATOM     85  C   UNL     1       5.325  -6.746   4.347  1.00  0.00     0.017 C 
ATOM     86  C   UNL     1       4.799  -8.178   2.610  1.00  0.00    -0.027 C 
BRANCH  81  87
ATOM     87  C   UNL     1       8.227  -6.575   3.115  1.00  0.00     0.224 C 
ATOM     88  O   UNL     1       8.584  -5.480   3.545  1.00  0.00    -0.275 OA
ATOM     89  N   UNL     1       9.121  -7.606   3.183  1.00  0.00    -0.356 N 
ATOM     90  H   UNL     1       9.997  -7.381   3.572  1.00  0.00     0.163 HD
BRANCH  89  91
ATOM     91  C   UNL     1       8.963  -8.987   2.762  1.00  0.00     0.117 C 
BRANCH  91  92
ATOM     92  C   UNL     1      10.130  -9.477   1.907  1.00  0.00     0.043 C 
BRANCH  92  93
ATOM     93  C   UNL     1      11.476  -9.521   2.631  1.00  0.00     0.125 C 
BRANCH  93  94
ATOM     94  N   UNL     1      11.474 -10.375   3.800  1.00  0.00    -0.337 N 
ATOM     95  C   UNL     1      11.423  -9.966   5.102  1.00  0.00     0.107 A 
ATOM     96  C   UNL     1      11.512 -11.740   3.794  1.00  0.00     0.199 A 
ATOM     97  C   UNL     1      11.401 -11.129   5.836  1.00  0.00     0.130 A 
ATOM     98  N   UNL     1      11.459 -12.225   5.013  1.00  0.00    -0.245 NA
ENDBRANCH  93  94
ENDBRANCH  92  93
ENDBRANCH  91  92
ENDBRANCH  89  91
ENDBRANCH  81  87
ENDBRANCH  77  80
ENDBRANCH   1  76
TORSDOF 18
