REMARK SMILES O=C(NCCCNC(=O)[C@@H]1CCC(=O)N(CCCOC2CCCCC2)[C@H]1c1ccco1)c1ccc(-c2c3nc(c(-c4c(F)cc(S(=O)(=O)[O-])cc4F)c4ccc([nH]4)c(-c4c(F)cc(S(=O)(=O)[O-])cc4F)c4nc(c(-c5c(F)cc(S(=O)(=O)[O-])cc5F)c5ccc2[nH]5)C=C4)C=C3)cc1
REMARK SMILES IDX 6 1 5 2 4 3 3 4 1 5 2 6 32 8 33 9 97 10 34 11 96 12 35 13
REMARK SMILES IDX 36 14 37 15 90 16 38 17 95 18 89 19 91 20 39 21 94 22 88 23
REMARK SMILES IDX 87 24 40 26 74 27 53 28 73 29 54 30 57 31 72 32 92 33 55 34
REMARK SMILES IDX 56 35 71 37 93 38 58 39 41 40 42 41 51 42 43 43 44 44 50 45
REMARK SMILES IDX 52 46 45 47 46 48 47 49 48 50 49 51 75 52 76 53 85 54 77 55
REMARK SMILES IDX 78 56 84 57 86 58 79 59 80 60 81 61 82 62 83 63 59 64 60 65
REMARK SMILES IDX 69 66 61 67 62 68 68 69 70 70 63 71 64 72 65 73 66 74 67 75
REMARK SMILES IDX 7 76 8 77 9 79 10 80 11 81 26 82 12 83 15 84 13 85 14 86
REMARK SMILES IDX 27 87 28 88 31 89 29 90 30 91 16 92 17 93 18 94 19 95 20 96
REMARK SMILES IDX 21 97 25 98 22 99 24 100 23 101
REMARK H PARENT 3 7 91 25 57 36 7 78
REMARK Flexibility Score: inf
ROOT
ATOM      1  C   UNL     1       3.790   3.718  -0.563  1.00  0.00     0.117 C 
ENDROOT
BRANCH   1   2
ATOM      2  C   UNL     1       4.129   2.252  -0.823  1.00  0.00     0.042 C 
BRANCH   2   3
ATOM      3  C   UNL     1       4.057   1.385   0.432  1.00  0.00     0.118 C 
BRANCH   3   4
ATOM      4  N   UNL     1       2.697   0.932   0.682  1.00  0.00    -0.352 N 
ATOM      5  O   UNL     1       0.878  -0.345   0.341  1.00  0.00    -0.269 OA
ATOM      6  C   UNL     1       2.109  -0.266   0.354  1.00  0.00     0.251 C 
ATOM      7  H   UNL     1       2.117   1.573   1.152  1.00  0.00     0.163 HD
BRANCH   6   8
ATOM      8  C   UNL     1       2.931  -1.452   0.020  1.00  0.00     0.039 A 
ATOM      9  C   UNL     1       4.087  -1.745   0.747  1.00  0.00     0.014 A 
ATOM     10  C   UNL     1       2.500  -2.335  -0.977  1.00  0.00     0.014 A 
ATOM     11  C   UNL     1       4.868  -2.846   0.406  1.00  0.00     0.010 A 
ATOM     12  C   UNL     1       3.235  -3.494  -1.254  1.00  0.00     0.010 A 
ATOM     13  C   UNL     1       4.431  -3.757  -0.568  1.00  0.00    -0.014 A 
BRANCH  13  14
ATOM     14  C   UNL     1       5.179  -5.030  -0.757  1.00  0.00     0.031 A 
ATOM     15  C   UNL     1       5.844  -5.366  -2.063  1.00  0.00     0.074 A 
ATOM     16  C   UNL     1       5.262  -5.882   0.286  1.00  0.00     0.049 A 
ATOM     17  N   UNL     1       6.526  -6.436  -2.384  1.00  0.00    -0.248 NA
ATOM     18  C   UNL     1       5.723  -4.385  -3.152  1.00  0.00     0.031 C 
ATOM     19  C   UNL     1       4.635  -5.672   1.596  1.00  0.00     0.029 A 
ATOM     20  N   UNL     1       5.910  -7.083   0.424  1.00  0.00    -0.354 N 
ATOM     21  C   UNL     1       6.901  -6.269  -3.712  1.00  0.00     0.074 A 
ATOM     22  C   UNL     1       6.353  -5.002  -4.146  1.00  0.00     0.031 C 
ATOM     23  C   UNL     1       4.969  -6.680   2.414  1.00  0.00     0.029 A 
ATOM     24  C   UNL     1       5.770  -7.644   1.672  1.00  0.00     0.049 A 
ATOM     25  H   UNL     1       6.427  -7.503  -0.301  1.00  0.00     0.167 HD
ATOM     26  C   UNL     1       7.639  -7.097  -4.492  1.00  0.00     0.037 A 
ATOM     27  C   UNL     1       6.212  -8.817   2.163  1.00  0.00     0.037 A 
ATOM     28  C   UNL     1       8.197  -8.349  -4.040  1.00  0.00     0.049 A 
ATOM     29  C   UNL     1       7.015  -9.719   1.271  1.00  0.00     0.074 A 
ATOM     30  C   UNL     1       8.991  -9.239  -4.744  1.00  0.00     0.029 A 
ATOM     31  N   UNL     1       8.020  -8.890  -2.775  1.00  0.00    -0.354 N 
ATOM     32  N   UNL     1       7.385  -9.527   0.027  1.00  0.00    -0.248 NA
ATOM     33  C   UNL     1       7.457 -10.997   1.842  1.00  0.00     0.031 C 
ATOM     34  C   UNL     1       9.255 -10.338  -3.920  1.00  0.00     0.029 A 
ATOM     35  C   UNL     1       8.670 -10.111  -2.685  1.00  0.00     0.049 A 
ATOM     36  H   UNL     1       7.508  -8.468  -2.047  1.00  0.00     0.167 HD
ATOM     37  C   UNL     1       8.117 -10.652  -0.327  1.00  0.00     0.074 A 
ATOM     38  C   UNL     1       8.156 -11.511   0.840  1.00  0.00     0.031 C 
ATOM     39  C   UNL     1       8.702 -10.950  -1.514  1.00  0.00     0.037 A 
BRANCH  26  40
ATOM     40  C   UNL     1       7.884  -6.696  -5.922  1.00  0.00     0.058 A 
ATOM     41  C   UNL     1       8.771  -5.663  -6.260  1.00  0.00     0.135 A 
ATOM     42  C   UNL     1       7.283  -7.410  -6.973  1.00  0.00     0.135 A 
ATOM     43  F   UNL     1       9.364  -4.939  -5.298  1.00  0.00    -0.206 F 
ATOM     44  C   UNL     1       9.045  -5.343  -7.588  1.00  0.00     0.059 A 
ATOM     45  C   UNL     1       7.561  -7.124  -8.307  1.00  0.00     0.059 A 
ATOM     46  F   UNL     1       6.426  -8.409  -6.707  1.00  0.00    -0.206 F 
ATOM     47  C   UNL     1       8.438  -6.083  -8.604  1.00  0.00     0.060 A 
BRANCH  47  48
ATOM     48  S   UNL     1       8.826  -5.673 -10.320  1.00  0.00     0.124 S 
ATOM     49  O   UNL     1       8.122  -4.405 -10.483  1.00  0.00    -0.237 OA
ATOM     50  O   UNL     1      10.281  -5.593 -10.301  1.00  0.00    -0.237 OA
ATOM     51  O   UNL     1       8.273  -6.797 -11.072  1.00  0.00    -0.744 OA
ENDBRANCH  47  48
ENDBRANCH  26  40
BRANCH  27  52
ATOM     52  C   UNL     1       5.882  -9.211   3.559  1.00  0.00     0.058 A 
ATOM     53  C   UNL     1       6.875  -9.298   4.545  1.00  0.00     0.135 A 
ATOM     54  C   UNL     1       4.560  -9.502   3.936  1.00  0.00     0.135 A 
ATOM     55  F   UNL     1       8.153  -9.033   4.235  1.00  0.00    -0.206 F 
ATOM     56  C   UNL     1       6.575  -9.680   5.849  1.00  0.00     0.059 A 
ATOM     57  C   UNL     1       4.231  -9.855   5.239  1.00  0.00     0.059 A 
ATOM     58  F   UNL     1       3.569  -9.415   3.035  1.00  0.00    -0.206 F 
ATOM     59  C   UNL     1       5.249  -9.957   6.186  1.00  0.00     0.060 A 
BRANCH  59  60
ATOM     60  S   UNL     1       4.863 -10.424   7.887  1.00  0.00     0.124 S 
ATOM     61  O   UNL     1       5.353 -11.797   7.931  1.00  0.00    -0.237 OA
ATOM     62  O   UNL     1       5.627  -9.448   8.656  1.00  0.00    -0.237 OA
ATOM     63  O   UNL     1       3.413 -10.268   7.955  1.00  0.00    -0.744 OA
ENDBRANCH  59  60
ENDBRANCH  27  52
BRANCH  39  64
ATOM     64  C   UNL     1       9.460 -12.245  -1.597  1.00  0.00     0.058 A 
ATOM     65  C   UNL     1       8.802 -13.484  -1.637  1.00  0.00     0.135 A 
ATOM     66  C   UNL     1      10.862 -12.243  -1.672  1.00  0.00     0.135 A 
ATOM     67  F   UNL     1       7.463 -13.541  -1.557  1.00  0.00    -0.206 F 
ATOM     68  C   UNL     1       9.509 -14.679  -1.723  1.00  0.00     0.059 A 
ATOM     69  C   UNL     1      11.588 -13.424  -1.788  1.00  0.00     0.059 A 
ATOM     70  F   UNL     1      11.539 -11.084  -1.646  1.00  0.00    -0.206 F 
ATOM     71  C   UNL     1      10.903 -14.638  -1.799  1.00  0.00     0.060 A 
BRANCH  71  72
ATOM     72  S   UNL     1      11.807 -16.193  -1.940  1.00  0.00     0.124 S 
ATOM     73  O   UNL     1      11.703 -16.718  -0.583  1.00  0.00    -0.237 OA
ATOM     74  O   UNL     1      11.043 -16.909  -2.957  1.00  0.00    -0.237 OA
ATOM     75  O   UNL     1      13.144 -15.773  -2.350  1.00  0.00    -0.744 OA
ENDBRANCH  71  72
ENDBRANCH  39  64
ENDBRANCH  13  14
ENDBRANCH   6   8
ENDBRANCH   3   4
ENDBRANCH   2   3
ENDBRANCH   1   2
BRANCH   1  76
ATOM     76  N   UNL     1       4.784   4.382   0.265  1.00  0.00    -0.356 N 
ATOM     77  C   UNL     1       5.815   5.223  -0.000  1.00  0.00     0.225 C 
ATOM     78  H   UNL     1       4.688   4.177   1.223  1.00  0.00     0.163 HD
ATOM     79  O   UNL     1       6.336   5.730   0.999  1.00  0.00    -0.275 OA
BRANCH  77  80
ATOM     80  C   UNL     1       6.234   5.657  -1.414  1.00  0.00     0.109 C 
ATOM     81  C   UNL     1       6.276   4.599  -2.502  1.00  0.00     0.026 C 
ATOM     82  C   UNL     1       7.643   6.336  -1.363  1.00  0.00     0.164 C 
ATOM     83  C   UNL     1       7.304   3.551  -2.158  1.00  0.00     0.101 C 
ATOM     84  N   UNL     1       8.807   5.429  -1.530  1.00  0.00    -0.332 N 
ATOM     85  C   UNL     1       8.686   4.110  -1.960  1.00  0.00     0.223 C 
ATOM     86  O   UNL     1       9.653   3.355  -2.083  1.00  0.00    -0.275 OA
BRANCH  82  87
ATOM     87  C   UNL     1       7.703   7.454  -2.371  1.00  0.00     0.127 A 
ATOM     88  C   UNL     1       7.165   8.727  -2.380  1.00  0.00     0.048 A 
ATOM     89  O   UNL     1       8.439   7.260  -3.504  1.00  0.00    -0.467 OA
ATOM     90  C   UNL     1       7.625   9.349  -3.565  1.00  0.00     0.042 A 
ATOM     91  C   UNL     1       8.405   8.418  -4.208  1.00  0.00     0.195 A 
ENDBRANCH  82  87
BRANCH  84  92
ATOM     92  C   UNL     1      10.195   5.837  -1.228  1.00  0.00     0.122 C 
BRANCH  92  93
ATOM     93  C   UNL     1      10.636   7.286  -1.002  1.00  0.00     0.050 C 
BRANCH  93  94
ATOM     94  C   UNL     1      10.040   8.155   0.105  1.00  0.00     0.162 C 
BRANCH  94  95
ATOM     95  O   UNL     1      10.411   7.776   1.424  1.00  0.00    -0.378 OA
BRANCH  95  96
ATOM     96  C   UNL     1       9.399   7.113   2.200  1.00  0.00     0.118 C 
ATOM     97  C   UNL     1       9.537   5.605   2.003  1.00  0.00     0.032 C 
ATOM     98  C   UNL     1       9.618   7.519   3.663  1.00  0.00     0.032 C 
ATOM     99  C   UNL     1       8.838   4.742   3.037  1.00  0.00     0.003 C 
ATOM    100  C   UNL     1       8.841   6.646   4.644  1.00  0.00     0.003 C 
ATOM    101  C   UNL     1       9.181   5.174   4.449  1.00  0.00     0.000 C 
ENDBRANCH  95  96
ENDBRANCH  94  95
ENDBRANCH  93  94
ENDBRANCH  92  93
ENDBRANCH  84  92
ENDBRANCH  77  80
ENDBRANCH   1  76
TORSDOF 19
