REMARK SMILES CC[NH2+]C[C@@H](C)C(=O)N1CCO[C@@H](CC(=O)NCCCNC(=O)c2ccc(-c3c4nc(c(-c5c(F)cc(S(=O)(=O)[O-])cc5F)c5ccc([nH]5)c(-c5c(F)cc(S(=O)(=O)[O-])cc5F)c5nc(c(-c6c(F)cc(S(=O)(=O)[O-])cc6F)c6ccc3[nH]6)C=C5)C=C4)cc2)C1
REMARK SMILES IDX 15 1 16 2 17 3 14 5 13 6 9 7 10 8 90 9 11 10 12 11 7 12 8 13
REMARK SMILES IDX 5 14 6 15 4 16 3 17 2 20 1 21 18 22 19 23 20 24 21 25 22 26
REMARK SMILES IDX 23 28 24 29 25 30 89 31 26 32 88 33 27 34 28 35 29 36 82 37
REMARK SMILES IDX 30 38 87 39 81 40 83 41 31 42 86 43 80 44 79 45 32 47 66 48
REMARK SMILES IDX 45 49 65 50 46 51 49 52 64 53 84 54 47 55 48 56 63 58 85 59
REMARK SMILES IDX 50 60 33 61 34 62 43 63 35 64 36 65 42 66 44 67 37 68 38 69
REMARK SMILES IDX 39 70 40 71 41 72 67 73 68 74 77 75 69 76 70 77 76 78 78 79
REMARK SMILES IDX 71 80 72 81 73 82 74 83 75 84 51 85 52 86 61 87 53 88 54 89
REMARK SMILES IDX 60 90 62 91 55 92 56 93 57 94 58 95 59 96
REMARK H PARENT 17 4 3 18 3 19 21 27 83 46 49 57
REMARK Flexibility Score: inf
ROOT
ATOM      1  C   UNL     1       2.971   8.902   4.892  1.00  0.00     0.222 C 
ATOM      2  O   UNL     1       4.149   8.745   5.218  1.00  0.00    -0.275 OA
ATOM      3  N   UNL     1       2.007   8.640   5.821  1.00  0.00    -0.356 N 
ATOM      4  H   UNL     1       2.356   8.369   6.701  1.00  0.00     0.163 HD
ENDROOT
BRANCH   1   5
ATOM      5  C   UNL     1       2.615   9.344   3.490  1.00  0.00     0.133 C 
BRANCH   5   6
ATOM      6  C   UNL     1       2.643   8.187   2.488  1.00  0.00     0.147 C 
ATOM      7  N   UNL     1       1.355   6.130   1.855  1.00  0.00    -0.337 N 
ATOM      8  C   UNL     1       1.103   6.731   0.550  1.00  0.00     0.148 C 
ATOM      9  C   UNL     1       1.615   7.121   2.880  1.00  0.00     0.152 C 
ATOM     10  C   UNL     1       2.234   7.695   0.194  1.00  0.00     0.182 C 
ATOM     11  O   UNL     1       2.344   8.734   1.183  1.00  0.00    -0.374 OA
BRANCH   7  12
ATOM     12  C   UNL     1       0.624   5.024   2.278  1.00  0.00     0.231 C 
ATOM     13  O   UNL     1      -0.299   5.137   3.086  1.00  0.00    -0.274 OA
BRANCH  12  14
ATOM     14  C   UNL     1       1.143   3.651   1.856  1.00  0.00     0.130 C 
ATOM     15  C   UNL     1       2.650   3.561   2.107  1.00  0.00     0.024 C 
BRANCH  14  16
ATOM     16  C   UNL     1       0.735   3.293   0.425  1.00  0.00     0.273 C 
BRANCH  16  17
ATOM     17  N   UNL     1       1.152   1.974  -0.053  1.00  0.00    -0.346 N 
ATOM     18  H   UNL     1       0.944   1.911  -1.050  1.00  0.00     0.346 HD
ATOM     19  H   UNL     1       2.150   1.886   0.138  1.00  0.00     0.346 HD
BRANCH  17  20
ATOM     20  C   UNL     1       0.482   0.869   0.631  1.00  0.00     0.257 C 
ATOM     21  C   UNL     1       0.907  -0.439  -0.018  1.00  0.00     0.071 C 
ENDBRANCH  17  20
ENDBRANCH  16  17
ENDBRANCH  14  16
ENDBRANCH  12  14
ENDBRANCH   7  12
ENDBRANCH   5   6
ENDBRANCH   1   5
BRANCH   3  22
ATOM     22  C   UNL     1       0.549   8.692   5.745  1.00  0.00     0.117 C 
BRANCH  22  23
ATOM     23  C   UNL     1      -0.092   7.303   5.798  1.00  0.00     0.042 C 
BRANCH  23  24
ATOM     24  C   UNL     1      -0.041   6.626   7.160  1.00  0.00     0.118 C 
BRANCH  24  25
ATOM     25  N   UNL     1      -1.198   6.959   7.971  1.00  0.00    -0.352 N 
ATOM     26  C   UNL     1      -2.302   6.207   8.295  1.00  0.00     0.251 C 
ATOM     27  H   UNL     1      -1.190   7.868   8.350  1.00  0.00     0.163 HD
ATOM     28  O   UNL     1      -3.279   6.782   8.774  1.00  0.00    -0.269 OA
BRANCH  26  29
ATOM     29  C   UNL     1      -2.350   4.735   8.083  1.00  0.00     0.039 A 
ATOM     30  C   UNL     1      -3.577   4.150   7.744  1.00  0.00     0.014 A 
ATOM     31  C   UNL     1      -1.244   3.909   8.304  1.00  0.00     0.014 A 
ATOM     32  C   UNL     1      -3.685   2.761   7.599  1.00  0.00     0.010 A 
ATOM     33  C   UNL     1      -1.333   2.532   8.081  1.00  0.00     0.010 A 
ATOM     34  C   UNL     1      -2.559   1.937   7.749  1.00  0.00    -0.014 A 
BRANCH  34  35
ATOM     35  C   UNL     1      -2.658   0.457   7.605  1.00  0.00     0.031 A 
ATOM     36  C   UNL     1      -2.376  -0.442   8.784  1.00  0.00     0.074 A 
ATOM     37  C   UNL     1      -2.963  -0.088   6.411  1.00  0.00     0.049 A 
ATOM     38  N   UNL     1      -2.353  -1.750   8.842  1.00  0.00    -0.248 NA
ATOM     39  C   UNL     1      -2.053   0.217  10.059  1.00  0.00     0.031 C 
ATOM     40  C   UNL     1      -3.224   0.662   5.181  1.00  0.00     0.029 A 
ATOM     41  N   UNL     1      -3.098  -1.402   6.032  1.00  0.00    -0.354 N 
ATOM     42  C   UNL     1      -1.996  -2.069  10.148  1.00  0.00     0.074 A 
ATOM     43  C   UNL     1      -1.765  -0.817  10.836  1.00  0.00     0.031 C 
ATOM     44  C   UNL     1      -3.510  -0.201   4.192  1.00  0.00     0.029 A 
ATOM     45  C   UNL     1      -3.416  -1.565   4.704  1.00  0.00     0.049 A 
ATOM     46  H   UNL     1      -2.979  -2.156   6.653  1.00  0.00     0.167 HD
ATOM     47  C   UNL     1      -1.889  -3.289  10.729  1.00  0.00     0.037 A 
ATOM     48  C   UNL     1      -3.605  -2.684   3.977  1.00  0.00     0.037 A 
ATOM     49  C   UNL     1      -2.153  -4.534  10.055  1.00  0.00     0.049 A 
ATOM     50  C   UNL     1      -3.487  -4.029   4.644  1.00  0.00     0.074 A 
ATOM     51  C   UNL     1      -2.132  -5.816  10.576  1.00  0.00     0.029 A 
ATOM     52  N   UNL     1      -2.485  -4.654   8.713  1.00  0.00    -0.354 N 
ATOM     53  N   UNL     1      -3.200  -4.307   5.894  1.00  0.00    -0.248 NA
ATOM     54  C   UNL     1      -3.720  -5.212   3.804  1.00  0.00     0.031 C 
ATOM     55  C   UNL     1      -2.414  -6.714   9.540  1.00  0.00     0.029 A 
ATOM     56  C   UNL     1      -2.652  -5.989   8.384  1.00  0.00     0.049 A 
ATOM     57  H   UNL     1      -2.588  -3.901   8.088  1.00  0.00     0.167 HD
ATOM     58  C   UNL     1      -3.238  -5.694   5.993  1.00  0.00     0.074 A 
ATOM     59  C   UNL     1      -3.590  -6.198   4.682  1.00  0.00     0.031 C 
ATOM     60  C   UNL     1      -3.002  -6.479   7.074  1.00  0.00     0.037 A 
BRANCH  47  61
ATOM     61  C   UNL     1      -1.469  -3.337  12.174  1.00  0.00     0.058 A 
ATOM     62  C   UNL     1      -2.324  -2.917  13.205  1.00  0.00     0.135 A 
ATOM     63  C   UNL     1      -0.206  -3.836  12.535  1.00  0.00     0.135 A 
ATOM     64  F   UNL     1      -3.538  -2.421  12.917  1.00  0.00    -0.206 F 
ATOM     65  C   UNL     1      -1.930  -2.954  14.539  1.00  0.00     0.059 A 
ATOM     66  C   UNL     1       0.199  -3.908  13.865  1.00  0.00     0.059 A 
ATOM     67  F   UNL     1       0.650  -4.255  11.590  1.00  0.00    -0.206 F 
ATOM     68  C   UNL     1      -0.664  -3.448  14.859  1.00  0.00     0.060 A 
BRANCH  68  69
ATOM     69  S   UNL     1      -0.163  -3.482  16.593  1.00  0.00     0.124 S 
ATOM     70  O   UNL     1       0.107  -2.070  16.844  1.00  0.00    -0.237 OA
ATOM     71  O   UNL     1      -1.346  -4.027  17.251  1.00  0.00    -0.237 OA
ATOM     72  O   UNL     1       1.008  -4.354  16.592  1.00  0.00    -0.744 OA
ENDBRANCH  68  69
ENDBRANCH  47  61
BRANCH  48  73
ATOM     73  C   UNL     1      -3.948  -2.579   2.534  1.00  0.00     0.058 A 
ATOM     74  C   UNL     1      -5.235  -2.897   2.076  1.00  0.00     0.135 A 
ATOM     75  C   UNL     1      -3.005  -2.144   1.589  1.00  0.00     0.135 A 
ATOM     76  F   UNL     1      -6.168  -3.325   2.940  1.00  0.00    -0.206 F 
ATOM     77  C   UNL     1      -5.574  -2.799   0.730  1.00  0.00     0.059 A 
ATOM     78  C   UNL     1      -3.328  -2.016   0.241  1.00  0.00     0.059 A 
ATOM     79  F   UNL     1      -1.765  -1.812   1.979  1.00  0.00    -0.206 F 
ATOM     80  C   UNL     1      -4.613  -2.355  -0.180  1.00  0.00     0.060 A 
BRANCH  80  81
ATOM     81  S   UNL     1      -5.081  -2.182  -1.916  1.00  0.00     0.124 S 
ATOM     82  O   UNL     1      -5.131  -3.574  -2.346  1.00  0.00    -0.237 OA
ATOM     83  O   UNL     1      -6.366  -1.496  -1.821  1.00  0.00    -0.237 OA
ATOM     84  O   UNL     1      -3.994  -1.385  -2.477  1.00  0.00    -0.744 OA
ENDBRANCH  80  81
ENDBRANCH  48  73
BRANCH  60  85
ATOM     85  C   UNL     1      -3.131  -7.966   6.892  1.00  0.00     0.058 A 
ATOM     86  C   UNL     1      -2.164  -8.708   6.196  1.00  0.00     0.135 A 
ATOM     87  C   UNL     1      -4.207  -8.664   7.464  1.00  0.00     0.135 A 
ATOM     88  F   UNL     1      -1.119  -8.089   5.625  1.00  0.00    -0.206 F 
ATOM     89  C   UNL     1      -2.270 -10.088   6.056  1.00  0.00     0.059 A 
ATOM     90  C   UNL     1      -4.320 -10.047   7.358  1.00  0.00     0.059 A 
ATOM     91  F   UNL     1      -5.154  -8.003   8.149  1.00  0.00    -0.206 F 
ATOM     92  C   UNL     1      -3.352 -10.749   6.642  1.00  0.00     0.060 A 
BRANCH  92  93
ATOM     93  S   UNL     1      -3.459 -12.545   6.482  1.00  0.00     0.124 S 
ATOM     94  O   UNL     1      -3.894 -12.692   5.097  1.00  0.00    -0.237 OA
ATOM     95  O   UNL     1      -2.091 -12.968   6.766  1.00  0.00    -0.237 OA
ATOM     96  O   UNL     1      -4.445 -12.917   7.493  1.00  0.00    -0.744 OA
ENDBRANCH  92  93
ENDBRANCH  60  85
ENDBRANCH  34  35
ENDBRANCH  26  29
ENDBRANCH  24  25
ENDBRANCH  23  24
ENDBRANCH  22  23
ENDBRANCH   3  22
TORSDOF 19
