REMARK SMILES O=C1C[N@@H+](Cc2ccc(C(=O)NCCCNC(=O)c3ccc(-c4c5nc(c(-c6c(F)cc(S(=O)(=O)[O-])cc6F)c6ccc([nH]6)c(-c6c(F)cc(S(=O)(=O)[O-])cc6F)c6nc(c(-c7c(F)cc(S(=O)(=O)[O-])cc7F)c7ccc4[nH]7)C=C6)C=C5)cc3)cc2)CCN1
REMARK SMILES IDX 14 1 13 2 12 3 10 4 11 5 9 7 6 8 7 9 86 10 8 11 85 12 5 13
REMARK SMILES IDX 4 14 1 15 2 16 3 17 89 18 88 19 87 21 15 23 16 24 17 25
REMARK SMILES IDX 18 27 19 28 20 29 84 30 21 31 83 32 22 33 23 34 24 35 77 36
REMARK SMILES IDX 25 37 82 38 76 39 78 40 26 41 81 42 75 43 74 44 27 46 61 47
REMARK SMILES IDX 40 48 60 49 41 50 44 51 59 52 79 53 42 54 43 55 58 57 80 58
REMARK SMILES IDX 45 59 28 60 29 61 38 62 30 63 31 64 37 65 39 66 32 67 33 68
REMARK SMILES IDX 34 69 35 70 36 71 62 72 63 73 72 74 64 75 65 76 71 77 73 78
REMARK SMILES IDX 66 79 67 80 68 81 69 82 70 83 46 84 47 85 56 86 48 87 49 88
REMARK SMILES IDX 55 89 57 90 50 91 51 92 52 93 53 94 54 95
REMARK H PARENT 12 6 89 20 4 22 16 26 78 45 44 56
REMARK Flexibility Score: inf
ROOT
ATOM      1  C   UNL     1      -1.457   5.854   2.585  1.00  0.00     0.042 C 
ENDROOT
BRANCH   1   2
ATOM      2  C   UNL     1      -0.170   5.039   2.472  1.00  0.00     0.118 C 
BRANCH   2   3
ATOM      3  N   UNL     1       0.371   4.698   3.778  1.00  0.00    -0.352 N 
ATOM      4  C   UNL     1       0.423   3.492   4.435  1.00  0.00     0.251 C 
ATOM      5  O   UNL     1       1.050   3.403   5.487  1.00  0.00    -0.269 OA
ATOM      6  H   UNL     1       0.764   5.453   4.272  1.00  0.00     0.163 HD
BRANCH   4   7
ATOM      7  C   UNL     1      -0.198   2.284   3.850  1.00  0.00     0.039 A 
ATOM      8  C   UNL     1      -1.181   0.021   2.523  1.00  0.00     0.006 A 
ATOM      9  C   UNL     1       0.078  -0.010   3.140  1.00  0.00     0.010 A 
ATOM     10  C   UNL     1      -1.990   1.155   2.688  1.00  0.00     0.010 A 
ATOM     11  C   UNL     1       0.568   1.117   3.799  1.00  0.00     0.014 A 
ATOM     12  C   UNL     1      -1.504   2.280   3.355  1.00  0.00     0.014 A 
BRANCH   8  13
ATOM     13  C   UNL     1      -1.650  -1.128   1.665  1.00  0.00     0.299 C 
BRANCH  13  14
ATOM     14  N   UNL     1      -1.228  -1.123   0.262  1.00  0.00    -0.322 N 
ATOM     15  O   UNL     1       2.314  -0.238   0.197  1.00  0.00    -0.269 OA
ATOM     16  C   UNL     1       1.105  -0.167  -0.024  1.00  0.00     0.275 C 
ATOM     17  C   UNL     1       0.199  -1.399   0.029  1.00  0.00     0.363 C 
ATOM     18  N   UNL     1       0.564   1.015  -0.449  1.00  0.00    -0.346 N 
ATOM     19  C   UNL     1      -0.856   1.255  -0.553  1.00  0.00     0.177 C 
ATOM     20  H   UNL     1       1.178   1.743  -0.698  1.00  0.00     0.163 HD
ATOM     21  C   UNL     1      -1.715  -0.020  -0.570  1.00  0.00     0.284 C 
ATOM     22  H   UNL     1      -1.735  -1.941  -0.075  1.00  0.00     0.348 HD
ENDBRANCH  13  14
ENDBRANCH   8  13
ENDBRANCH   4   7
ENDBRANCH   2   3
ENDBRANCH   1   2
BRANCH   1  23
ATOM     23  C   UNL     1      -1.253   7.255   3.154  1.00  0.00     0.118 C 
BRANCH  23  24
ATOM     24  N   UNL     1      -0.542   8.129   2.234  1.00  0.00    -0.352 N 
ATOM     25  C   UNL     1      -0.908   9.342   1.704  1.00  0.00     0.251 C 
ATOM     26  H   UNL     1       0.340   7.800   1.947  1.00  0.00     0.163 HD
ATOM     27  O   UNL     1      -0.239   9.819   0.790  1.00  0.00    -0.269 OA
BRANCH  25  28
ATOM     28  C   UNL     1      -2.102  10.066   2.202  1.00  0.00     0.039 A 
ATOM     29  C   UNL     1      -2.913  10.732   1.278  1.00  0.00     0.014 A 
ATOM     30  C   UNL     1      -2.407  10.131   3.564  1.00  0.00     0.014 A 
ATOM     31  C   UNL     1      -4.055  11.411   1.712  1.00  0.00     0.010 A 
ATOM     32  C   UNL     1      -3.586  10.745   3.988  1.00  0.00     0.010 A 
ATOM     33  C   UNL     1      -4.421  11.396   3.068  1.00  0.00    -0.014 A 
BRANCH  33  34
ATOM     34  C   UNL     1      -5.679  12.040   3.530  1.00  0.00     0.031 A 
ATOM     35  C   UNL     1      -5.641  13.201   4.487  1.00  0.00     0.074 A 
ATOM     36  C   UNL     1      -6.864  11.531   3.139  1.00  0.00     0.049 A 
ATOM     37  N   UNL     1      -6.635  13.857   5.029  1.00  0.00    -0.248 NA
ATOM     38  C   UNL     1      -4.312  13.667   4.912  1.00  0.00     0.031 C 
ATOM     39  C   UNL     1      -7.035  10.366   2.268  1.00  0.00     0.029 A 
ATOM     40  N   UNL     1      -8.148  11.915   3.435  1.00  0.00    -0.354 N 
ATOM     41  C   UNL     1      -6.056  14.797   5.873  1.00  0.00     0.074 A 
ATOM     42  C   UNL     1      -4.624  14.595   5.806  1.00  0.00     0.031 C 
ATOM     43  C   UNL     1      -8.346  10.138   2.091  1.00  0.00     0.029 A 
ATOM     44  C   UNL     1      -9.109  11.116   2.861  1.00  0.00     0.049 A 
ATOM     45  H   UNL     1      -8.361  12.689   4.005  1.00  0.00     0.167 HD
ATOM     46  C   UNL     1      -6.660  15.751   6.623  1.00  0.00     0.037 A 
ATOM     47  C   UNL     1     -10.453  11.157   2.949  1.00  0.00     0.037 A 
ATOM     48  C   UNL     1      -8.085  15.961   6.666  1.00  0.00     0.049 A 
ATOM     49  C   UNL     1     -11.104  12.242   3.760  1.00  0.00     0.074 A 
ATOM     50  C   UNL     1      -8.789  16.956   7.322  1.00  0.00     0.029 A 
ATOM     51  N   UNL     1      -9.025  15.155   6.040  1.00  0.00    -0.354 N 
ATOM     52  N   UNL     1     -10.538  13.183   4.477  1.00  0.00    -0.248 NA
ATOM     53  C   UNL     1     -12.572  12.280   3.764  1.00  0.00     0.031 C 
ATOM     54  C   UNL     1     -10.156  16.723   7.134  1.00  0.00     0.029 A 
ATOM     55  C   UNL     1     -10.304  15.612   6.318  1.00  0.00     0.049 A 
ATOM     56  H   UNL     1      -8.815  14.373   5.480  1.00  0.00     0.167 HD
ATOM     57  C   UNL     1     -11.581  13.935   5.008  1.00  0.00     0.074 A 
ATOM     58  C   UNL     1     -12.810  13.349   4.513  1.00  0.00     0.031 C 
ATOM     59  C   UNL     1     -11.523  15.013   5.829  1.00  0.00     0.037 A 
BRANCH  46  60
ATOM     60  C   UNL     1      -5.780  16.633   7.469  1.00  0.00     0.058 A 
ATOM     61  C   UNL     1      -4.914  17.582   6.901  1.00  0.00     0.135 A 
ATOM     62  C   UNL     1      -5.813  16.538   8.870  1.00  0.00     0.135 A 
ATOM     63  F   UNL     1      -4.833  17.710   5.566  1.00  0.00    -0.206 F 
ATOM     64  C   UNL     1      -4.081  18.372   7.687  1.00  0.00     0.059 A 
ATOM     65  C   UNL     1      -5.011  17.340   9.678  1.00  0.00     0.059 A 
ATOM     66  F   UNL     1      -6.625  15.653   9.469  1.00  0.00    -0.206 F 
ATOM     67  C   UNL     1      -4.133  18.239   9.075  1.00  0.00     0.060 A 
BRANCH  67  68
ATOM     68  S   UNL     1      -3.030  19.255  10.082  1.00  0.00     0.124 S 
ATOM     69  O   UNL     1      -1.745  18.601   9.853  1.00  0.00    -0.237 OA
ATOM     70  O   UNL     1      -3.185  20.575   9.480  1.00  0.00    -0.237 OA
ATOM     71  O   UNL     1      -3.574  19.115  11.429  1.00  0.00    -0.744 OA
ENDBRANCH  67  68
ENDBRANCH  46  60
BRANCH  47  72
ATOM     72  C   UNL     1     -11.261  10.139   2.228  1.00  0.00     0.058 A 
ATOM     73  C   UNL     1     -11.982  10.471   1.072  1.00  0.00     0.135 A 
ATOM     74  C   UNL     1     -11.275   8.798   2.646  1.00  0.00     0.135 A 
ATOM     75  F   UNL     1     -12.004  11.740   0.638  1.00  0.00    -0.206 F 
ATOM     76  C   UNL     1     -12.686   9.511   0.352  1.00  0.00     0.059 A 
ATOM     77  C   UNL     1     -11.952   7.816   1.930  1.00  0.00     0.059 A 
ATOM     78  F   UNL     1     -10.586   8.427   3.736  1.00  0.00    -0.206 F 
ATOM     79  C   UNL     1     -12.656   8.183   0.784  1.00  0.00     0.060 A 
BRANCH  79  80
ATOM     80  S   UNL     1     -13.491   6.929  -0.212  1.00  0.00     0.124 S 
ATOM     81  O   UNL     1     -14.893   7.206   0.080  1.00  0.00    -0.237 OA
ATOM     82  O   UNL     1     -13.041   7.260  -1.561  1.00  0.00    -0.237 OA
ATOM     83  O   UNL     1     -12.969   5.675   0.323  1.00  0.00    -0.744 OA
ENDBRANCH  79  80
ENDBRANCH  47  72
BRANCH  59  84
ATOM     84  C   UNL     1     -12.827  15.641   6.238  1.00  0.00     0.058 A 
ATOM     85  C   UNL     1     -13.693  15.016   7.149  1.00  0.00     0.135 A 
ATOM     86  C   UNL     1     -13.195  16.904   5.746  1.00  0.00     0.135 A 
ATOM     87  F   UNL     1     -13.392  13.805   7.645  1.00  0.00    -0.206 F 
ATOM     88  C   UNL     1     -14.889  15.609   7.539  1.00  0.00     0.059 A 
ATOM     89  C   UNL     1     -14.374  17.528   6.143  1.00  0.00     0.059 A 
ATOM     90  F   UNL     1     -12.399  17.550   4.879  1.00  0.00    -0.206 F 
ATOM     91  C   UNL     1     -15.221  16.867   7.030  1.00  0.00     0.060 A 
BRANCH  91  92
ATOM     92  S   UNL     1     -16.764  17.637   7.563  1.00  0.00     0.124 S 
ATOM     93  O   UNL     1     -17.752  16.858   6.824  1.00  0.00    -0.237 OA
ATOM     94  O   UNL     1     -16.739  17.423   9.007  1.00  0.00    -0.237 OA
ATOM     95  O   UNL     1     -16.614  19.026   7.139  1.00  0.00    -0.744 OA
ENDBRANCH  91  92
ENDBRANCH  59  84
ENDBRANCH  33  34
ENDBRANCH  25  28
ENDBRANCH  23  24
ENDBRANCH   1  23
TORSDOF 15
