REMARK SMILES C[C@H](C(=O)NCCCNC(=O)c1ccc(-c2c3nc(c(-c4c(F)cc(S(=O)(=O)[O-])cc4F)c4ccc([nH]4)c(-c4c(F)cc(S(=O)(=O)[O-])cc4F)c4nc(c(-c5c(F)cc(S(=O)(=O)[O-])cc5F)c5ccc2[nH]5)C=C4)C=C3)cc1)N1CCCC[C@H](NC(=O)OC(C)(C)C)C1=O
REMARK SMILES IDX 3 1 4 2 5 3 2 5 1 6 78 7 79 8 80 9 81 10 82 11 92 13 93 14
REMARK SMILES IDX 83 15 84 17 85 18 86 20 87 21 88 22 89 23 90 24 91 25 6 26
REMARK SMILES IDX 7 27 8 28 9 29 10 30 11 32 12 33 13 34 77 35 14 36 76 37
REMARK SMILES IDX 15 38 16 39 17 40 70 41 18 42 75 43 69 44 71 45 19 46 74 47
REMARK SMILES IDX 68 48 67 49 20 51 54 52 33 53 53 54 34 55 37 56 52 57 72 58
REMARK SMILES IDX 35 59 36 60 51 62 73 63 38 64 21 65 22 66 31 67 23 68 24 69
REMARK SMILES IDX 30 70 32 71 25 72 26 73 27 74 28 75 29 76 55 77 56 78 65 79
REMARK SMILES IDX 57 80 58 81 64 82 66 83 59 84 60 85 61 86 62 87 63 88 39 89
REMARK SMILES IDX 40 90 49 91 41 92 42 93 48 94 50 95 43 96 44 97 45 98 46 99
REMARK SMILES IDX 47 100
REMARK H PARENT 5 4 84 19 9 31 71 50 37 61
REMARK Flexibility Score: 90.00
ROOT
ATOM      1  C   UNL     1       1.192   0.097  -0.075  1.00  0.00     0.242 C 
ATOM      2  O   UNL     1       2.219   0.773   0.056  1.00  0.00    -0.273 OA
ATOM      3  N   UNL     1       0.908  -0.316  -1.347  1.00  0.00    -0.354 N 
ATOM      4  H   UNL     1       1.446   0.107  -2.055  1.00  0.00     0.163 HD
ENDROOT
BRANCH   1   5
ATOM      5  C   UNL     1       0.434  -0.484   1.159  1.00  0.00     0.171 C 
ATOM      6  C   UNL     1       0.888   0.225   2.442  1.00  0.00     0.042 C 
BRANCH   5   7
ATOM      7  N   UNL     1      -1.048  -0.582   1.113  1.00  0.00    -0.329 N 
BRANCH   7   8
ATOM      8  C   UNL     1      -1.667  -1.809   1.628  1.00  0.00     0.120 C 
BRANCH   8   9
ATOM      9  C   UNL     1      -2.678  -2.451   0.676  1.00  0.00     0.022 C 
BRANCH   9  10
ATOM     10  C   UNL     1      -4.041  -1.770   0.569  1.00  0.00     0.004 C 
BRANCH  10  11
ATOM     11  C   UNL     1      -4.037  -0.276   0.250  1.00  0.00     0.035 CG0
ATOM     12  G   UNL     1      -3.277   0.543   1.290  1.00  0.00     0.000 G0
ENDBRANCH  10  11
ENDBRANCH   9  10
ENDBRANCH   8   9
ENDBRANCH   7   8
BRANCH   7  13
ATOM     13  C   UNL     1      -1.765   0.614   1.002  1.00  0.00     0.245 C 
ATOM     14  O   UNL     1      -1.217   1.664   0.663  1.00  0.00    -0.272 OA
BRANCH  13  15
ATOM     15  C   UNL     1      -3.277   0.543   1.290  1.00  0.00     0.175 CG0
ATOM     16  G   UNL     1      -4.037  -0.276   0.250  1.00  0.00     0.000 G0
BRANCH  15  17
ATOM     17  N   UNL     1      -3.848   1.880   1.391  1.00  0.00    -0.310 N 
ATOM     18  C   UNL     1      -4.446   2.381   2.506  1.00  0.00     0.408 C 
ATOM     19  H   UNL     1      -3.797   2.461   0.598  1.00  0.00     0.167 HD
ATOM     20  O   UNL     1      -5.061   3.438   2.501  1.00  0.00    -0.225 OA
BRANCH  18  21
ATOM     21  O   UNL     1      -4.289   1.556   3.561  1.00  0.00    -0.444 OA
BRANCH  21  22
ATOM     22  C   UNL     1      -5.122   1.614   4.739  1.00  0.00     0.106 C 
ATOM     23  C   UNL     1      -5.224   3.008   5.359  1.00  0.00     0.056 C 
ATOM     24  C   UNL     1      -6.494   1.037   4.385  1.00  0.00     0.056 C 
ATOM     25  C   UNL     1      -4.417   0.678   5.732  1.00  0.00     0.056 C 
ENDBRANCH  21  22
ENDBRANCH  18  21
ENDBRANCH  15  17
ENDBRANCH  13  15
ENDBRANCH   7  13
ENDBRANCH   5   7
ENDBRANCH   1   5
BRANCH   3  26
ATOM     26  C   UNL     1      -0.065  -1.280  -1.805  1.00  0.00     0.117 C 
BRANCH  26  27
ATOM     27  C   UNL     1      -1.372  -0.619  -2.212  1.00  0.00     0.042 C 
BRANCH  27  28
ATOM     28  C   UNL     1      -1.358  -0.005  -3.600  1.00  0.00     0.118 C 
BRANCH  28  29
ATOM     29  N   UNL     1      -1.495  -1.021  -4.634  1.00  0.00    -0.352 N 
ATOM     30  C   UNL     1      -2.529  -1.256  -5.510  1.00  0.00     0.251 C 
ATOM     31  H   UNL     1      -0.730  -1.635  -4.718  1.00  0.00     0.163 HD
ATOM     32  O   UNL     1      -2.560  -2.321  -6.123  1.00  0.00    -0.269 OA
BRANCH  30  33
ATOM     33  C   UNL     1      -3.602  -0.253  -5.712  1.00  0.00     0.039 A 
ATOM     34  C   UNL     1      -4.911  -0.690  -5.949  1.00  0.00     0.014 A 
ATOM     35  C   UNL     1      -3.323   1.115  -5.720  1.00  0.00     0.014 A 
ATOM     36  C   UNL     1      -5.939   0.241  -6.137  1.00  0.00     0.010 A 
ATOM     37  C   UNL     1      -4.358   2.039  -5.811  1.00  0.00     0.010 A 
ATOM     38  C   UNL     1      -5.676   1.615  -6.041  1.00  0.00    -0.014 A 
BRANCH  38  39
ATOM     39  C   UNL     1      -6.729   2.647  -6.223  1.00  0.00     0.031 A 
ATOM     40  C   UNL     1      -6.592   3.652  -7.337  1.00  0.00     0.074 A 
ATOM     41  C   UNL     1      -7.735   2.758  -5.334  1.00  0.00     0.049 A 
ATOM     42  N   UNL     1      -7.268   4.749  -7.554  1.00  0.00    -0.248 NA
ATOM     43  C   UNL     1      -5.519   3.404  -8.314  1.00  0.00     0.031 C 
ATOM     44  C   UNL     1      -7.961   1.866  -4.197  1.00  0.00     0.029 A 
ATOM     45  N   UNL     1      -8.735   3.693  -5.229  1.00  0.00    -0.354 N 
ATOM     46  C   UNL     1      -6.678   5.343  -8.664  1.00  0.00     0.074 A 
ATOM     47  C   UNL     1      -5.561   4.507  -9.045  1.00  0.00     0.031 C 
ATOM     48  C   UNL     1      -9.028   2.299  -3.506  1.00  0.00     0.029 A 
ATOM     49  C   UNL     1      -9.531   3.525  -4.120  1.00  0.00     0.049 A 
ATOM     50  H   UNL     1      -8.869   4.415  -5.884  1.00  0.00     0.167 HD
ATOM     51  C   UNL     1      -7.042   6.474  -9.315  1.00  0.00     0.037 A 
ATOM     52  C   UNL     1     -10.533   4.286  -3.635  1.00  0.00     0.037 A 
ATOM     53  C   UNL     1      -8.173   7.282  -8.943  1.00  0.00     0.049 A 
ATOM     54  C   UNL     1     -10.930   5.535  -4.373  1.00  0.00     0.074 A 
ATOM     55  C   UNL     1      -8.665   8.415  -9.567  1.00  0.00     0.029 A 
ATOM     56  N   UNL     1      -8.989   7.043  -7.846  1.00  0.00    -0.354 N 
ATOM     57  N   UNL     1     -10.393   6.061  -5.449  1.00  0.00    -0.248 NA
ATOM     58  C   UNL     1     -12.072   6.291  -3.841  1.00  0.00     0.031 C 
ATOM     59  C   UNL     1      -9.751   8.885  -8.823  1.00  0.00     0.029 A 
ATOM     60  C   UNL     1      -9.972   8.015  -7.766  1.00  0.00     0.049 A 
ATOM     61  H   UNL     1      -8.883   6.294  -7.216  1.00  0.00     0.167 HD
ATOM     62  C   UNL     1     -11.150   7.190  -5.741  1.00  0.00     0.074 A 
ATOM     63  C   UNL     1     -12.181   7.274  -4.726  1.00  0.00     0.031 C 
ATOM     64  C   UNL     1     -11.007   8.071  -6.762  1.00  0.00     0.037 A 
BRANCH  51  65
ATOM     65  C   UNL     1      -6.194   6.903 -10.483  1.00  0.00     0.058 A 
ATOM     66  C   UNL     1      -6.143   6.160 -11.675  1.00  0.00     0.135 A 
ATOM     67  C   UNL     1      -5.409   8.065 -10.406  1.00  0.00     0.135 A 
ATOM     68  F   UNL     1      -6.864   5.035 -11.802  1.00  0.00    -0.206 F 
ATOM     69  C   UNL     1      -5.300   6.519 -12.722  1.00  0.00     0.059 A 
ATOM     70  C   UNL     1      -4.585   8.463 -11.455  1.00  0.00     0.059 A 
ATOM     71  F   UNL     1      -5.423   8.819  -9.296  1.00  0.00    -0.206 F 
ATOM     72  C   UNL     1      -4.516   7.667 -12.598  1.00  0.00     0.060 A 
BRANCH  72  73
ATOM     73  S   UNL     1      -3.393   8.095 -13.945  1.00  0.00     0.124 S 
ATOM     74  O   UNL     1      -2.333   7.109 -13.762  1.00  0.00    -0.237 OA
ATOM     75  O   UNL     1      -4.233   7.910 -15.124  1.00  0.00    -0.237 OA
ATOM     76  O   UNL     1      -3.023   9.477 -13.653  1.00  0.00    -0.744 OA
ENDBRANCH  72  73
ENDBRANCH  51  65
BRANCH  52  77
ATOM     77  C   UNL     1     -11.233   3.861  -2.394  1.00  0.00     0.058 A 
ATOM     78  C   UNL     1     -12.527   3.325  -2.445  1.00  0.00     0.135 A 
ATOM     79  C   UNL     1     -10.596   3.916  -1.143  1.00  0.00     0.135 A 
ATOM     80  F   UNL     1     -13.180   3.259  -3.615  1.00  0.00    -0.206 F 
ATOM     81  C   UNL     1     -13.163   2.848  -1.304  1.00  0.00     0.059 A 
ATOM     82  C   UNL     1     -11.203   3.424   0.009  1.00  0.00     0.059 A 
ATOM     83  F   UNL     1      -9.351   4.405  -1.045  1.00  0.00    -0.206 F 
ATOM     84  C   UNL     1     -12.488   2.890  -0.082  1.00  0.00     0.060 A 
BRANCH  84  85
ATOM     85  S   UNL     1     -13.286   2.171   1.371  1.00  0.00     0.124 S 
ATOM     86  O   UNL     1     -14.328   3.152   1.652  1.00  0.00    -0.237 OA
ATOM     87  O   UNL     1     -13.744   0.882   0.861  1.00  0.00    -0.237 OA
ATOM     88  O   UNL     1     -12.204   2.098   2.349  1.00  0.00    -0.744 OA
ENDBRANCH  84  85
ENDBRANCH  52  77
BRANCH  64  89
ATOM     89  C   UNL     1     -12.017   9.178  -6.884  1.00  0.00     0.058 A 
ATOM     90  C   UNL     1     -12.000  10.296  -6.039  1.00  0.00     0.135 A 
ATOM     91  C   UNL     1     -12.948   9.163  -7.937  1.00  0.00     0.135 A 
ATOM     92  F   UNL     1     -11.137  10.356  -5.013  1.00  0.00    -0.206 F 
ATOM     93  C   UNL     1     -12.871  11.365  -6.233  1.00  0.00     0.059 A 
ATOM     94  C   UNL     1     -13.810  10.231  -8.165  1.00  0.00     0.059 A 
ATOM     95  F   UNL     1     -13.000   8.119  -8.779  1.00  0.00    -0.206 F 
ATOM     96  C   UNL     1     -13.765  11.328  -7.306  1.00  0.00     0.060 A 
BRANCH  96  97
ATOM     97  S   UNL     1     -14.832  12.755  -7.596  1.00  0.00     0.124 S 
ATOM     98  O   UNL     1     -15.798  12.626  -6.510  1.00  0.00    -0.237 OA
ATOM     99  O   UNL     1     -13.898  13.871  -7.484  1.00  0.00    -0.237 OA
ATOM    100  O   UNL     1     -15.360  12.519  -8.936  1.00  0.00    -0.744 OA
ENDBRANCH  96  97
ENDBRANCH  64  89
ENDBRANCH  38  39
ENDBRANCH  30  33
ENDBRANCH  28  29
ENDBRANCH  27  28
ENDBRANCH  26  27
ENDBRANCH   3  26
TORSDOF 17
