REMARK SMILES CN(C)C(=O)c1cccc(N2CCC3(CC2)[C@H](C(=O)NCCCNC(=O)c2ccc(-c4c5nc(c(-c6c(F)cc(S(=O)(=O)[O-])cc6F)c6ccc([nH]6)c(-c6c(F)cc(S(=O)(=O)[O-])cc6F)c6nc(c(-c7c(F)cc(S(=O)(=O)[O-])cc7F)c7ccc4[nH]7)C=C6)C=C5)cc2)CC(=O)N3C)n1
REMARK SMILES IDX 22 1 21 2 20 3 18 4 19 5 17 7 11 8 12 9 16 10 13 11 15 12
REMARK SMILES IDX 14 13 96 14 93 15 94 16 97 17 95 18 10 19 6 20 7 21 98 22
REMARK SMILES IDX 8 23 9 24 4 25 1 26 2 27 3 28 5 29 23 30 24 31 25 32 26 34
REMARK SMILES IDX 27 35 28 36 92 37 29 38 91 39 30 40 31 41 32 42 85 43 33 44
REMARK SMILES IDX 90 45 84 46 86 47 34 48 89 49 83 50 82 51 35 53 69 54 48 55
REMARK SMILES IDX 68 56 49 57 52 58 67 59 87 60 50 61 51 62 66 64 88 65 53 66
REMARK SMILES IDX 36 67 37 68 46 69 38 70 39 71 45 72 47 73 40 74 41 75 42 76
REMARK SMILES IDX 43 77 44 78 70 79 71 80 80 81 72 82 73 83 79 84 81 85 74 86
REMARK SMILES IDX 75 87 76 88 77 89 78 90 54 91 55 92 64 93 56 94 57 95 63 96
REMARK SMILES IDX 65 97 58 98 59 99 60 100 61 101 62 102
REMARK H PARENT 20 6 24 33 86 52 52 63
REMARK Flexibility Score: inf
ROOT
ATOM      1  C   UNL     1       6.371   4.162  -7.094  1.00  0.00     0.042 C 
ENDROOT
BRANCH   1   2
ATOM      2  C   UNL     1       6.086   5.150  -8.230  1.00  0.00     0.117 C 
BRANCH   2   3
ATOM      3  N   UNL     1       4.859   4.899  -8.981  1.00  0.00    -0.356 N 
ATOM      4  C   UNL     1       3.667   5.535  -9.097  1.00  0.00     0.226 C 
ATOM      5  O   UNL     1       2.870   5.051  -9.911  1.00  0.00    -0.275 OA
ATOM      6  H   UNL     1       4.909   4.081  -9.527  1.00  0.00     0.163 HD
BRANCH   4   7
ATOM      7  C   UNL     1       3.241   6.770  -8.301  1.00  0.00     0.113 C 
ATOM      8  N   UNL     1       1.412   5.504  -4.666  1.00  0.00    -0.356 N 
ATOM      9  C   UNL     1       2.679   4.859  -4.928  1.00  0.00     0.120 C 
ATOM     10  C   UNL     1       1.326   6.944  -4.855  1.00  0.00     0.120 C 
ATOM     11  C   UNL     1       2.989   5.134  -6.383  1.00  0.00     0.051 C 
ATOM     12  C   UNL     1       1.781   7.324  -6.277  1.00  0.00     0.051 C 
ATOM     13  C   UNL     1       3.094   6.625  -6.754  1.00  0.00     0.058 C 
ATOM     14  N   UNL     1       4.274   7.380  -6.287  1.00  0.00    -0.339 N 
ATOM     15  C   UNL     1       4.146   7.964  -8.565  1.00  0.00     0.116 C 
ATOM     16  C   UNL     1       4.850   8.180  -7.266  1.00  0.00     0.223 C 
ATOM     17  C   UNL     1       4.782   7.444  -4.930  1.00  0.00     0.147 C 
ATOM     18  O   UNL     1       5.797   8.944  -7.119  1.00  0.00    -0.275 OA
BRANCH   8  19
ATOM     19  C   UNL     1       0.525   4.802  -3.874  1.00  0.00     0.129 A 
ATOM     20  C   UNL     1       0.129   3.195  -2.240  1.00  0.00     0.130 A 
ATOM     21  C   UNL     1      -1.240   3.208  -2.463  1.00  0.00     0.034 A 
ATOM     22  N   UNL     1       1.008   3.965  -2.933  1.00  0.00    -0.226 NA
ATOM     23  C   UNL     1      -1.727   4.046  -3.454  1.00  0.00     0.006 A 
ATOM     24  C   UNL     1      -0.838   4.860  -4.152  1.00  0.00     0.047 A 
BRANCH  20  25
ATOM     25  C   UNL     1       0.700   2.365  -1.135  1.00  0.00     0.272 C 
ATOM     26  C   UNL     1       0.928   0.244   0.053  1.00  0.00     0.146 C 
ATOM     27  N   UNL     1       0.431   0.990  -1.094  1.00  0.00    -0.343 N 
ATOM     28  C   UNL     1      -0.168   0.228  -2.178  1.00  0.00     0.146 C 
ATOM     29  O   UNL     1       1.360   2.934  -0.266  1.00  0.00    -0.267 OA
ENDBRANCH  20  25
ENDBRANCH   8  19
ENDBRANCH   4   7
ENDBRANCH   2   3
ENDBRANCH   1   2
BRANCH   1  30
ATOM     30  C   UNL     1       6.319   2.697  -7.512  1.00  0.00     0.118 C 
BRANCH  30  31
ATOM     31  N   UNL     1       7.522   2.334  -8.240  1.00  0.00    -0.352 N 
ATOM     32  C   UNL     1       8.598   1.600  -7.805  1.00  0.00     0.251 C 
ATOM     33  H   UNL     1       7.573   2.658  -9.168  1.00  0.00     0.163 HD
ATOM     34  O   UNL     1       9.676   1.723  -8.380  1.00  0.00    -0.269 OA
BRANCH  32  35
ATOM     35  C   UNL     1       8.464   0.662  -6.665  1.00  0.00     0.039 A 
ATOM     36  C   UNL     1       9.546   0.495  -5.796  1.00  0.00     0.014 A 
ATOM     37  C   UNL     1       7.312  -0.114  -6.494  1.00  0.00     0.014 A 
ATOM     38  C   UNL     1       9.467  -0.435  -4.756  1.00  0.00     0.010 A 
ATOM     39  C   UNL     1       7.204  -0.979  -5.406  1.00  0.00     0.010 A 
ATOM     40  C   UNL     1       8.291  -1.175  -4.543  1.00  0.00    -0.014 A 
BRANCH  40  41
ATOM     41  C   UNL     1       8.210  -2.185  -3.453  1.00  0.00     0.031 A 
ATOM     42  C   UNL     1       8.009  -3.643  -3.785  1.00  0.00     0.074 A 
ATOM     43  C   UNL     1       8.291  -1.789  -2.166  1.00  0.00     0.049 A 
ATOM     44  N   UNL     1       7.906  -4.668  -2.977  1.00  0.00    -0.248 NA
ATOM     45  C   UNL     1       7.884  -3.998  -5.209  1.00  0.00     0.031 C 
ATOM     46  C   UNL     1       8.434  -0.403  -1.715  1.00  0.00     0.029 A 
ATOM     47  N   UNL     1       8.265  -2.513  -1.000  1.00  0.00    -0.354 N 
ATOM     48  C   UNL     1       7.683  -5.775  -3.788  1.00  0.00     0.074 A 
ATOM     49  C   UNL     1       7.618  -5.295  -5.149  1.00  0.00     0.031 C 
ATOM     50  C   UNL     1       8.520  -0.381  -0.375  1.00  0.00     0.029 A 
ATOM     51  C   UNL     1       8.399  -1.744   0.133  1.00  0.00     0.049 A 
ATOM     52  H   UNL     1       8.161  -3.492  -0.977  1.00  0.00     0.167 HD
ATOM     53  C   UNL     1       7.567  -7.077  -3.433  1.00  0.00     0.037 A 
ATOM     54  C   UNL     1       8.421  -2.097   1.433  1.00  0.00     0.037 A 
ATOM     55  C   UNL     1       7.684  -7.554  -2.080  1.00  0.00     0.049 A 
ATOM     56  C   UNL     1       8.301  -3.555   1.797  1.00  0.00     0.074 A 
ATOM     57  C   UNL     1       7.671  -8.862  -1.627  1.00  0.00     0.029 A 
ATOM     58  N   UNL     1       7.834  -6.745  -0.963  1.00  0.00    -0.354 N 
ATOM     59  N   UNL     1       8.181  -4.596   1.007  1.00  0.00    -0.248 NA
ATOM     60  C   UNL     1       8.325  -3.888   3.228  1.00  0.00     0.031 C 
ATOM     61  C   UNL     1       7.756  -8.842  -0.232  1.00  0.00     0.029 A 
ATOM     62  C   UNL     1       7.882  -7.525   0.180  1.00  0.00     0.049 A 
ATOM     63  H   UNL     1       7.897  -5.763  -0.981  1.00  0.00     0.167 HD
ATOM     64  C   UNL     1       8.153  -5.707   1.844  1.00  0.00     0.074 A 
ATOM     65  C   UNL     1       8.281  -5.212   3.198  1.00  0.00     0.031 C 
ATOM     66  C   UNL     1       8.031  -7.018   1.521  1.00  0.00     0.037 A 
BRANCH  53  67
ATOM     67  C   UNL     1       7.307  -8.091  -4.514  1.00  0.00     0.058 A 
ATOM     68  C   UNL     1       8.292  -8.449  -5.449  1.00  0.00     0.135 A 
ATOM     69  C   UNL     1       6.080  -8.774  -4.565  1.00  0.00     0.135 A 
ATOM     70  F   UNL     1       9.477  -7.818  -5.458  1.00  0.00    -0.206 F 
ATOM     71  C   UNL     1       8.067  -9.438  -6.401  1.00  0.00     0.059 A 
ATOM     72  C   UNL     1       5.843  -9.787  -5.490  1.00  0.00     0.059 A 
ATOM     73  F   UNL     1       5.102  -8.471  -3.697  1.00  0.00    -0.206 F 
ATOM     74  C   UNL     1       6.841 -10.107  -6.409  1.00  0.00     0.060 A 
BRANCH  74  75
ATOM     75  S   UNL     1       6.582 -11.417  -7.624  1.00  0.00     0.124 S 
ATOM     76  O   UNL     1       6.467 -10.650  -8.860  1.00  0.00    -0.237 OA
ATOM     77  O   UNL     1       7.796 -12.215  -7.484  1.00  0.00    -0.237 OA
ATOM     78  O   UNL     1       5.354 -12.063  -7.171  1.00  0.00    -0.744 OA
ENDBRANCH  74  75
ENDBRANCH  53  67
BRANCH  54  79
ATOM     79  C   UNL     1       8.581  -1.066   2.496  1.00  0.00     0.058 A 
ATOM     80  C   UNL     1       9.737  -1.021   3.291  1.00  0.00     0.135 A 
ATOM     81  C   UNL     1       7.571  -0.128   2.762  1.00  0.00     0.135 A 
ATOM     82  F   UNL     1      10.730  -1.898   3.080  1.00  0.00    -0.206 F 
ATOM     83  C   UNL     1       9.869  -0.113   4.337  1.00  0.00     0.059 A 
ATOM     84  C   UNL     1       7.694   0.811   3.782  1.00  0.00     0.059 A 
ATOM     85  F   UNL     1       6.452  -0.116   2.021  1.00  0.00    -0.206 F 
ATOM     86  C   UNL     1       8.839   0.796   4.578  1.00  0.00     0.060 A 
BRANCH  86  87
ATOM     87  S   UNL     1       9.020   1.967   5.941  1.00  0.00     0.124 S 
ATOM     88  O   UNL     1       8.830   1.099   7.098  1.00  0.00    -0.237 OA
ATOM     89  O   UNL     1      10.375   2.470   5.736  1.00  0.00    -0.237 OA
ATOM     90  O   UNL     1       7.956   2.936   5.696  1.00  0.00    -0.744 OA
ENDBRANCH  86  87
ENDBRANCH  54  79
BRANCH  66  91
ATOM     91  C   UNL     1       8.078  -8.018   2.643  1.00  0.00     0.058 A 
ATOM     92  C   UNL     1       7.020  -8.158   3.555  1.00  0.00     0.135 A 
ATOM     93  C   UNL     1       9.176  -8.885   2.774  1.00  0.00     0.135 A 
ATOM     94  F   UNL     1       5.950  -7.352   3.478  1.00  0.00    -0.206 F 
ATOM     95  C   UNL     1       7.060  -9.106   4.572  1.00  0.00     0.059 A 
ATOM     96  C   UNL     1       9.222  -9.861   3.763  1.00  0.00     0.059 A 
ATOM     97  F   UNL     1      10.209  -8.801   1.920  1.00  0.00    -0.206 F 
ATOM     98  C   UNL     1       8.165  -9.955   4.666  1.00  0.00     0.060 A 
BRANCH  98  99
ATOM     99  S   UNL     1       8.186 -11.204   5.969  1.00  0.00     0.124 S 
ATOM    100  O   UNL     1       8.435 -10.390   7.153  1.00  0.00    -0.237 OA
ATOM    101  O   UNL     1       6.850 -11.784   5.867  1.00  0.00    -0.237 OA
ATOM    102  O   UNL     1       9.278 -12.089   5.574  1.00  0.00    -0.744 OA
ENDBRANCH  98  99
ENDBRANCH  66  91
ENDBRANCH  40  41
ENDBRANCH  32  35
ENDBRANCH  30  31
ENDBRANCH   1  30
TORSDOF 15
