REMARK SMILES O=C(NCCCNC(=O)[C@@H](Cc1ccc(F)cc1)NC(=O)c1ccn(C2CCCC2)n1)c1ccc(-c2c3nc(c(-c4c(F)cc(S(=O)(=O)[O-])cc4F)c4ccc([nH]4)c(-c4c(F)cc(S(=O)(=O)[O-])cc4F)c4nc(c(-c5c(F)cc(S(=O)(=O)[O-])cc5F)c5ccc2[nH]5)C=C4)C=C3)cc1
REMARK SMILES IDX 5 1 4 2 3 3 1 4 2 5 32 7 33 8 97 9 34 10 96 11 35 12 36 13
REMARK SMILES IDX 37 14 90 15 38 16 95 17 89 18 91 19 39 20 94 21 88 22 87 23
REMARK SMILES IDX 40 25 74 26 53 27 73 28 54 29 57 30 72 31 92 32 55 33 56 34
REMARK SMILES IDX 71 36 93 37 58 38 41 39 42 40 51 41 43 42 44 43 50 44 52 45
REMARK SMILES IDX 45 46 46 47 47 48 48 49 49 50 75 51 76 52 85 53 77 54 78 55
REMARK SMILES IDX 84 56 86 57 79 58 80 59 81 60 82 61 83 62 59 63 60 64 69 65
REMARK SMILES IDX 61 66 62 67 68 68 70 69 63 70 64 71 65 72 66 73 67 74 6 75
REMARK SMILES IDX 7 76 8 77 9 79 10 80 11 81 12 82 13 83 18 84 14 85 17 86
REMARK SMILES IDX 15 87 16 88 19 89 20 90 21 92 22 93 23 94 31 95 24 96 25 97
REMARK SMILES IDX 26 98 27 99 30 100 28 101 29 102
REMARK H PARENT 3 6 91 24 57 35 7 78 19 91
REMARK Flexibility Score: inf
ROOT
ATOM      1  C   UNL     1       4.886  -1.415   1.429  1.00  0.00     0.042 C 
ENDROOT
BRANCH   1   2
ATOM      2  C   UNL     1       4.562  -1.060  -0.019  1.00  0.00     0.118 C 
BRANCH   2   3
ATOM      3  N   UNL     1       3.144  -0.983  -0.305  1.00  0.00    -0.352 N 
ATOM      4  O   UNL     1       1.060  -0.426  -0.650  1.00  0.00    -0.269 OA
ATOM      5  C   UNL     1       2.150  -0.051  -0.201  1.00  0.00     0.251 C 
ATOM      6  H   UNL     1       2.805  -1.831  -0.674  1.00  0.00     0.163 HD
BRANCH   5   7
ATOM      7  C   UNL     1       2.231   1.304   0.420  1.00  0.00     0.039 A 
ATOM      8  C   UNL     1       3.381   2.005   0.783  1.00  0.00     0.014 A 
ATOM      9  C   UNL     1       0.982   1.926   0.635  1.00  0.00     0.014 A 
ATOM     10  C   UNL     1       3.271   3.272   1.390  1.00  0.00     0.010 A 
ATOM     11  C   UNL     1       0.871   3.171   1.248  1.00  0.00     0.010 A 
ATOM     12  C   UNL     1       2.016   3.841   1.659  1.00  0.00    -0.014 A 
BRANCH  12  13
ATOM     13  C   UNL     1       1.905   5.222   2.163  1.00  0.00     0.031 A 
ATOM     14  C   UNL     1       2.374   6.255   1.187  1.00  0.00     0.074 A 
ATOM     15  C   UNL     1       1.225   5.585   3.279  1.00  0.00     0.049 A 
ATOM     16  N   UNL     1       3.347   7.098   1.313  1.00  0.00    -0.248 NA
ATOM     17  C   UNL     1       1.758   6.266  -0.153  1.00  0.00     0.031 C 
ATOM     18  C   UNL     1       0.441   4.722   4.167  1.00  0.00     0.029 A 
ATOM     19  N   UNL     1       1.002   6.828   3.812  1.00  0.00    -0.354 N 
ATOM     20  C   UNL     1       3.324   7.889   0.163  1.00  0.00     0.074 A 
ATOM     21  C   UNL     1       2.459   7.219  -0.770  1.00  0.00     0.031 C 
ATOM     22  C   UNL     1      -0.340   5.482   4.971  1.00  0.00     0.029 A 
ATOM     23  C   UNL     1      -0.027   6.885   4.758  1.00  0.00     0.049 A 
ATOM     24  H   UNL     1       1.525   7.619   3.549  1.00  0.00     0.167 HD
ATOM     25  C   UNL     1       3.831   9.154   0.152  1.00  0.00     0.037 A 
ATOM     26  C   UNL     1      -0.603   7.998   5.298  1.00  0.00     0.037 A 
ATOM     27  C   UNL     1       4.687   9.383   1.286  1.00  0.00     0.049 A 
ATOM     28  C   UNL     1       0.344   9.121   5.090  1.00  0.00     0.074 A 
ATOM     29  C   UNL     1       5.855   8.818   1.760  1.00  0.00     0.029 A 
ATOM     30  N   UNL     1       4.165  10.101   2.332  1.00  0.00    -0.354 N 
ATOM     31  N   UNL     1       1.511   9.211   5.664  1.00  0.00    -0.248 NA
ATOM     32  C   UNL     1       0.168   9.927   3.894  1.00  0.00     0.031 C 
ATOM     33  C   UNL     1       5.715   8.822   3.178  1.00  0.00     0.029 A 
ATOM     34  C   UNL     1       4.510   9.453   3.489  1.00  0.00     0.049 A 
ATOM     35  H   UNL     1       3.640  10.930   2.264  1.00  0.00     0.167 HD
ATOM     36  C   UNL     1       2.345   9.712   4.677  1.00  0.00     0.074 A 
ATOM     37  C   UNL     1       1.447  10.208   3.636  1.00  0.00     0.031 C 
ATOM     38  C   UNL     1       3.678   9.423   4.671  1.00  0.00     0.037 A 
BRANCH  25  39
ATOM     39  C   UNL     1       3.272  10.300  -0.666  1.00  0.00     0.058 A 
ATOM     40  C   UNL     1       1.949  10.341  -1.157  1.00  0.00     0.135 A 
ATOM     41  C   UNL     1       3.974  11.524  -0.717  1.00  0.00     0.135 A 
ATOM     42  F   UNL     1       1.127   9.287  -1.088  1.00  0.00    -0.206 F 
ATOM     43  C   UNL     1       1.365  11.499  -1.657  1.00  0.00     0.059 A 
ATOM     44  C   UNL     1       3.388  12.711  -1.164  1.00  0.00     0.059 A 
ATOM     45  F   UNL     1       5.234  11.609  -0.259  1.00  0.00    -0.206 F 
ATOM     46  C   UNL     1       2.079  12.687  -1.631  1.00  0.00     0.060 A 
BRANCH  46  47
ATOM     47  S   UNL     1       1.229  14.191  -2.138  1.00  0.00     0.124 S 
ATOM     48  O   UNL     1       1.028  13.944  -3.562  1.00  0.00    -0.237 OA
ATOM     49  O   UNL     1       0.030  14.153  -1.308  1.00  0.00    -0.237 OA
ATOM     50  O   UNL     1       2.184  15.244  -1.811  1.00  0.00    -0.744 OA
ENDBRANCH  46  47
ENDBRANCH  25  39
BRANCH  26  51
ATOM     51  C   UNL     1      -2.035   8.260   5.653  1.00  0.00     0.058 A 
ATOM     52  C   UNL     1      -3.081   7.539   5.047  1.00  0.00     0.135 A 
ATOM     53  C   UNL     1      -2.420   9.432   6.341  1.00  0.00     0.135 A 
ATOM     54  F   UNL     1      -2.834   6.429   4.338  1.00  0.00    -0.206 F 
ATOM     55  C   UNL     1      -4.406   7.982   5.059  1.00  0.00     0.059 A 
ATOM     56  C   UNL     1      -3.744   9.899   6.364  1.00  0.00     0.059 A 
ATOM     57  F   UNL     1      -1.495  10.195   6.944  1.00  0.00    -0.206 F 
ATOM     58  C   UNL     1      -4.725   9.181   5.687  1.00  0.00     0.060 A 
BRANCH  58  59
ATOM     59  S   UNL     1      -6.414   9.809   5.512  1.00  0.00     0.124 S 
ATOM     60  O   UNL     1      -6.512  10.004   4.069  1.00  0.00    -0.237 OA
ATOM     61  O   UNL     1      -7.207   8.708   6.053  1.00  0.00    -0.237 OA
ATOM     62  O   UNL     1      -6.414  11.029   6.311  1.00  0.00    -0.744 OA
ENDBRANCH  58  59
ENDBRANCH  26  51
BRANCH  38  63
ATOM     63  C   UNL     1       4.297   8.832   5.912  1.00  0.00     0.058 A 
ATOM     64  C   UNL     1       5.386   9.511   6.476  1.00  0.00     0.135 A 
ATOM     65  C   UNL     1       3.977   7.572   6.451  1.00  0.00     0.135 A 
ATOM     66  F   UNL     1       5.772  10.697   5.976  1.00  0.00    -0.206 F 
ATOM     67  C   UNL     1       6.138   8.970   7.512  1.00  0.00     0.059 A 
ATOM     68  C   UNL     1       4.697   7.023   7.517  1.00  0.00     0.059 A 
ATOM     69  F   UNL     1       3.006   6.817   5.916  1.00  0.00    -0.206 F 
ATOM     70  C   UNL     1       5.787   7.724   8.028  1.00  0.00     0.060 A 
BRANCH  70  71
ATOM     71  S   UNL     1       6.809   7.042   9.350  1.00  0.00     0.124 S 
ATOM     72  O   UNL     1       8.076   6.809   8.663  1.00  0.00    -0.237 OA
ATOM     73  O   UNL     1       6.815   8.126  10.328  1.00  0.00    -0.237 OA
ATOM     74  O   UNL     1       6.094   5.837   9.761  1.00  0.00    -0.744 OA
ENDBRANCH  70  71
ENDBRANCH  38  63
ENDBRANCH  12  13
ENDBRANCH   5   7
ENDBRANCH   2   3
ENDBRANCH   1   2
BRANCH   1  75
ATOM     75  C   UNL     1       4.281  -2.726   1.951  1.00  0.00     0.117 C 
BRANCH  75  76
ATOM     76  N   UNL     1       5.219  -3.834   1.906  1.00  0.00    -0.354 N 
ATOM     77  C   UNL     1       6.048  -4.388   2.827  1.00  0.00     0.242 C 
ATOM     78  H   UNL     1       5.262  -4.274   1.027  1.00  0.00     0.163 HD
ATOM     79  O   UNL     1       6.727  -5.343   2.421  1.00  0.00    -0.273 OA
BRANCH  77  80
ATOM     80  C   UNL     1       6.180  -3.948   4.310  1.00  0.00     0.176 C 
BRANCH  80  81
ATOM     81  C   UNL     1       6.855  -2.587   4.600  1.00  0.00     0.070 C 
BRANCH  81  82
ATOM     82  C   UNL     1       6.130  -1.259   4.524  1.00  0.00    -0.045 A 
ATOM     83  C   UNL     1       4.779  -1.073   4.850  1.00  0.00     0.007 A 
ATOM     84  C   UNL     1       6.880  -0.118   4.174  1.00  0.00     0.007 A 
ATOM     85  C   UNL     1       4.159   0.167   4.669  1.00  0.00     0.039 A 
ATOM     86  C   UNL     1       6.273   1.133   4.036  1.00  0.00     0.039 A 
ATOM     87  C   UNL     1       4.910   1.256   4.255  1.00  0.00     0.123 A 
ATOM     88  F   UNL     1       4.311   2.434   4.060  1.00  0.00    -0.207 F 
ENDBRANCH  81  82
ENDBRANCH  80  81
BRANCH  80  89
ATOM     89  N   UNL     1       5.008  -4.236   5.124  1.00  0.00    -0.339 N 
ATOM     90  C   UNL     1       4.814  -5.113   6.170  1.00  0.00     0.272 C 
ATOM     91  H   UNL     1       4.211  -3.710   4.884  1.00  0.00     0.164 HD
ATOM     92  O   UNL     1       3.687  -5.141   6.655  1.00  0.00    -0.267 OA
BRANCH  90  93
ATOM     93  C   UNL     1       5.891  -6.015   6.623  1.00  0.00     0.150 A 
ATOM     94  C   UNL     1       7.270  -5.772   6.874  1.00  0.00     0.056 A 
ATOM     95  N   UNL     1       5.599  -7.303   6.890  1.00  0.00    -0.167 NA
ATOM     96  C   UNL     1       7.806  -6.989   7.234  1.00  0.00     0.110 A 
ATOM     97  N   UNL     1       6.764  -7.867   7.235  1.00  0.00    -0.269 N 
BRANCH  97  98
ATOM     98  C   UNL     1       6.814  -9.282   7.539  1.00  0.00     0.107 C 
ATOM     99  C   UNL     1       5.939  -9.698   8.721  1.00  0.00     0.027 C 
ATOM    100  C   UNL     1       6.303 -10.176   6.406  1.00  0.00     0.027 C 
ATOM    101  C   UNL     1       5.840 -11.211   8.577  1.00  0.00     0.002 C 
ATOM    102  C   UNL     1       5.937 -11.497   7.079  1.00  0.00     0.002 C 
ENDBRANCH  97  98
ENDBRANCH  90  93
ENDBRANCH  80  89
ENDBRANCH  77  80
ENDBRANCH  75  76
ENDBRANCH   1  75
TORSDOF 18
