REMARK SMILES COc1ccc(NC(=O)N[C@@H]2C=C[C@H](C(=O)NCCCNC(=O)c3ccc(-c4c5nc(c(-c6c(F)cc(S(=O)(=O)[O-])cc6F)c6ccc([nH]6)c(-c6c(F)cc(S(=O)(=O)[O-])cc6F)c6nc(c(-c7c(F)cc(S(=O)(=O)[O-])cc7F)c7ccc4[nH]7)C=C6)C=C5)cc3)C2)c(C)c1
REMARK SMILES IDX 19 1 18 2 17 3 15 4 16 5 14 7 11 8 12 9 90 10 13 11 10 12
REMARK SMILES IDX 7 13 8 14 9 16 6 18 3 19 4 20 93 21 5 22 91 23 92 24 2 25
REMARK SMILES IDX 1 26 20 27 21 28 22 29 23 31 24 32 25 33 89 34 26 35 88 36
REMARK SMILES IDX 27 37 28 38 29 39 82 40 30 41 87 42 81 43 83 44 31 45 86 46
REMARK SMILES IDX 80 47 79 48 32 50 66 51 45 52 65 53 46 54 49 55 64 56 84 57
REMARK SMILES IDX 47 58 48 59 63 61 85 62 50 63 33 64 34 65 43 66 35 67 36 68
REMARK SMILES IDX 42 69 44 70 37 71 38 72 39 73 40 74 41 75 67 76 68 77 77 78
REMARK SMILES IDX 69 79 70 80 76 81 78 82 71 83 72 84 73 85 74 86 75 87 51 88
REMARK SMILES IDX 52 89 61 90 53 91 54 92 60 93 62 94 55 95 56 96 57 97 58 98
REMARK SMILES IDX 59 99
REMARK H PARENT 17 6 7 15 10 17 21 30 83 49 49 60
REMARK Flexibility Score: inf
ROOT
ATOM      1  C   UNL     1       0.756   1.643  -3.245  1.00  0.00     0.042 C 
ENDROOT
BRANCH   1   2
ATOM      2  C   UNL     1       1.666   1.935  -2.022  1.00  0.00     0.117 C 
BRANCH   2   3
ATOM      3  N   UNL     1       2.296   0.800  -0.913  1.00  0.00    -0.356 N 
ATOM      4  C   UNL     1       3.641   0.058  -0.614  1.00  0.00     0.227 C 
ATOM      5  O   UNL     1       3.710  -0.444   0.521  1.00  0.00    -0.274 OA
ATOM      6  H   UNL     1       1.604   0.531  -0.267  1.00  0.00     0.163 HD
BRANCH   4   7
ATOM      7  C   UNL     1       5.120  -0.255  -1.813  1.00  0.00     0.103 C 
ATOM      8  C   UNL     1       4.631  -2.121  -4.505  1.00  0.00     0.107 C 
ATOM      9  C   UNL     1       5.304  -3.108  -2.941  1.00  0.00    -0.006 C 
ATOM     10  C   UNL     1       4.836  -0.160  -4.057  1.00  0.00     0.047 C 
ATOM     11  C   UNL     1       5.513  -2.243  -1.586  1.00  0.00    -0.016 C 
BRANCH   8  12
ATOM     12  N   UNL     1       2.992  -2.407  -4.555  1.00  0.00    -0.332 N 
ATOM     13  N   UNL     1       2.034  -0.716  -3.039  1.00  0.00    -0.308 N 
ATOM     14  C   UNL     1       1.891  -1.892  -3.806  1.00  0.00     0.319 C 
ATOM     15  H   UNL     1       1.228  -0.318  -2.638  1.00  0.00     0.171 HD
ATOM     16  O   UNL     1       0.824  -2.508  -3.787  1.00  0.00    -0.248 OA
ATOM     17  H   UNL     1       2.728  -3.064  -5.239  1.00  0.00     0.165 HD
BRANCH  13  18
ATOM     18  C   UNL     1       3.270  -0.084  -2.819  1.00  0.00     0.046 A 
ATOM     19  C   UNL     1       6.809   0.451  -3.219  1.00  0.00     0.119 A 
ATOM     20  C   UNL     1       6.143  -1.075  -3.177  1.00  0.00     0.048 A 
ATOM     21  C   UNL     1       5.851   1.659  -3.006  1.00  0.00     0.052 A 
ATOM     22  C   UNL     1       4.171  -1.323  -2.825  1.00  0.00     0.030 A 
ATOM     23  C   UNL     1       4.181   1.487  -2.722  1.00  0.00    -0.024 A 
ATOM     24  C   UNL     1       4.153   2.644  -1.464  1.00  0.00     0.047 C 
BRANCH  19  25
ATOM     25  O   UNL     1       8.138   0.627  -3.401  1.00  0.00    -0.497 OA
ATOM     26  C   UNL     1       8.366   1.036  -4.748  1.00  0.00     0.278 C 
ENDBRANCH  19  25
ENDBRANCH  13  18
ENDBRANCH   8  12
ENDBRANCH   4   7
ENDBRANCH   2   3
ENDBRANCH   1   2
BRANCH   1  27
ATOM     27  C   UNL     1      -0.626   1.894  -2.818  1.00  0.00     0.118 C 
BRANCH  27  28
ATOM     28  N   UNL     1      -0.966   3.276  -3.023  1.00  0.00    -0.352 N 
ATOM     29  C   UNL     1      -2.256   3.662  -3.315  1.00  0.00     0.251 C 
ATOM     30  H   UNL     1      -0.263   3.961  -2.953  1.00  0.00     0.163 HD
ATOM     31  O   UNL     1      -2.578   4.268  -4.323  1.00  0.00    -0.269 OA
BRANCH  29  32
ATOM     32  C   UNL     1      -3.209   3.367  -2.214  1.00  0.00     0.039 A 
ATOM     33  C   UNL     1      -3.590   4.484  -1.466  1.00  0.00     0.014 A 
ATOM     34  C   UNL     1      -3.037   2.136  -1.599  1.00  0.00     0.014 A 
ATOM     35  C   UNL     1      -3.516   4.409  -0.086  1.00  0.00     0.010 A 
ATOM     36  C   UNL     1      -2.595   2.169  -0.309  1.00  0.00     0.010 A 
ATOM     37  C   UNL     1      -2.860   3.308   0.451  1.00  0.00    -0.014 A 
BRANCH  37  38
ATOM     38  C   UNL     1      -2.815   2.947   1.847  1.00  0.00     0.031 A 
ATOM     39  C   UNL     1      -4.082   2.212   2.174  1.00  0.00     0.074 A 
ATOM     40  C   UNL     1      -1.572   3.027   2.403  1.00  0.00     0.049 A 
ATOM     41  N   UNL     1      -4.518   1.945   3.338  1.00  0.00    -0.248 NA
ATOM     42  C   UNL     1      -5.062   1.723   1.162  1.00  0.00     0.031 C 
ATOM     43  C   UNL     1      -0.946   2.446   3.592  1.00  0.00     0.029 A 
ATOM     44  N   UNL     1      -0.603   3.980   2.025  1.00  0.00    -0.354 N 
ATOM     45  C   UNL     1      -5.370   0.855   3.201  1.00  0.00     0.074 A 
ATOM     46  C   UNL     1      -5.860   0.914   1.863  1.00  0.00     0.031 C 
ATOM     47  C   UNL     1      -0.039   3.321   4.087  1.00  0.00     0.029 A 
ATOM     48  C   UNL     1      -0.081   4.499   3.237  1.00  0.00     0.049 A 
ATOM     49  H   UNL     1      -0.343   4.232   1.109  1.00  0.00     0.167 HD
ATOM     50  C   UNL     1      -5.348  -0.073   4.197  1.00  0.00     0.037 A 
ATOM     51  C   UNL     1      -0.511   5.743   3.611  1.00  0.00     0.037 A 
ATOM     52  C   UNL     1      -4.364   0.388   5.186  1.00  0.00     0.049 A 
ATOM     53  C   UNL     1      -1.583   5.615   4.691  1.00  0.00     0.074 A 
ATOM     54  C   UNL     1      -3.037   0.099   5.437  1.00  0.00     0.029 A 
ATOM     55  N   UNL     1      -4.588   1.627   5.749  1.00  0.00    -0.354 N 
ATOM     56  N   UNL     1      -2.257   4.515   4.930  1.00  0.00    -0.248 NA
ATOM     57  C   UNL     1      -1.929   6.678   5.627  1.00  0.00     0.031 C 
ATOM     58  C   UNL     1      -2.473   1.238   6.117  1.00  0.00     0.029 A 
ATOM     59  C   UNL     1      -3.443   2.222   6.227  1.00  0.00     0.049 A 
ATOM     60  H   UNL     1      -5.478   2.044   5.804  1.00  0.00     0.167 HD
ATOM     61  C   UNL     1      -2.982   4.638   6.082  1.00  0.00     0.074 A 
ATOM     62  C   UNL     1      -2.851   6.062   6.390  1.00  0.00     0.031 C 
ATOM     63  C   UNL     1      -3.578   3.584   6.741  1.00  0.00     0.037 A 
BRANCH  50  64
ATOM     64  C   UNL     1      -5.999  -1.438   4.275  1.00  0.00     0.058 A 
ATOM     65  C   UNL     1      -5.832  -2.174   5.471  1.00  0.00     0.135 A 
ATOM     66  C   UNL     1      -6.758  -2.101   3.284  1.00  0.00     0.135 A 
ATOM     67  F   UNL     1      -5.170  -1.661   6.517  1.00  0.00    -0.206 F 
ATOM     68  C   UNL     1      -6.334  -3.459   5.663  1.00  0.00     0.059 A 
ATOM     69  C   UNL     1      -7.291  -3.393   3.463  1.00  0.00     0.059 A 
ATOM     70  F   UNL     1      -7.015  -1.540   2.096  1.00  0.00    -0.206 F 
ATOM     71  C   UNL     1      -7.064  -4.068   4.656  1.00  0.00     0.060 A 
BRANCH  71  72
ATOM     72  S   UNL     1      -7.702  -5.727   4.965  1.00  0.00     0.124 S 
ATOM     73  O   UNL     1      -6.474  -6.499   5.127  1.00  0.00    -0.237 OA
ATOM     74  O   UNL     1      -8.490  -5.532   6.178  1.00  0.00    -0.237 OA
ATOM     75  O   UNL     1      -8.474  -6.028   3.763  1.00  0.00    -0.744 OA
ENDBRANCH  71  72
ENDBRANCH  50  64
BRANCH  51  76
ATOM     76  C   UNL     1      -0.485   6.633   2.392  1.00  0.00     0.058 A 
ATOM     77  C   UNL     1       0.767   6.748   1.726  1.00  0.00     0.135 A 
ATOM     78  C   UNL     1      -1.628   6.835   1.611  1.00  0.00     0.135 A 
ATOM     79  F   UNL     1       1.909   6.592   2.419  1.00  0.00    -0.206 F 
ATOM     80  C   UNL     1       0.870   6.822   0.338  1.00  0.00     0.059 A 
ATOM     81  C   UNL     1      -1.540   6.970   0.217  1.00  0.00     0.059 A 
ATOM     82  F   UNL     1      -2.846   6.747   2.165  1.00  0.00    -0.206 F 
ATOM     83  C   UNL     1      -0.296   6.894  -0.414  1.00  0.00     0.060 A 
BRANCH  83  84
ATOM     84  S   UNL     1      -0.157   6.845  -2.216  1.00  0.00     0.124 S 
ATOM     85  O   UNL     1       0.589   8.070  -2.483  1.00  0.00    -0.237 OA
ATOM     86  O   UNL     1       0.574   5.595  -2.446  1.00  0.00    -0.237 OA
ATOM     87  O   UNL     1      -1.546   6.848  -2.652  1.00  0.00    -0.744 OA
ENDBRANCH  83  84
ENDBRANCH  51  76
BRANCH  63  88
ATOM     88  C   UNL     1      -4.449   3.781   7.963  1.00  0.00     0.058 A 
ATOM     89  C   UNL     1      -4.164   4.747   8.931  1.00  0.00     0.135 A 
ATOM     90  C   UNL     1      -5.598   2.989   8.227  1.00  0.00     0.135 A 
ATOM     91  F   UNL     1      -2.978   5.373   8.956  1.00  0.00    -0.206 F 
ATOM     92  C   UNL     1      -5.069   5.074   9.932  1.00  0.00     0.059 A 
ATOM     93  C   UNL     1      -6.469   3.236   9.270  1.00  0.00     0.059 A 
ATOM     94  F   UNL     1      -5.958   1.929   7.496  1.00  0.00    -0.206 F 
ATOM     95  C   UNL     1      -6.228   4.320  10.082  1.00  0.00     0.060 A 
BRANCH  95  96
ATOM     96  S   UNL     1      -7.365   4.711  11.406  1.00  0.00     0.124 S 
ATOM     97  O   UNL     1      -6.462   4.839  12.545  1.00  0.00    -0.237 OA
ATOM     98  O   UNL     1      -7.961   5.952  10.922  1.00  0.00    -0.237 OA
ATOM     99  O   UNL     1      -8.259   3.558  11.445  1.00  0.00    -0.744 OA
ENDBRANCH  95  96
ENDBRANCH  63  88
ENDBRANCH  37  38
ENDBRANCH  29  32
ENDBRANCH  27  28
ENDBRANCH   1  27
TORSDOF 16
