REMARK SMILES COc1ccc(-c2nc(NCC(=O)NCCCNC(=O)c3ccc(-c4c5nc(c(-c6c(F)cc(S(=O)(=O)[O-])cc6F)c6ccc([nH]6)c(-c6c(F)cc(S(=O)(=O)[O-])cc6F)c6nc(c(-c7c(F)cc(S(=O)(=O)[O-])cc7F)c7ccc4[nH]7)C=C6)C=C5)cc3)sc2-c2ccc(OC)cc2)cc1
REMARK SMILES IDX 15 1 14 2 12 3 13 4 11 6 10 7 9 9 7 10 8 11 88 12 87 13 6 14
REMARK SMILES IDX 3 15 4 16 98 17 5 18 97 19 2 20 1 21 89 22 90 23 96 24 91 25
REMARK SMILES IDX 95 26 92 27 93 28 94 29 16 30 17 31 18 32 19 33 20 35 21 36
REMARK SMILES IDX 22 37 86 38 23 39 85 40 24 41 25 42 26 43 79 44 27 45 84 46
REMARK SMILES IDX 78 47 80 48 28 49 83 50 77 51 76 52 29 54 63 55 42 56 62 57
REMARK SMILES IDX 43 58 46 59 61 60 81 61 44 62 45 63 60 65 82 66 47 67 30 68
REMARK SMILES IDX 31 69 40 70 32 71 33 72 39 73 41 74 34 75 35 76 36 77 37 78
REMARK SMILES IDX 38 79 64 80 65 81 74 82 66 83 67 84 73 85 75 86 68 87 69 88
REMARK SMILES IDX 70 89 71 90 72 91 48 92 49 93 58 94 50 95 51 96 57 97 59 98
REMARK SMILES IDX 52 99 53 100 54 101 55 102 56 103
REMARK H PARENT 14 5 10 8 18 34 80 53 46 64
REMARK Flexibility Score: inf
ROOT
ATOM      1  C   UNL     1       5.242  -1.699   9.525  1.00  0.00     0.117 C 
ENDROOT
BRANCH   1   2
ATOM      2  N   UNL     1       5.965  -0.798  10.402  1.00  0.00    -0.355 N 
ATOM      3  C   UNL     1       5.564   0.411  10.899  1.00  0.00     0.239 C 
ATOM      4  O   UNL     1       6.351   1.041  11.610  1.00  0.00    -0.273 OA
ATOM      5  H   UNL     1       6.862  -1.096  10.675  1.00  0.00     0.163 HD
BRANCH   3   6
ATOM      6  C   UNL     1       4.147   0.927  10.620  1.00  0.00     0.215 C 
BRANCH   6   7
ATOM      7  N   UNL     1       3.958   1.255   9.218  1.00  0.00    -0.352 N 
ATOM      8  H   UNL     1       4.610   1.868   8.808  1.00  0.00     0.163 HD
BRANCH   7   9
ATOM      9  C   UNL     1       2.966   0.792   8.426  1.00  0.00     0.184 A 
ATOM     10  C   UNL     1       1.886   0.407   6.527  1.00  0.00     0.091 A 
ATOM     11  N   UNL     1       2.932   1.074   7.144  1.00  0.00    -0.220 NA
ATOM     12  C   UNL     1       1.172  -0.458   7.345  1.00  0.00     0.064 A 
ATOM     13  S   UNL     1       1.680  -0.227   8.961  1.00  0.00    -0.096 S 
BRANCH  10  14
ATOM     14  C   UNL     1       1.580   0.587   5.115  1.00  0.00     0.002 A 
ATOM     15  C   UNL     1       0.883   0.733   2.395  1.00  0.00     0.118 A 
ATOM     16  C   UNL     1      -0.057   1.034   3.382  1.00  0.00     0.047 A 
ATOM     17  C   UNL     1       2.187   0.403   2.769  1.00  0.00     0.047 A 
ATOM     18  C   UNL     1       0.285   0.960   4.731  1.00  0.00     0.014 A 
ATOM     19  C   UNL     1       2.538   0.338   4.127  1.00  0.00     0.014 A 
BRANCH  15  20
ATOM     20  O   UNL     1       0.408   0.836   1.119  1.00  0.00    -0.497 OA
ATOM     21  C   UNL     1       1.109   0.114   0.108  1.00  0.00     0.278 C 
ENDBRANCH  15  20
ENDBRANCH  10  14
BRANCH  12  22
ATOM     22  C   UNL     1       0.155  -1.460   7.018  1.00  0.00    -0.006 A 
ATOM     23  C   UNL     1      -1.089  -1.487   7.656  1.00  0.00     0.013 A 
ATOM     24  C   UNL     1       0.418  -2.407   6.017  1.00  0.00     0.013 A 
ATOM     25  C   UNL     1      -2.053  -2.428   7.279  1.00  0.00     0.047 A 
ATOM     26  C   UNL     1      -0.548  -3.343   5.638  1.00  0.00     0.047 A 
ATOM     27  C   UNL     1      -1.794  -3.349   6.261  1.00  0.00     0.118 A 
BRANCH  27  28
ATOM     28  O   UNL     1      -2.828  -4.196   5.971  1.00  0.00    -0.497 OA
ATOM     29  C   UNL     1      -2.675  -5.003   4.808  1.00  0.00     0.278 C 
ENDBRANCH  27  28
ENDBRANCH  12  22
ENDBRANCH   7   9
ENDBRANCH   6   7
ENDBRANCH   3   6
ENDBRANCH   1   2
BRANCH   1  30
ATOM     30  C   UNL     1       5.736  -1.617   8.085  1.00  0.00     0.042 C 
BRANCH  30  31
ATOM     31  C   UNL     1       7.114  -2.241   7.887  1.00  0.00     0.118 C 
BRANCH  31  32
ATOM     32  N   UNL     1       7.115  -3.678   8.139  1.00  0.00    -0.352 N 
ATOM     33  C   UNL     1       7.481  -4.716   7.321  1.00  0.00     0.251 C 
ATOM     34  H   UNL     1       6.804  -3.943   9.034  1.00  0.00     0.163 HD
ATOM     35  O   UNL     1       7.213  -5.871   7.651  1.00  0.00    -0.269 OA
BRANCH  33  36
ATOM     36  C   UNL     1       8.176  -4.453   6.045  1.00  0.00     0.039 A 
ATOM     37  C   UNL     1       7.802  -5.173   4.906  1.00  0.00     0.014 A 
ATOM     38  C   UNL     1       9.206  -3.511   5.972  1.00  0.00     0.014 A 
ATOM     39  C   UNL     1       8.412  -4.897   3.681  1.00  0.00     0.010 A 
ATOM     40  C   UNL     1       9.757  -3.183   4.737  1.00  0.00     0.010 A 
ATOM     41  C   UNL     1       9.367  -3.872   3.579  1.00  0.00    -0.014 A 
BRANCH  41  42
ATOM     42  C   UNL     1       9.966  -3.493   2.274  1.00  0.00     0.031 A 
ATOM     43  C   UNL     1      11.447  -3.638   2.055  1.00  0.00     0.074 A 
ATOM     44  C   UNL     1       9.191  -2.942   1.319  1.00  0.00     0.049 A 
ATOM     45  N   UNL     1      12.172  -3.259   1.035  1.00  0.00    -0.248 NA
ATOM     46  C   UNL     1      12.219  -4.269   3.139  1.00  0.00     0.031 C 
ATOM     47  C   UNL     1       7.747  -2.717   1.427  1.00  0.00     0.029 A 
ATOM     48  N   UNL     1       9.509  -2.454   0.076  1.00  0.00    -0.354 N 
ATOM     49  C   UNL     1      13.483  -3.590   1.358  1.00  0.00     0.074 A 
ATOM     50  C   UNL     1      13.460  -4.152   2.691  1.00  0.00     0.031 C 
ATOM     51  C   UNL     1       7.304  -2.150   0.293  1.00  0.00     0.029 A 
ATOM     52  C   UNL     1       8.435  -1.925  -0.602  1.00  0.00     0.049 A 
ATOM     53  H   UNL     1      10.420  -2.480  -0.295  1.00  0.00     0.167 HD
ATOM     54  C   UNL     1      14.601  -3.456   0.604  1.00  0.00     0.037 A 
ATOM     55  C   UNL     1       8.371  -1.311  -1.799  1.00  0.00     0.037 A 
ATOM     56  C   UNL     1      14.610  -2.909  -0.728  1.00  0.00     0.049 A 
ATOM     57  C   UNL     1       9.629  -1.147  -2.608  1.00  0.00     0.074 A 
ATOM     58  C   UNL     1      15.681  -2.777  -1.595  1.00  0.00     0.029 A 
ATOM     59  N   UNL     1      13.499  -2.399  -1.385  1.00  0.00    -0.354 N 
ATOM     60  N   UNL     1      10.852  -1.519  -2.312  1.00  0.00    -0.248 NA
ATOM     61  C   UNL     1       9.502  -0.485  -3.913  1.00  0.00     0.031 C 
ATOM     62  C   UNL     1      15.229  -2.138  -2.753  1.00  0.00     0.029 A 
ATOM     63  C   UNL     1      13.864  -1.928  -2.636  1.00  0.00     0.049 A 
ATOM     64  H   UNL     1      12.587  -2.375  -1.017  1.00  0.00     0.167 HD
ATOM     65  C   UNL     1      11.632  -1.167  -3.408  1.00  0.00     0.074 A 
ATOM     66  C   UNL     1      10.743  -0.557  -4.375  1.00  0.00     0.031 C 
ATOM     67  C   UNL     1      12.964  -1.337  -3.596  1.00  0.00     0.037 A 
BRANCH  54  68
ATOM     68  C   UNL     1      15.907  -3.904   1.202  1.00  0.00     0.058 A 
ATOM     69  C   UNL     1      16.185  -5.261   1.437  1.00  0.00     0.135 A 
ATOM     70  C   UNL     1      16.910  -2.970   1.510  1.00  0.00     0.135 A 
ATOM     71  F   UNL     1      15.259  -6.197   1.174  1.00  0.00    -0.206 F 
ATOM     72  C   UNL     1      17.395  -5.671   1.987  1.00  0.00     0.059 A 
ATOM     73  C   UNL     1      18.140  -3.361   2.031  1.00  0.00     0.059 A 
ATOM     74  F   UNL     1      16.699  -1.660   1.306  1.00  0.00    -0.206 F 
ATOM     75  C   UNL     1      18.367  -4.713   2.280  1.00  0.00     0.060 A 
BRANCH  75  76
ATOM     76  S   UNL     1      19.931  -5.265   2.991  1.00  0.00     0.124 S 
ATOM     77  O   UNL     1      19.520  -5.646   4.339  1.00  0.00    -0.237 OA
ATOM     78  O   UNL     1      20.303  -6.366   2.108  1.00  0.00    -0.237 OA
ATOM     79  O   UNL     1      20.781  -4.082   2.906  1.00  0.00    -0.744 OA
ENDBRANCH  75  76
ENDBRANCH  54  68
BRANCH  55  80
ATOM     80  C   UNL     1       7.063  -0.819  -2.310  1.00  0.00     0.058 A 
ATOM     81  C   UNL     1       6.439  -1.435  -3.405  1.00  0.00     0.135 A 
ATOM     82  C   UNL     1       6.401   0.260  -1.703  1.00  0.00     0.135 A 
ATOM     83  F   UNL     1       7.036  -2.464  -4.025  1.00  0.00    -0.206 F 
ATOM     84  C   UNL     1       5.210  -0.996  -3.886  1.00  0.00     0.059 A 
ATOM     85  C   UNL     1       5.158   0.699  -2.147  1.00  0.00     0.059 A 
ATOM     86  F   UNL     1       6.946   0.873  -0.641  1.00  0.00    -0.206 F 
ATOM     87  C   UNL     1       4.574   0.067  -3.244  1.00  0.00     0.060 A 
BRANCH  87  88
ATOM     88  S   UNL     1       2.941   0.575  -3.824  1.00  0.00     0.124 S 
ATOM     89  O   UNL     1       3.265   1.220  -5.090  1.00  0.00    -0.237 OA
ATOM     90  O   UNL     1       2.241  -0.703  -3.912  1.00  0.00    -0.237 OA
ATOM     91  O   UNL     1       2.471   1.458  -2.761  1.00  0.00    -0.744 OA
ENDBRANCH  87  88
ENDBRANCH  55  80
BRANCH  67  92
ATOM     92  C   UNL     1      13.546  -0.906  -4.915  1.00  0.00     0.058 A 
ATOM     93  C   UNL     1      13.715   0.448  -5.243  1.00  0.00     0.135 A 
ATOM     94  C   UNL     1      14.018  -1.866  -5.825  1.00  0.00     0.135 A 
ATOM     95  F   UNL     1      13.273   1.405  -4.413  1.00  0.00    -0.206 F 
ATOM     96  C   UNL     1      14.324   0.835  -6.433  1.00  0.00     0.059 A 
ATOM     97  C   UNL     1      14.656  -1.502  -7.007  1.00  0.00     0.059 A 
ATOM     98  F   UNL     1      13.887  -3.175  -5.556  1.00  0.00    -0.206 F 
ATOM     99  C   UNL     1      14.799  -0.148  -7.304  1.00  0.00     0.060 A 
BRANCH  99 100
ATOM    100  S   UNL     1      15.643   0.370  -8.814  1.00  0.00     0.124 S 
ATOM    101  O   UNL     1      14.535   0.888  -9.609  1.00  0.00    -0.237 OA
ATOM    102  O   UNL     1      16.587   1.366  -8.316  1.00  0.00    -0.237 OA
ATOM    103  O   UNL     1      16.247  -0.864  -9.308  1.00  0.00    -0.744 OA
ENDBRANCH  99 100
ENDBRANCH  67  92
ENDBRANCH  41  42
ENDBRANCH  33  36
ENDBRANCH  31  32
ENDBRANCH  30  31
ENDBRANCH   1  30
TORSDOF 19
