REMARK SMILES O=C(CNC(=O)c1cccs1)N[C@@H]1C=C[C@H](C(=O)NCCCNC(=O)c2ccc(-c3c4nc(c(-c5c(F)cc(S(=O)(=O)[O-])cc5F)c5ccc([nH]5)c(-c5c(F)cc(S(=O)(=O)[O-])cc5F)c5nc(c(-c6c(F)cc(S(=O)(=O)[O-])cc6F)c6ccc3[nH]6)C=C5)C=C4)cc2)C1
REMARK SMILES IDX 20 1 19 2 17 3 18 4 16 6 13 7 14 8 92 9 15 10 12 11 1 12
REMARK SMILES IDX 2 13 3 15 4 16 5 17 6 19 7 20 8 21 11 22 9 23 10 24 21 25
REMARK SMILES IDX 22 26 23 27 24 28 25 30 26 31 27 32 91 33 28 34 90 35 29 36
REMARK SMILES IDX 30 37 31 38 84 39 32 40 89 41 83 42 85 43 33 44 88 45 82 46
REMARK SMILES IDX 81 47 34 49 68 50 47 51 67 52 48 53 51 54 66 55 86 56 49 57
REMARK SMILES IDX 50 58 65 60 87 61 52 62 35 63 36 64 45 65 37 66 38 67 44 68
REMARK SMILES IDX 46 69 39 70 40 71 41 72 42 73 43 74 69 75 70 76 79 77 71 78
REMARK SMILES IDX 72 79 78 80 80 81 73 82 74 83 75 84 76 85 77 86 53 87 54 88
REMARK SMILES IDX 63 89 55 90 56 91 62 92 64 93 57 94 58 95 59 96 60 97 61 98
REMARK H PARENT 19 5 12 14 4 18 23 29 85 48 51 59
REMARK Flexibility Score: inf
ROOT
ATOM      1  C   UNL     1      -2.222  -2.955   0.394  1.00  0.00     0.117 C 
ENDROOT
BRANCH   1   2
ATOM      2  N   UNL     1      -1.793  -3.846  -0.670  1.00  0.00    -0.356 N 
ATOM      3  C   UNL     1      -0.532  -4.252  -1.010  1.00  0.00     0.227 C 
ATOM      4  O   UNL     1      -0.405  -5.020  -1.963  1.00  0.00    -0.274 OA
ATOM      5  H   UNL     1      -2.516  -4.210  -1.230  1.00  0.00     0.163 HD
BRANCH   3   6
ATOM      6  C   UNL     1       0.651  -3.728  -0.196  1.00  0.00     0.103 C 
ATOM      7  C   UNL     1       2.478  -2.388  -1.181  1.00  0.00     0.106 C 
ATOM      8  C   UNL     1       2.887  -3.798  -0.927  1.00  0.00    -0.006 C 
ATOM      9  C   UNL     1       1.046  -2.308  -0.630  1.00  0.00     0.047 C 
ATOM     10  C   UNL     1       1.899  -4.530  -0.407  1.00  0.00    -0.016 C 
BRANCH   7  11
ATOM     11  N   UNL     1       2.554  -2.167  -2.605  1.00  0.00    -0.348 N 
ATOM     12  O   UNL     1       4.609  -1.149  -2.529  1.00  0.00    -0.273 OA
ATOM     13  C   UNL     1       3.667  -1.594  -3.182  1.00  0.00     0.239 C 
ATOM     14  H   UNL     1       1.797  -2.431  -3.175  1.00  0.00     0.164 HD
BRANCH  13  15
ATOM     15  C   UNL     1       3.573  -1.368  -4.691  1.00  0.00     0.216 C 
BRANCH  15  16
ATOM     16  N   UNL     1       2.863  -2.432  -5.387  1.00  0.00    -0.342 N 
ATOM     17  C   UNL     1       1.724  -2.376  -6.150  1.00  0.00     0.261 C 
ATOM     18  H   UNL     1       3.261  -3.328  -5.297  1.00  0.00     0.164 HD
ATOM     19  O   UNL     1       1.271  -3.448  -6.556  1.00  0.00    -0.268 OA
BRANCH  17  20
ATOM     20  C   UNL     1       1.115  -1.091  -6.417  1.00  0.00     0.092 A 
ATOM     21  C   UNL     1       1.672   0.068  -6.926  1.00  0.00     0.025 A 
ATOM     22  S   UNL     1      -0.561  -0.899  -6.115  1.00  0.00    -0.139 S 
ATOM     23  C   UNL     1       0.730   1.135  -6.999  1.00  0.00     0.012 A 
ATOM     24  C   UNL     1      -0.523   0.745  -6.585  1.00  0.00     0.065 A 
ENDBRANCH  17  20
ENDBRANCH  15  16
ENDBRANCH  13  15
ENDBRANCH   7  11
ENDBRANCH   3   6
ENDBRANCH   1   2
BRANCH   1  25
ATOM     25  C   UNL     1      -2.759  -1.629  -0.135  1.00  0.00     0.042 C 
BRANCH  25  26
ATOM     26  C   UNL     1      -4.020  -1.750  -0.987  1.00  0.00     0.118 C 
BRANCH  26  27
ATOM     27  N   UNL     1      -5.152  -2.294  -0.251  1.00  0.00    -0.352 N 
ATOM     28  C   UNL     1      -6.423  -1.802  -0.077  1.00  0.00     0.251 C 
ATOM     29  H   UNL     1      -4.979  -3.155   0.195  1.00  0.00     0.163 HD
ATOM     30  O   UNL     1      -7.171  -2.360   0.721  1.00  0.00    -0.269 OA
BRANCH  28  31
ATOM     31  C   UNL     1      -6.890  -0.604  -0.814  1.00  0.00     0.039 A 
ATOM     32  C   UNL     1      -7.694   0.321  -0.141  1.00  0.00     0.014 A 
ATOM     33  C   UNL     1      -6.580  -0.400  -2.161  1.00  0.00     0.014 A 
ATOM     34  C   UNL     1      -8.132   1.474  -0.798  1.00  0.00     0.010 A 
ATOM     35  C   UNL     1      -6.953   0.786  -2.793  1.00  0.00     0.010 A 
ATOM     36  C   UNL     1      -7.736   1.735  -2.120  1.00  0.00    -0.014 A 
BRANCH  36  37
ATOM     37  C   UNL     1      -8.125   3.001  -2.796  1.00  0.00     0.031 A 
ATOM     38  C   UNL     1      -9.011   2.982  -4.013  1.00  0.00     0.074 A 
ATOM     39  C   UNL     1      -7.633   4.171  -2.343  1.00  0.00     0.049 A 
ATOM     40  N   UNL     1      -9.437   3.984  -4.739  1.00  0.00    -0.248 NA
ATOM     41  C   UNL     1      -9.453   1.664  -4.495  1.00  0.00     0.031 C 
ATOM     42  C   UNL     1      -6.711   4.319  -1.215  1.00  0.00     0.029 A 
ATOM     43  N   UNL     1      -7.832   5.458  -2.778  1.00  0.00    -0.354 N 
ATOM     44  C   UNL     1     -10.182   3.420  -5.768  1.00  0.00     0.074 A 
ATOM     45  C   UNL     1     -10.107   1.985  -5.601  1.00  0.00     0.031 C 
ATOM     46  C   UNL     1      -6.446   5.622  -1.030  1.00  0.00     0.029 A 
ATOM     47  C   UNL     1      -7.154   6.400  -2.041  1.00  0.00     0.049 A 
ATOM     48  H   UNL     1      -8.406   5.684  -3.545  1.00  0.00     0.167 HD
ATOM     49  C   UNL     1     -10.883   4.041  -6.748  1.00  0.00     0.037 A 
ATOM     50  C   UNL     1      -7.109   7.742  -2.162  1.00  0.00     0.037 A 
ATOM     51  C   UNL     1     -10.978   5.471  -6.892  1.00  0.00     0.049 A 
ATOM     52  C   UNL     1      -7.924   8.412  -3.232  1.00  0.00     0.074 A 
ATOM     53  C   UNL     1     -11.720   6.196  -7.808  1.00  0.00     0.029 A 
ATOM     54  N   UNL     1     -10.308   6.393  -6.102  1.00  0.00    -0.354 N 
ATOM     55  N   UNL     1      -8.687   7.865  -4.148  1.00  0.00    -0.248 NA
ATOM     56  C   UNL     1      -7.885   9.880  -3.277  1.00  0.00     0.031 C 
ATOM     57  C   UNL     1     -11.468   7.557  -7.597  1.00  0.00     0.029 A 
ATOM     58  C   UNL     1     -10.605   7.681  -6.520  1.00  0.00     0.049 A 
ATOM     59  H   UNL     1      -9.709   6.167  -5.354  1.00  0.00     0.167 HD
ATOM     60  C   UNL     1      -9.239   8.922  -4.863  1.00  0.00     0.074 A 
ATOM     61  C   UNL     1      -8.729  10.140  -4.266  1.00  0.00     0.031 C 
ATOM     62  C   UNL     1     -10.093   8.886  -5.915  1.00  0.00     0.037 A 
BRANCH  49  63
ATOM     63  C   UNL     1     -11.607   3.171  -7.740  1.00  0.00     0.058 A 
ATOM     64  C   UNL     1     -12.738   2.421  -7.377  1.00  0.00     0.135 A 
ATOM     65  C   UNL     1     -11.178   3.100  -9.075  1.00  0.00     0.135 A 
ATOM     66  F   UNL     1     -13.185   2.442  -6.111  1.00  0.00    -0.206 F 
ATOM     67  C   UNL     1     -13.393   1.602  -8.290  1.00  0.00     0.059 A 
ATOM     68  C   UNL     1     -11.835   2.309 -10.014  1.00  0.00     0.059 A 
ATOM     69  F   UNL     1     -10.105   3.799  -9.479  1.00  0.00    -0.206 F 
ATOM     70  C   UNL     1     -12.930   1.548  -9.606  1.00  0.00     0.060 A 
BRANCH  70  71
ATOM     71  S   UNL     1     -13.780   0.469 -10.777  1.00  0.00     0.124 S 
ATOM     72  O   UNL     1     -13.304  -0.846 -10.359  1.00  0.00    -0.237 OA
ATOM     73  O   UNL     1     -15.186   0.750 -10.501  1.00  0.00    -0.237 OA
ATOM     74  O   UNL     1     -13.297   0.929 -12.075  1.00  0.00    -0.744 OA
ENDBRANCH  70  71
ENDBRANCH  49  63
BRANCH  50  75
ATOM     75  C   UNL     1      -6.290   8.535  -1.208  1.00  0.00     0.058 A 
ATOM     76  C   UNL     1      -6.896   9.297  -0.199  1.00  0.00     0.135 A 
ATOM     77  C   UNL     1      -4.888   8.511  -1.258  1.00  0.00     0.135 A 
ATOM     78  F   UNL     1      -8.234   9.354  -0.114  1.00  0.00    -0.206 F 
ATOM     79  C   UNL     1      -6.142  10.011   0.727  1.00  0.00     0.059 A 
ATOM     80  C   UNL     1      -4.112   9.198  -0.331  1.00  0.00     0.059 A 
ATOM     81  F   UNL     1      -4.261   7.781  -2.195  1.00  0.00    -0.206 F 
ATOM     82  C   UNL     1      -4.749   9.950   0.656  1.00  0.00     0.060 A 
BRANCH  82  83
ATOM     83  S   UNL     1      -3.779  10.816   1.910  1.00  0.00     0.124 S 
ATOM     84  O   UNL     1      -3.921  12.203   1.484  1.00  0.00    -0.237 OA
ATOM     85  O   UNL     1      -4.472  10.450   3.141  1.00  0.00    -0.237 OA
ATOM     86  O   UNL     1      -2.446  10.241   1.756  1.00  0.00    -0.744 OA
ENDBRANCH  82  83
ENDBRANCH  50  75
BRANCH  62  87
ATOM     87  C   UNL     1     -10.559  10.201  -6.474  1.00  0.00     0.058 A 
ATOM     88  C   UNL     1      -9.715  11.016  -7.244  1.00  0.00     0.135 A 
ATOM     89  C   UNL     1     -11.882  10.628  -6.276  1.00  0.00     0.135 A 
ATOM     90  F   UNL     1      -8.440  10.657  -7.458  1.00  0.00    -0.206 F 
ATOM     91  C   UNL     1     -10.160  12.221  -7.780  1.00  0.00     0.059 A 
ATOM     92  C   UNL     1     -12.356  11.816  -6.823  1.00  0.00     0.059 A 
ATOM     93  F   UNL     1     -12.733   9.880  -5.555  1.00  0.00    -0.206 F 
ATOM     94  C   UNL     1     -11.483  12.612  -7.564  1.00  0.00     0.060 A 
BRANCH  94  95
ATOM     95  S   UNL     1     -12.059  14.162  -8.289  1.00  0.00     0.124 S 
ATOM     96  O   UNL     1     -11.447  15.146  -7.402  1.00  0.00    -0.237 OA
ATOM     97  O   UNL     1     -11.511  14.100  -9.640  1.00  0.00    -0.237 OA
ATOM     98  O   UNL     1     -13.512  14.057  -8.204  1.00  0.00    -0.744 OA
ENDBRANCH  94  95
ENDBRANCH  62  87
ENDBRANCH  36  37
ENDBRANCH  28  31
ENDBRANCH  26  27
ENDBRANCH  25  26
ENDBRANCH   1  25
TORSDOF 17
