REMARK SMILES CN(Cc1ccnn1C)C(=O)c1c(C(=O)NCCCNC(=O)c2ccc(-c3c4nc(c(-c5c(F)cc(S(=O)(=O)[O-])cc5F)c5ccc([nH]5)c(-c5c(F)cc(S(=O)(=O)[O-])cc5F)c5nc(c(-c6c(F)cc(S(=O)(=O)[O-])cc6F)c6ccc3[nH]6)C=C5)C=C4)cc2)cnn1C
REMARK SMILES IDX 17 1 16 2 14 3 15 4 13 6 12 7 91 8 89 9 90 10 92 11 10 12
REMARK SMILES IDX 11 13 2 14 1 15 3 16 4 17 5 18 8 19 6 20 7 21 9 22 18 23
REMARK SMILES IDX 19 24 20 25 21 26 22 28 23 29 24 30 88 31 25 32 87 33 26 34
REMARK SMILES IDX 27 35 28 36 81 37 29 38 86 39 80 40 82 41 30 42 85 43 79 44
REMARK SMILES IDX 78 45 31 47 65 48 44 49 64 50 45 51 48 52 63 53 83 54 46 55
REMARK SMILES IDX 47 56 62 58 84 59 49 60 32 61 33 62 42 63 34 64 35 65 41 66
REMARK SMILES IDX 43 67 36 68 37 69 38 70 39 71 40 72 66 73 67 74 76 75 68 76
REMARK SMILES IDX 69 77 75 78 77 79 70 80 71 81 72 82 73 83 74 84 50 85 51 86
REMARK SMILES IDX 60 87 52 88 53 89 59 90 61 91 54 92 55 93 56 94 57 95 58 96
REMARK H PARENT 16 5 20 27 82 46 48 57
REMARK Flexibility Score: inf
ROOT
ATOM      1  C   UNL     1       3.329  -0.172  -3.838  1.00  0.00     0.118 C 
ENDROOT
BRANCH   1   2
ATOM      2  N   UNL     1       3.407  -1.592  -4.111  1.00  0.00    -0.352 N 
ATOM      3  C   UNL     1       2.469  -2.544  -4.396  1.00  0.00     0.255 C 
ATOM      4  O   UNL     1       2.909  -3.671  -4.636  1.00  0.00    -0.269 OA
ATOM      5  H   UNL     1       4.326  -1.944  -4.087  1.00  0.00     0.163 HD
BRANCH   3   6
ATOM      6  C   UNL     1       1.041  -2.290  -4.516  1.00  0.00     0.090 A 
ATOM      7  C   UNL     1       0.122  -1.465  -3.866  1.00  0.00     0.138 A 
ATOM      8  N   UNL     1      -1.080  -1.683  -4.501  1.00  0.00    -0.262 N 
ATOM      9  C   UNL     1       0.229  -3.051  -5.401  1.00  0.00     0.149 A 
ATOM     10  N   UNL     1      -1.052  -2.696  -5.383  1.00  0.00    -0.180 NA
ATOM     11  C   UNL     1      -2.336  -0.996  -4.305  1.00  0.00     0.174 C 
BRANCH   7  12
ATOM     12  C   UNL     1       0.265  -0.520  -2.789  1.00  0.00     0.273 C 
ATOM     13  O   UNL     1       0.434   0.675  -3.023  1.00  0.00    -0.267 OA
BRANCH  12  14
ATOM     14  N   UNL     1       0.172  -1.001  -1.483  1.00  0.00    -0.334 N 
ATOM     15  C   UNL     1       0.543  -0.127  -0.376  1.00  0.00     0.147 C 
BRANCH  14  16
ATOM     16  C   UNL     1      -0.380  -2.307  -1.129  1.00  0.00     0.175 C 
BRANCH  16  17
ATOM     17  C   UNL     1      -1.871  -2.215  -1.038  1.00  0.00     0.057 A 
ATOM     18  C   UNL     1      -2.720  -1.166  -0.727  1.00  0.00     0.047 A 
ATOM     19  N   UNL     1      -2.704  -3.287  -1.258  1.00  0.00    -0.271 N 
ATOM     20  C   UNL     1      -4.017  -1.690  -0.825  1.00  0.00     0.135 A 
ATOM     21  N   UNL     1      -4.013  -2.974  -1.176  1.00  0.00    -0.181 NA
ATOM     22  C   UNL     1      -2.336  -4.644  -1.586  1.00  0.00     0.174 C 
ENDBRANCH  16  17
ENDBRANCH  14  16
ENDBRANCH  12  14
ENDBRANCH   7  12
ENDBRANCH   3   6
ENDBRANCH   1   2
BRANCH   1  23
ATOM     23  C   UNL     1       3.485   0.090  -2.340  1.00  0.00     0.042 C 
BRANCH  23  24
ATOM     24  C   UNL     1       4.932   0.041  -1.850  1.00  0.00     0.118 C 
BRANCH  24  25
ATOM     25  N   UNL     1       5.643   1.271  -2.148  1.00  0.00    -0.352 N 
ATOM     26  C   UNL     1       6.492   2.003  -1.355  1.00  0.00     0.251 C 
ATOM     27  H   UNL     1       5.495   1.633  -3.052  1.00  0.00     0.163 HD
ATOM     28  O   UNL     1       6.826   3.127  -1.724  1.00  0.00    -0.269 OA
BRANCH  26  29
ATOM     29  C   UNL     1       7.000   1.472  -0.067  1.00  0.00     0.039 A 
ATOM     30  C   UNL     1       7.122   2.356   1.012  1.00  0.00     0.014 A 
ATOM     31  C   UNL     1       7.442   0.152   0.069  1.00  0.00     0.014 A 
ATOM     32  C   UNL     1       7.666   1.918   2.224  1.00  0.00     0.010 A 
ATOM     33  C   UNL     1       7.953  -0.295   1.292  1.00  0.00     0.010 A 
ATOM     34  C   UNL     1       8.084   0.588   2.375  1.00  0.00    -0.014 A 
BRANCH  34  35
ATOM     35  C   UNL     1       8.697   0.128   3.648  1.00  0.00     0.031 A 
ATOM     36  C   UNL     1      10.169  -0.174   3.716  1.00  0.00     0.074 A 
ATOM     37  C   UNL     1       7.928  -0.039   4.741  1.00  0.00     0.049 A 
ATOM     38  N   UNL     1      10.877  -0.613   4.726  1.00  0.00    -0.248 NA
ATOM     39  C   UNL     1      10.943   0.025   2.481  1.00  0.00     0.031 C 
ATOM     40  C   UNL     1       6.483   0.184   4.801  1.00  0.00     0.029 A 
ATOM     41  N   UNL     1       8.257  -0.439   6.011  1.00  0.00    -0.354 N 
ATOM     42  C   UNL     1      12.171  -0.768   4.245  1.00  0.00     0.074 A 
ATOM     43  C   UNL     1      12.147  -0.394   2.846  1.00  0.00     0.031 C 
ATOM     44  C   UNL     1       6.053  -0.067   6.049  1.00  0.00     0.029 A 
ATOM     45  C   UNL     1       7.187  -0.481   6.871  1.00  0.00     0.049 A 
ATOM     46  H   UNL     1       9.175  -0.674   6.282  1.00  0.00     0.167 HD
ATOM     47  C   UNL     1      13.281  -1.176   4.907  1.00  0.00     0.037 A 
ATOM     48  C   UNL     1       7.126  -0.808   8.176  1.00  0.00     0.037 A 
ATOM     49  C   UNL     1      13.320  -1.511   6.306  1.00  0.00     0.049 A 
ATOM     50  C   UNL     1       8.382  -1.185   8.908  1.00  0.00     0.074 A 
ATOM     51  C   UNL     1      14.406  -1.900   7.072  1.00  0.00     0.029 A 
ATOM     52  N   UNL     1      12.224  -1.483   7.155  1.00  0.00    -0.354 N 
ATOM     53  N   UNL     1       9.602  -1.300   8.442  1.00  0.00    -0.248 NA
ATOM     54  C   UNL     1       8.255  -1.464  10.346  1.00  0.00     0.031 C 
ATOM     55  C   UNL     1      13.964  -2.114   8.384  1.00  0.00     0.029 A 
ATOM     56  C   UNL     1      12.607  -1.842   8.436  1.00  0.00     0.049 A 
ATOM     57  H   UNL     1      11.308  -1.242   6.886  1.00  0.00     0.167 HD
ATOM     58  C   UNL     1      10.391  -1.653   9.530  1.00  0.00     0.074 A 
ATOM     59  C   UNL     1       9.512  -1.722  10.681  1.00  0.00     0.031 C 
ATOM     60  C   UNL     1      11.723  -1.899   9.571  1.00  0.00     0.037 A 
BRANCH  47  61
ATOM     61  C   UNL     1      14.549  -1.285   4.112  1.00  0.00     0.058 A 
ATOM     62  C   UNL     1      15.289  -0.147   3.754  1.00  0.00     0.135 A 
ATOM     63  C   UNL     1      15.027  -2.538   3.700  1.00  0.00     0.135 A 
ATOM     64  F   UNL     1      14.863   1.075   4.111  1.00  0.00    -0.206 F 
ATOM     65  C   UNL     1      16.445  -0.246   2.987  1.00  0.00     0.059 A 
ATOM     66  C   UNL     1      16.190  -2.662   2.946  1.00  0.00     0.059 A 
ATOM     67  F   UNL     1      14.354  -3.656   4.015  1.00  0.00    -0.206 F 
ATOM     68  C   UNL     1      16.881  -1.507   2.578  1.00  0.00     0.060 A 
BRANCH  68  69
ATOM     69  S   UNL     1      18.368  -1.632   1.560  1.00  0.00     0.124 S 
ATOM     70  O   UNL     1      17.826  -1.381   0.228  1.00  0.00    -0.237 OA
ATOM     71  O   UNL     1      19.220  -0.581   2.105  1.00  0.00    -0.237 OA
ATOM     72  O   UNL     1      18.827  -2.995   1.807  1.00  0.00    -0.744 OA
ENDBRANCH  68  69
ENDBRANCH  47  61
BRANCH  48  73
ATOM     73  C   UNL     1       5.824  -0.754   8.883  1.00  0.00     0.058 A 
ATOM     74  C   UNL     1       5.503   0.332   9.710  1.00  0.00     0.135 A 
ATOM     75  C   UNL     1       4.866  -1.764   8.719  1.00  0.00     0.135 A 
ATOM     76  F   UNL     1       6.394   1.318   9.897  1.00  0.00    -0.206 F 
ATOM     77  C   UNL     1       4.274   0.417  10.353  1.00  0.00     0.059 A 
ATOM     78  C   UNL     1       3.624  -1.695   9.341  1.00  0.00     0.059 A 
ATOM     79  F   UNL     1       5.125  -2.814   7.925  1.00  0.00    -0.206 F 
ATOM     80  C   UNL     1       3.339  -0.602  10.161  1.00  0.00     0.060 A 
BRANCH  80  81
ATOM     81  S   UNL     1       1.710  -0.455  10.928  1.00  0.00     0.124 S 
ATOM     82  O   UNL     1       1.970  -0.971  12.267  1.00  0.00    -0.237 OA
ATOM     83  O   UNL     1       1.447   0.978  10.836  1.00  0.00    -0.237 OA
ATOM     84  O   UNL     1       0.870  -1.291  10.076  1.00  0.00    -0.744 OA
ENDBRANCH  80  81
ENDBRANCH  48  73
BRANCH  60  85
ATOM     85  C   UNL     1      12.310  -2.249  10.905  1.00  0.00     0.058 A 
ATOM     86  C   UNL     1      12.202  -3.545  11.432  1.00  0.00     0.135 A 
ATOM     87  C   UNL     1      13.010  -1.288  11.651  1.00  0.00     0.135 A 
ATOM     88  F   UNL     1      11.536  -4.495  10.757  1.00  0.00    -0.206 F 
ATOM     89  C   UNL     1      12.754  -3.873  12.666  1.00  0.00     0.059 A 
ATOM     90  C   UNL     1      13.580  -1.598  12.882  1.00  0.00     0.059 A 
ATOM     91  F   UNL     1      13.143  -0.037  11.185  1.00  0.00    -0.206 F 
ATOM     92  C   UNL     1      13.436  -2.891  13.386  1.00  0.00     0.060 A 
BRANCH  92  93
ATOM     93  S   UNL     1      14.171  -3.322  14.979  1.00  0.00     0.124 S 
ATOM     94  O   UNL     1      13.032  -3.167  15.878  1.00  0.00    -0.237 OA
ATOM     95  O   UNL     1      14.625  -4.693  14.763  1.00  0.00    -0.237 OA
ATOM     96  O   UNL     1      15.236  -2.335  15.133  1.00  0.00    -0.744 OA
ENDBRANCH  92  93
ENDBRANCH  60  85
ENDBRANCH  34  35
ENDBRANCH  26  29
ENDBRANCH  24  25
ENDBRANCH  23  24
ENDBRANCH   1  23
TORSDOF 17
