REMARK SMILES CCc1cc(C(=O)N2CCO[C@@H](CC(=O)NCCCNC(=O)c3ccc(-c4c5nc(c(-c6c(F)cc(S(=O)(=O)[O-])cc6F)c6ccc([nH]6)c(-c6c(F)cc(S(=O)(=O)[O-])cc6F)c6nc(c(-c7c(F)cc(S(=O)(=O)[O-])cc7F)c7ccc4[nH]7)C=C6)C=C5)cc3)C2)sc1C
REMARK SMILES IDX 17 1 16 2 14 3 15 4 13 6 12 7 8 8 9 9 89 10 10 11 11 12 6 13
REMARK SMILES IDX 7 14 5 15 3 16 4 17 91 18 90 19 92 20 2 21 1 22 18 23 19 24
REMARK SMILES IDX 20 25 21 26 22 28 23 29 24 30 88 31 25 32 87 33 26 34 27 35
REMARK SMILES IDX 28 36 81 37 29 38 86 39 80 40 82 41 30 42 85 43 79 44 78 45
REMARK SMILES IDX 31 47 65 48 44 49 64 50 45 51 48 52 63 53 83 54 46 55 47 56
REMARK SMILES IDX 62 58 84 59 49 60 32 61 33 62 42 63 34 64 35 65 41 66 43 67
REMARK SMILES IDX 36 68 37 69 38 70 39 71 40 72 66 73 67 74 76 75 68 76 69 77
REMARK SMILES IDX 75 78 77 79 70 80 71 81 72 82 73 83 74 84 50 85 51 86 60 87
REMARK SMILES IDX 52 88 53 89 59 90 61 91 54 92 55 93 56 94 57 95 58 96
REMARK H PARENT 16 5 20 27 82 46 48 57
REMARK Flexibility Score: inf
ROOT
ATOM      1  C   UNL     1      -2.847  -9.676   0.688  1.00  0.00     0.117 C 
ENDROOT
BRANCH   1   2
ATOM      2  N   UNL     1      -3.711  -8.508   0.818  1.00  0.00    -0.356 N 
ATOM      3  C   UNL     1      -4.221  -7.652  -0.112  1.00  0.00     0.222 C 
ATOM      4  O   UNL     1      -4.976  -6.758   0.274  1.00  0.00    -0.275 OA
ATOM      5  H   UNL     1      -3.973  -8.300   1.744  1.00  0.00     0.163 HD
BRANCH   3   6
ATOM      6  C   UNL     1      -3.830  -7.747  -1.571  1.00  0.00     0.133 C 
BRANCH   6   7
ATOM      7  C   UNL     1      -2.848  -6.632  -1.932  1.00  0.00     0.147 C 
ATOM      8  N   UNL     1      -0.528  -5.859  -1.553  1.00  0.00    -0.333 N 
ATOM      9  C   UNL     1      -0.322  -5.755  -2.993  1.00  0.00     0.148 C 
ATOM     10  C   UNL     1      -1.537  -6.821  -1.168  1.00  0.00     0.152 C 
ATOM     11  C   UNL     1      -1.662  -5.628  -3.730  1.00  0.00     0.182 C 
ATOM     12  O   UNL     1      -2.585  -6.671  -3.353  1.00  0.00    -0.374 OA
BRANCH   8  13
ATOM     13  C   UNL     1       0.547  -5.731  -0.669  1.00  0.00     0.264 C 
ATOM     14  O   UNL     1       0.926  -6.713  -0.028  1.00  0.00    -0.268 OA
BRANCH  13  15
ATOM     15  C   UNL     1       1.015  -4.373  -0.446  1.00  0.00     0.093 A 
ATOM     16  C   UNL     1       1.140  -2.012  -0.333  1.00  0.00    -0.034 A 
ATOM     17  C   UNL     1       0.517  -3.175  -0.915  1.00  0.00     0.029 A 
ATOM     18  C   UNL     1       2.133  -2.397   0.559  1.00  0.00     0.005 A 
ATOM     19  S   UNL     1       2.294  -4.104   0.647  1.00  0.00    -0.135 S 
ATOM     20  C   UNL     1       3.025  -1.582   1.439  1.00  0.00     0.056 C 
BRANCH  16  21
ATOM     21  C   UNL     1       0.675  -0.630  -0.721  1.00  0.00     0.033 C 
ATOM     22  C   UNL     1       0.967   0.508   0.238  1.00  0.00     0.009 C 
ENDBRANCH  16  21
ENDBRANCH  13  15
ENDBRANCH   8  13
ENDBRANCH   6   7
ENDBRANCH   3   6
ENDBRANCH   1   2
BRANCH   1  23
ATOM     23  C   UNL     1      -1.417  -9.443   1.182  1.00  0.00     0.042 C 
BRANCH  23  24
ATOM     24  C   UNL     1      -1.285  -9.195   2.683  1.00  0.00     0.118 C 
BRANCH  24  25
ATOM     25  N   UNL     1      -1.131 -10.441   3.414  1.00  0.00    -0.352 N 
ATOM     26  C   UNL     1      -0.040 -10.928   4.095  1.00  0.00     0.251 C 
ATOM     27  H   UNL     1      -1.925 -11.023   3.424  1.00  0.00     0.163 HD
ATOM     28  O   UNL     1      -0.023 -12.121   4.400  1.00  0.00    -0.269 OA
BRANCH  26  29
ATOM     29  C   UNL     1       1.103 -10.058   4.475  1.00  0.00     0.039 A 
ATOM     30  C   UNL     1       2.395 -10.600   4.443  1.00  0.00     0.014 A 
ATOM     31  C   UNL     1       0.915  -8.764   4.970  1.00  0.00     0.014 A 
ATOM     32  C   UNL     1       3.489  -9.847   4.887  1.00  0.00     0.010 A 
ATOM     33  C   UNL     1       2.014  -7.995   5.370  1.00  0.00     0.010 A 
ATOM     34  C   UNL     1       3.308  -8.537   5.356  1.00  0.00    -0.014 A 
BRANCH  34  35
ATOM     35  C   UNL     1       4.449  -7.758   5.908  1.00  0.00     0.031 A 
ATOM     36  C   UNL     1       4.516  -7.467   7.385  1.00  0.00     0.074 A 
ATOM     37  C   UNL     1       5.412  -7.285   5.095  1.00  0.00     0.049 A 
ATOM     38  N   UNL     1       5.380  -6.740   8.047  1.00  0.00    -0.248 NA
ATOM     39  C   UNL     1       3.459  -8.055   8.222  1.00  0.00     0.031 C 
ATOM     40  C   UNL     1       5.461  -7.463   3.643  1.00  0.00     0.029 A 
ATOM     41  N   UNL     1       6.538  -6.551   5.379  1.00  0.00    -0.354 N 
ATOM     42  C   UNL     1       4.947  -6.745   9.368  1.00  0.00     0.074 A 
ATOM     43  C   UNL     1       3.743  -7.547   9.413  1.00  0.00     0.031 C 
ATOM     44  C   UNL     1       6.571  -6.872   3.167  1.00  0.00     0.029 A 
ATOM     45  C   UNL     1       7.299  -6.257   4.274  1.00  0.00     0.049 A 
ATOM     46  H   UNL     1       6.777  -6.263   6.290  1.00  0.00     0.167 HD
ATOM     47  C   UNL     1       5.500  -6.140  10.447  1.00  0.00     0.037 A 
ATOM     48  C   UNL     1       8.454  -5.572   4.165  1.00  0.00     0.037 A 
ATOM     49  C   UNL     1       6.724  -5.387  10.426  1.00  0.00     0.049 A 
ATOM     50  C   UNL     1       9.102  -4.995   5.392  1.00  0.00     0.074 A 
ATOM     51  C   UNL     1       7.368  -4.753  11.476  1.00  0.00     0.029 A 
ATOM     52  N   UNL     1       7.504  -5.184   9.299  1.00  0.00    -0.354 N 
ATOM     53  N   UNL     1       8.676  -5.007   6.631  1.00  0.00    -0.248 NA
ATOM     54  C   UNL     1      10.393  -4.314   5.205  1.00  0.00     0.031 C 
ATOM     55  C   UNL     1       8.541  -4.168  10.982  1.00  0.00     0.029 A 
ATOM     56  C   UNL     1       8.630  -4.448   9.629  1.00  0.00     0.049 A 
ATOM     57  H   UNL     1       7.290  -5.514   8.397  1.00  0.00     0.167 HD
ATOM     58  C   UNL     1       9.647  -4.345   7.372  1.00  0.00     0.074 A 
ATOM     59  C   UNL     1      10.690  -3.953   6.447  1.00  0.00     0.031 C 
ATOM     60  C   UNL     1       9.668  -4.080   8.701  1.00  0.00     0.037 A 
BRANCH  47  61
ATOM     61  C   UNL     1       4.761  -6.266  11.746  1.00  0.00     0.058 A 
ATOM     62  C   UNL     1       4.839  -7.431  12.524  1.00  0.00     0.135 A 
ATOM     63  C   UNL     1       3.958  -5.214  12.212  1.00  0.00     0.135 A 
ATOM     64  F   UNL     1       5.581  -8.471  12.110  1.00  0.00    -0.206 F 
ATOM     65  C   UNL     1       4.120  -7.562  13.707  1.00  0.00     0.059 A 
ATOM     66  C   UNL     1       3.241  -5.317  13.399  1.00  0.00     0.059 A 
ATOM     67  F   UNL     1       3.850  -4.080  11.501  1.00  0.00    -0.206 F 
ATOM     68  C   UNL     1       3.313  -6.504  14.130  1.00  0.00     0.060 A 
BRANCH  68  69
ATOM     69  S   UNL     1       2.354  -6.677  15.649  1.00  0.00     0.124 S 
ATOM     70  O   UNL     1       1.138  -7.314  15.152  1.00  0.00    -0.237 OA
ATOM     71  O   UNL     1       3.211  -7.516  16.481  1.00  0.00    -0.237 OA
ATOM     72  O   UNL     1       2.202  -5.299  16.105  1.00  0.00    -0.744 OA
ENDBRANCH  68  69
ENDBRANCH  47  61
BRANCH  48  73
ATOM     73  C   UNL     1       9.093  -5.422   2.836  1.00  0.00     0.058 A 
ATOM     74  C   UNL     1      10.163  -6.246   2.461  1.00  0.00     0.135 A 
ATOM     75  C   UNL     1       8.636  -4.471   1.913  1.00  0.00     0.135 A 
ATOM     76  F   UNL     1      10.635  -7.164   3.318  1.00  0.00    -0.206 F 
ATOM     77  C   UNL     1      10.765  -6.132   1.213  1.00  0.00     0.059 A 
ATOM     78  C   UNL     1       9.215  -4.345   0.654  1.00  0.00     0.059 A 
ATOM     79  F   UNL     1       7.610  -3.666   2.229  1.00  0.00    -0.206 F 
ATOM     80  C   UNL     1      10.284  -5.176   0.316  1.00  0.00     0.060 A 
BRANCH  80  81
ATOM     81  S   UNL     1      11.022  -5.064  -1.329  1.00  0.00     0.124 S 
ATOM     82  O   UNL     1      12.151  -4.174  -1.083  1.00  0.00    -0.237 OA
ATOM     83  O   UNL     1      11.358  -6.454  -1.623  1.00  0.00    -0.237 OA
ATOM     84  O   UNL     1       9.940  -4.508  -2.136  1.00  0.00    -0.744 OA
ENDBRANCH  80  81
ENDBRANCH  48  73
BRANCH  60  85
ATOM     85  C   UNL     1      10.864  -3.353   9.238  1.00  0.00     0.058 A 
ATOM     86  C   UNL     1      10.963  -1.957   9.156  1.00  0.00     0.135 A 
ATOM     87  C   UNL     1      11.898  -4.054   9.877  1.00  0.00     0.135 A 
ATOM     88  F   UNL     1       9.999  -1.246   8.550  1.00  0.00    -0.206 F 
ATOM     89  C   UNL     1      12.058  -1.276   9.680  1.00  0.00     0.059 A 
ATOM     90  C   UNL     1      12.997  -3.393  10.416  1.00  0.00     0.059 A 
ATOM     91  F   UNL     1      11.844  -5.391   9.982  1.00  0.00    -0.206 F 
ATOM     92  C   UNL     1      13.073  -2.004  10.305  1.00  0.00     0.060 A 
BRANCH  92  93
ATOM     93  S   UNL     1      14.479  -1.122  11.016  1.00  0.00     0.124 S 
ATOM     94  O   UNL     1      15.356  -0.986   9.858  1.00  0.00    -0.237 OA
ATOM     95  O   UNL     1      13.873   0.116  11.499  1.00  0.00    -0.237 OA
ATOM     96  O   UNL     1      14.947  -2.029  12.060  1.00  0.00    -0.744 OA
ENDBRANCH  92  93
ENDBRANCH  60  85
ENDBRANCH  34  35
ENDBRANCH  26  29
ENDBRANCH  24  25
ENDBRANCH  23  24
ENDBRANCH   1  23
TORSDOF 17
