REMARK SMILES Cc1ccc(-c2nc(C)c(C(=O)N3CCC(C(=O)NCCCNC(=O)c4ccc(-c5c6nc(c(-c7c(F)cc(S(=O)(=O)[O-])cc7F)c7ccc([nH]7)c(-c7c(F)cc(S(=O)(=O)[O-])cc7F)c7nc(c(-c8c(F)cc(S(=O)(=O)[O-])cc8F)c8ccc5[nH]8)C=C7)C=C6)cc4)CC3)s2)o1
REMARK SMILES IDX 21 1 20 2 19 3 17 4 18 5 16 7 11 8 12 9 13 10 14 11 93 12
REMARK SMILES IDX 15 13 92 14 10 15 6 16 7 17 94 18 8 19 9 20 5 21 1 22 2 23
REMARK SMILES IDX 3 24 95 25 4 26 22 27 23 28 24 29 25 31 26 32 27 33 91 34
REMARK SMILES IDX 28 35 90 36 29 37 30 38 31 39 84 40 32 41 89 42 83 43 85 44
REMARK SMILES IDX 33 45 88 46 82 47 81 48 34 50 68 51 47 52 67 53 48 54 51 55
REMARK SMILES IDX 66 56 86 57 49 58 50 59 65 61 87 62 52 63 35 64 36 65 45 66
REMARK SMILES IDX 37 67 38 68 44 69 46 70 39 71 40 72 41 73 42 74 43 75 69 76
REMARK SMILES IDX 70 77 79 78 71 79 72 80 78 81 80 82 73 83 74 84 75 85 76 86
REMARK SMILES IDX 77 87 53 88 54 89 63 90 55 91 56 92 62 93 64 94 57 95 58 96
REMARK SMILES IDX 59 97 60 98 61 99
REMARK H PARENT 19 6 23 30 85 49 51 60
REMARK Flexibility Score: inf
ROOT
ATOM      1  C   UNL     1     -10.360   4.880   2.562  1.00  0.00     0.042 C 
ENDROOT
BRANCH   1   2
ATOM      2  C   UNL     1     -10.136   4.627   1.080  1.00  0.00     0.117 C 
BRANCH   2   3
ATOM      3  N   UNL     1     -10.572   5.745   0.254  1.00  0.00    -0.356 N 
ATOM      4  C   UNL     1      -9.864   6.598  -0.534  1.00  0.00     0.223 C 
ATOM      5  O   UNL     1     -10.478   7.479  -1.140  1.00  0.00    -0.275 OA
ATOM      6  H   UNL     1     -11.543   5.911   0.270  1.00  0.00     0.163 HD
BRANCH   4   7
ATOM      7  C   UNL     1      -8.359   6.464  -0.688  1.00  0.00     0.082 C 
ATOM      8  C   UNL     1      -5.400   4.030   0.787  1.00  0.00     0.265 C 
ATOM      9  O   UNL     1      -5.738   3.911   1.965  1.00  0.00    -0.268 OA
ATOM     10  N   UNL     1      -5.977   5.035   0.014  1.00  0.00    -0.338 N 
ATOM     11  C   UNL     1      -6.181   6.345   0.607  1.00  0.00     0.120 C 
ATOM     12  C   UNL     1      -6.507   4.833  -1.325  1.00  0.00     0.120 C 
ATOM     13  C   UNL     1      -7.643   6.737   0.641  1.00  0.00     0.035 C 
ATOM     14  C   UNL     1      -7.996   5.143  -1.388  1.00  0.00     0.035 C 
BRANCH   8  15
ATOM     15  C   UNL     1      -4.324   3.249   0.189  1.00  0.00     0.115 A 
ATOM     16  C   UNL     1      -2.504   1.658  -0.110  1.00  0.00     0.159 A 
ATOM     17  N   UNL     1      -2.431   2.598  -1.024  1.00  0.00    -0.237 NA
ATOM     18  S   UNL     1      -3.855   1.758   0.932  1.00  0.00    -0.105 S 
ATOM     19  C   UNL     1      -3.445   3.524  -0.854  1.00  0.00     0.062 A 
ATOM     20  C   UNL     1      -3.393   4.695  -1.765  1.00  0.00     0.068 C 
BRANCH  16  21
ATOM     21  C   UNL     1      -1.484   0.656   0.003  1.00  0.00     0.162 A 
ATOM     22  C   UNL     1       2.036  -0.031  -0.005  1.00  0.00     0.087 C 
ATOM     23  C   UNL     1       0.568  -0.178   0.037  1.00  0.00     0.101 A 
ATOM     24  C   UNL     1      -0.283  -1.250   0.173  1.00  0.00     0.046 A 
ATOM     25  O   UNL     1      -0.148   0.971  -0.084  1.00  0.00    -0.459 OA
ATOM     26  C   UNL     1      -1.597  -0.715   0.171  1.00  0.00     0.054 A 
ENDBRANCH  16  21
ENDBRANCH   8  15
ENDBRANCH   4   7
ENDBRANCH   2   3
ENDBRANCH   1   2
BRANCH   1  27
ATOM     27  C   UNL     1     -11.825   4.996   2.942  1.00  0.00     0.118 C 
BRANCH  27  28
ATOM     28  N   UNL     1     -12.569   3.775   2.667  1.00  0.00    -0.352 N 
ATOM     29  C   UNL     1     -13.218   2.928   3.530  1.00  0.00     0.251 C 
ATOM     30  H   UNL     1     -12.613   3.517   1.718  1.00  0.00     0.163 HD
ATOM     31  O   UNL     1     -13.600   1.832   3.127  1.00  0.00    -0.269 OA
BRANCH  29  32
ATOM     32  C   UNL     1     -13.441   3.326   4.936  1.00  0.00     0.039 A 
ATOM     33  C   UNL     1     -13.296   2.370   5.943  1.00  0.00     0.014 A 
ATOM     34  C   UNL     1     -13.801   4.636   5.262  1.00  0.00     0.014 A 
ATOM     35  C   UNL     1     -13.458   2.746   7.277  1.00  0.00     0.010 A 
ATOM     36  C   UNL     1     -13.854   5.032   6.593  1.00  0.00     0.010 A 
ATOM     37  C   UNL     1     -13.703   4.087   7.616  1.00  0.00    -0.014 A 
BRANCH  37  38
ATOM     38  C   UNL     1     -13.821   4.512   9.035  1.00  0.00     0.031 A 
ATOM     39  C   UNL     1     -15.104   5.121   9.538  1.00  0.00     0.074 A 
ATOM     40  C   UNL     1     -12.759   4.391   9.855  1.00  0.00     0.049 A 
ATOM     41  N   UNL     1     -15.390   5.571  10.733  1.00  0.00    -0.248 NA
ATOM     42  C   UNL     1     -16.200   5.273   8.566  1.00  0.00     0.031 C 
ATOM     43  C   UNL     1     -11.443   3.876   9.466  1.00  0.00     0.029 A 
ATOM     44  N   UNL     1     -12.614   4.692  11.185  1.00  0.00    -0.354 N 
ATOM     45  C   UNL     1     -16.687   6.064  10.652  1.00  0.00     0.074 A 
ATOM     46  C   UNL     1     -17.108   5.923   9.277  1.00  0.00     0.031 C 
ATOM     47  C   UNL     1     -10.640   3.862  10.541  1.00  0.00     0.029 A 
ATOM     48  C   UNL     1     -11.366   4.402  11.685  1.00  0.00     0.049 A 
ATOM     49  H   UNL     1     -13.336   5.080  11.731  1.00  0.00     0.167 HD
ATOM     50  C   UNL     1     -17.469   6.562  11.640  1.00  0.00     0.037 A 
ATOM     51  C   UNL     1     -10.865   4.554  12.926  1.00  0.00     0.037 A 
ATOM     52  C   UNL     1     -17.049   6.678  13.013  1.00  0.00     0.049 A 
ATOM     53  C   UNL     1     -11.755   5.102  14.009  1.00  0.00     0.074 A 
ATOM     54  C   UNL     1     -17.780   7.116  14.102  1.00  0.00     0.029 A 
ATOM     55  N   UNL     1     -15.784   6.355  13.484  1.00  0.00    -0.354 N 
ATOM     56  N   UNL     1     -13.003   5.498  13.930  1.00  0.00    -0.248 NA
ATOM     57  C   UNL     1     -11.172   5.211  15.353  1.00  0.00     0.031 C 
ATOM     58  C   UNL     1     -16.942   7.107  15.223  1.00  0.00     0.029 A 
ATOM     59  C   UNL     1     -15.708   6.604  14.845  1.00  0.00     0.049 A 
ATOM     60  H   UNL     1     -15.049   6.001  12.933  1.00  0.00     0.167 HD
ATOM     61  C   UNL     1     -13.365   5.873  15.219  1.00  0.00     0.074 A 
ATOM     62  C   UNL     1     -12.208   5.642  16.059  1.00  0.00     0.031 C 
ATOM     63  C   UNL     1     -14.548   6.364  15.668  1.00  0.00     0.037 A 
BRANCH  50  64
ATOM     64  C   UNL     1     -18.859   7.011  11.274  1.00  0.00     0.058 A 
ATOM     65  C   UNL     1     -19.853   6.098  10.886  1.00  0.00     0.135 A 
ATOM     66  C   UNL     1     -19.213   8.369  11.345  1.00  0.00     0.135 A 
ATOM     67  F   UNL     1     -19.568   4.790  10.784  1.00  0.00    -0.206 F 
ATOM     68  C   UNL     1     -21.137   6.516  10.551  1.00  0.00     0.059 A 
ATOM     69  C   UNL     1     -20.501   8.806  11.046  1.00  0.00     0.059 A 
ATOM     70  F   UNL     1     -18.304   9.287  11.708  1.00  0.00    -0.206 F 
ATOM     71  C   UNL     1     -21.452   7.873  10.636  1.00  0.00     0.060 A 
BRANCH  71  72
ATOM     72  S   UNL     1     -23.126   8.396  10.208  1.00  0.00     0.124 S 
ATOM     73  O   UNL     1     -23.125   8.218   8.759  1.00  0.00    -0.237 OA
ATOM     74  O   UNL     1     -23.948   7.454  10.960  1.00  0.00    -0.237 OA
ATOM     75  O   UNL     1     -23.179   9.779  10.670  1.00  0.00    -0.744 OA
ENDBRANCH  71  72
ENDBRANCH  50  64
BRANCH  51  76
ATOM     76  C   UNL     1      -9.461   4.152  13.217  1.00  0.00     0.058 A 
ATOM     77  C   UNL     1      -9.180   3.044  14.030  1.00  0.00     0.135 A 
ATOM     78  C   UNL     1      -8.374   4.859  12.680  1.00  0.00     0.135 A 
ATOM     79  F   UNL     1     -10.184   2.336  14.570  1.00  0.00    -0.206 F 
ATOM     80  C   UNL     1      -7.873   2.665  14.321  1.00  0.00     0.059 A 
ATOM     81  C   UNL     1      -7.059   4.482  12.932  1.00  0.00     0.059 A 
ATOM     82  F   UNL     1      -8.588   5.916  11.880  1.00  0.00    -0.206 F 
ATOM     83  C   UNL     1      -6.819   3.390  13.764  1.00  0.00     0.060 A 
BRANCH  83  84
ATOM     84  S   UNL     1      -5.127   2.865  14.117  1.00  0.00     0.124 S 
ATOM     85  O   UNL     1      -4.984   3.255  15.515  1.00  0.00    -0.237 OA
ATOM     86  O   UNL     1      -5.191   1.431  13.857  1.00  0.00    -0.237 OA
ATOM     87  O   UNL     1      -4.332   3.633  13.164  1.00  0.00    -0.744 OA
ENDBRANCH  83  84
ENDBRANCH  51  76
BRANCH  63  88
ATOM     88  C   UNL     1     -14.664   6.641  17.143  1.00  0.00     0.058 A 
ATOM     89  C   UNL     1     -13.977   7.700  17.756  1.00  0.00     0.135 A 
ATOM     90  C   UNL     1     -15.501   5.850  17.948  1.00  0.00     0.135 A 
ATOM     91  F   UNL     1     -13.162   8.486  17.035  1.00  0.00    -0.206 F 
ATOM     92  C   UNL     1     -14.083   7.940  19.123  1.00  0.00     0.059 A 
ATOM     93  C   UNL     1     -15.649   6.093  19.309  1.00  0.00     0.059 A 
ATOM     94  F   UNL     1     -16.193   4.833  17.411  1.00  0.00    -0.206 F 
ATOM     95  C   UNL     1     -14.921   7.130  19.891  1.00  0.00     0.060 A 
BRANCH  95  96
ATOM     96  S   UNL     1     -15.056   7.457  21.661  1.00  0.00     0.124 S 
ATOM     97  O   UNL     1     -13.770   6.971  22.149  1.00  0.00    -0.237 OA
ATOM     98  O   UNL     1     -15.243   8.904  21.698  1.00  0.00    -0.237 OA
ATOM     99  O   UNL     1     -16.218   6.671  22.064  1.00  0.00    -0.744 OA
ENDBRANCH  95  96
ENDBRANCH  63  88
ENDBRANCH  37  38
ENDBRANCH  29  32
ENDBRANCH  27  28
ENDBRANCH   1  27
TORSDOF 15
