REMARK SMILES C[C@](NC(=O)c1ccc(Br)o1)(C(=O)NCCCNC(=O)c1ccc(-c2c3nc(c(-c4c(F)cc(S(=O)(=O)[O-])cc4F)c4ccc([nH]4)c(-c4c(F)cc(S(=O)(=O)[O-])cc4F)c4nc(c(-c5c(F)cc(S(=O)(=O)[O-])cc5F)c5ccc2[nH]5)C=C4)C=C3)cc1)C(F)(F)F
REMARK SMILES IDX 16 1 15 2 14 3 12 4 13 5 2 7 1 8 87 9 88 10 89 11 90 12 3 13
REMARK SMILES IDX 4 14 5 16 6 17 7 18 11 19 8 20 9 21 10 22 17 23 18 24 19 25
REMARK SMILES IDX 20 27 21 28 22 29 86 30 23 31 85 32 24 33 25 34 26 35 79 36
REMARK SMILES IDX 27 37 84 38 78 39 80 40 28 41 83 42 77 43 76 44 29 46 63 47
REMARK SMILES IDX 42 48 62 49 43 50 46 51 61 52 81 53 44 54 45 55 60 57 82 58
REMARK SMILES IDX 47 59 30 60 31 61 40 62 32 63 33 64 39 65 41 66 34 67 35 68
REMARK SMILES IDX 36 69 37 70 38 71 64 72 65 73 74 74 66 75 67 76 73 77 75 78
REMARK SMILES IDX 68 79 69 80 70 81 71 82 72 83 48 84 49 85 58 86 50 87 51 88
REMARK SMILES IDX 57 89 59 90 52 91 53 92 54 93 55 94 56 95
REMARK H PARENT 14 6 3 15 18 26 80 45 46 56
REMARK Flexibility Score: inf
ROOT
ATOM      1  C   UNL     1      -1.140   2.600   0.575  1.00  0.00     0.042 C 
ENDROOT
BRANCH   1   2
ATOM      2  C   UNL     1      -0.837   1.554   1.642  1.00  0.00     0.117 C 
BRANCH   2   3
ATOM      3  N   UNL     1      -1.531   0.296   1.409  1.00  0.00    -0.354 N 
ATOM      4  C   UNL     1      -1.092  -0.996   1.324  1.00  0.00     0.254 C 
ATOM      5  O   UNL     1      -1.980  -1.851   1.324  1.00  0.00    -0.272 OA
ATOM      6  H   UNL     1      -2.503   0.394   1.289  1.00  0.00     0.163 HD
BRANCH   4   7
ATOM      7  C   UNL     1       0.412  -1.353   1.351  1.00  0.00     0.212 C 
ATOM      8  C   UNL     1       0.940  -1.113   2.772  1.00  0.00     0.056 C 
BRANCH   7   9
ATOM      9  C   UNL     1       0.489  -2.866   1.029  1.00  0.00     0.420 C 
ATOM     10  F   UNL     1      -0.005  -3.155  -0.196  1.00  0.00    -0.168 F 
ATOM     11  F   UNL     1       1.778  -3.296   1.026  1.00  0.00    -0.168 F 
ATOM     12  F   UNL     1      -0.147  -3.635   1.941  1.00  0.00    -0.168 F 
ENDBRANCH   7   9
BRANCH   7  13
ATOM     13  N   UNL     1       1.069  -0.502   0.311  1.00  0.00    -0.328 N 
ATOM     14  C   UNL     1       2.371  -0.419  -0.110  1.00  0.00     0.288 C 
ATOM     15  H   UNL     1       0.455   0.110  -0.155  1.00  0.00     0.165 HD
ATOM     16  O   UNL     1       2.573   0.127  -1.193  1.00  0.00    -0.266 OA
BRANCH  14  17
ATOM     17  C   UNL     1       3.429  -0.974   0.691  1.00  0.00     0.192 A 
ATOM     18  C   UNL     1       4.296  -2.023   0.451  1.00  0.00     0.057 A 
ATOM     19  O   UNL     1       3.766  -0.358   1.864  1.00  0.00    -0.444 OA
ATOM     20  C   UNL     1       5.192  -2.067   1.547  1.00  0.00     0.059 A 
ATOM     21  C   UNL     1       4.847  -1.016   2.364  1.00  0.00     0.170 A 
ATOM     22  Br  UNL     1       5.729  -0.544   3.938  1.00  0.00    -0.008 Br
ENDBRANCH  14  17
ENDBRANCH   7  13
ENDBRANCH   4   7
ENDBRANCH   2   3
ENDBRANCH   1   2
BRANCH   1  23
ATOM     23  C   UNL     1      -2.619   2.926   0.377  1.00  0.00     0.118 C 
BRANCH  23  24
ATOM     24  N   UNL     1      -3.266   3.441   1.576  1.00  0.00    -0.352 N 
ATOM     25  C   UNL     1      -3.993   4.595   1.752  1.00  0.00     0.251 C 
ATOM     26  H   UNL     1      -3.169   2.880   2.379  1.00  0.00     0.163 HD
ATOM     27  O   UNL     1      -4.365   4.912   2.880  1.00  0.00    -0.269 OA
BRANCH  25  28
ATOM     28  C   UNL     1      -4.294   5.470   0.599  1.00  0.00     0.039 A 
ATOM     29  C   UNL     1      -4.034   6.840   0.708  1.00  0.00     0.014 A 
ATOM     30  C   UNL     1      -4.815   4.946  -0.587  1.00  0.00     0.014 A 
ATOM     31  C   UNL     1      -4.206   7.669  -0.403  1.00  0.00     0.010 A 
ATOM     32  C   UNL     1      -4.936   5.764  -1.709  1.00  0.00     0.010 A 
ATOM     33  C   UNL     1      -4.613   7.128  -1.633  1.00  0.00    -0.014 A 
BRANCH  33  34
ATOM     34  C   UNL     1      -4.661   7.957  -2.864  1.00  0.00     0.031 A 
ATOM     35  C   UNL     1      -5.971   8.231  -3.547  1.00  0.00     0.074 A 
ATOM     36  C   UNL     1      -3.509   8.384  -3.418  1.00  0.00     0.049 A 
ATOM     37  N   UNL     1      -6.195   8.819  -4.694  1.00  0.00    -0.248 NA
ATOM     38  C   UNL     1      -7.184   7.762  -2.861  1.00  0.00     0.031 C 
ATOM     39  C   UNL     1      -2.169   8.146  -2.878  1.00  0.00     0.029 A 
ATOM     40  N   UNL     1      -3.280   9.093  -4.571  1.00  0.00    -0.354 N 
ATOM     41  C   UNL     1      -7.570   8.766  -4.883  1.00  0.00     0.074 A 
ATOM     42  C   UNL     1      -8.127   8.070  -3.741  1.00  0.00     0.031 C 
ATOM     43  C   UNL     1      -1.260   8.706  -3.692  1.00  0.00     0.029 A 
ATOM     44  C   UNL     1      -1.948   9.312  -4.828  1.00  0.00     0.049 A 
ATOM     45  H   UNL     1      -4.002   9.413  -5.159  1.00  0.00     0.167 HD
ATOM     46  C   UNL     1      -8.303   9.262  -5.909  1.00  0.00     0.037 A 
ATOM     47  C   UNL     1      -1.345   9.921  -5.867  1.00  0.00     0.037 A 
ATOM     48  C   UNL     1      -7.755   9.988  -7.024  1.00  0.00     0.049 A 
ATOM     49  C   UNL     1      -2.181  10.486  -6.979  1.00  0.00     0.074 A 
ATOM     50  C   UNL     1      -8.426  10.586  -8.077  1.00  0.00     0.029 A 
ATOM     51  N   UNL     1      -6.403  10.218  -7.230  1.00  0.00    -0.354 N 
ATOM     52  N   UNL     1      -3.483  10.460  -7.122  1.00  0.00    -0.248 NA
ATOM     53  C   UNL     1      -1.465  11.158  -8.073  1.00  0.00     0.031 C 
ATOM     54  C   UNL     1      -7.477  11.165  -8.929  1.00  0.00     0.029 A 
ATOM     55  C   UNL     1      -6.218  10.942  -8.396  1.00  0.00     0.049 A 
ATOM     56  H   UNL     1      -5.681   9.912  -6.635  1.00  0.00     0.167 HD
ATOM     57  C   UNL     1      -3.746  11.121  -8.316  1.00  0.00     0.074 A 
ATOM     58  C   UNL     1      -2.467  11.544  -8.852  1.00  0.00     0.031 C 
ATOM     59  C   UNL     1      -4.939  11.354  -8.915  1.00  0.00     0.037 A 
BRANCH  46  60
ATOM     60  C   UNL     1      -9.785   9.034  -5.866  1.00  0.00     0.058 A 
ATOM     61  C   UNL     1     -10.614   9.774  -5.010  1.00  0.00     0.135 A 
ATOM     62  C   UNL     1     -10.384   8.074  -6.697  1.00  0.00     0.135 A 
ATOM     63  F   UNL     1     -10.086  10.692  -4.185  1.00  0.00    -0.206 F 
ATOM     64  C   UNL     1     -11.986   9.550  -4.956  1.00  0.00     0.059 A 
ATOM     65  C   UNL     1     -11.757   7.845  -6.672  1.00  0.00     0.059 A 
ATOM     66  F   UNL     1      -9.633   7.339  -7.532  1.00  0.00    -0.206 F 
ATOM     67  C   UNL     1     -12.546   8.577  -5.785  1.00  0.00     0.060 A 
BRANCH  67  68
ATOM     68  S   UNL     1     -14.325   8.280  -5.699  1.00  0.00     0.124 S 
ATOM     69  O   UNL     1     -14.418   7.425  -4.520  1.00  0.00    -0.237 OA
ATOM     70  O   UNL     1     -14.867   9.626  -5.548  1.00  0.00    -0.237 OA
ATOM     71  O   UNL     1     -14.619   7.630  -6.972  1.00  0.00    -0.744 OA
ENDBRANCH  67  68
ENDBRANCH  46  60
BRANCH  47  72
ATOM     72  C   UNL     1       0.134  10.038  -5.894  1.00  0.00     0.058 A 
ATOM     73  C   UNL     1       0.759  11.254  -5.587  1.00  0.00     0.135 A 
ATOM     74  C   UNL     1       0.946   8.936  -6.199  1.00  0.00     0.135 A 
ATOM     75  F   UNL     1       0.019  12.334  -5.295  1.00  0.00    -0.206 F 
ATOM     76  C   UNL     1       2.144  11.378  -5.587  1.00  0.00     0.059 A 
ATOM     77  C   UNL     1       2.334   9.032  -6.191  1.00  0.00     0.059 A 
ATOM     78  F   UNL     1       0.390   7.749  -6.484  1.00  0.00    -0.206 F 
ATOM     79  C   UNL     1       2.923  10.260  -5.890  1.00  0.00     0.060 A 
BRANCH  79  80
ATOM     80  S   UNL     1       4.723  10.409  -5.824  1.00  0.00     0.124 S 
ATOM     81  O   UNL     1       5.012  11.025  -7.114  1.00  0.00    -0.237 OA
ATOM     82  O   UNL     1       4.923  11.256  -4.652  1.00  0.00    -0.237 OA
ATOM     83  O   UNL     1       5.163   9.026  -5.668  1.00  0.00    -0.744 OA
ENDBRANCH  79  80
ENDBRANCH  47  72
BRANCH  59  84
ATOM     84  C   UNL     1      -4.918  12.111 -10.209  1.00  0.00     0.058 A 
ATOM     85  C   UNL     1      -4.588  11.478 -11.417  1.00  0.00     0.135 A 
ATOM     86  C   UNL     1      -5.274  13.467 -10.249  1.00  0.00     0.135 A 
ATOM     87  F   UNL     1      -4.232  10.183 -11.426  1.00  0.00    -0.206 F 
ATOM     88  C   UNL     1      -4.600  12.169 -12.623  1.00  0.00     0.059 A 
ATOM     89  C   UNL     1      -5.306  14.175 -11.446  1.00  0.00     0.059 A 
ATOM     90  F   UNL     1      -5.601  14.114  -9.119  1.00  0.00    -0.206 F 
ATOM     91  C   UNL     1      -4.959  13.519 -12.628  1.00  0.00     0.060 A 
BRANCH  91  92
ATOM     92  S   UNL     1      -5.013  14.403 -14.201  1.00  0.00     0.124 S 
ATOM     93  O   UNL     1      -3.605  14.731 -14.400  1.00  0.00    -0.237 OA
ATOM     94  O   UNL     1      -5.565  13.404 -15.110  1.00  0.00    -0.237 OA
ATOM     95  O   UNL     1      -5.890  15.536 -13.920  1.00  0.00    -0.744 OA
ENDBRANCH  91  92
ENDBRANCH  59  84
ENDBRANCH  33  34
ENDBRANCH  25  28
ENDBRANCH  23  24
ENDBRANCH   1  23
TORSDOF 16
