REMARK SMILES O=C(COc1ccccc1[C@@H]1[NH2+]CCc2cc(O)c(O)cc21)NCCCNC(=O)c1ccc(-c2c3nc(c(-c4c(F)cc(S(=O)(=O)[O-])cc4F)c4ccc([nH]4)c(-c4c(F)cc(S(=O)(=O)[O-])cc4F)c4nc(c(-c5c(F)cc(S(=O)(=O)[O-])cc5F)c5ccc2[nH]5)C=C4)C=C3)cc1
REMARK SMILES IDX 24 1 23 2 1 3 2 4 3 6 4 7 5 8 6 9 10 10 7 11 9 12 8 13 11 14
REMARK SMILES IDX 12 15 22 16 13 17 15 20 21 21 14 22 16 23 19 24 17 25 20 26
REMARK SMILES IDX 18 28 25 30 26 31 27 32 28 33 29 35 30 36 31 37 95 38 32 39
REMARK SMILES IDX 94 40 33 41 34 42 35 43 88 44 36 45 93 46 87 47 89 48 37 49
REMARK SMILES IDX 92 50 86 51 85 52 38 54 72 55 51 56 71 57 52 58 55 59 70 60
REMARK SMILES IDX 90 61 53 62 54 63 69 65 91 66 56 67 39 68 40 69 49 70 41 71
REMARK SMILES IDX 42 72 48 73 50 74 43 75 44 76 45 77 46 78 47 79 73 80 74 81
REMARK SMILES IDX 83 82 75 83 76 84 82 85 84 86 77 87 78 88 79 89 80 90 81 91
REMARK SMILES IDX 57 92 58 93 67 94 59 95 60 96 66 97 68 98 61 99 62 100
REMARK SMILES IDX 63 101 64 102 65 103
REMARK H PARENT 23 5 12 18 12 19 20 27 18 29 27 34 89 53 55 64
REMARK Flexibility Score: inf
ROOT
ATOM      1  C   UNL     1       2.367  -1.671   1.780  1.00  0.00     0.117 C 
ENDROOT
BRANCH   1   2
ATOM      2  N   UNL     1       3.157  -0.769   0.967  1.00  0.00    -0.353 N 
ATOM      3  O   UNL     1       2.217  -1.379  -1.032  1.00  0.00    -0.271 OA
ATOM      4  C   UNL     1       2.922  -0.609  -0.383  1.00  0.00     0.257 C 
ATOM      5  H   UNL     1       3.882  -0.255   1.391  1.00  0.00     0.163 HD
BRANCH   4   6
ATOM      6  C   UNL     1       3.606   0.610  -1.013  1.00  0.00     0.329 C 
BRANCH   6   7
ATOM      7  O   UNL     1       4.036   1.704  -0.235  1.00  0.00    -0.483 OA
BRANCH   7   8
ATOM      8  C   UNL     1       3.305   2.493   0.603  1.00  0.00     0.129 A 
ATOM      9  C   UNL     1       4.158   3.497   1.114  1.00  0.00     0.047 A 
ATOM     10  C   UNL     1       1.967   2.439   1.056  1.00  0.00     0.056 A 
ATOM     11  C   UNL     1       3.768   4.366   2.127  1.00  0.00     0.004 A 
ATOM     12  C   UNL     1       1.633   3.271   2.159  1.00  0.00     0.014 A 
ATOM     13  C   UNL     1       2.514   4.218   2.686  1.00  0.00     0.001 A 
BRANCH  10  14
ATOM     14  C   UNL     1       0.858   1.556   0.477  1.00  0.00     0.249 C 
ATOM     15  N   UNL     1       0.875   1.515  -0.993  1.00  0.00    -0.336 N 
ATOM     16  C   UNL     1      -0.597   1.823   0.881  1.00  0.00     0.021 A 
ATOM     17  C   UNL     1       0.434   2.766  -1.623  1.00  0.00     0.266 C 
ATOM     18  H   UNL     1       0.258   0.763  -1.301  1.00  0.00     0.347 HD
ATOM     19  H   UNL     1       1.843   1.363  -1.276  1.00  0.00     0.347 HD
ATOM     20  C   UNL     1      -1.288   2.845   0.188  1.00  0.00    -0.029 A 
ATOM     21  C   UNL     1      -1.289   0.991   1.775  1.00  0.00     0.060 A 
ATOM     22  C   UNL     1      -0.489   3.668  -0.786  1.00  0.00     0.097 C 
ATOM     23  C   UNL     1      -2.659   3.022   0.371  1.00  0.00     0.054 A 
ATOM     24  C   UNL     1      -2.661   1.160   1.924  1.00  0.00     0.157 A 
ATOM     25  C   UNL     1      -3.336   2.158   1.219  1.00  0.00     0.157 A 
BRANCH  24  26
ATOM     26  O   UNL     1      -3.410   0.339   2.723  1.00  0.00    -0.504 OA
ATOM     27  H   UNL     1      -4.333   0.478   2.804  1.00  0.00     0.293 HD
ENDBRANCH  24  26
BRANCH  25  28
ATOM     28  O   UNL     1      -4.694   2.263   1.325  1.00  0.00    -0.504 OA
ATOM     29  H   UNL     1      -5.150   2.932   0.854  1.00  0.00     0.293 HD
ENDBRANCH  25  28
ENDBRANCH  10  14
ENDBRANCH   7   8
ENDBRANCH   6   7
ENDBRANCH   4   6
ENDBRANCH   1   2
BRANCH   1  30
ATOM     30  C   UNL     1       2.634  -3.145   1.536  1.00  0.00     0.042 C 
BRANCH  30  31
ATOM     31  C   UNL     1       4.095  -3.531   1.679  1.00  0.00     0.118 C 
BRANCH  31  32
ATOM     32  N   UNL     1       4.619  -3.270   3.013  1.00  0.00    -0.352 N 
ATOM     33  C   UNL     1       5.219  -4.127   3.907  1.00  0.00     0.251 C 
ATOM     34  H   UNL     1       4.531  -2.340   3.322  1.00  0.00     0.163 HD
ATOM     35  O   UNL     1       5.455  -3.752   5.045  1.00  0.00    -0.269 OA
BRANCH  33  36
ATOM     36  C   UNL     1       5.542  -5.509   3.488  1.00  0.00     0.039 A 
ATOM     37  C   UNL     1       5.231  -6.563   4.349  1.00  0.00     0.014 A 
ATOM     38  C   UNL     1       6.121  -5.765   2.242  1.00  0.00     0.014 A 
ATOM     39  C   UNL     1       5.417  -7.880   3.921  1.00  0.00     0.010 A 
ATOM     40  C   UNL     1       6.223  -7.075   1.785  1.00  0.00     0.010 A 
ATOM     41  C   UNL     1       5.865  -8.145   2.617  1.00  0.00    -0.014 A 
BRANCH  41  42
ATOM     42  C   UNL     1       5.939  -9.532   2.091  1.00  0.00     0.031 A 
ATOM     43  C   UNL     1       7.261 -10.112   1.669  1.00  0.00     0.074 A 
ATOM     44  C   UNL     1       4.803 -10.237   1.920  1.00  0.00     0.049 A 
ATOM     45  N   UNL     1       7.514 -11.265   1.106  1.00  0.00    -0.248 NA
ATOM     46  C   UNL     1       8.453  -9.275   1.885  1.00  0.00     0.031 C 
ATOM     47  C   UNL     1       3.455  -9.763   2.245  1.00  0.00     0.029 A 
ATOM     48  N   UNL     1       4.596 -11.496   1.415  1.00  0.00    -0.354 N 
ATOM     49  C   UNL     1       8.886 -11.288   0.890  1.00  0.00     0.074 A 
ATOM     50  C   UNL     1       9.406 -10.013   1.335  1.00  0.00     0.031 C 
ATOM     51  C   UNL     1       2.566 -10.725   1.950  1.00  0.00     0.029 A 
ATOM     52  C   UNL     1       3.271 -11.864   1.372  1.00  0.00     0.049 A 
ATOM     53  H   UNL     1       5.327 -12.082   1.111  1.00  0.00     0.167 HD
ATOM     54  C   UNL     1       9.646 -12.289   0.386  1.00  0.00     0.037 A 
ATOM     55  C   UNL     1       2.687 -12.985   0.904  1.00  0.00     0.037 A 
ATOM     56  C   UNL     1       9.123 -13.561  -0.040  1.00  0.00     0.049 A 
ATOM     57  C   UNL     1       3.551 -14.074   0.330  1.00  0.00     0.074 A 
ATOM     58  C   UNL     1       9.817 -14.664  -0.507  1.00  0.00     0.029 A 
ATOM     59  N   UNL     1       7.777 -13.900  -0.059  1.00  0.00    -0.354 N 
ATOM     60  N   UNL     1       4.856 -14.108   0.199  1.00  0.00    -0.248 NA
ATOM     61  C   UNL     1       2.865 -15.278  -0.158  1.00  0.00     0.031 C 
ATOM     62  C   UNL     1       8.888 -15.649  -0.857  1.00  0.00     0.029 A 
ATOM     63  C   UNL     1       7.618 -15.183  -0.558  1.00  0.00     0.049 A 
ATOM     64  H   UNL     1       7.043 -13.315   0.238  1.00  0.00     0.167 HD
ATOM     65  C   UNL     1       5.149 -15.343  -0.370  1.00  0.00     0.074 A 
ATOM     66  C   UNL     1       3.887 -16.034  -0.538  1.00  0.00     0.031 C 
ATOM     67  C   UNL     1       6.353 -15.857  -0.722  1.00  0.00     0.037 A 
BRANCH  54  68
ATOM     68  C   UNL     1      11.127 -12.050   0.267  1.00  0.00     0.058 A 
ATOM     69  C   UNL     1      11.954 -11.963   1.399  1.00  0.00     0.135 A 
ATOM     70  C   UNL     1      11.735 -11.945  -0.995  1.00  0.00     0.135 A 
ATOM     71  F   UNL     1      11.424 -12.041   2.631  1.00  0.00    -0.206 F 
ATOM     72  C   UNL     1      13.324 -11.752   1.286  1.00  0.00     0.059 A 
ATOM     73  C   UNL     1      13.109 -11.764  -1.132  1.00  0.00     0.059 A 
ATOM     74  F   UNL     1      10.994 -12.020  -2.111  1.00  0.00    -0.206 F 
ATOM     75  C   UNL     1      13.893 -11.655   0.015  1.00  0.00     0.060 A 
BRANCH  75  76
ATOM     76  S   UNL     1      15.673 -11.389  -0.112  1.00  0.00     0.124 S 
ATOM     77  O   UNL     1      15.792 -10.001   0.323  1.00  0.00    -0.237 OA
ATOM     78  O   UNL     1      16.204 -12.389   0.809  1.00  0.00    -0.237 OA
ATOM     79  O   UNL     1      15.954 -11.629  -1.524  1.00  0.00    -0.744 OA
ENDBRANCH  75  76
ENDBRANCH  54  68
BRANCH  55  80
ATOM     80  C   UNL     1       1.208 -13.134   0.968  1.00  0.00     0.058 A 
ATOM     81  C   UNL     1       0.613 -14.057   1.840  1.00  0.00     0.135 A 
ATOM     82  C   UNL     1       0.360 -12.352   0.168  1.00  0.00     0.135 A 
ATOM     83  F   UNL     1       1.381 -14.834   2.619  1.00  0.00    -0.206 F 
ATOM     84  C   UNL     1      -0.768 -14.210   1.909  1.00  0.00     0.059 A 
ATOM     85  C   UNL     1      -1.024 -12.467   0.239  1.00  0.00     0.059 A 
ATOM     86  F   UNL     1       0.878 -11.443  -0.673  1.00  0.00    -0.206 F 
ATOM     87  C   UNL     1      -1.579 -13.407   1.106  1.00  0.00     0.060 A 
BRANCH  87  88
ATOM     88  S   UNL     1      -3.372 -13.579   1.241  1.00  0.00     0.124 S 
ATOM     89  O   UNL     1      -3.595 -14.860   0.582  1.00  0.00    -0.237 OA
ATOM     90  O   UNL     1      -3.572 -13.559   2.687  1.00  0.00    -0.237 OA
ATOM     91  O   UNL     1      -3.875 -12.407   0.531  1.00  0.00    -0.744 OA
ENDBRANCH  87  88
ENDBRANCH  55  80
BRANCH  67  92
ATOM     92  C   UNL     1       6.369 -17.242  -1.308  1.00  0.00     0.058 A 
ATOM     93  C   UNL     1       5.897 -17.499  -2.605  1.00  0.00     0.135 A 
ATOM     94  C   UNL     1       6.908 -18.317  -0.582  1.00  0.00     0.135 A 
ATOM     95  F   UNL     1       5.365 -16.509  -3.338  1.00  0.00    -0.206 F 
ATOM     96  C   UNL     1       5.939 -18.776  -3.153  1.00  0.00     0.059 A 
ATOM     97  C   UNL     1       6.987 -19.597  -1.122  1.00  0.00     0.059 A 
ATOM     98  F   UNL     1       7.382 -18.125   0.660  1.00  0.00    -0.206 F 
ATOM     99  C   UNL     1       6.489 -19.819  -2.405  1.00  0.00     0.060 A 
BRANCH  99 100
ATOM    100  S   UNL     1       6.570 -21.464  -3.143  1.00  0.00     0.124 S 
ATOM    101  O   UNL     1       5.170 -21.874  -3.103  1.00  0.00    -0.237 OA
ATOM    102  O   UNL     1       7.110 -21.185  -4.470  1.00  0.00    -0.237 OA
ATOM    103  O   UNL     1       7.464 -22.195  -2.250  1.00  0.00    -0.744 OA
ENDBRANCH  99 100
ENDBRANCH  67  92
ENDBRANCH  41  42
ENDBRANCH  33  36
ENDBRANCH  31  32
ENDBRANCH  30  31
ENDBRANCH   1  30
TORSDOF 18
