REMARK SMILES Cc1cccc(CN(C)c2ccc(C(=O)NCCCNC(=O)c3ccc(-c4c5nc(c(-c6c(F)cc(S(=O)(=O)[O-])cc6F)c6ccc([nH]6)c(-c6c(F)cc(S(=O)(=O)[O-])cc6F)c6nc(c(-c7c(F)cc(S(=O)(=O)[O-])cc7F)c7ccc4[nH]7)C=C6)C=C5)cc3)cc2C)n1
REMARK SMILES IDX 18 1 17 2 16 3 14 4 15 5 13 7 10 8 11 9 90 10 12 11 89 12
REMARK SMILES IDX 91 13 8 14 9 15 7 16 6 17 1 18 2 19 3 20 92 21 4 22 5 23
REMARK SMILES IDX 19 24 20 25 21 26 22 28 23 29 24 30 88 31 25 32 87 33 26 34
REMARK SMILES IDX 27 35 28 36 81 37 29 38 86 39 80 40 82 41 30 42 85 43 79 44
REMARK SMILES IDX 78 45 31 47 65 48 44 49 64 50 45 51 48 52 63 53 83 54 46 55
REMARK SMILES IDX 47 56 62 58 84 59 49 60 32 61 33 62 42 63 34 64 35 65 41 66
REMARK SMILES IDX 43 67 36 68 37 69 38 70 39 71 40 72 66 73 67 74 76 75 68 76
REMARK SMILES IDX 69 77 75 78 77 79 70 80 71 81 72 82 73 83 74 84 50 85 51 86
REMARK SMILES IDX 60 87 52 88 53 89 59 90 61 91 54 92 55 93 56 94 57 95 58 96
REMARK H PARENT 16 6 20 27 82 46 48 57
REMARK Flexibility Score: inf
ROOT
ATOM      1  C   UNL     1      -0.766  -1.945   5.295  1.00  0.00     0.042 C 
ENDROOT
BRANCH   1   2
ATOM      2  C   UNL     1      -2.136  -1.329   5.582  1.00  0.00     0.118 C 
BRANCH   2   3
ATOM      3  N   UNL     1      -2.076  -0.195   6.498  1.00  0.00    -0.352 N 
ATOM      4  C   UNL     1      -2.085   1.164   6.269  1.00  0.00     0.251 C 
ATOM      5  O   UNL     1      -2.272   1.920   7.223  1.00  0.00    -0.269 OA
ATOM      6  H   UNL     1      -2.019  -0.445   7.449  1.00  0.00     0.163 HD
BRANCH   4   7
ATOM      7  C   UNL     1      -1.882   1.764   4.918  1.00  0.00     0.040 A 
ATOM      8  C   UNL     1      -1.465   3.005   2.381  1.00  0.00     0.040 A 
ATOM      9  C   UNL     1      -0.876   1.786   2.724  1.00  0.00     0.027 A 
ATOM     10  C   UNL     1      -2.195   3.667   3.385  1.00  0.00    -0.027 A 
ATOM     11  C   UNL     1      -1.085   1.174   3.954  1.00  0.00     0.016 A 
ATOM     12  C   UNL     1      -2.396   3.040   4.642  1.00  0.00     0.019 A 
ATOM     13  C   UNL     1      -2.684   5.077   3.202  1.00  0.00     0.046 C 
BRANCH   8  14
ATOM     14  N   UNL     1      -1.260   3.554   1.114  1.00  0.00    -0.368 N 
ATOM     15  C   UNL     1      -0.051   4.355   0.987  1.00  0.00     0.144 C 
BRANCH  14  16
ATOM     16  C   UNL     1      -1.712   2.804  -0.082  1.00  0.00     0.172 C 
BRANCH  16  17
ATOM     17  C   UNL     1      -1.060   1.441  -0.311  1.00  0.00     0.060 A 
ATOM     18  C   UNL     1       2.380   0.120  -0.356  1.00  0.00     0.067 C 
ATOM     19  C   UNL     1       0.882   0.153  -0.420  1.00  0.00     0.038 A 
ATOM     20  C   UNL     1       0.150  -1.029  -0.362  1.00  0.00     0.023 A 
ATOM     21  N   UNL     1       0.297   1.379  -0.428  1.00  0.00    -0.256 NA
ATOM     22  C   UNL     1      -1.236  -0.955  -0.314  1.00  0.00     0.004 A 
ATOM     23  C   UNL     1      -1.852   0.291  -0.282  1.00  0.00     0.026 A 
ENDBRANCH  16  17
ENDBRANCH  14  16
ENDBRANCH   8  14
ENDBRANCH   4   7
ENDBRANCH   2   3
ENDBRANCH   1   2
BRANCH   1  24
ATOM     24  C   UNL     1      -0.312  -2.970   6.322  1.00  0.00     0.118 C 
BRANCH  24  25
ATOM     25  N   UNL     1      -0.053  -4.272   5.723  1.00  0.00    -0.352 N 
ATOM     26  C   UNL     1       0.645  -5.330   6.276  1.00  0.00     0.251 C 
ATOM     27  H   UNL     1      -0.418  -4.416   4.820  1.00  0.00     0.163 HD
ATOM     28  O   UNL     1       1.008  -6.284   5.612  1.00  0.00    -0.269 OA
BRANCH  26  29
ATOM     29  C   UNL     1       0.804  -5.312   7.743  1.00  0.00     0.039 A 
ATOM     30  C   UNL     1      -0.011  -6.187   8.470  1.00  0.00     0.014 A 
ATOM     31  C   UNL     1       1.489  -4.273   8.366  1.00  0.00     0.014 A 
ATOM     32  C   UNL     1      -0.278  -5.921   9.809  1.00  0.00     0.010 A 
ATOM     33  C   UNL     1       1.160  -3.969   9.675  1.00  0.00     0.010 A 
ATOM     34  C   UNL     1       0.244  -4.767  10.384  1.00  0.00    -0.014 A 
BRANCH  34  35
ATOM     35  C   UNL     1      -0.163  -4.253  11.688  1.00  0.00     0.031 A 
ATOM     36  C   UNL     1       0.805  -4.221  12.811  1.00  0.00     0.074 A 
ATOM     37  C   UNL     1      -1.358  -3.636  11.827  1.00  0.00     0.049 A 
ATOM     38  N   UNL     1       0.499  -3.892  14.023  1.00  0.00    -0.248 NA
ATOM     39  C   UNL     1       2.204  -4.632  12.673  1.00  0.00     0.031 C 
ATOM     40  C   UNL     1      -1.713  -2.632  12.827  1.00  0.00     0.029 A 
ATOM     41  N   UNL     1      -2.575  -3.972  11.228  1.00  0.00    -0.354 N 
ATOM     42  C   UNL     1       1.680  -3.688  14.691  1.00  0.00     0.074 A 
ATOM     43  C   UNL     1       2.690  -4.311  13.876  1.00  0.00     0.031 C 
ATOM     44  C   UNL     1      -3.046  -2.581  12.947  1.00  0.00     0.029 A 
ATOM     45  C   UNL     1      -3.589  -3.675  12.164  1.00  0.00     0.049 A 
ATOM     46  H   UNL     1      -2.701  -4.344  10.325  1.00  0.00     0.167 HD
ATOM     47  C   UNL     1       1.696  -2.853  15.765  1.00  0.00     0.037 A 
ATOM     48  C   UNL     1      -4.410  -4.644  12.668  1.00  0.00     0.037 A 
ATOM     49  C   UNL     1       0.352  -2.623  16.290  1.00  0.00     0.049 A 
ATOM     50  C   UNL     1      -4.352  -4.810  14.170  1.00  0.00     0.074 A 
ATOM     51  C   UNL     1      -0.488  -1.526  16.347  1.00  0.00     0.029 A 
ATOM     52  N   UNL     1      -0.407  -3.721  16.689  1.00  0.00    -0.354 N 
ATOM     53  N   UNL     1      -3.444  -4.268  14.933  1.00  0.00    -0.248 NA
ATOM     54  C   UNL     1      -5.295  -5.628  14.931  1.00  0.00     0.031 C 
ATOM     55  C   UNL     1      -1.793  -1.998  16.667  1.00  0.00     0.029 A 
ATOM     56  C   UNL     1      -1.729  -3.368  16.861  1.00  0.00     0.049 A 
ATOM     57  H   UNL     1      -0.048  -4.627  16.830  1.00  0.00     0.167 HD
ATOM     58  C   UNL     1      -3.606  -4.700  16.224  1.00  0.00     0.074 A 
ATOM     59  C   UNL     1      -4.811  -5.508  16.180  1.00  0.00     0.031 C 
ATOM     60  C   UNL     1      -2.716  -4.383  17.211  1.00  0.00     0.037 A 
BRANCH  47  61
ATOM     61  C   UNL     1       2.922  -2.087  16.213  1.00  0.00     0.058 A 
ATOM     62  C   UNL     1       2.935  -1.413  17.452  1.00  0.00     0.135 A 
ATOM     63  C   UNL     1       4.058  -1.854  15.401  1.00  0.00     0.135 A 
ATOM     64  F   UNL     1       1.902  -1.518  18.302  1.00  0.00    -0.206 F 
ATOM     65  C   UNL     1       3.990  -0.582  17.853  1.00  0.00     0.059 A 
ATOM     66  C   UNL     1       5.144  -1.078  15.804  1.00  0.00     0.059 A 
ATOM     67  F   UNL     1       4.140  -2.306  14.143  1.00  0.00    -0.206 F 
ATOM     68  C   UNL     1       5.092  -0.421  17.021  1.00  0.00     0.060 A 
BRANCH  68  69
ATOM     69  S   UNL     1       6.452   0.658  17.510  1.00  0.00     0.124 S 
ATOM     70  O   UNL     1       5.919   1.976  17.182  1.00  0.00    -0.237 OA
ATOM     71  O   UNL     1       6.600   0.365  18.931  1.00  0.00    -0.237 OA
ATOM     72  O   UNL     1       7.558   0.205  16.669  1.00  0.00    -0.744 OA
ENDBRANCH  68  69
ENDBRANCH  47  61
BRANCH  48  73
ATOM     73  C   UNL     1      -4.707  -5.721  11.687  1.00  0.00     0.058 A 
ATOM     74  C   UNL     1      -5.510  -5.376  10.584  1.00  0.00     0.135 A 
ATOM     75  C   UNL     1      -3.850  -6.823  11.552  1.00  0.00     0.135 A 
ATOM     76  F   UNL     1      -6.370  -4.348  10.676  1.00  0.00    -0.206 F 
ATOM     77  C   UNL     1      -5.320  -5.959   9.338  1.00  0.00     0.059 A 
ATOM     78  C   UNL     1      -3.652  -7.432  10.312  1.00  0.00     0.059 A 
ATOM     79  F   UNL     1      -3.075  -7.206  12.578  1.00  0.00    -0.206 F 
ATOM     80  C   UNL     1      -4.327  -6.926   9.199  1.00  0.00     0.060 A 
BRANCH  80  81
ATOM     81  S   UNL     1      -3.785  -7.335   7.522  1.00  0.00     0.124 S 
ATOM     82  O   UNL     1      -5.032  -7.741   6.884  1.00  0.00    -0.237 OA
ATOM     83  O   UNL     1      -3.234  -6.057   7.074  1.00  0.00    -0.237 OA
ATOM     84  O   UNL     1      -2.809  -8.398   7.733  1.00  0.00    -0.744 OA
ENDBRANCH  80  81
ENDBRANCH  48  73
BRANCH  60  85
ATOM     85  C   UNL     1      -2.711  -4.966  18.607  1.00  0.00     0.058 A 
ATOM     86  C   UNL     1      -3.133  -6.270  18.922  1.00  0.00     0.135 A 
ATOM     87  C   UNL     1      -2.137  -4.239  19.678  1.00  0.00     0.135 A 
ATOM     88  F   UNL     1      -3.583  -7.104  17.973  1.00  0.00    -0.206 F 
ATOM     89  C   UNL     1      -3.067  -6.790  20.218  1.00  0.00     0.059 A 
ATOM     90  C   UNL     1      -2.012  -4.757  20.966  1.00  0.00     0.059 A 
ATOM     91  F   UNL     1      -1.670  -2.994  19.502  1.00  0.00    -0.206 F 
ATOM     92  C   UNL     1      -2.507  -6.025  21.236  1.00  0.00     0.060 A 
BRANCH  92  93
ATOM     93  S   UNL     1      -2.366  -6.696  22.904  1.00  0.00     0.124 S 
ATOM     94  O   UNL     1      -3.549  -6.133  23.546  1.00  0.00    -0.237 OA
ATOM     95  O   UNL     1      -2.398  -8.139  22.684  1.00  0.00    -0.237 OA
ATOM     96  O   UNL     1      -1.084  -6.169  23.362  1.00  0.00    -0.744 OA
ENDBRANCH  92  93
ENDBRANCH  60  85
ENDBRANCH  34  35
ENDBRANCH  26  29
ENDBRANCH  24  25
ENDBRANCH   1  24
TORSDOF 16
