REMARK SMILES CC(C)(C)c1ccc(NS(=O)(=O)c2cccc(C(=O)NCCCNC(=O)c3ccc(-c4c5nc(c(-c6c(F)cc(S(=O)(=O)[O-])cc6F)c6ccc([nH]6)c(-c6c(F)cc(S(=O)(=O)[O-])cc6F)c6nc(c(-c7c(F)cc(S(=O)(=O)[O-])cc7F)c7ccc4[nH]7)C=C6)C=C5)cc3)c2)cc1
REMARK SMILES IDX 21 1 20 2 18 3 19 4 17 6 13 7 14 8 93 9 15 10 16 11 10 12
REMARK SMILES IDX 11 13 12 14 9 15 8 17 5 18 6 19 95 20 7 21 94 22 2 23 1 24
REMARK SMILES IDX 3 25 4 26 22 27 23 28 24 29 25 30 26 32 27 33 28 34 92 35
REMARK SMILES IDX 29 36 91 37 30 38 31 39 32 40 85 41 33 42 90 43 84 44 86 45
REMARK SMILES IDX 34 46 89 47 83 48 82 49 35 51 69 52 48 53 68 54 49 55 52 56
REMARK SMILES IDX 67 57 87 58 50 59 51 60 66 62 88 63 53 64 36 65 37 66 46 67
REMARK SMILES IDX 38 68 39 69 45 70 47 71 40 72 41 73 42 74 43 75 44 76 70 77
REMARK SMILES IDX 71 78 80 79 72 80 73 81 79 82 81 83 74 84 75 85 76 86 77 87
REMARK SMILES IDX 78 88 54 89 55 90 64 91 56 92 57 93 63 94 65 95 58 96 59 97
REMARK SMILES IDX 60 98 61 99 62 100
REMARK H PARENT 20 5 9 16 24 31 86 50 52 61
REMARK Flexibility Score: inf
ROOT
ATOM      1  C   UNL     1      -1.525   3.103   5.079  1.00  0.00     0.118 C 
ENDROOT
BRANCH   1   2
ATOM      2  N   UNL     1      -1.288   1.767   5.607  1.00  0.00    -0.352 N 
ATOM      3  C   UNL     1      -0.165   1.141   6.098  1.00  0.00     0.251 C 
ATOM      4  O   UNL     1      -0.292  -0.008   6.524  1.00  0.00    -0.269 OA
ATOM      5  H   UNL     1      -2.092   1.198   5.615  1.00  0.00     0.163 HD
BRANCH   3   6
ATOM      6  C   UNL     1       1.198   1.743   6.062  1.00  0.00     0.041 A 
ATOM      7  C   UNL     1       2.708   3.569   5.648  1.00  0.00     0.088 A 
ATOM      8  C   UNL     1       3.798   2.697   5.553  1.00  0.00     0.022 A 
ATOM      9  C   UNL     1       1.444   3.114   6.038  1.00  0.00     0.036 A 
ATOM     10  C   UNL     1       3.588   1.333   5.731  1.00  0.00     0.002 A 
ATOM     11  C   UNL     1       2.288   0.858   5.941  1.00  0.00     0.014 A 
BRANCH   7  12
ATOM     12  S   UNL     1       2.821   5.170   4.869  1.00  0.00     0.261 S 
ATOM     13  O   UNL     1       4.105   5.269   4.215  1.00  0.00    -0.201 OA
ATOM     14  O   UNL     1       2.408   6.134   5.870  1.00  0.00    -0.201 OA
BRANCH  12  15
ATOM     15  N   UNL     1       1.616   5.162   3.687  1.00  0.00    -0.280 N 
ATOM     16  H   UNL     1       0.872   5.798   3.796  1.00  0.00     0.180 HD
BRANCH  15  17
ATOM     17  C   UNL     1       1.587   4.307   2.536  1.00  0.00     0.049 A 
ATOM     18  C   UNL     1       0.960   2.523   0.383  1.00  0.00    -0.042 A 
ATOM     19  C   UNL     1       1.577   2.074   1.550  1.00  0.00     0.006 A 
ATOM     20  C   UNL     1       0.710   3.906   0.295  1.00  0.00     0.006 A 
ATOM     21  C   UNL     1       1.888   2.952   2.593  1.00  0.00     0.027 A 
ATOM     22  C   UNL     1       1.001   4.780   1.362  1.00  0.00     0.027 A 
BRANCH  18  23
ATOM     23  C   UNL     1       0.508   1.548  -0.717  1.00  0.00    -0.013 C 
ATOM     24  C   UNL     1       0.954   0.084  -0.473  1.00  0.00     0.016 C 
ATOM     25  C   UNL     1       1.073   1.967  -2.087  1.00  0.00     0.016 C 
ATOM     26  C   UNL     1      -1.034   1.549  -0.770  1.00  0.00     0.016 C 
ENDBRANCH  18  23
ENDBRANCH  15  17
ENDBRANCH  12  15
ENDBRANCH   7  12
ENDBRANCH   3   6
ENDBRANCH   1   2
BRANCH   1  27
ATOM     27  C   UNL     1      -2.450   3.172   3.871  1.00  0.00     0.042 C 
BRANCH  27  28
ATOM     28  C   UNL     1      -3.836   2.577   4.058  1.00  0.00     0.118 C 
BRANCH  28  29
ATOM     29  N   UNL     1      -4.635   3.254   5.069  1.00  0.00    -0.352 N 
ATOM     30  C   UNL     1      -5.653   4.174   4.972  1.00  0.00     0.251 C 
ATOM     31  H   UNL     1      -4.403   3.008   5.994  1.00  0.00     0.163 HD
ATOM     32  O   UNL     1      -6.079   4.691   6.003  1.00  0.00    -0.269 OA
BRANCH  30  33
ATOM     33  C   UNL     1      -6.215   4.587   3.663  1.00  0.00     0.039 A 
ATOM     34  C   UNL     1      -6.549   5.934   3.474  1.00  0.00     0.014 A 
ATOM     35  C   UNL     1      -6.456   3.675   2.637  1.00  0.00     0.014 A 
ATOM     36  C   UNL     1      -7.025   6.374   2.233  1.00  0.00     0.010 A 
ATOM     37  C   UNL     1      -6.842   4.126   1.375  1.00  0.00     0.010 A 
ATOM     38  C   UNL     1      -7.122   5.482   1.154  1.00  0.00    -0.014 A 
BRANCH  38  39
ATOM     39  C   UNL     1      -7.494   5.937  -0.213  1.00  0.00     0.031 A 
ATOM     40  C   UNL     1      -8.716   5.380  -0.894  1.00  0.00     0.074 A 
ATOM     41  C   UNL     1      -6.676   6.773  -0.884  1.00  0.00     0.049 A 
ATOM     42  N   UNL     1      -9.109   5.522  -2.134  1.00  0.00    -0.248 NA
ATOM     43  C   UNL     1      -9.595   4.524  -0.080  1.00  0.00     0.031 C 
ATOM     44  C   UNL     1      -5.439   7.354  -0.358  1.00  0.00     0.029 A 
ATOM     45  N   UNL     1      -6.749   7.263  -2.166  1.00  0.00    -0.354 N 
ATOM     46  C   UNL     1     -10.259   4.751  -2.259  1.00  0.00     0.074 A 
ATOM     47  C   UNL     1     -10.480   4.115  -0.978  1.00  0.00     0.031 C 
ATOM     48  C   UNL     1      -4.879   8.130  -1.300  1.00  0.00     0.029 A 
ATOM     49  C   UNL     1      -5.688   8.066  -2.512  1.00  0.00     0.049 A 
ATOM     50  H   UNL     1      -7.492   7.058  -2.778  1.00  0.00     0.167 HD
ATOM     51  C   UNL     1     -11.066   4.599  -3.336  1.00  0.00     0.037 A 
ATOM     52  C   UNL     1      -5.387   8.668  -3.679  1.00  0.00     0.037 A 
ATOM     53  C   UNL     1     -10.870   5.269  -4.595  1.00  0.00     0.049 A 
ATOM     54  C   UNL     1      -6.303   8.497  -4.857  1.00  0.00     0.074 A 
ATOM     55  C   UNL     1     -11.673   5.234  -5.723  1.00  0.00     0.029 A 
ATOM     56  N   UNL     1      -9.801   6.101  -4.892  1.00  0.00    -0.354 N 
ATOM     57  N   UNL     1      -7.408   7.795  -4.944  1.00  0.00    -0.248 NA
ATOM     58  C   UNL     1      -5.934   9.194  -6.097  1.00  0.00     0.031 C 
ATOM     59  C   UNL     1     -11.073   6.021  -6.712  1.00  0.00     0.029 A 
ATOM     60  C   UNL     1      -9.915   6.573  -6.189  1.00  0.00     0.049 A 
ATOM     61  H   UNL     1      -9.069   6.323  -4.272  1.00  0.00     0.167 HD
ATOM     62  C   UNL     1      -7.874   7.980  -6.240  1.00  0.00     0.074 A 
ATOM     63  C   UNL     1      -6.939   8.868  -6.899  1.00  0.00     0.031 C 
ATOM     64  C   UNL     1      -8.978   7.461  -6.830  1.00  0.00     0.037 A 
BRANCH  51  65
ATOM     65  C   UNL     1     -12.243   3.674  -3.199  1.00  0.00     0.058 A 
ATOM     66  C   UNL     1     -13.365   4.021  -2.431  1.00  0.00     0.135 A 
ATOM     67  C   UNL     1     -12.261   2.438  -3.865  1.00  0.00     0.135 A 
ATOM     68  F   UNL     1     -13.392   5.185  -1.762  1.00  0.00    -0.206 F 
ATOM     69  C   UNL     1     -14.452   3.163  -2.302  1.00  0.00     0.059 A 
ATOM     70  C   UNL     1     -13.348   1.574  -3.770  1.00  0.00     0.059 A 
ATOM     71  F   UNL     1     -11.214   2.058  -4.614  1.00  0.00    -0.206 F 
ATOM     72  C   UNL     1     -14.432   1.938  -2.972  1.00  0.00     0.060 A 
BRANCH  72  73
ATOM     73  S   UNL     1     -15.846   0.830  -2.790  1.00  0.00     0.124 S 
ATOM     74  O   UNL     1     -15.616   0.286  -1.455  1.00  0.00    -0.237 OA
ATOM     75  O   UNL     1     -16.979   1.742  -2.916  1.00  0.00    -0.237 OA
ATOM     76  O   UNL     1     -15.680  -0.114  -3.891  1.00  0.00    -0.744 OA
ENDBRANCH  72  73
ENDBRANCH  51  65
BRANCH  52  77
ATOM     77  C   UNL     1      -4.160   9.500  -3.785  1.00  0.00     0.058 A 
ATOM     78  C   UNL     1      -4.245  10.899  -3.845  1.00  0.00     0.135 A 
ATOM     79  C   UNL     1      -2.883   8.919  -3.806  1.00  0.00     0.135 A 
ATOM     80  F   UNL     1      -5.446  11.498  -3.835  1.00  0.00    -0.206 F 
ATOM     81  C   UNL     1      -3.108  11.694  -3.929  1.00  0.00     0.059 A 
ATOM     82  C   UNL     1      -1.730   9.694  -3.870  1.00  0.00     0.059 A 
ATOM     83  F   UNL     1      -2.749   7.585  -3.733  1.00  0.00    -0.206 F 
ATOM     84  C   UNL     1      -1.853  11.082  -3.939  1.00  0.00     0.060 A 
BRANCH  84  85
ATOM     85  S   UNL     1      -0.378  12.123  -3.984  1.00  0.00     0.124 S 
ATOM     86  O   UNL     1      -0.342  12.519  -5.387  1.00  0.00    -0.237 OA
ATOM     87  O   UNL     1      -0.714  13.175  -3.030  1.00  0.00    -0.237 OA
ATOM     88  O   UNL     1       0.681  11.215  -3.554  1.00  0.00    -0.744 OA
ENDBRANCH  84  85
ENDBRANCH  52  77
BRANCH  64  89
ATOM     89  C   UNL     1      -9.252   7.854  -8.253  1.00  0.00     0.058 A 
ATOM     90  C   UNL     1      -8.533   7.293  -9.319  1.00  0.00     0.135 A 
ATOM     91  C   UNL     1     -10.289   8.750  -8.557  1.00  0.00     0.135 A 
ATOM     92  F   UNL     1      -7.526   6.438  -9.078  1.00  0.00    -0.206 F 
ATOM     93  C   UNL     1      -8.826   7.614 -10.640  1.00  0.00     0.059 A 
ATOM     94  C   UNL     1     -10.613   9.070  -9.871  1.00  0.00     0.059 A 
ATOM     95  F   UNL     1     -11.010   9.308  -7.572  1.00  0.00    -0.206 F 
ATOM     96  C   UNL     1      -9.871   8.501 -10.906  1.00  0.00     0.060 A 
BRANCH  96  97
ATOM     97  S   UNL     1     -10.278   8.869 -12.626  1.00  0.00     0.124 S 
ATOM     98  O   UNL     1      -9.207   9.791 -12.991  1.00  0.00    -0.237 OA
ATOM     99  O   UNL     1     -10.221   7.552 -13.252  1.00  0.00    -0.237 OA
ATOM    100  O   UNL     1     -11.612   9.457 -12.540  1.00  0.00    -0.744 OA
ENDBRANCH  96  97
ENDBRANCH  64  89
ENDBRANCH  38  39
ENDBRANCH  30  33
ENDBRANCH  28  29
ENDBRANCH  27  28
ENDBRANCH   1  27
TORSDOF 17
