REMARK SMILES CCCC[C@@H](Sc1nc(OCCC2CCCCC2)cc(OCCC2CCCCC2)n1)C(=O)NCCCNC(=O)c1ccc(-c2c3nc(c(-c4c(F)cc(S(=O)(=O)[O-])cc4F)c4ccc([nH]4)c(-c4c(F)cc(S(=O)(=O)[O-])cc4F)c4nc(c(-c5c(F)cc(S(=O)(=O)[O-])cc5F)c5ccc2[nH]5)C=C4)C=C3)cc1
REMARK SMILES IDX 31 1 32 2 33 3 5 5 4 6 3 7 2 8 1 9 6 10 7 11 8 12 30 13 9 14
REMARK SMILES IDX 20 15 19 16 10 17 11 18 12 19 13 20 14 21 18 22 15 23 17 24
REMARK SMILES IDX 16 25 21 26 22 27 23 28 24 29 25 30 29 31 26 32 28 33 27 34
REMARK SMILES IDX 34 35 35 36 36 37 37 38 38 39 39 41 40 42 41 43 105 44 42 45
REMARK SMILES IDX 104 46 43 47 44 48 45 49 98 50 46 51 103 52 97 53 99 54
REMARK SMILES IDX 47 55 102 56 96 57 95 58 48 60 82 61 61 62 81 63 62 64 65 65
REMARK SMILES IDX 80 66 100 67 63 68 64 69 79 71 101 72 66 73 49 74 50 75
REMARK SMILES IDX 59 76 51 77 52 78 58 79 60 80 53 81 54 82 55 83 56 84 57 85
REMARK SMILES IDX 83 86 84 87 93 88 85 89 86 90 92 91 94 92 87 93 88 94 89 95
REMARK SMILES IDX 90 96 91 97 67 98 68 99 77 100 69 101 70 102 76 103 78 104
REMARK SMILES IDX 71 105 72 106 73 107 74 108 75 109
REMARK H PARENT 33 4 37 40 99 59 65 70
REMARK Flexibility Score: inf
ROOT
ATOM      1  C   UNL     1      -1.536   3.914   0.080  1.00  0.00     0.233 C 
ATOM      2  O   UNL     1      -2.078   3.761  -1.017  1.00  0.00    -0.274 OA
ATOM      3  N   UNL     1      -1.181   5.184   0.454  1.00  0.00    -0.355 N 
ATOM      4  H   UNL     1      -1.373   5.884  -0.211  1.00  0.00     0.163 HD
ENDROOT
BRANCH   1   5
ATOM      5  C   UNL     1      -1.240   2.719   1.004  1.00  0.00     0.144 C 
BRANCH   5   6
ATOM      6  C   UNL     1       0.305   2.582   1.077  1.00  0.00     0.025 C 
BRANCH   6   7
ATOM      7  C   UNL     1       0.940   1.282   1.566  1.00  0.00     0.001 C 
BRANCH   7   8
ATOM      8  C   UNL     1       0.569   0.014   0.797  1.00  0.00    -0.003 C 
ATOM      9  C   UNL     1       1.141  -0.044  -0.608  1.00  0.00     0.004 C 
ENDBRANCH   7   8
ENDBRANCH   6   7
ENDBRANCH   5   6
BRANCH   5  10
ATOM     10  S   UNL     1      -2.332   3.046   2.488  1.00  0.00    -0.073 SA
BRANCH  10  11
ATOM     11  C   UNL     1      -1.956   1.723   3.561  1.00  0.00     0.195 A 
ATOM     12  N   UNL     1      -1.923   1.994   4.874  1.00  0.00    -0.187 NA
ATOM     13  N   UNL     1      -1.719   0.537   3.012  1.00  0.00    -0.187 NA
ATOM     14  C   UNL     1      -1.485   1.025   5.682  1.00  0.00     0.221 A 
ATOM     15  C   UNL     1      -1.248  -0.400   3.828  1.00  0.00     0.221 A 
ATOM     16  C   UNL     1      -1.029  -0.160   5.164  1.00  0.00     0.136 A 
BRANCH  14  17
ATOM     17  O   UNL     1      -1.678   1.311   7.005  1.00  0.00    -0.477 OA
BRANCH  17  18
ATOM     18  C   UNL     1      -0.989   0.654   8.065  1.00  0.00     0.231 C 
BRANCH  18  19
ATOM     19  C   UNL     1      -1.617  -0.619   8.694  1.00  0.00     0.045 C 
BRANCH  19  20
ATOM     20  C   UNL     1      -2.381  -1.548   7.751  1.00  0.00    -0.008 C 
ATOM     21  C   UNL     1      -2.569  -2.992   8.232  1.00  0.00     0.004 C 
ATOM     22  C   UNL     1      -3.742  -0.981   7.342  1.00  0.00     0.004 C 
ATOM     23  C   UNL     1      -3.130  -3.839   7.076  1.00  0.00     0.000 C 
ATOM     24  C   UNL     1      -4.259  -1.739   6.128  1.00  0.00     0.000 C 
ATOM     25  C   UNL     1      -4.372  -3.233   6.412  1.00  0.00     0.000 C 
ENDBRANCH  19  20
ENDBRANCH  18  19
ENDBRANCH  17  18
ENDBRANCH  14  17
BRANCH  15  26
ATOM     26  O   UNL     1      -0.898  -1.534   3.158  1.00  0.00    -0.477 OA
BRANCH  26  27
ATOM     27  C   UNL     1      -0.868  -2.777   3.844  1.00  0.00     0.231 C 
BRANCH  27  28
ATOM     28  C   UNL     1       0.518  -3.444   3.755  1.00  0.00     0.045 C 
BRANCH  28  29
ATOM     29  C   UNL     1       1.666  -2.858   4.624  1.00  0.00    -0.008 C 
ATOM     30  C   UNL     1       2.121  -1.470   4.137  1.00  0.00     0.004 C 
ATOM     31  C   UNL     1       1.367  -3.004   6.124  1.00  0.00     0.004 C 
ATOM     32  C   UNL     1       2.749  -0.523   5.153  1.00  0.00     0.000 C 
ATOM     33  C   UNL     1       2.228  -2.128   7.022  1.00  0.00     0.000 C 
ATOM     34  C   UNL     1       2.221  -0.686   6.561  1.00  0.00     0.000 C 
ENDBRANCH  28  29
ENDBRANCH  27  28
ENDBRANCH  26  27
ENDBRANCH  15  26
ENDBRANCH  10  11
ENDBRANCH   5  10
ENDBRANCH   1   5
BRANCH   3  35
ATOM     35  C   UNL     1      -0.563   5.655   1.688  1.00  0.00     0.117 C 
BRANCH  35  36
ATOM     36  C   UNL     1       0.790   6.292   1.429  1.00  0.00     0.042 C 
BRANCH  36  37
ATOM     37  C   UNL     1       0.667   7.614   0.696  1.00  0.00     0.118 C 
BRANCH  37  38
ATOM     38  N   UNL     1      -0.063   8.605   1.478  1.00  0.00    -0.352 N 
ATOM     39  C   UNL     1       0.345   9.846   1.904  1.00  0.00     0.251 C 
ATOM     40  H   UNL     1      -0.978   8.348   1.738  1.00  0.00     0.163 HD
ATOM     41  O   UNL     1      -0.299  10.455   2.741  1.00  0.00    -0.269 OA
BRANCH  39  42
ATOM     42  C   UNL     1       1.585  10.413   1.339  1.00  0.00     0.039 A 
ATOM     43  C   UNL     1       2.503  11.026   2.190  1.00  0.00     0.014 A 
ATOM     44  C   UNL     1       1.846  10.297  -0.029  1.00  0.00     0.014 A 
ATOM     45  C   UNL     1       3.720  11.469   1.672  1.00  0.00     0.010 A 
ATOM     46  C   UNL     1       3.097  10.636  -0.519  1.00  0.00     0.010 A 
ATOM     47  C   UNL     1       4.041  11.241   0.323  1.00  0.00    -0.014 A 
BRANCH  47  48
ATOM     48  C   UNL     1       5.345  11.656  -0.246  1.00  0.00     0.031 A 
ATOM     49  C   UNL     1       5.375  12.662  -1.366  1.00  0.00     0.074 A 
ATOM     50  C   UNL     1       6.482  11.090   0.202  1.00  0.00     0.049 A 
ATOM     51  N   UNL     1       6.394  13.085  -2.067  1.00  0.00    -0.248 NA
ATOM     52  C   UNL     1       4.084  13.245  -1.775  1.00  0.00     0.031 C 
ATOM     53  C   UNL     1       6.568  10.074   1.255  1.00  0.00     0.029 A 
ATOM     54  N   UNL     1       7.786  11.281  -0.177  1.00  0.00    -0.354 N 
ATOM     55  C   UNL     1       5.869  13.979  -2.992  1.00  0.00     0.074 A 
ATOM     56  C   UNL     1       4.434  13.980  -2.819  1.00  0.00     0.031 C 
ATOM     57  C   UNL     1       7.857   9.756   1.457  1.00  0.00     0.029 A 
ATOM     58  C   UNL     1       8.684  10.506   0.518  1.00  0.00     0.049 A 
ATOM     59  H   UNL     1       8.054  11.915  -0.881  1.00  0.00     0.167 HD
ATOM     60  C   UNL     1       6.527  14.758  -3.881  1.00  0.00     0.037 A 
ATOM     61  C   UNL     1      10.023  10.407   0.401  1.00  0.00     0.037 A 
ATOM     62  C   UNL     1       7.957  14.768  -4.030  1.00  0.00     0.049 A 
ATOM     63  C   UNL     1      10.725  11.257  -0.626  1.00  0.00     0.074 A 
ATOM     64  C   UNL     1       8.728  15.536  -4.884  1.00  0.00     0.029 A 
ATOM     65  N   UNL     1       8.833  13.978  -3.299  1.00  0.00    -0.354 N 
ATOM     66  N   UNL     1      10.216  12.131  -1.463  1.00  0.00    -0.248 NA
ATOM     67  C   UNL     1      12.184  11.113  -0.722  1.00  0.00     0.031 C 
ATOM     68  C   UNL     1      10.067  15.181  -4.700  1.00  0.00     0.029 A 
ATOM     69  C   UNL     1      10.136  14.232  -3.692  1.00  0.00     0.049 A 
ATOM     70  H   UNL     1       8.568  13.332  -2.605  1.00  0.00     0.167 HD
ATOM     71  C   UNL     1      11.297  12.669  -2.153  1.00  0.00     0.074 A 
ATOM     72  C   UNL     1      12.486  12.031  -1.629  1.00  0.00     0.031 C 
ATOM     73  C   UNL     1      11.307  13.606  -3.133  1.00  0.00     0.037 A 
BRANCH  60  74
ATOM     74  C   UNL     1       5.712  15.687  -4.738  1.00  0.00     0.058 A 
ATOM     75  C   UNL     1       5.067  16.808  -4.192  1.00  0.00     0.135 A 
ATOM     76  C   UNL     1       5.621  15.491  -6.125  1.00  0.00     0.135 A 
ATOM     77  F   UNL     1       5.103  17.031  -2.868  1.00  0.00    -0.206 F 
ATOM     78  C   UNL     1       4.351  17.695  -4.987  1.00  0.00     0.059 A 
ATOM     79  C   UNL     1       4.934  16.383  -6.945  1.00  0.00     0.059 A 
ATOM     80  F   UNL     1       6.211  14.431  -6.699  1.00  0.00    -0.206 F 
ATOM     81  C   UNL     1       4.297  17.479  -6.364  1.00  0.00     0.060 A 
BRANCH  81  82
ATOM     82  S   UNL     1       3.398  18.666  -7.384  1.00  0.00     0.124 S 
ATOM     83  O   UNL     1       2.016  18.392  -7.000  1.00  0.00    -0.237 OA
ATOM     84  O   UNL     1       3.942  19.941  -6.927  1.00  0.00    -0.237 OA
ATOM     85  O   UNL     1       3.757  18.286  -8.746  1.00  0.00    -0.744 OA
ENDBRANCH  81  82
ENDBRANCH  60  74
BRANCH  61  86
ATOM     86  C   UNL     1      10.796   9.482   1.275  1.00  0.00     0.058 A 
ATOM     87  C   UNL     1      11.711   9.976   2.217  1.00  0.00     0.135 A 
ATOM     88  C   UNL     1      10.669   8.089   1.160  1.00  0.00     0.135 A 
ATOM     89  F   UNL     1      11.870  11.300   2.367  1.00  0.00    -0.206 F 
ATOM     90  C   UNL     1      12.506   9.126   2.979  1.00  0.00     0.059 A 
ATOM     91  C   UNL     1      11.429   7.218   1.934  1.00  0.00     0.059 A 
ATOM     92  F   UNL     1       9.792   7.561   0.291  1.00  0.00    -0.206 F 
ATOM     93  C   UNL     1      12.363   7.747   2.824  1.00  0.00     0.060 A 
BRANCH  93  94
ATOM     94  S   UNL     1      13.407   6.651   3.808  1.00  0.00     0.124 S 
ATOM     95  O   UNL     1      14.703   6.824   3.162  1.00  0.00    -0.237 OA
ATOM     96  O   UNL     1      13.278   7.222   5.145  1.00  0.00    -0.237 OA
ATOM     97  O   UNL     1      12.782   5.343   3.630  1.00  0.00    -0.744 OA
ENDBRANCH  93  94
ENDBRANCH  61  86
BRANCH  73  98
ATOM     98  C   UNL     1      12.645  14.046  -3.660  1.00  0.00     0.058 A 
ATOM     99  C   UNL     1      13.431  13.216  -4.473  1.00  0.00     0.135 A 
ATOM    100  C   UNL     1      13.116  15.343  -3.395  1.00  0.00     0.135 A 
ATOM    101  F   UNL     1      13.030  11.965  -4.751  1.00  0.00    -0.206 F 
ATOM    102  C   UNL     1      14.650  13.647  -4.987  1.00  0.00     0.059 A 
ATOM    103  C   UNL     1      14.315  15.806  -3.925  1.00  0.00     0.059 A 
ATOM    104  F   UNL     1      12.397  16.181  -2.632  1.00  0.00    -0.206 F 
ATOM    105  C   UNL     1      15.081  14.947  -4.711  1.00  0.00     0.060 A 
BRANCH 105 106
ATOM    106  S   UNL     1      16.643  15.506  -5.420  1.00  0.00     0.124 S 
ATOM    107  O   UNL     1      17.612  14.761  -4.624  1.00  0.00    -0.237 OA
ATOM    108  O   UNL     1      16.516  15.094  -6.815  1.00  0.00    -0.237 OA
ATOM    109  O   UNL     1      16.622  16.949  -5.195  1.00  0.00    -0.744 OA
ENDBRANCH 105 106
ENDBRANCH  73  98
ENDBRANCH  47  48
ENDBRANCH  39  42
ENDBRANCH  37  38
ENDBRANCH  36  37
ENDBRANCH  35  36
ENDBRANCH   3  35
TORSDOF 26
