REMARK SMILES CSc1nc(C2CC2)nc(C)c1C(=O)NCCCNC(=O)c1ccc(-c2c3nc(c(-c4c(F)cc(S(=O)(=O)[O-])cc4F)c4ccc([nH]4)c(-c4c(F)cc(S(=O)(=O)[O-])cc4F)c4nc(c(-c5c(F)cc(S(=O)(=O)[O-])cc5F)c5ccc2[nH]5)C=C4)C=C3)cc1
REMARK SMILES IDX 18 1 17 2 16 3 15 4 13 5 14 6 12 8 3 9 4 10 5 11 10 12 9 13
REMARK SMILES IDX 11 14 2 15 1 16 6 17 7 18 8 19 19 20 20 21 21 23 22 24 23 25
REMARK SMILES IDX 87 26 24 27 86 28 25 29 26 30 27 31 80 32 28 33 85 34 79 35
REMARK SMILES IDX 81 36 29 37 84 38 78 39 77 40 30 42 64 43 43 44 63 45 44 46
REMARK SMILES IDX 47 47 62 48 82 49 45 50 46 51 61 53 83 54 48 55 31 56 32 57
REMARK SMILES IDX 41 58 33 59 34 60 40 61 42 62 35 63 36 64 37 65 38 66 39 67
REMARK SMILES IDX 65 68 66 69 75 70 67 71 68 72 74 73 76 74 69 75 70 76 71 77
REMARK SMILES IDX 72 78 73 79 49 80 50 81 59 82 51 83 52 84 58 85 60 86 53 87
REMARK SMILES IDX 54 88 55 89 56 90 57 91
REMARK H PARENT 15 7 19 22 81 41 47 52
REMARK Flexibility Score: inf
ROOT
ATOM      1  C   UNL     1       1.853   8.144   3.406  1.00  0.00     0.118 C 
ENDROOT
BRANCH   1   2
ATOM      2  C   UNL     1       1.694   6.786   4.074  1.00  0.00     0.042 C 
BRANCH   2   3
ATOM      3  C   UNL     1       0.440   5.998   3.655  1.00  0.00     0.118 C 
BRANCH   3   4
ATOM      4  N   UNL     1       0.731   5.237   2.455  1.00  0.00    -0.352 N 
ATOM      5  C   UNL     1       1.242   3.986   2.218  1.00  0.00     0.255 C 
ATOM      6  O   UNL     1       1.772   3.838   1.112  1.00  0.00    -0.269 OA
ATOM      7  H   UNL     1       0.514   5.726   1.628  1.00  0.00     0.163 HD
BRANCH   5   8
ATOM      8  C   UNL     1       1.175   2.797   3.108  1.00  0.00     0.093 A 
ATOM      9  C   UNL     1       0.762   1.581   2.540  1.00  0.00     0.113 A 
ATOM     10  N   UNL     1       0.919   0.367   3.131  1.00  0.00    -0.225 NA
ATOM     11  C   UNL     1       1.515   0.327   4.323  1.00  0.00     0.133 A 
ATOM     12  C   UNL     1       1.708   2.655   4.381  1.00  0.00     0.055 A 
ATOM     13  N   UNL     1       1.854   1.441   4.976  1.00  0.00    -0.237 NA
ATOM     14  C   UNL     1       2.311   3.696   5.253  1.00  0.00     0.068 C 
BRANCH   9  15
ATOM     15  S   UNL     1      -0.116   1.451   0.971  1.00  0.00    -0.109 SA
ATOM     16  C   UNL     1       0.844   0.104   0.223  1.00  0.00     0.092 C 
ENDBRANCH   9  15
BRANCH  11  17
ATOM     17  C   UNL     1       1.917  -0.981   4.955  1.00  0.00     0.058 C 
ATOM     18  C   UNL     1       1.821  -2.307   4.246  1.00  0.00     0.012 C 
ATOM     19  C   UNL     1       3.165  -1.669   4.438  1.00  0.00     0.012 C 
ENDBRANCH  11  17
ENDBRANCH   5   8
ENDBRANCH   3   4
ENDBRANCH   2   3
ENDBRANCH   1   2
BRANCH   1  20
ATOM     20  N   UNL     1       1.022   9.146   4.052  1.00  0.00    -0.352 N 
ATOM     21  C   UNL     1       1.387  10.269   4.756  1.00  0.00     0.251 C 
ATOM     22  H   UNL     1       0.052   8.998   3.974  1.00  0.00     0.163 HD
ATOM     23  O   UNL     1       0.550  10.815   5.471  1.00  0.00    -0.269 OA
BRANCH  21  24
ATOM     24  C   UNL     1       2.761  10.825   4.668  1.00  0.00     0.039 A 
ATOM     25  C   UNL     1       3.318  11.426   5.803  1.00  0.00     0.014 A 
ATOM     26  C   UNL     1       3.477  10.829   3.467  1.00  0.00     0.014 A 
ATOM     27  C   UNL     1       4.596  11.993   5.743  1.00  0.00     0.010 A 
ATOM     28  C   UNL     1       4.779  11.328   3.427  1.00  0.00     0.010 A 
ATOM     29  C   UNL     1       5.347  11.930   4.559  1.00  0.00    -0.014 A 
BRANCH  29  30
ATOM     30  C   UNL     1       6.710  12.519   4.474  1.00  0.00     0.031 A 
ATOM     31  C   UNL     1       6.973  13.675   3.543  1.00  0.00     0.074 A 
ATOM     32  C   UNL     1       7.718  11.986   5.194  1.00  0.00     0.049 A 
ATOM     33  N   UNL     1       8.106  14.261   3.249  1.00  0.00    -0.248 NA
ATOM     34  C   UNL     1       5.811  14.232   2.830  1.00  0.00     0.031 C 
ATOM     35  C   UNL     1       7.597  10.845   6.105  1.00  0.00     0.029 A 
ATOM     36  N   UNL     1       9.046  12.325   5.266  1.00  0.00    -0.354 N 
ATOM     37  C   UNL     1       7.795  15.246   2.318  1.00  0.00     0.074 A 
ATOM     38  C   UNL     1       6.377  15.143   2.051  1.00  0.00     0.031 C 
ATOM     39  C   UNL     1       8.796  10.589   6.654  1.00  0.00     0.029 A 
ATOM     40  C   UNL     1       9.778  11.520   6.108  1.00  0.00     0.049 A 
ATOM     41  H   UNL     1       9.439  13.073   4.761  1.00  0.00     0.167 HD
ATOM     42  C   UNL     1       8.611  16.171   1.757  1.00  0.00     0.037 A 
ATOM     43  C   UNL     1      11.094  11.526   6.398  1.00  0.00     0.037 A 
ATOM     44  C   UNL     1      10.016  16.287   2.046  1.00  0.00     0.049 A 
ATOM     45  C   UNL     1      11.980  12.558   5.751  1.00  0.00     0.074 A 
ATOM     46  C   UNL     1      10.927  17.200   1.544  1.00  0.00     0.029 A 
ATOM     47  N   UNL     1      10.711  15.473   2.929  1.00  0.00    -0.354 N 
ATOM     48  N   UNL     1      11.661  13.498   4.892  1.00  0.00    -0.248 NA
ATOM     49  C   UNL     1      13.404  12.537   6.116  1.00  0.00     0.031 C 
ATOM     50  C   UNL     1      12.178  16.923   2.105  1.00  0.00     0.029 A 
ATOM     51  C   UNL     1      12.038  15.862   2.985  1.00  0.00     0.049 A 
ATOM     52  H   UNL     1      10.319  14.728   3.439  1.00  0.00     0.167 HD
ATOM     53  C   UNL     1      12.836  14.197   4.641  1.00  0.00     0.074 A 
ATOM     54  C   UNL     1      13.870  13.582   5.447  1.00  0.00     0.031 C 
ATOM     55  C   UNL     1      13.044  15.252   3.815  1.00  0.00     0.037 A 
BRANCH  42  56
ATOM     56  C   UNL     1       8.001  17.154   0.796  1.00  0.00     0.058 A 
ATOM     57  C   UNL     1       7.157  18.183   1.245  1.00  0.00     0.135 A 
ATOM     58  C   UNL     1       8.307  17.110  -0.574  1.00  0.00     0.135 A 
ATOM     59  F   UNL     1       6.818  18.261   2.542  1.00  0.00    -0.206 F 
ATOM     60  C   UNL     1       6.626  19.123   0.369  1.00  0.00     0.059 A 
ATOM     61  C   UNL     1       7.807  18.056  -1.465  1.00  0.00     0.059 A 
ATOM     62  F   UNL     1       9.106  16.146  -1.058  1.00  0.00    -0.206 F 
ATOM     63  C   UNL     1       6.960  19.055  -0.984  1.00  0.00     0.060 A 
BRANCH  63  64
ATOM     64  S   UNL     1       6.286  20.304  -2.100  1.00  0.00     0.124 S 
ATOM     65  O   UNL     1       4.888  19.895  -2.184  1.00  0.00    -0.237 OA
ATOM     66  O   UNL     1       6.542  21.543  -1.372  1.00  0.00    -0.237 OA
ATOM     67  O   UNL     1       7.066  20.126  -3.321  1.00  0.00    -0.744 OA
ENDBRANCH  63  64
ENDBRANCH  42  56
BRANCH  43  68
ATOM     68  C   UNL     1      11.664  10.532   7.347  1.00  0.00     0.058 A 
ATOM     69  C   UNL     1      12.154  10.929   8.600  1.00  0.00     0.135 A 
ATOM     70  C   UNL     1      11.765   9.174   7.008  1.00  0.00     0.135 A 
ATOM     71  F   UNL     1      12.083  12.217   8.970  1.00  0.00    -0.206 F 
ATOM     72  C   UNL     1      12.761  10.026   9.467  1.00  0.00     0.059 A 
ATOM     73  C   UNL     1      12.342   8.246   7.869  1.00  0.00     0.059 A 
ATOM     74  F   UNL     1      11.292   8.738   5.830  1.00  0.00    -0.206 F 
ATOM     75  C   UNL     1      12.858   8.686   9.087  1.00  0.00     0.060 A 
BRANCH  75  76
ATOM     76  S   UNL     1      13.650   7.518  10.214  1.00  0.00     0.124 S 
ATOM     77  O   UNL     1      15.060   7.833  10.017  1.00  0.00    -0.237 OA
ATOM     78  O   UNL     1      13.084   7.899  11.504  1.00  0.00    -0.237 OA
ATOM     79  O   UNL     1      13.215   6.220   9.707  1.00  0.00    -0.744 OA
ENDBRANCH  75  76
ENDBRANCH  43  68
BRANCH  55  80
ATOM     80  C   UNL     1      14.427  15.838   3.781  1.00  0.00     0.058 A 
ATOM     81  C   UNL     1      15.488  15.188   3.135  1.00  0.00     0.135 A 
ATOM     82  C   UNL     1      14.679  17.092   4.362  1.00  0.00     0.135 A 
ATOM     83  F   UNL     1      15.299  13.985   2.569  1.00  0.00    -0.206 F 
ATOM     84  C   UNL     1      16.760  15.749   3.085  1.00  0.00     0.059 A 
ATOM     85  C   UNL     1      15.936  17.683   4.302  1.00  0.00     0.059 A 
ATOM     86  F   UNL     1      13.694  17.759   4.984  1.00  0.00    -0.206 F 
ATOM     87  C   UNL     1      16.973  16.998   3.671  1.00  0.00     0.060 A 
BRANCH  87  88
ATOM     88  S   UNL     1      18.619  17.732   3.570  1.00  0.00     0.124 S 
ATOM     89  O   UNL     1      19.350  16.951   4.563  1.00  0.00    -0.237 OA
ATOM     90  O   UNL     1      18.986  17.489   2.178  1.00  0.00    -0.237 OA
ATOM     91  O   UNL     1      18.389  19.131   3.916  1.00  0.00    -0.744 OA
ENDBRANCH  87  88
ENDBRANCH  55  80
ENDBRANCH  29  30
ENDBRANCH  21  24
ENDBRANCH   1  20
TORSDOF 15
