REMARK SMILES Cc1ccc(C(=O)N[C@@H]2C=C[C@H](C(=O)NCCCNC(=O)c3ccc(-c4c5nc(c(-c6c(F)cc(S(=O)(=O)[O-])cc6F)c6ccc([nH]6)c(-c6c(F)cc(S(=O)(=O)[O-])cc6F)c6nc(c(-c7c(F)cc(S(=O)(=O)[O-])cc7F)c7ccc4[nH]7)C=C6)C=C5)cc3)C2)c(F)c1
REMARK SMILES IDX 17 1 16 2 15 3 13 4 14 5 12 7 9 8 10 9 88 10 11 11 8 12 6 13
REMARK SMILES IDX 7 14 5 16 1 17 2 18 3 19 91 20 4 21 89 22 90 23 18 24 19 25
REMARK SMILES IDX 20 26 21 28 22 29 23 30 87 31 24 32 86 33 25 34 26 35 27 36
REMARK SMILES IDX 80 37 28 38 85 39 79 40 81 41 29 42 84 43 78 44 77 45 30 47
REMARK SMILES IDX 64 48 43 49 63 50 44 51 47 52 62 53 82 54 45 55 46 56 61 58
REMARK SMILES IDX 83 59 48 60 31 61 32 62 41 63 33 64 34 65 40 66 42 67 35 68
REMARK SMILES IDX 36 69 37 70 38 71 39 72 65 73 66 74 75 75 67 76 68 77 74 78
REMARK SMILES IDX 76 79 69 80 70 81 71 82 72 83 73 84 49 85 50 86 59 87 51 88
REMARK SMILES IDX 52 89 58 90 60 91 53 92 54 93 55 94 56 95 57 96
REMARK H PARENT 15 6 8 15 19 27 81 46 47 57
REMARK Flexibility Score: inf
ROOT
ATOM      1  C   UNL     1       1.756  -9.094   3.174  1.00  0.00     0.042 C 
ENDROOT
BRANCH   1   2
ATOM      2  C   UNL     1       1.958  -7.586   3.261  1.00  0.00     0.117 C 
BRANCH   2   3
ATOM      3  N   UNL     1       2.435  -6.994   2.023  1.00  0.00    -0.356 N 
ATOM      4  C   UNL     1       2.105  -5.793   1.454  1.00  0.00     0.227 C 
ATOM      5  O   UNL     1       2.758  -5.412   0.483  1.00  0.00    -0.274 OA
ATOM      6  H   UNL     1       3.088  -7.533   1.521  1.00  0.00     0.163 HD
BRANCH   4   7
ATOM      7  C   UNL     1       0.904  -5.024   2.006  1.00  0.00     0.103 C 
ATOM      8  C   UNL     1      -0.829  -4.412   0.344  1.00  0.00     0.106 C 
ATOM      9  C   UNL     1      -0.037  -3.229   0.814  1.00  0.00    -0.006 C 
ATOM     10  C   UNL     1      -0.364  -5.519   1.305  1.00  0.00     0.047 C 
ATOM     11  C   UNL     1       0.913  -3.563   1.694  1.00  0.00    -0.016 C 
BRANCH   8  12
ATOM     12  N   UNL     1      -0.575  -4.561  -1.079  1.00  0.00    -0.346 N 
ATOM     13  C   UNL     1      -0.921  -5.528  -1.993  1.00  0.00     0.254 C 
ATOM     14  O   UNL     1      -0.886  -5.260  -3.191  1.00  0.00    -0.269 OA
ATOM     15  H   UNL     1      -0.051  -3.823  -1.465  1.00  0.00     0.164 HD
BRANCH  13  16
ATOM     16  C   UNL     1      -1.232  -6.899  -1.557  1.00  0.00     0.075 A 
ATOM     17  C   UNL     1      -1.228 -10.748   0.339  1.00  0.00     0.044 C 
ATOM     18  C   UNL     1      -1.308  -9.439  -0.389  1.00  0.00    -0.048 A 
ATOM     19  C   UNL     1      -2.203  -8.441   0.025  1.00  0.00     0.004 A 
ATOM     20  C   UNL     1      -0.485  -9.199  -1.495  1.00  0.00     0.043 A 
ATOM     21  C   UNL     1      -2.184  -7.177  -0.574  1.00  0.00     0.017 A 
ATOM     22  C   UNL     1      -0.442  -7.931  -2.066  1.00  0.00     0.136 A 
ATOM     23  F   UNL     1       0.431  -7.716  -3.061  1.00  0.00    -0.206 F 
ENDBRANCH  13  16
ENDBRANCH   8  12
ENDBRANCH   4   7
ENDBRANCH   2   3
ENDBRANCH   1   2
BRANCH   1  24
ATOM     24  C   UNL     1       2.995  -9.896   2.791  1.00  0.00     0.118 C 
BRANCH  24  25
ATOM     25  N   UNL     1       4.097  -9.730   3.726  1.00  0.00    -0.352 N 
ATOM     26  C   UNL     1       4.765 -10.662   4.488  1.00  0.00     0.251 C 
ATOM     27  H   UNL     1       4.417  -8.805   3.830  1.00  0.00     0.163 HD
ATOM     28  O   UNL     1       5.560 -10.282   5.341  1.00  0.00    -0.269 OA
BRANCH  26  29
ATOM     29  C   UNL     1       4.510 -12.109   4.303  1.00  0.00     0.039 A 
ATOM     30  C   UNL     1       4.410 -12.927   5.433  1.00  0.00     0.014 A 
ATOM     31  C   UNL     1       4.386 -12.667   3.029  1.00  0.00     0.014 A 
ATOM     32  C   UNL     1       4.114 -14.285   5.285  1.00  0.00     0.010 A 
ATOM     33  C   UNL     1       4.006 -13.999   2.887  1.00  0.00     0.010 A 
ATOM     34  C   UNL     1       3.867 -14.825   4.012  1.00  0.00    -0.014 A 
BRANCH  34  35
ATOM     35  C   UNL     1       3.463 -16.245   3.835  1.00  0.00     0.031 A 
ATOM     36  C   UNL     1       4.334 -17.187   3.046  1.00  0.00     0.074 A 
ATOM     37  C   UNL     1       2.280 -16.669   4.323  1.00  0.00     0.049 A 
ATOM     38  N   UNL     1       4.113 -18.433   2.713  1.00  0.00    -0.248 NA
ATOM     39  C   UNL     1       5.608 -16.650   2.540  1.00  0.00     0.031 C 
ATOM     40  C   UNL     1       1.328 -15.845   5.071  1.00  0.00     0.029 A 
ATOM     41  N   UNL     1       1.668 -17.897   4.254  1.00  0.00    -0.354 N 
ATOM     42  C   UNL     1       5.206 -18.821   1.946  1.00  0.00     0.074 A 
ATOM     43  C   UNL     1       6.064 -17.663   1.819  1.00  0.00     0.031 C 
ATOM     44  C   UNL     1       0.269 -16.595   5.414  1.00  0.00     0.029 A 
ATOM     45  C   UNL     1       0.439 -17.939   4.872  1.00  0.00     0.049 A 
ATOM     46  H   UNL     1       2.071 -18.674   3.804  1.00  0.00     0.167 HD
ATOM     47  C   UNL     1       5.480 -20.036   1.414  1.00  0.00     0.037 A 
ATOM     48  C   UNL     1      -0.454 -18.942   4.981  1.00  0.00     0.037 A 
ATOM     49  C   UNL     1       4.633 -21.191   1.566  1.00  0.00     0.049 A 
ATOM     50  C   UNL     1      -0.134 -20.279   4.367  1.00  0.00     0.074 A 
ATOM     51  C   UNL     1       4.854 -22.483   1.121  1.00  0.00     0.029 A 
ATOM     52  N   UNL     1       3.402 -21.195   2.206  1.00  0.00    -0.354 N 
ATOM     53  N   UNL     1       0.935 -20.646   3.701  1.00  0.00    -0.248 NA
ATOM     54  C   UNL     1      -1.139 -21.340   4.521  1.00  0.00     0.031 C 
ATOM     55  C   UNL     1       3.731 -23.253   1.440  1.00  0.00     0.029 A 
ATOM     56  C   UNL     1       2.838 -22.459   2.142  1.00  0.00     0.049 A 
ATOM     57  H   UNL     1       2.990 -20.414   2.642  1.00  0.00     0.167 HD
ATOM     58  C   UNL     1       0.747 -21.988   3.390  1.00  0.00     0.074 A 
ATOM     59  C   UNL     1      -0.535 -22.369   3.945  1.00  0.00     0.031 C 
ATOM     60  C   UNL     1       1.565 -22.829   2.709  1.00  0.00     0.037 A 
BRANCH  47  61
ATOM     61  C   UNL     1       6.745 -20.182   0.610  1.00  0.00     0.058 A 
ATOM     62  C   UNL     1       8.015 -20.123   1.207  1.00  0.00     0.135 A 
ATOM     63  C   UNL     1       6.685 -20.424  -0.773  1.00  0.00     0.135 A 
ATOM     64  F   UNL     1       8.134 -19.881   2.522  1.00  0.00    -0.206 F 
ATOM     65  C   UNL     1       9.179 -20.268   0.459  1.00  0.00     0.059 A 
ATOM     66  C   UNL     1       7.836 -20.605  -1.535  1.00  0.00     0.059 A 
ATOM     67  F   UNL     1       5.499 -20.491  -1.397  1.00  0.00    -0.206 F 
ATOM     68  C   UNL     1       9.079 -20.509  -0.912  1.00  0.00     0.060 A 
BRANCH  68  69
ATOM     69  S   UNL     1      10.599 -20.700  -1.866  1.00  0.00     0.124 S 
ATOM     70  O   UNL     1      11.110 -19.333  -1.876  1.00  0.00    -0.237 OA
ATOM     71  O   UNL     1      11.355 -21.652  -1.058  1.00  0.00    -0.237 OA
ATOM     72  O   UNL     1      10.133 -21.205  -3.153  1.00  0.00    -0.744 OA
ENDBRANCH  68  69
ENDBRANCH  47  61
BRANCH  48  73
ATOM     73  C   UNL     1      -1.728 -18.729   5.721  1.00  0.00     0.058 A 
ATOM     74  C   UNL     1      -1.962 -19.367   6.949  1.00  0.00     0.135 A 
ATOM     75  C   UNL     1      -2.729 -17.880   5.226  1.00  0.00     0.135 A 
ATOM     76  F   UNL     1      -1.039 -20.195   7.461  1.00  0.00    -0.206 F 
ATOM     77  C   UNL     1      -3.150 -19.186   7.651  1.00  0.00     0.059 A 
ATOM     78  C   UNL     1      -3.913 -17.660   5.924  1.00  0.00     0.059 A 
ATOM     79  F   UNL     1      -2.549 -17.231   4.065  1.00  0.00    -0.206 F 
ATOM     80  C   UNL     1      -4.118 -18.326   7.131  1.00  0.00     0.060 A 
BRANCH  80  81
ATOM     81  S   UNL     1      -5.634 -18.058   8.076  1.00  0.00     0.124 S 
ATOM     82  O   UNL     1      -6.315 -19.336   7.908  1.00  0.00    -0.237 OA
ATOM     83  O   UNL     1      -5.115 -17.780   9.411  1.00  0.00    -0.237 OA
ATOM     84  O   UNL     1      -6.252 -16.919   7.402  1.00  0.00    -0.744 OA
ENDBRANCH  80  81
ENDBRANCH  48  73
BRANCH  60  85
ATOM     85  C   UNL     1       1.127 -24.262   2.563  1.00  0.00     0.058 A 
ATOM     86  C   UNL     1       0.070 -24.634   1.718  1.00  0.00     0.135 A 
ATOM     87  C   UNL     1       1.819 -25.284   3.235  1.00  0.00     0.135 A 
ATOM     88  F   UNL     1      -0.629 -23.697   1.059  1.00  0.00    -0.206 F 
ATOM     89  C   UNL     1      -0.299 -25.966   1.561  1.00  0.00     0.059 A 
ATOM     90  C   UNL     1       1.487 -26.624   3.068  1.00  0.00     0.059 A 
ATOM     91  F   UNL     1       2.845 -24.985   4.048  1.00  0.00    -0.206 F 
ATOM     92  C   UNL     1       0.419 -26.955   2.236  1.00  0.00     0.060 A 
BRANCH  92  93
ATOM     93  S   UNL     1      -0.046 -28.682   1.991  1.00  0.00     0.124 S 
ATOM     94  O   UNL     1      -1.304 -28.756   2.726  1.00  0.00    -0.237 OA
ATOM     95  O   UNL     1      -0.154 -28.771   0.538  1.00  0.00    -0.237 OA
ATOM     96  O   UNL     1       1.068 -29.421   2.577  1.00  0.00    -0.744 OA
ENDBRANCH  92  93
ENDBRANCH  60  85
ENDBRANCH  34  35
ENDBRANCH  26  29
ENDBRANCH  24  25
ENDBRANCH   1  24
TORSDOF 15
