REMARK SMILES CCCCCC[C@H]1OCC[C@H]1C(=O)NCCCNC(=O)c1ccc(-c2c3nc(c(-c4c(F)cc(S(=O)(=O)[O-])cc4F)c4ccc([nH]4)c(-c4c(F)cc(S(=O)(=O)[O-])cc4F)c4nc(c(-c5c(F)cc(S(=O)(=O)[O-])cc5F)c5ccc2[nH]5)C=C4)C=C3)cc1
REMARK SMILES IDX 15 1 14 2 12 3 13 4 11 6 7 7 8 8 9 9 10 10 6 11 5 12 4 13
REMARK SMILES IDX 3 14 2 15 1 16 16 17 17 18 18 19 19 20 20 22 21 23 22 24
REMARK SMILES IDX 86 25 23 26 85 27 24 28 25 29 26 30 79 31 27 32 84 33 78 34
REMARK SMILES IDX 80 35 28 36 83 37 77 38 76 39 29 41 63 42 42 43 62 44 43 45
REMARK SMILES IDX 46 46 61 47 81 48 44 49 45 50 60 52 82 53 47 54 30 55 31 56
REMARK SMILES IDX 40 57 32 58 33 59 39 60 41 61 34 62 35 63 36 64 37 65 38 66
REMARK SMILES IDX 64 67 65 68 74 69 66 70 67 71 73 72 75 73 68 74 69 75 70 76
REMARK SMILES IDX 71 77 72 78 48 79 49 80 58 81 50 82 51 83 57 84 59 85 52 86
REMARK SMILES IDX 53 87 54 88 55 89 56 90
REMARK H PARENT 14 5 18 21 80 40 46 51
REMARK Flexibility Score: inf
ROOT
ATOM      1  C   UNL     1      -0.640   4.875  -0.292  1.00  0.00     0.117 C 
ENDROOT
BRANCH   1   2
ATOM      2  N   UNL     1      -2.003   4.875   0.216  1.00  0.00    -0.356 N 
ATOM      3  C   UNL     1      -2.538   5.039   1.449  1.00  0.00     0.225 C 
ATOM      4  O   UNL     1      -3.766   4.902   1.520  1.00  0.00    -0.275 OA
ATOM      5  H   UNL     1      -2.679   4.723  -0.483  1.00  0.00     0.163 HD
BRANCH   3   6
ATOM      6  C   UNL     1      -1.770   5.404   2.709  1.00  0.00     0.109 C 
ATOM      7  C   UNL     1      -0.973   4.346   3.460  1.00  0.00     0.130 C 
ATOM      8  O   UNL     1       0.406   4.612   3.201  1.00  0.00    -0.377 OA
ATOM      9  C   UNL     1       0.563   5.993   2.882  1.00  0.00     0.161 C 
ATOM     10  C   UNL     1      -0.806   6.568   2.579  1.00  0.00     0.044 C 
BRANCH   7  11
ATOM     11  C   UNL     1      -1.329   2.856   3.349  1.00  0.00     0.033 C 
BRANCH  11  12
ATOM     12  C   UNL     1      -0.929   2.092   2.083  1.00  0.00     0.003 C 
BRANCH  12  13
ATOM     13  C   UNL     1       0.578   1.907   1.851  1.00  0.00     0.000 C 
BRANCH  13  14
ATOM     14  C   UNL     1       1.149   0.596   2.393  1.00  0.00    -0.000 C 
BRANCH  14  15
ATOM     15  C   UNL     1       0.736  -0.660   1.619  1.00  0.00    -0.003 C 
ATOM     16  C   UNL     1       1.121  -0.634   0.145  1.00  0.00     0.004 C 
ENDBRANCH  14  15
ENDBRANCH  13  14
ENDBRANCH  12  13
ENDBRANCH  11  12
ENDBRANCH   7  11
ENDBRANCH   3   6
ENDBRANCH   1   2
BRANCH   1  17
ATOM     17  C   UNL     1      -0.355   3.686  -1.220  1.00  0.00     0.042 C 
BRANCH  17  18
ATOM     18  C   UNL     1      -1.215   3.623  -2.478  1.00  0.00     0.118 C 
BRANCH  18  19
ATOM     19  N   UNL     1      -0.495   4.042  -3.664  1.00  0.00    -0.352 N 
ATOM     20  C   UNL     1       0.333   3.360  -4.521  1.00  0.00     0.251 C 
ATOM     21  H   UNL     1      -0.622   4.990  -3.898  1.00  0.00     0.163 HD
ATOM     22  O   UNL     1       0.985   4.021  -5.330  1.00  0.00    -0.269 OA
BRANCH  20  23
ATOM     23  C   UNL     1       0.492   1.880  -4.502  1.00  0.00     0.039 A 
ATOM     24  C   UNL     1       1.744   1.355  -4.851  1.00  0.00     0.014 A 
ATOM     25  C   UNL     1      -0.565   0.994  -4.279  1.00  0.00     0.014 A 
ATOM     26  C   UNL     1       1.937  -0.029  -4.958  1.00  0.00     0.010 A 
ATOM     27  C   UNL     1      -0.352  -0.391  -4.306  1.00  0.00     0.010 A 
ATOM     28  C   UNL     1       0.894  -0.922  -4.671  1.00  0.00    -0.014 A 
BRANCH  28  29
ATOM     29  C   UNL     1       1.081  -2.397  -4.798  1.00  0.00     0.031 A 
ATOM     30  C   UNL     1       0.276  -3.189  -5.800  1.00  0.00     0.074 A 
ATOM     31  C   UNL     1       1.951  -3.041  -3.993  1.00  0.00     0.049 A 
ATOM     32  N   UNL     1       0.249  -4.483  -6.007  1.00  0.00    -0.248 NA
ATOM     33  C   UNL     1      -0.635  -2.430  -6.671  1.00  0.00     0.031 C 
ATOM     34  C   UNL     1       2.775  -2.409  -2.962  1.00  0.00     0.029 A 
ATOM     35  N   UNL     1       2.282  -4.372  -3.910  1.00  0.00    -0.354 N 
ATOM     36  C   UNL     1      -0.693  -4.693  -7.008  1.00  0.00     0.074 A 
ATOM     37  C   UNL     1      -1.246  -3.398  -7.340  1.00  0.00     0.031 C 
ATOM     38  C   UNL     1       3.527  -3.346  -2.363  1.00  0.00     0.029 A 
ATOM     39  C   UNL     1       3.215  -4.651  -2.939  1.00  0.00     0.049 A 
ATOM     40  H   UNL     1       1.888  -5.061  -4.492  1.00  0.00     0.167 HD
ATOM     41  C   UNL     1      -1.053  -5.853  -7.613  1.00  0.00     0.037 A 
ATOM     42  C   UNL     1       3.753  -5.823  -2.546  1.00  0.00     0.037 A 
ATOM     43  C   UNL     1      -0.475  -7.138  -7.315  1.00  0.00     0.049 A 
ATOM     44  C   UNL     1       3.344  -7.097  -3.235  1.00  0.00     0.074 A 
ATOM     45  C   UNL     1      -0.734  -8.358  -7.917  1.00  0.00     0.029 A 
ATOM     46  N   UNL     1       0.480  -7.372  -6.337  1.00  0.00    -0.354 N 
ATOM     47  N   UNL     1       2.482  -7.267  -4.209  1.00  0.00    -0.248 NA
ATOM     48  C   UNL     1       3.984  -8.338  -2.775  1.00  0.00     0.031 C 
ATOM     49  C   UNL     1       0.037  -9.336  -7.278  1.00  0.00     0.029 A 
ATOM     50  C   UNL     1       0.809  -8.718  -6.307  1.00  0.00     0.049 A 
ATOM     51  H   UNL     1       0.868  -6.683  -5.750  1.00  0.00     0.167 HD
ATOM     52  C   UNL     1       2.495  -8.628  -4.494  1.00  0.00     0.074 A 
ATOM     53  C   UNL     1       3.457  -9.235  -3.598  1.00  0.00     0.031 C 
ATOM     54  C   UNL     1       1.774  -9.312  -5.417  1.00  0.00     0.037 A 
BRANCH  41  55
ATOM     55  C   UNL     1      -2.126  -5.788  -8.667  1.00  0.00     0.058 A 
ATOM     56  C   UNL     1      -1.889  -5.215  -9.927  1.00  0.00     0.135 A 
ATOM     57  C   UNL     1      -3.394  -6.344  -8.431  1.00  0.00     0.135 A 
ATOM     58  F   UNL     1      -0.699  -4.659 -10.203  1.00  0.00    -0.206 F 
ATOM     59  C   UNL     1      -2.880  -5.165 -10.902  1.00  0.00     0.059 A 
ATOM     60  C   UNL     1      -4.392  -6.330  -9.402  1.00  0.00     0.059 A 
ATOM     61  F   UNL     1      -3.674  -6.910  -7.247  1.00  0.00    -0.206 F 
ATOM     62  C   UNL     1      -4.130  -5.723 -10.630  1.00  0.00     0.060 A 
BRANCH  62  63
ATOM     63  S   UNL     1      -5.405  -5.649 -11.905  1.00  0.00     0.124 S 
ATOM     64  O   UNL     1      -5.799  -4.245 -11.842  1.00  0.00    -0.237 OA
ATOM     65  O   UNL     1      -4.675  -6.049 -13.104  1.00  0.00    -0.237 OA
ATOM     66  O   UNL     1      -6.408  -6.603 -11.439  1.00  0.00    -0.744 OA
ENDBRANCH  62  63
ENDBRANCH  41  55
BRANCH  42  67
ATOM     67  C   UNL     1       4.756  -5.844  -1.448  1.00  0.00     0.058 A 
ATOM     68  C   UNL     1       6.109  -6.103  -1.712  1.00  0.00     0.135 A 
ATOM     69  C   UNL     1       4.385  -5.590  -0.118  1.00  0.00     0.135 A 
ATOM     70  F   UNL     1       6.510  -6.360  -2.966  1.00  0.00    -0.206 F 
ATOM     71  C   UNL     1       7.059  -6.121  -0.696  1.00  0.00     0.059 A 
ATOM     72  C   UNL     1       5.321  -5.579   0.912  1.00  0.00     0.059 A 
ATOM     73  F   UNL     1       3.105  -5.322   0.184  1.00  0.00    -0.206 F 
ATOM     74  C   UNL     1       6.655  -5.855   0.614  1.00  0.00     0.060 A 
BRANCH  74  75
ATOM     75  S   UNL     1       7.904  -5.825   1.917  1.00  0.00     0.124 S 
ATOM     76  O   UNL     1       8.171  -7.247   2.101  1.00  0.00    -0.237 OA
ATOM     77  O   UNL     1       8.975  -5.048   1.300  1.00  0.00    -0.237 OA
ATOM     78  O   UNL     1       7.219  -5.162   3.022  1.00  0.00    -0.744 OA
ENDBRANCH  74  75
ENDBRANCH  42  67
BRANCH  54  79
ATOM     79  C   UNL     1       2.017 -10.791  -5.531  1.00  0.00     0.058 A 
ATOM     80  C   UNL     1       1.542 -11.694  -4.566  1.00  0.00     0.135 A 
ATOM     81  C   UNL     1       2.691 -11.318  -6.645  1.00  0.00     0.135 A 
ATOM     82  F   UNL     1       0.898 -11.242  -3.479  1.00  0.00    -0.206 F 
ATOM     83  C   UNL     1       1.745 -13.065  -4.692  1.00  0.00     0.059 A 
ATOM     84  C   UNL     1       2.884 -12.687  -6.803  1.00  0.00     0.059 A 
ATOM     85  F   UNL     1       3.157 -10.499  -7.602  1.00  0.00    -0.206 F 
ATOM     86  C   UNL     1       2.417 -13.552  -5.815  1.00  0.00     0.060 A 
BRANCH  86  87
ATOM     87  S   UNL     1       2.645 -15.335  -5.984  1.00  0.00     0.124 S 
ATOM     88  O   UNL     1       3.715 -15.587  -5.025  1.00  0.00    -0.237 OA
ATOM     89  O   UNL     1       1.331 -15.856  -5.618  1.00  0.00    -0.237 OA
ATOM     90  O   UNL     1       3.007 -15.500  -7.388  1.00  0.00    -0.744 OA
ENDBRANCH  86  87
ENDBRANCH  54  79
ENDBRANCH  28  29
ENDBRANCH  20  23
ENDBRANCH  18  19
ENDBRANCH  17  18
ENDBRANCH   1  17
TORSDOF 18
