REMARK SMILES CC(C)[NH2+][C@]1(C(=O)NCCCNC(=O)c2ccc(-c3c4nc(c(-c5c(F)cc(S(=O)(=O)[O-])cc5F)c5ccc([nH]5)c(-c5c(F)cc(S(=O)(=O)[O-])cc5F)c5nc(c(-c6c(F)cc(S(=O)(=O)[O-])cc6F)c6ccc3[nH]6)C=C5)C=C4)cc2)CC[C@H](Oc2cccc(CO)c2)C1
REMARK SMILES IDX 9 1 8 2 6 3 7 4 5 6 81 7 93 8 82 9 83 10 4 11 2 14 1 15 3 16
REMARK SMILES IDX 84 17 85 18 86 19 92 20 87 21 89 22 88 23 90 24 91 25 10 27
REMARK SMILES IDX 11 28 12 29 13 30 14 32 15 33 16 34 80 35 17 36 79 37 18 38
REMARK SMILES IDX 19 39 20 40 73 41 21 42 78 43 72 44 74 45 22 46 77 47 71 48
REMARK SMILES IDX 70 49 23 51 57 52 36 53 56 54 37 55 40 56 55 57 75 58 38 59
REMARK SMILES IDX 39 60 54 62 76 63 41 64 24 65 25 66 34 67 26 68 27 69 33 70
REMARK SMILES IDX 35 71 28 72 29 73 30 74 31 75 32 76 58 77 59 78 68 79 60 80
REMARK SMILES IDX 61 81 67 82 69 83 62 84 63 85 64 86 65 87 66 88 42 89 43 90
REMARK SMILES IDX 52 91 44 92 45 93 51 94 53 95 46 96 47 97 48 98 49 99 50 100
REMARK H PARENT 8 5 4 12 4 13 91 26 12 31 74 50 40 61
REMARK Flexibility Score: inf
ROOT
ATOM      1  C   UNL     1       1.480   0.537  -2.229  1.00  0.00     0.118 C 
ENDROOT
BRANCH   1   2
ATOM      2  N   UNL     1       0.616  -0.085  -1.240  1.00  0.00    -0.351 N 
ATOM      3  C   UNL     1      -0.480  -0.880  -1.292  1.00  0.00     0.281 C 
ATOM      4  O   UNL     1      -0.932  -1.226  -0.188  1.00  0.00    -0.268 OA
ATOM      5  H   UNL     1       0.891   0.120  -0.317  1.00  0.00     0.163 HD
BRANCH   3   6
ATOM      6  C   UNL     1      -1.213  -1.338  -2.583  1.00  0.00     0.179 C 
ATOM      7  C   UNL     1      -0.594  -1.078  -3.953  1.00  0.00     0.083 C 
ATOM      8  C   UNL     1      -1.221  -2.902  -2.572  1.00  0.00     0.124 C 
ATOM      9  C   UNL     1      -1.279  -2.075  -4.865  1.00  0.00     0.052 C 
ATOM     10  C   UNL     1      -1.221  -3.367  -4.044  1.00  0.00     0.180 C 
BRANCH   6  11
ATOM     11  N   UNL     1      -2.647  -0.943  -2.499  1.00  0.00    -0.332 N 
ATOM     12  H   UNL     1      -3.153  -1.503  -3.185  1.00  0.00     0.347 HD
ATOM     13  H   UNL     1      -2.888  -1.098  -1.520  1.00  0.00     0.347 HD
BRANCH  11  14
ATOM     14  C   UNL     1      -3.010   0.455  -2.734  1.00  0.00     0.176 C 
ATOM     15  C   UNL     1      -4.506   0.464  -3.079  1.00  0.00     0.075 C 
ATOM     16  C   UNL     1      -2.780   1.356  -1.521  1.00  0.00     0.075 C 
ENDBRANCH  11  14
ENDBRANCH   6  11
BRANCH  10  17
ATOM     17  O   UNL     1      -2.322  -4.245  -4.273  1.00  0.00    -0.490 OA
BRANCH  17  18
ATOM     18  C   UNL     1      -2.535  -4.645  -5.564  1.00  0.00     0.120 A 
ATOM     19  C   UNL     1      -1.552  -4.759  -6.547  1.00  0.00     0.046 A 
ATOM     20  C   UNL     1      -3.862  -4.943  -5.876  1.00  0.00     0.052 A 
ATOM     21  C   UNL     1      -1.907  -5.099  -7.854  1.00  0.00     0.004 A 
ATOM     22  C   UNL     1      -4.229  -5.299  -7.180  1.00  0.00    -0.019 A 
ATOM     23  C   UNL     1      -3.240  -5.358  -8.171  1.00  0.00     0.006 A 
BRANCH  22  24
ATOM     24  C   UNL     1      -5.664  -5.585  -7.522  1.00  0.00     0.191 C 
BRANCH  24  25
ATOM     25  O   UNL     1      -6.183  -4.579  -8.382  1.00  0.00    -0.392 OA
ATOM     26  H   UNL     1      -6.138  -3.719  -7.936  1.00  0.00     0.211 HD
ENDBRANCH  24  25
ENDBRANCH  22  24
ENDBRANCH  17  18
ENDBRANCH  10  17
ENDBRANCH   3   6
ENDBRANCH   1   2
BRANCH   1  27
ATOM     27  C   UNL     1       1.097   1.977  -2.544  1.00  0.00     0.042 C 
BRANCH  27  28
ATOM     28  C   UNL     1       1.337   2.933  -1.379  1.00  0.00     0.118 C 
BRANCH  28  29
ATOM     29  N   UNL     1       2.743   2.978  -0.991  1.00  0.00    -0.352 N 
ATOM     30  C   UNL     1       3.692   3.946  -1.188  1.00  0.00     0.251 C 
ATOM     31  H   UNL     1       3.062   2.182  -0.508  1.00  0.00     0.163 HD
ATOM     32  O   UNL     1       4.882   3.651  -1.050  1.00  0.00    -0.269 OA
BRANCH  30  33
ATOM     33  C   UNL     1       3.313   5.327  -1.552  1.00  0.00     0.039 A 
ATOM     34  C   UNL     1       4.131   6.052  -2.426  1.00  0.00     0.014 A 
ATOM     35  C   UNL     1       2.197   5.939  -0.978  1.00  0.00     0.014 A 
ATOM     36  C   UNL     1       3.801   7.368  -2.758  1.00  0.00     0.010 A 
ATOM     37  C   UNL     1       1.824   7.220  -1.371  1.00  0.00     0.010 A 
ATOM     38  C   UNL     1       2.630   7.955  -2.253  1.00  0.00    -0.014 A 
BRANCH  38  39
ATOM     39  C   UNL     1       2.240   9.344  -2.603  1.00  0.00     0.031 A 
ATOM     40  C   UNL     1       2.152  10.393  -1.526  1.00  0.00     0.074 A 
ATOM     41  C   UNL     1       1.887   9.640  -3.869  1.00  0.00     0.049 A 
ATOM     42  N   UNL     1       1.718  11.624  -1.603  1.00  0.00    -0.248 NA
ATOM     43  C   UNL     1       2.579   9.993  -0.175  1.00  0.00     0.031 C 
ATOM     44  C   UNL     1       1.885   8.698  -4.990  1.00  0.00     0.029 A 
ATOM     45  N   UNL     1       1.446  10.815  -4.423  1.00  0.00    -0.354 N 
ATOM     46  C   UNL     1       1.791  12.134  -0.312  1.00  0.00     0.074 A 
ATOM     47  C   UNL     1       2.269  11.066   0.538  1.00  0.00     0.031 C 
ATOM     48  C   UNL     1       1.478   9.335  -6.100  1.00  0.00     0.029 A 
ATOM     49  C   UNL     1       1.157  10.718  -5.764  1.00  0.00     0.049 A 
ATOM     50  H   UNL     1       1.346  11.649  -3.909  1.00  0.00     0.167 HD
ATOM     51  C   UNL     1       1.507  13.386   0.122  1.00  0.00     0.037 A 
ATOM     52  C   UNL     1       0.677  11.639  -6.622  1.00  0.00     0.037 A 
ATOM     53  C   UNL     1       1.075  14.456  -0.738  1.00  0.00     0.049 A 
ATOM     54  C   UNL     1       0.398  13.030  -6.124  1.00  0.00     0.074 A 
ATOM     55  C   UNL     1       0.822  15.776  -0.410  1.00  0.00     0.029 A 
ATOM     56  N   UNL     1       0.838  14.329  -2.099  1.00  0.00    -0.354 N 
ATOM     57  N   UNL     1       0.521  13.509  -4.909  1.00  0.00    -0.248 NA
ATOM     58  C   UNL     1      -0.077  14.008  -7.112  1.00  0.00     0.031 C 
ATOM     59  C   UNL     1       0.404  16.442  -1.568  1.00  0.00     0.029 A 
ATOM     60  C   UNL     1       0.434  15.545  -2.624  1.00  0.00     0.049 A 
ATOM     61  H   UNL     1       0.942  13.498  -2.616  1.00  0.00     0.167 HD
ATOM     62  C   UNL     1       0.163  14.850  -4.992  1.00  0.00     0.074 A 
ATOM     63  C   UNL     1      -0.172  15.108  -6.378  1.00  0.00     0.031 C 
ATOM     64  C   UNL     1       0.116  15.784  -4.010  1.00  0.00     0.037 A 
BRANCH  51  65
ATOM     65  C   UNL     1       1.665  13.666   1.591  1.00  0.00     0.058 A 
ATOM     66  C   UNL     1       2.930  13.734   2.196  1.00  0.00     0.135 A 
ATOM     67  C   UNL     1       0.540  13.892   2.401  1.00  0.00     0.135 A 
ATOM     68  F   UNL     1       4.038  13.510   1.472  1.00  0.00    -0.206 F 
ATOM     69  C   UNL     1       3.074  13.983   3.557  1.00  0.00     0.059 A 
ATOM     70  C   UNL     1       0.662  14.170   3.760  1.00  0.00     0.059 A 
ATOM     71  F   UNL     1      -0.694  13.839   1.875  1.00  0.00    -0.206 F 
ATOM     72  C   UNL     1       1.933  14.196   4.332  1.00  0.00     0.060 A 
BRANCH  72  73
ATOM     73  S   UNL     1       2.135  14.514   6.097  1.00  0.00     0.124 S 
ATOM     74  O   UNL     1       2.450  13.180   6.598  1.00  0.00    -0.237 OA
ATOM     75  O   UNL     1       3.235  15.474   6.119  1.00  0.00    -0.237 OA
ATOM     76  O   UNL     1       0.836  15.045   6.498  1.00  0.00    -0.744 OA
ENDBRANCH  72  73
ENDBRANCH  51  65
BRANCH  52  77
ATOM     77  C   UNL     1       0.460  11.279  -8.048  1.00  0.00     0.058 A 
ATOM     78  C   UNL     1       1.312  11.767  -9.049  1.00  0.00     0.135 A 
ATOM     79  C   UNL     1      -0.585  10.426  -8.435  1.00  0.00     0.135 A 
ATOM     80  F   UNL     1       2.322  12.589  -8.727  1.00  0.00    -0.206 F 
ATOM     81  C   UNL     1       1.129  11.435 -10.387  1.00  0.00     0.059 A 
ATOM     82  C   UNL     1      -0.775  10.061  -9.764  1.00  0.00     0.059 A 
ATOM     83  F   UNL     1      -1.415   9.917  -7.512  1.00  0.00    -0.206 F 
ATOM     84  C   UNL     1       0.083  10.579 -10.735  1.00  0.00     0.060 A 
BRANCH  84  85
ATOM     85  S   UNL     1      -0.114  10.109 -12.468  1.00  0.00     0.124 S 
ATOM     86  O   UNL     1      -0.689  11.322 -13.037  1.00  0.00    -0.237 OA
ATOM     87  O   UNL     1       1.259   9.806 -12.862  1.00  0.00    -0.237 OA
ATOM     88  O   UNL     1      -1.006   8.956 -12.402  1.00  0.00    -0.744 OA
ENDBRANCH  84  85
ENDBRANCH  52  77
BRANCH  64  89
ATOM     89  C   UNL     1      -0.276  17.179  -4.403  1.00  0.00     0.058 A 
ATOM     90  C   UNL     1      -1.606  17.514  -4.701  1.00  0.00     0.135 A 
ATOM     91  C   UNL     1       0.683  18.204  -4.430  1.00  0.00     0.135 A 
ATOM     92  F   UNL     1      -2.558  16.567  -4.695  1.00  0.00    -0.206 F 
ATOM     93  C   UNL     1      -1.969  18.815  -5.031  1.00  0.00     0.059 A 
ATOM     94  C   UNL     1       0.338  19.517  -4.735  1.00  0.00     0.059 A 
ATOM     95  F   UNL     1       1.967  17.937  -4.144  1.00  0.00    -0.206 F 
ATOM     96  C   UNL     1      -0.990  19.810  -5.045  1.00  0.00     0.060 A 
BRANCH  96  97
ATOM     97  S   UNL     1      -1.478  21.503  -5.438  1.00  0.00     0.124 S 
ATOM     98  O   UNL     1      -1.646  21.430  -6.886  1.00  0.00    -0.237 OA
ATOM     99  O   UNL     1      -2.706  21.663  -4.665  1.00  0.00    -0.237 OA
ATOM    100  O   UNL     1      -0.346  22.299  -4.976  1.00  0.00    -0.744 OA
ENDBRANCH  96  97
ENDBRANCH  64  89
ENDBRANCH  38  39
ENDBRANCH  30  33
ENDBRANCH  28  29
ENDBRANCH  27  28
ENDBRANCH   1  27
TORSDOF 19
