REMARK SMILES NS(=O)(=O)c1ccc(-n2nc(C(=O)NCCCNC(=O)c3ccc(-c4c5nc(c(-c6c(F)cc(S(=O)(=O)[O-])cc6F)c6ccc([nH]6)c(-c6c(F)cc(S(=O)(=O)[O-])cc6F)c6nc(c(-c7c(F)cc(S(=O)(=O)[O-])cc7F)c7ccc4[nH]7)C=C6)C=C5)cc3)c(Cl)c2-c2ccc(Cl)cc2)cc1
REMARK SMILES IDX 16 1 15 2 14 3 12 4 13 5 11 7 9 8 10 9 89 10 87 11 88 12
REMARK SMILES IDX 8 13 5 14 6 15 98 16 7 17 97 18 2 19 3 20 4 21 1 22 90 25
REMARK SMILES IDX 91 26 96 27 92 28 95 29 93 30 94 31 17 32 18 33 19 34 20 36
REMARK SMILES IDX 21 37 22 38 86 39 23 40 85 41 24 42 25 43 26 44 79 45 27 46
REMARK SMILES IDX 84 47 78 48 80 49 28 50 83 51 77 52 76 53 29 55 63 56 42 57
REMARK SMILES IDX 62 58 43 59 46 60 61 61 81 62 44 63 45 64 60 66 82 67 47 68
REMARK SMILES IDX 30 69 31 70 40 71 32 72 33 73 39 74 41 75 34 76 35 77 36 78
REMARK SMILES IDX 37 79 38 80 64 81 65 82 74 83 66 84 67 85 73 86 75 87 68 88
REMARK SMILES IDX 69 89 70 90 71 91 72 92 48 93 49 94 58 95 50 96 51 97 57 98
REMARK SMILES IDX 59 99 52 100 53 101 54 102 55 103 56 104
REMARK H PARENT 14 6 1 23 1 24 18 35 80 54 46 65
REMARK Flexibility Score: inf
ROOT
ATOM      1  C   UNL     1       4.901   7.360  -8.635  1.00  0.00     0.042 C 
ENDROOT
BRANCH   1   2
ATOM      2  C   UNL     1       3.466   6.899  -8.919  1.00  0.00     0.118 C 
BRANCH   2   3
ATOM      3  N   UNL     1       3.419   5.574  -9.532  1.00  0.00    -0.351 N 
ATOM      4  C   UNL     1       3.160   4.325  -8.994  1.00  0.00     0.273 C 
ATOM      5  O   UNL     1       3.050   3.387  -9.785  1.00  0.00    -0.267 OA
ATOM      6  H   UNL     1       3.604   5.568 -10.499  1.00  0.00     0.163 HD
BRANCH   4   7
ATOM      7  C   UNL     1       2.939   4.158  -7.549  1.00  0.00     0.169 A 
ATOM      8  N   UNL     1       2.020   3.458  -5.735  1.00  0.00    -0.231 N 
ATOM      9  N   UNL     1       2.016   3.286  -7.080  1.00  0.00    -0.160 NA
ATOM     10  C   UNL     1       2.763   4.564  -5.369  1.00  0.00     0.094 A 
ATOM     11  C   UNL     1       3.614   4.716  -6.447  1.00  0.00     0.100 A 
ATOM     12  Cl  UNL     1       5.165   5.391  -6.328  1.00  0.00    -0.079 Cl
BRANCH   8  13
ATOM     13  C   UNL     1       1.513   2.465  -4.863  1.00  0.00     0.065 A 
ATOM     14  C   UNL     1       0.891   0.533  -2.966  1.00  0.00     0.082 A 
ATOM     15  C   UNL     1       1.582   0.160  -4.122  1.00  0.00     0.024 A 
ATOM     16  C   UNL     1       0.474   1.855  -2.772  1.00  0.00     0.024 A 
ATOM     17  C   UNL     1       1.871   1.125  -5.091  1.00  0.00     0.030 A 
ATOM     18  C   UNL     1       0.805   2.829  -3.713  1.00  0.00     0.030 A 
BRANCH  14  19
ATOM     19  S   UNL     1       0.552  -0.653  -1.701  1.00  0.00     0.238 S 
ATOM     20  O   UNL     1       1.314  -1.864  -1.953  1.00  0.00    -0.207 OA
ATOM     21  O   UNL     1      -0.857  -0.661  -1.430  1.00  0.00    -0.207 OA
BRANCH  19  22
ATOM     22  N   UNL     1       1.286   0.040  -0.354  1.00  0.00    -0.225 NA
ATOM     23  H   UNL     1       1.155  -0.566   0.456  1.00  0.00     0.137 HD
ATOM     24  H   UNL     1       0.866   0.951  -0.168  1.00  0.00     0.137 HD
ENDBRANCH  19  22
ENDBRANCH  14  19
ENDBRANCH   8  13
BRANCH  10  25
ATOM     25  C   UNL     1       2.965   5.167  -4.060  1.00  0.00     0.002 A 
ATOM     26  C   UNL     1       2.514   6.481  -3.866  1.00  0.00     0.012 A 
ATOM     27  C   UNL     1       3.857   4.594  -3.148  1.00  0.00     0.012 A 
ATOM     28  C   UNL     1       2.997   7.237  -2.799  1.00  0.00     0.021 A 
ATOM     29  C   UNL     1       4.342   5.354  -2.083  1.00  0.00     0.021 A 
ATOM     30  C   UNL     1       3.926   6.677  -1.926  1.00  0.00     0.041 A 
ATOM     31  Cl  UNL     1       4.609   7.642  -0.676  1.00  0.00    -0.084 Cl
ENDBRANCH  10  25
ENDBRANCH   4   7
ENDBRANCH   2   3
ENDBRANCH   1   2
BRANCH   1  32
ATOM     32  C   UNL     1       5.546   8.119  -9.763  1.00  0.00     0.118 C 
BRANCH  32  33
ATOM     33  N   UNL     1       5.201   9.543  -9.831  1.00  0.00    -0.352 N 
ATOM     34  C   UNL     1       5.771  10.498 -10.674  1.00  0.00     0.251 C 
ATOM     35  H   UNL     1       4.496   9.856  -9.220  1.00  0.00     0.163 HD
ATOM     36  O   UNL     1       5.670  11.694 -10.430  1.00  0.00    -0.269 OA
BRANCH  34  37
ATOM     37  C   UNL     1       6.514  10.015 -11.857  1.00  0.00     0.039 A 
ATOM     38  C   UNL     1       7.694  10.582 -12.341  1.00  0.00     0.014 A 
ATOM     39  C   UNL     1       6.033   8.847 -12.416  1.00  0.00     0.014 A 
ATOM     40  C   UNL     1       8.396   9.889 -13.331  1.00  0.00     0.010 A 
ATOM     41  C   UNL     1       6.911   8.012 -13.026  1.00  0.00     0.010 A 
ATOM     42  C   UNL     1       7.995   8.582 -13.654  1.00  0.00    -0.014 A 
BRANCH  42  43
ATOM     43  C   UNL     1       8.635   7.749 -14.657  1.00  0.00     0.031 A 
ATOM     44  C   UNL     1      10.092   7.577 -14.501  1.00  0.00     0.074 A 
ATOM     45  C   UNL     1       7.934   7.004 -15.544  1.00  0.00     0.049 A 
ATOM     46  N   UNL     1      11.024   8.169 -15.168  1.00  0.00    -0.248 NA
ATOM     47  C   UNL     1      10.578   6.766 -13.378  1.00  0.00     0.031 C 
ATOM     48  C   UNL     1       6.480   6.782 -15.653  1.00  0.00     0.029 A 
ATOM     49  N   UNL     1       8.420   6.206 -16.527  1.00  0.00    -0.354 N 
ATOM     50  C   UNL     1      12.217   7.623 -14.713  1.00  0.00     0.074 A 
ATOM     51  C   UNL     1      11.898   6.941 -13.485  1.00  0.00     0.031 C 
ATOM     52  C   UNL     1       6.231   5.758 -16.498  1.00  0.00     0.029 A 
ATOM     53  C   UNL     1       7.477   5.393 -17.139  1.00  0.00     0.049 A 
ATOM     54  H   UNL     1       9.370   6.205 -16.787  1.00  0.00     0.167 HD
ATOM     55  C   UNL     1      13.317   7.573 -15.515  1.00  0.00     0.037 A 
ATOM     56  C   UNL     1       7.703   4.492 -18.125  1.00  0.00     0.037 A 
ATOM     57  C   UNL     1      13.142   8.392 -16.693  1.00  0.00     0.049 A 
ATOM     58  C   UNL     1       8.963   4.914 -18.791  1.00  0.00     0.074 A 
ATOM     59  C   UNL     1      12.897   9.735 -16.913  1.00  0.00     0.029 A 
ATOM     60  N   UNL     1      12.794   7.759 -17.866  1.00  0.00    -0.354 N 
ATOM     61  N   UNL     1       9.090   6.036 -19.452  1.00  0.00    -0.248 NA
ATOM     62  C   UNL     1      10.208   4.331 -18.316  1.00  0.00     0.031 C 
ATOM     63  C   UNL     1      11.964   9.769 -17.993  1.00  0.00     0.029 A 
ATOM     64  C   UNL     1      11.743   8.455 -18.413  1.00  0.00     0.049 A 
ATOM     65  H   UNL     1      13.220   6.956 -18.242  1.00  0.00     0.167 HD
ATOM     66  C   UNL     1      10.355   6.508 -19.125  1.00  0.00     0.074 A 
ATOM     67  C   UNL     1      11.026   5.373 -18.492  1.00  0.00     0.031 C 
ATOM     68  C   UNL     1      10.649   7.844 -19.144  1.00  0.00     0.037 A 
BRANCH  55  69
ATOM     69  C   UNL     1      14.400   6.527 -15.421  1.00  0.00     0.058 A 
ATOM     70  C   UNL     1      15.592   6.704 -16.151  1.00  0.00     0.135 A 
ATOM     71  C   UNL     1      14.213   5.244 -14.860  1.00  0.00     0.135 A 
ATOM     72  F   UNL     1      15.871   7.883 -16.730  1.00  0.00    -0.206 F 
ATOM     73  C   UNL     1      16.494   5.663 -16.371  1.00  0.00     0.059 A 
ATOM     74  C   UNL     1      15.127   4.209 -15.017  1.00  0.00     0.059 A 
ATOM     75  F   UNL     1      13.091   4.898 -14.218  1.00  0.00    -0.206 F 
ATOM     76  C   UNL     1      16.241   4.413 -15.814  1.00  0.00     0.060 A 
BRANCH  76  77
ATOM     77  S   UNL     1      17.332   3.035 -16.202  1.00  0.00     0.124 S 
ATOM     78  O   UNL     1      17.028   2.815 -17.611  1.00  0.00    -0.237 OA
ATOM     79  O   UNL     1      18.647   3.598 -15.911  1.00  0.00    -0.237 OA
ATOM     80  O   UNL     1      16.889   1.988 -15.287  1.00  0.00    -0.744 OA
ENDBRANCH  76  77
ENDBRANCH  55  69
BRANCH  56  81
ATOM     81  C   UNL     1       7.108   3.138 -18.250  1.00  0.00     0.058 A 
ATOM     82  C   UNL     1       7.245   2.386 -19.428  1.00  0.00     0.135 A 
ATOM     83  C   UNL     1       6.629   2.441 -17.119  1.00  0.00     0.135 A 
ATOM     84  F   UNL     1       7.710   2.966 -20.546  1.00  0.00    -0.206 F 
ATOM     85  C   UNL     1       6.975   1.013 -19.472  1.00  0.00     0.059 A 
ATOM     86  C   UNL     1       6.348   1.076 -17.140  1.00  0.00     0.059 A 
ATOM     87  F   UNL     1       6.509   3.053 -15.931  1.00  0.00    -0.206 F 
ATOM     88  C   UNL     1       6.547   0.362 -18.315  1.00  0.00     0.060 A 
BRANCH  88  89
ATOM     89  S   UNL     1       6.369  -1.439 -18.321  1.00  0.00     0.124 S 
ATOM     90  O   UNL     1       5.197  -1.622 -19.171  1.00  0.00    -0.237 OA
ATOM     91  O   UNL     1       7.641  -1.872 -18.887  1.00  0.00    -0.237 OA
ATOM     92  O   UNL     1       6.174  -1.766 -16.911  1.00  0.00    -0.744 OA
ENDBRANCH  88  89
ENDBRANCH  56  81
BRANCH  68  93
ATOM     93  C   UNL     1       9.643   8.788 -19.767  1.00  0.00     0.058 A 
ATOM     94  C   UNL     1       8.370   9.050 -19.229  1.00  0.00     0.135 A 
ATOM     95  C   UNL     1      10.047   9.585 -20.847  1.00  0.00     0.135 A 
ATOM     96  F   UNL     1       7.940   8.408 -18.137  1.00  0.00    -0.206 F 
ATOM     97  C   UNL     1       7.528  10.034 -19.753  1.00  0.00     0.059 A 
ATOM     98  C   UNL     1       9.235  10.591 -21.372  1.00  0.00     0.059 A 
ATOM     99  F   UNL     1      11.274   9.432 -21.372  1.00  0.00    -0.206 F 
ATOM    100  C   UNL     1       7.972  10.805 -20.825  1.00  0.00     0.060 A 
BRANCH 100 101
ATOM    101  S   UNL     1       6.921  12.141 -21.439  1.00  0.00     0.124 S 
ATOM    102  O   UNL     1       5.856  11.408 -22.116  1.00  0.00    -0.237 OA
ATOM    103  O   UNL     1       6.533  12.831 -20.212  1.00  0.00    -0.237 OA
ATOM    104  O   UNL     1       7.811  12.900 -22.314  1.00  0.00    -0.744 OA
ENDBRANCH 100 101
ENDBRANCH  68  93
ENDBRANCH  42  43
ENDBRANCH  34  37
ENDBRANCH  32  33
ENDBRANCH   1  32
TORSDOF 17
