REMARK SMILES CC(=O)Nc1ccc2sc(C(=O)NCCCNC(=O)c3ccc(-c4c5nc(c(-c6c(F)cc(S(=O)(=O)[O-])cc6F)c6ccc([nH]6)c(-c6c(F)cc(S(=O)(=O)[O-])cc6F)c6nc(c(-c7c(F)cc(S(=O)(=O)[O-])cc7F)c7ccc4[nH]7)C=C6)C=C5)cc3)cc2c1
REMARK SMILES IDX 16 1 15 2 14 3 13 4 11 5 12 6 10 8 5 9 6 10 88 11 7 12 87 13
REMARK SMILES IDX 8 14 86 15 9 16 4 17 1 18 2 19 3 20 17 22 18 23 19 25 20 26
REMARK SMILES IDX 21 27 85 28 22 29 84 30 23 31 24 32 25 33 78 34 26 35 83 36
REMARK SMILES IDX 77 37 79 38 27 39 82 40 76 41 75 42 28 44 62 45 41 46 61 47
REMARK SMILES IDX 42 48 45 49 60 50 80 51 43 52 44 53 59 55 81 56 46 57 29 58
REMARK SMILES IDX 30 59 39 60 31 61 32 62 38 63 40 64 33 65 34 66 35 67 36 68
REMARK SMILES IDX 37 69 63 70 64 71 73 72 65 73 66 74 72 75 74 76 67 77 68 78
REMARK SMILES IDX 69 79 70 80 71 81 47 82 48 83 57 84 49 85 50 86 56 87 58 88
REMARK SMILES IDX 51 89 52 90 53 91 54 92 55 93
REMARK H PARENT 13 7 4 21 17 24 79 43 45 54
REMARK Flexibility Score: inf
ROOT
ATOM      1  C   UNL     1       6.936   0.740   9.818  1.00  0.00     0.118 C 
ENDROOT
BRANCH   1   2
ATOM      2  C   UNL     1       6.434   0.485   8.396  1.00  0.00     0.042 C 
BRANCH   2   3
ATOM      3  C   UNL     1       5.021  -0.092   8.353  1.00  0.00     0.118 C 
BRANCH   3   4
ATOM      4  N   UNL     1       4.022   0.907   8.686  1.00  0.00    -0.351 N 
ATOM      5  C   UNL     1       3.180   1.683   7.930  1.00  0.00     0.261 C 
ATOM      6  O   UNL     1       2.389   2.373   8.586  1.00  0.00    -0.268 OA
ATOM      7  H   UNL     1       3.929   1.059   9.655  1.00  0.00     0.163 HD
BRANCH   5   8
ATOM      8  C   UNL     1       3.139   1.680   6.474  1.00  0.00     0.093 A 
ATOM      9  C   UNL     1       1.654   1.843   1.939  1.00  0.00     0.041 A 
ATOM     10  C   UNL     1       2.860   1.198   1.687  1.00  0.00     0.027 A 
ATOM     11  C   UNL     1       1.362   2.280   3.237  1.00  0.00     0.035 A 
ATOM     12  C   UNL     1       3.774   0.955   2.718  1.00  0.00     0.022 A 
ATOM     13  C   UNL     1       2.235   1.980   4.311  1.00  0.00    -0.005 A 
ATOM     14  C   UNL     1       3.438   1.340   4.026  1.00  0.00     0.035 A 
ATOM     15  C   UNL     1       2.095   2.193   5.720  1.00  0.00     0.034 A 
ATOM     16  S   UNL     1       4.383   1.145   5.443  1.00  0.00    -0.130 S 
BRANCH   9  17
ATOM     17  N   UNL     1       0.712   2.131   0.939  1.00  0.00    -0.326 N 
ATOM     18  C   UNL     1       0.907   0.067  -0.435  1.00  0.00     0.114 C 
ATOM     19  C   UNL     1       0.417   1.475  -0.223  1.00  0.00     0.221 C 
ATOM     20  O   UNL     1      -0.320   2.017  -1.049  1.00  0.00    -0.275 OA
ATOM     21  H   UNL     1       0.174   2.940   1.102  1.00  0.00     0.169 HD
ENDBRANCH   9  17
ENDBRANCH   5   8
ENDBRANCH   3   4
ENDBRANCH   2   3
ENDBRANCH   1   2
BRANCH   1  22
ATOM     22  N   UNL     1       7.097  -0.497  10.571  1.00  0.00    -0.352 N 
ATOM     23  C   UNL     1       8.216  -1.049  11.138  1.00  0.00     0.251 C 
ATOM     24  H   UNL     1       6.271  -1.019  10.692  1.00  0.00     0.163 HD
ATOM     25  O   UNL     1       8.176  -2.222  11.521  1.00  0.00    -0.269 OA
BRANCH  23  26
ATOM     26  C   UNL     1       9.458  -0.265  11.293  1.00  0.00     0.039 A 
ATOM     27  C   UNL     1      10.687  -0.894  11.072  1.00  0.00     0.014 A 
ATOM     28  C   UNL     1       9.421   1.069  11.705  1.00  0.00     0.014 A 
ATOM     29  C   UNL     1      11.874  -0.171  11.212  1.00  0.00     0.010 A 
ATOM     30  C   UNL     1      10.600   1.809  11.775  1.00  0.00     0.010 A 
ATOM     31  C   UNL     1      11.838   1.195  11.536  1.00  0.00    -0.014 A 
BRANCH  31  32
ATOM     32  C   UNL     1      13.084   1.999  11.631  1.00  0.00     0.031 A 
ATOM     33  C   UNL     1      13.491   2.613  12.943  1.00  0.00     0.074 A 
ATOM     34  C   UNL     1      13.808   2.234  10.520  1.00  0.00     0.049 A 
ATOM     35  N   UNL     1      14.493   3.411  13.206  1.00  0.00    -0.248 NA
ATOM     36  C   UNL     1      12.643   2.311  14.108  1.00  0.00     0.031 C 
ATOM     37  C   UNL     1      13.489   1.732   9.181  1.00  0.00     0.029 A 
ATOM     38  N   UNL     1      14.954   2.966  10.334  1.00  0.00    -0.354 N 
ATOM     39  C   UNL     1      14.386   3.723  14.557  1.00  0.00     0.074 A 
ATOM     40  C   UNL     1      13.194   3.066  15.047  1.00  0.00     0.031 C 
ATOM     41  C   UNL     1      14.426   2.153   8.318  1.00  0.00     0.029 A 
ATOM     42  C   UNL     1      15.391   2.985   9.031  1.00  0.00     0.049 A 
ATOM     43  H   UNL     1      15.419   3.432  11.065  1.00  0.00     0.167 HD
ATOM     44  C   UNL     1      15.217   4.470  15.323  1.00  0.00     0.037 A 
ATOM     45  C   UNL     1      16.445   3.610   8.471  1.00  0.00     0.037 A 
ATOM     46  C   UNL     1      16.417   5.098  14.832  1.00  0.00     0.049 A 
ATOM     47  C   UNL     1      17.357   4.429   9.341  1.00  0.00     0.074 A 
ATOM     48  C   UNL     1      17.359   5.825  15.538  1.00  0.00     0.029 A 
ATOM     49  N   UNL     1      16.839   5.075  13.510  1.00  0.00    -0.354 N 
ATOM     50  N   UNL     1      17.274   4.664  10.629  1.00  0.00    -0.248 NA
ATOM     51  C   UNL     1      18.509   5.062   8.685  1.00  0.00     0.031 C 
ATOM     52  C   UNL     1      18.330   6.276  14.636  1.00  0.00     0.029 A 
ATOM     53  C   UNL     1      18.018   5.790  13.376  1.00  0.00     0.049 A 
ATOM     54  H   UNL     1      16.370   4.617  12.775  1.00  0.00     0.167 HD
ATOM     55  C   UNL     1      18.376   5.452  10.943  1.00  0.00     0.074 A 
ATOM     56  C   UNL     1      19.115   5.644   9.711  1.00  0.00     0.031 C 
ATOM     57  C   UNL     1      18.743   5.968  12.142  1.00  0.00     0.037 A 
BRANCH  44  58
ATOM     58  C   UNL     1      14.855   4.648  16.773  1.00  0.00     0.058 A 
ATOM     59  C   UNL     1      14.929   3.584  17.687  1.00  0.00     0.135 A 
ATOM     60  C   UNL     1      14.447   5.900  17.260  1.00  0.00     0.135 A 
ATOM     61  F   UNL     1      15.301   2.362  17.274  1.00  0.00    -0.206 F 
ATOM     62  C   UNL     1      14.574   3.746  19.023  1.00  0.00     0.059 A 
ATOM     63  C   UNL     1      14.114   6.091  18.598  1.00  0.00     0.059 A 
ATOM     64  F   UNL     1      14.360   6.952  16.431  1.00  0.00    -0.206 F 
ATOM     65  C   UNL     1      14.163   5.003  19.468  1.00  0.00     0.060 A 
BRANCH  65  66
ATOM     66  S   UNL     1      13.693   5.193  21.201  1.00  0.00     0.124 S 
ATOM     67  O   UNL     1      12.392   4.532  21.222  1.00  0.00    -0.237 OA
ATOM     68  O   UNL     1      14.770   4.495  21.896  1.00  0.00    -0.237 OA
ATOM     69  O   UNL     1      13.665   6.640  21.388  1.00  0.00    -0.744 OA
ENDBRANCH  65  66
ENDBRANCH  44  58
BRANCH  45  70
ATOM     70  C   UNL     1      16.705   3.456   7.015  1.00  0.00     0.058 A 
ATOM     71  C   UNL     1      17.781   2.682   6.556  1.00  0.00     0.135 A 
ATOM     72  C   UNL     1      15.868   4.048   6.056  1.00  0.00     0.135 A 
ATOM     73  F   UNL     1      18.612   2.101   7.434  1.00  0.00    -0.206 F 
ATOM     74  C   UNL     1      18.024   2.506   5.198  1.00  0.00     0.059 A 
ATOM     75  C   UNL     1      16.077   3.868   4.693  1.00  0.00     0.059 A 
ATOM     76  F   UNL     1      14.815   4.783   6.445  1.00  0.00    -0.206 F 
ATOM     77  C   UNL     1      17.163   3.100   4.273  1.00  0.00     0.060 A 
BRANCH  77  78
ATOM     78  S   UNL     1      17.450   2.810   2.514  1.00  0.00     0.124 S 
ATOM     79  O   UNL     1      18.621   3.643   2.266  1.00  0.00    -0.237 OA
ATOM     80  O   UNL     1      17.672   1.368   2.472  1.00  0.00    -0.237 OA
ATOM     81  O   UNL     1      16.209   3.263   1.893  1.00  0.00    -0.744 OA
ENDBRANCH  77  78
ENDBRANCH  45  70
BRANCH  57  82
ATOM     82  C   UNL     1      20.017   6.766  12.190  1.00  0.00     0.058 A 
ATOM     83  C   UNL     1      20.097   8.060  11.654  1.00  0.00     0.135 A 
ATOM     84  C   UNL     1      21.156   6.246  12.826  1.00  0.00     0.135 A 
ATOM     85  F   UNL     1      19.039   8.599  11.028  1.00  0.00    -0.206 F 
ATOM     86  C   UNL     1      21.270   8.805  11.729  1.00  0.00     0.059 A 
ATOM     87  C   UNL     1      22.330   6.983  12.936  1.00  0.00     0.059 A 
ATOM     88  F   UNL     1      21.128   5.016  13.364  1.00  0.00    -0.206 F 
ATOM     89  C   UNL     1      22.381   8.258  12.373  1.00  0.00     0.060 A 
BRANCH  89  90
ATOM     90  S   UNL     1      23.886   9.248  12.495  1.00  0.00     0.124 S 
ATOM     91  O   UNL     1      24.403   9.165  11.133  1.00  0.00    -0.237 OA
ATOM     92  O   UNL     1      23.370  10.553  12.900  1.00  0.00    -0.237 OA
ATOM     93  O   UNL     1      24.670   8.550  13.509  1.00  0.00    -0.744 OA
ENDBRANCH  89  90
ENDBRANCH  57  82
ENDBRANCH  31  32
ENDBRANCH  23  26
ENDBRANCH   1  22
TORSDOF 14
