REMARK SMILES Cn1c(C(=O)NCCCNC(=O)c2ccc(-c3c4nc(c(-c5c(F)cc(S(=O)(=O)[O-])cc5F)c5ccc([nH]5)c(-c5c(F)cc(S(=O)(=O)[O-])cc5F)c5nc(c(-c6c(F)cc(S(=O)(=O)[O-])cc6F)c6ccc3[nH]6)C=C5)C=C4)cc2)cc2cc(OCc3ccccc3)ccc21
REMARK SMILES IDX 8 1 7 2 6 3 4 4 5 5 3 7 1 8 2 9 93 10 79 11 80 12 92 13
REMARK SMILES IDX 81 14 91 15 82 16 83 17 84 18 85 19 86 20 90 21 87 22 89 23
REMARK SMILES IDX 88 24 9 25 10 26 11 27 12 29 13 30 14 31 78 32 15 33 77 34
REMARK SMILES IDX 16 35 17 36 18 37 71 38 19 39 76 40 70 41 72 42 20 43 75 44
REMARK SMILES IDX 69 45 68 46 21 48 55 49 34 50 54 51 35 52 38 53 53 54 73 55
REMARK SMILES IDX 36 56 37 57 52 59 74 60 39 61 22 62 23 63 32 64 24 65 25 66
REMARK SMILES IDX 31 67 33 68 26 69 27 70 28 71 29 72 30 73 56 74 57 75 66 76
REMARK SMILES IDX 58 77 59 78 65 79 67 80 60 81 61 82 62 83 63 84 64 85 40 86
REMARK SMILES IDX 41 87 50 88 42 89 43 90 49 91 51 92 44 93 45 94 46 95 47 96
REMARK SMILES IDX 48 97
REMARK H PARENT 6 6 10 28 72 47 38 58
REMARK Flexibility Score: inf
ROOT
ATOM      1  C   UNL     1       5.161   1.307   1.715  1.00  0.00     0.042 C 
ENDROOT
BRANCH   1   2
ATOM      2  C   UNL     1       4.235   0.912   0.588  1.00  0.00     0.118 C 
BRANCH   2   3
ATOM      3  N   UNL     1       4.252  -0.480   0.204  1.00  0.00    -0.351 N 
ATOM      4  C   UNL     1       3.225  -1.286  -0.232  1.00  0.00     0.267 C 
ATOM      5  O   UNL     1       3.525  -2.449  -0.498  1.00  0.00    -0.268 OA
ATOM      6  H   UNL     1       5.131  -0.918   0.262  1.00  0.00     0.163 HD
BRANCH   4   7
ATOM      7  C   UNL     1       1.850  -0.812  -0.296  1.00  0.00     0.107 A 
ATOM      8  C   UNL     1       1.986   1.542  -1.270  1.00  0.00     0.150 C 
ATOM      9  N   UNL     1       1.333   0.429  -0.611  1.00  0.00    -0.340 N 
ATOM     10  C   UNL     1      -0.022   0.468  -0.349  1.00  0.00     0.049 A 
ATOM     11  C   UNL     1       0.733  -1.631  -0.117  1.00  0.00     0.042 A 
ATOM     12  C   UNL     1      -0.443  -0.837  -0.135  1.00  0.00     0.004 A 
ATOM     13  C   UNL     1      -0.902   1.550  -0.353  1.00  0.00     0.031 A 
ATOM     14  C   UNL     1      -1.823  -1.088   0.021  1.00  0.00     0.056 A 
ATOM     15  C   UNL     1      -2.259   1.277  -0.211  1.00  0.00     0.048 A 
ATOM     16  C   UNL     1      -2.733  -0.019  -0.028  1.00  0.00     0.120 A 
BRANCH  16  17
ATOM     17  O   UNL     1      -4.052  -0.360   0.136  1.00  0.00    -0.489 OA
BRANCH  17  18
ATOM     18  C   UNL     1      -5.035   0.684   0.051  1.00  0.00     0.265 C 
BRANCH  18  19
ATOM     19  C   UNL     1      -5.063   1.571   1.278  1.00  0.00    -0.011 A 
ATOM     20  C   UNL     1      -5.154   1.006   2.556  1.00  0.00     0.007 A 
ATOM     21  C   UNL     1      -4.942   2.966   1.159  1.00  0.00     0.007 A 
ATOM     22  C   UNL     1      -5.075   1.813   3.691  1.00  0.00     0.000 A 
ATOM     23  C   UNL     1      -4.837   3.768   2.296  1.00  0.00     0.000 A 
ATOM     24  C   UNL     1      -4.901   3.190   3.561  1.00  0.00     0.000 A 
ENDBRANCH  18  19
ENDBRANCH  17  18
ENDBRANCH  16  17
ENDBRANCH   4   7
ENDBRANCH   2   3
ENDBRANCH   1   2
BRANCH   1  25
ATOM     25  C   UNL     1       6.639   1.130   1.429  1.00  0.00     0.118 C 
BRANCH  25  26
ATOM     26  N   UNL     1       7.138   1.940   0.322  1.00  0.00    -0.352 N 
ATOM     27  C   UNL     1       7.978   3.033   0.294  1.00  0.00     0.251 C 
ATOM     28  H   UNL     1       6.818   1.655  -0.564  1.00  0.00     0.163 HD
ATOM     29  O   UNL     1       8.159   3.617  -0.772  1.00  0.00    -0.269 OA
BRANCH  27  30
ATOM     30  C   UNL     1       8.626   3.533   1.529  1.00  0.00     0.039 A 
ATOM     31  C   UNL     1       8.802   4.909   1.706  1.00  0.00     0.014 A 
ATOM     32  C   UNL     1       9.062   2.658   2.521  1.00  0.00     0.014 A 
ATOM     33  C   UNL     1       9.326   5.395   2.908  1.00  0.00     0.010 A 
ATOM     34  C   UNL     1       9.426   3.145   3.769  1.00  0.00     0.010 A 
ATOM     35  C   UNL     1       9.596   4.519   3.972  1.00  0.00    -0.014 A 
BRANCH  35  36
ATOM     36  C   UNL     1      10.106   5.000   5.283  1.00  0.00     0.031 A 
ATOM     37  C   UNL     1      11.416   4.473   5.819  1.00  0.00     0.074 A 
ATOM     38  C   UNL     1       9.368   5.855   6.020  1.00  0.00     0.049 A 
ATOM     39  N   UNL     1      11.997   4.713   6.966  1.00  0.00    -0.248 NA
ATOM     40  C   UNL     1      12.149   3.515   4.973  1.00  0.00     0.031 C 
ATOM     41  C   UNL     1       8.053   6.382   5.646  1.00  0.00     0.029 A 
ATOM     42  N   UNL     1       9.616   6.429   7.242  1.00  0.00    -0.354 N 
ATOM     43  C   UNL     1      13.143   3.924   6.983  1.00  0.00     0.074 A 
ATOM     44  C   UNL     1      13.133   3.137   5.772  1.00  0.00     0.031 C 
ATOM     45  C   UNL     1       7.632   7.233   6.596  1.00  0.00     0.029 A 
ATOM     46  C   UNL     1       8.623   7.280   7.666  1.00  0.00     0.049 A 
ATOM     47  H   UNL     1      10.430   6.249   7.766  1.00  0.00     0.167 HD
ATOM     48  C   UNL     1      14.136   3.885   7.903  1.00  0.00     0.037 A 
ATOM     49  C   UNL     1       8.523   8.017   8.790  1.00  0.00     0.037 A 
ATOM     50  C   UNL     1      14.159   4.702   9.086  1.00  0.00     0.049 A 
ATOM     51  C   UNL     1       9.648   7.975   9.789  1.00  0.00     0.074 A 
ATOM     52  C   UNL     1      15.144   4.790  10.053  1.00  0.00     0.029 A 
ATOM     53  N   UNL     1      13.150   5.578   9.461  1.00  0.00    -0.354 N 
ATOM     54  N   UNL     1      10.757   7.274   9.754  1.00  0.00    -0.248 NA
ATOM     55  C   UNL     1       9.517   8.835  10.972  1.00  0.00     0.031 C 
ATOM     56  C   UNL     1      14.710   5.682  11.038  1.00  0.00     0.029 A 
ATOM     57  C   UNL     1      13.482   6.198  10.654  1.00  0.00     0.049 A 
ATOM     58  H   UNL     1      12.322   5.736   8.954  1.00  0.00     0.167 HD
ATOM     59  C   UNL     1      11.471   7.634  10.892  1.00  0.00     0.074 A 
ATOM     60  C   UNL     1      10.673   8.626  11.585  1.00  0.00     0.031 C 
ATOM     61  C   UNL     1      12.678   7.189  11.324  1.00  0.00     0.037 A 
BRANCH  48  62
ATOM     62  C   UNL     1      15.282   2.940   7.655  1.00  0.00     0.058 A 
ATOM     63  C   UNL     1      16.189   3.136   6.599  1.00  0.00     0.135 A 
ATOM     64  C   UNL     1      15.493   1.836   8.497  1.00  0.00     0.135 A 
ATOM     65  F   UNL     1      16.026   4.163   5.749  1.00  0.00    -0.206 F 
ATOM     66  C   UNL     1      17.241   2.256   6.367  1.00  0.00     0.059 A 
ATOM     67  C   UNL     1      16.560   0.962   8.305  1.00  0.00     0.059 A 
ATOM     68  F   UNL     1      14.658   1.596   9.520  1.00  0.00    -0.206 F 
ATOM     69  C   UNL     1      17.419   1.172   7.228  1.00  0.00     0.060 A 
BRANCH  69  70
ATOM     70  S   UNL     1      18.796   0.047   6.918  1.00  0.00     0.124 S 
ATOM     71  O   UNL     1      18.339  -0.649   5.719  1.00  0.00    -0.237 OA
ATOM     72  O   UNL     1      19.913   0.967   6.730  1.00  0.00    -0.237 OA
ATOM     73  O   UNL     1      18.852  -0.764   8.130  1.00  0.00    -0.744 OA
ENDBRANCH  69  70
ENDBRANCH  48  62
BRANCH  49  74
ATOM     74  C   UNL     1       7.333   8.885   9.011  1.00  0.00     0.058 A 
ATOM     75  C   UNL     1       7.441  10.283   8.972  1.00  0.00     0.135 A 
ATOM     76  C   UNL     1       6.064   8.336   9.255  1.00  0.00     0.135 A 
ATOM     77  F   UNL     1       8.632  10.858   8.746  1.00  0.00    -0.206 F 
ATOM     78  C   UNL     1       6.341  11.108   9.189  1.00  0.00     0.059 A 
ATOM     79  C   UNL     1       4.944   9.139   9.445  1.00  0.00     0.059 A 
ATOM     80  F   UNL     1       5.901   7.004   9.283  1.00  0.00    -0.206 F 
ATOM     81  C   UNL     1       5.095  10.525   9.422  1.00  0.00     0.060 A 
BRANCH  81  82
ATOM     82  S   UNL     1       3.665  11.604   9.657  1.00  0.00     0.124 S 
ATOM     83  O   UNL     1       3.928  12.157  10.980  1.00  0.00    -0.237 OA
ATOM     84  O   UNL     1       3.796  12.532   8.538  1.00  0.00    -0.237 OA
ATOM     85  O   UNL     1       2.534  10.685   9.570  1.00  0.00    -0.744 OA
ENDBRANCH  81  82
ENDBRANCH  49  74
BRANCH  61  86
ATOM     86  C   UNL     1      13.232   7.807  12.579  1.00  0.00     0.058 A 
ATOM     87  C   UNL     1      12.676   7.554  13.842  1.00  0.00     0.135 A 
ATOM     88  C   UNL     1      14.361   8.641  12.515  1.00  0.00     0.135 A 
ATOM     89  F   UNL     1      11.596   6.765  13.959  1.00  0.00    -0.206 F 
ATOM     90  C   UNL     1      13.193   8.139  14.993  1.00  0.00     0.059 A 
ATOM     91  C   UNL     1      14.916   9.209  13.656  1.00  0.00     0.059 A 
ATOM     92  F   UNL     1      14.943   8.904  11.334  1.00  0.00    -0.206 F 
ATOM     93  C   UNL     1      14.312   8.967  14.889  1.00  0.00     0.060 A 
BRANCH  93  94
ATOM     94  S   UNL     1      14.977   9.715  16.391  1.00  0.00     0.124 S 
ATOM     95  O   UNL     1      13.974  10.735  16.678  1.00  0.00    -0.237 OA
ATOM     96  O   UNL     1      15.014   8.584  17.313  1.00  0.00    -0.237 OA
ATOM     97  O   UNL     1      16.282  10.218  15.971  1.00  0.00    -0.744 OA
ENDBRANCH  93  94
ENDBRANCH  61  86
ENDBRANCH  35  36
ENDBRANCH  27  30
ENDBRANCH  25  26
ENDBRANCH   1  25
TORSDOF 16
