REMARK SMILES NS(=O)(=O)c1ccc(N2N=C(C(=O)NCCCNC(=O)c3ccc(-c4c5nc(c(-c6c(F)cc(S(=O)(=O)[O-])cc6F)c6ccc([nH]6)c(-c6c(F)cc(S(=O)(=O)[O-])cc6F)c6nc(c(-c7c(F)cc(S(=O)(=O)[O-])cc7F)c7ccc4[nH]7)C=C6)C=C5)cc3)C[C@H]2c2ccco2)cc1
REMARK SMILES IDX 16 1 15 2 14 3 12 4 13 5 11 7 9 8 10 9 88 10 87 11 8 12 5 13
REMARK SMILES IDX 6 14 95 15 7 16 94 17 2 18 3 19 4 20 1 21 89 24 90 25 93 26
REMARK SMILES IDX 91 27 92 28 17 29 18 30 19 31 20 33 21 34 22 35 86 36 23 37
REMARK SMILES IDX 85 38 24 39 25 40 26 41 79 42 27 43 84 44 78 45 80 46 28 47
REMARK SMILES IDX 83 48 77 49 76 50 29 52 63 53 42 54 62 55 43 56 46 57 61 58
REMARK SMILES IDX 81 59 44 60 45 61 60 63 82 64 47 65 30 66 31 67 40 68 32 69
REMARK SMILES IDX 33 70 39 71 41 72 34 73 35 74 36 75 37 76 38 77 64 78 65 79
REMARK SMILES IDX 74 80 66 81 67 82 73 83 75 84 68 85 69 86 70 87 71 88 72 89
REMARK SMILES IDX 48 90 49 91 58 92 50 93 51 94 57 95 59 96 52 97 53 98 54 99
REMARK SMILES IDX 55 100 56 101
REMARK H PARENT 14 6 1 22 1 23 18 32 80 51 46 62
REMARK Flexibility Score: inf
ROOT
ATOM      1  C   UNL     1       3.413  -8.898  -8.723  1.00  0.00     0.042 C 
ENDROOT
BRANCH   1   2
ATOM      2  C   UNL     1       3.039  -7.423  -8.785  1.00  0.00     0.118 C 
BRANCH   2   3
ATOM      3  N   UNL     1       1.663  -7.204  -8.377  1.00  0.00    -0.351 N 
ATOM      4  C   UNL     1       1.055  -6.662  -7.275  1.00  0.00     0.267 C 
ATOM      5  O   UNL     1      -0.172  -6.727  -7.219  1.00  0.00    -0.268 OA
ATOM      6  H   UNL     1       1.016  -7.519  -9.048  1.00  0.00     0.163 HD
BRANCH   4   7
ATOM      7  C   UNL     1       1.792  -5.941  -6.159  1.00  0.00     0.128 C 
ATOM      8  N   UNL     1       2.066  -4.631  -4.503  1.00  0.00    -0.254 N 
ATOM      9  N   UNL     1       1.137  -5.272  -5.256  1.00  0.00    -0.171 NA
ATOM     10  C   UNL     1       3.446  -5.027  -4.786  1.00  0.00     0.180 C 
ATOM     11  C   UNL     1       3.276  -5.907  -6.029  1.00  0.00     0.099 C 
BRANCH   8  12
ATOM     12  C   UNL     1       1.684  -3.937  -3.366  1.00  0.00     0.060 A 
ATOM     13  C   UNL     1       0.935  -2.485  -1.083  1.00  0.00     0.082 A 
ATOM     14  C   UNL     1       0.610  -3.841  -1.183  1.00  0.00     0.024 A 
ATOM     15  C   UNL     1       1.616  -1.845  -2.117  1.00  0.00     0.024 A 
ATOM     16  C   UNL     1       0.974  -4.555  -2.329  1.00  0.00     0.029 A 
ATOM     17  C   UNL     1       1.983  -2.573  -3.247  1.00  0.00     0.029 A 
BRANCH  13  18
ATOM     18  S   UNL     1       0.471  -1.611   0.378  1.00  0.00     0.238 S 
ATOM     19  O   UNL     1       1.143  -2.209   1.506  1.00  0.00    -0.207 OA
ATOM     20  O   UNL     1      -0.954  -1.376   0.347  1.00  0.00    -0.207 OA
BRANCH  18  21
ATOM     21  N   UNL     1       1.175  -0.090   0.207  1.00  0.00    -0.225 NA
ATOM     22  H   UNL     1       0.951   0.482   1.021  1.00  0.00     0.137 HD
ATOM     23  H   UNL     1       0.815   0.359  -0.635  1.00  0.00     0.137 HD
ENDBRANCH  18  21
ENDBRANCH  13  18
ENDBRANCH   8  12
BRANCH  10  24
ATOM     24  C   UNL     1       4.448  -3.926  -4.992  1.00  0.00     0.128 A 
ATOM     25  C   UNL     1       5.231  -3.195  -4.118  1.00  0.00     0.048 A 
ATOM     26  O   UNL     1       4.680  -3.497  -6.270  1.00  0.00    -0.467 OA
ATOM     27  C   UNL     1       5.969  -2.277  -4.904  1.00  0.00     0.042 A 
ATOM     28  C   UNL     1       5.609  -2.514  -6.208  1.00  0.00     0.195 A 
ENDBRANCH  10  24
ENDBRANCH   4   7
ENDBRANCH   2   3
ENDBRANCH   1   2
BRANCH   1  29
ATOM     29  C   UNL     1       2.744  -9.733  -9.808  1.00  0.00     0.118 C 
BRANCH  29  30
ATOM     30  N   UNL     1       3.175  -9.342 -11.145  1.00  0.00    -0.352 N 
ATOM     31  C   UNL     1       3.906 -10.031 -12.081  1.00  0.00     0.251 C 
ATOM     32  H   UNL     1       2.897  -8.439 -11.420  1.00  0.00     0.163 HD
ATOM     33  O   UNL     1       4.368  -9.424 -13.043  1.00  0.00    -0.269 OA
BRANCH  31  34
ATOM     34  C   UNL     1       4.147 -11.482 -11.932  1.00  0.00     0.039 A 
ATOM     35  C   UNL     1       5.393 -12.002 -12.295  1.00  0.00     0.014 A 
ATOM     36  C   UNL     1       3.142 -12.338 -11.476  1.00  0.00     0.014 A 
ATOM     37  C   UNL     1       5.647 -13.366 -12.139  1.00  0.00     0.010 A 
ATOM     38  C   UNL     1       3.424 -13.680 -11.239  1.00  0.00     0.010 A 
ATOM     39  C   UNL     1       4.677 -14.210 -11.575  1.00  0.00    -0.014 A 
BRANCH  39  40
ATOM     40  C   UNL     1       4.953 -15.649 -11.331  1.00  0.00     0.031 A 
ATOM     41  C   UNL     1       4.148 -16.707 -12.037  1.00  0.00     0.074 A 
ATOM     42  C   UNL     1       5.885 -15.999 -10.422  1.00  0.00     0.049 A 
ATOM     43  N   UNL     1       4.198 -18.007 -11.904  1.00  0.00    -0.248 NA
ATOM     44  C   UNL     1       3.131 -16.242 -12.996  1.00  0.00     0.031 C 
ATOM     45  C   UNL     1       6.686 -15.064  -9.628  1.00  0.00     0.029 A 
ATOM     46  N   UNL     1       6.309 -17.234 -10.003  1.00  0.00    -0.354 N 
ATOM     47  C   UNL     1       3.212 -18.513 -12.744  1.00  0.00     0.074 A 
ATOM     48  C   UNL     1       2.545 -17.379 -13.344  1.00  0.00     0.031 C 
ATOM     49  C   UNL     1       7.520 -15.758  -8.837  1.00  0.00     0.029 A 
ATOM     50  C   UNL     1       7.289 -17.185  -9.040  1.00  0.00     0.049 A 
ATOM     51  H   UNL     1       5.945 -18.078 -10.358  1.00  0.00     0.167 HD
ATOM     52  C   UNL     1       2.907 -19.806 -13.009  1.00  0.00     0.037 A 
ATOM     53  C   UNL     1       7.928 -18.177  -8.391  1.00  0.00     0.037 A 
ATOM     54  C   UNL     1       3.601 -20.930 -12.436  1.00  0.00     0.049 A 
ATOM     55  C   UNL     1       7.592 -19.604  -8.724  1.00  0.00     0.074 A 
ATOM     56  C   UNL     1       3.416 -22.277 -12.693  1.00  0.00     0.029 A 
ATOM     57  N   UNL     1       4.615 -20.839 -11.494  1.00  0.00    -0.354 N 
ATOM     58  N   UNL     1       6.704 -20.064  -9.573  1.00  0.00    -0.248 NA
ATOM     59  C   UNL     1       8.349 -20.648  -8.020  1.00  0.00     0.031 C 
ATOM     60  C   UNL     1       4.294 -23.002 -11.880  1.00  0.00     0.029 A 
ATOM     61  C   UNL     1       5.055 -22.105 -11.148  1.00  0.00     0.049 A 
ATOM     62  H   UNL     1       4.969 -19.997 -11.126  1.00  0.00     0.167 HD
ATOM     63  C   UNL     1       6.811 -21.449  -9.522  1.00  0.00     0.074 A 
ATOM     64  C   UNL     1       7.861 -21.751  -8.570  1.00  0.00     0.031 C 
ATOM     65  C   UNL     1       6.106 -22.386 -10.202  1.00  0.00     0.037 A 
BRANCH  52  66
ATOM     66  C   UNL     1       1.783 -20.076 -13.971  1.00  0.00     0.058 A 
ATOM     67  C   UNL     1       1.915 -19.822 -15.346  1.00  0.00     0.135 A 
ATOM     68  C   UNL     1       0.576 -20.636 -13.522  1.00  0.00     0.135 A 
ATOM     69  F   UNL     1       3.041 -19.273 -15.827  1.00  0.00    -0.206 F 
ATOM     70  C   UNL     1       0.880 -20.087 -16.237  1.00  0.00     0.059 A 
ATOM     71  C   UNL     1      -0.462 -20.934 -14.400  1.00  0.00     0.059 A 
ATOM     72  F   UNL     1       0.396 -20.899 -12.218  1.00  0.00    -0.206 F 
ATOM     73  C   UNL     1      -0.305 -20.644 -15.755  1.00  0.00     0.060 A 
BRANCH  73  74
ATOM     74  S   UNL     1      -1.633 -20.994 -16.927  1.00  0.00     0.124 S 
ATOM     75  O   UNL     1      -2.134 -19.652 -17.207  1.00  0.00    -0.237 OA
ATOM     76  O   UNL     1      -0.920 -21.645 -18.021  1.00  0.00    -0.237 OA
ATOM     77  O   UNL     1      -2.535 -21.856 -16.171  1.00  0.00    -0.744 OA
ENDBRANCH  73  74
ENDBRANCH  52  66
BRANCH  53  78
ATOM     78  C   UNL     1       8.969 -17.853  -7.380  1.00  0.00     0.058 A 
ATOM     79  C   UNL     1      10.327 -18.085  -7.645  1.00  0.00     0.135 A 
ATOM     80  C   UNL     1       8.632 -17.290  -6.140  1.00  0.00     0.135 A 
ATOM     81  F   UNL     1      10.699 -18.624  -8.816  1.00  0.00    -0.206 F 
ATOM     82  C   UNL     1      11.313 -17.789  -6.710  1.00  0.00     0.059 A 
ATOM     83  C   UNL     1       9.602 -16.963  -5.198  1.00  0.00     0.059 A 
ATOM     84  F   UNL     1       7.348 -17.029  -5.846  1.00  0.00    -0.206 F 
ATOM     85  C   UNL     1      10.940 -17.226  -5.488  1.00  0.00     0.060 A 
BRANCH  85  86
ATOM     86  S   UNL     1      12.230 -16.798  -4.300  1.00  0.00     0.124 S 
ATOM     87  O   UNL     1      12.597 -18.110  -3.780  1.00  0.00    -0.237 OA
ATOM     88  O   UNL     1      13.224 -16.145  -5.146  1.00  0.00    -0.237 OA
ATOM     89  O   UNL     1      11.541 -15.916  -3.362  1.00  0.00    -0.744 OA
ENDBRANCH  85  86
ENDBRANCH  53  78
BRANCH  65  90
ATOM     90  C   UNL     1       6.465 -23.825  -9.964  1.00  0.00     0.058 A 
ATOM     91  C   UNL     1       6.115 -24.485  -8.776  1.00  0.00     0.135 A 
ATOM     92  C   UNL     1       7.127 -24.566 -10.957  1.00  0.00     0.135 A 
ATOM     93  F   UNL     1       5.487 -23.819  -7.794  1.00  0.00    -0.206 F 
ATOM     94  C   UNL     1       6.430 -25.823  -8.570  1.00  0.00     0.059 A 
ATOM     95  C   UNL     1       7.429 -25.912 -10.783  1.00  0.00     0.059 A 
ATOM     96  F   UNL     1       7.474 -23.984 -12.116  1.00  0.00    -0.206 F 
ATOM     97  C   UNL     1       7.087 -26.529  -9.580  1.00  0.00     0.060 A 
BRANCH  97  98
ATOM     98  S   UNL     1       7.465 -28.274  -9.313  1.00  0.00     0.124 S 
ATOM     99  O   UNL     1       8.600 -28.192  -8.400  1.00  0.00    -0.237 OA
ATOM    100  O   UNL     1       6.222 -28.779  -8.737  1.00  0.00    -0.237 OA
ATOM    101  O   UNL     1       7.771 -28.764 -10.654  1.00  0.00    -0.744 OA
ENDBRANCH  97  98
ENDBRANCH  65  90
ENDBRANCH  39  40
ENDBRANCH  31  34
ENDBRANCH  29  30
ENDBRANCH   1  29
TORSDOF 17
