REMARK SMILES O=C(NCCCNC(=O)c1ccc(-c2c3nc(c(-c4c(F)cc(S(=O)(=O)[O-])cc4F)c4ccc([nH]4)c(-c4c(F)cc(S(=O)(=O)[O-])cc4F)c4nc(c(-c5c(F)cc(S(=O)(=O)[O-])cc5F)c5ccc2[nH]5)C=C4)C=C3)cc1)C1=Cc2cc(Cl)c(Cl)cc2O[C@@H]1C(F)(F)F
REMARK SMILES IDX 6 1 5 2 4 3 3 4 1 5 2 6 76 8 77 9 87 10 78 11 86 12 79 13
REMARK SMILES IDX 85 14 80 15 84 16 81 17 82 18 83 19 88 20 89 21 90 22 91 23
REMARK SMILES IDX 7 24 8 25 9 27 10 28 11 29 75 30 12 31 74 32 13 33 14 34
REMARK SMILES IDX 15 35 68 36 16 37 73 38 67 39 69 40 17 41 72 42 66 43 65 44
REMARK SMILES IDX 18 46 52 47 31 48 51 49 32 50 35 51 50 52 70 53 33 54 34 55
REMARK SMILES IDX 49 57 71 58 36 59 19 60 20 61 29 62 21 63 22 64 28 65 30 66
REMARK SMILES IDX 23 67 24 68 25 69 26 70 27 71 53 72 54 73 63 74 55 75 56 76
REMARK SMILES IDX 62 77 64 78 57 79 58 80 59 81 60 82 61 83 37 84 38 85 47 86
REMARK SMILES IDX 39 87 40 88 46 89 48 90 41 91 42 92 43 93 44 94 45 95
REMARK H PARENT 3 7 7 26 69 45 35 56
REMARK Flexibility Score: inf
ROOT
ATOM      1  C   UNL     1       4.193  -0.753   3.921  1.00  0.00     0.118 C 
ENDROOT
BRANCH   1   2
ATOM      2  C   UNL     1       4.269   0.070   2.642  1.00  0.00     0.042 C 
BRANCH   2   3
ATOM      3  C   UNL     1       3.422  -0.522   1.522  1.00  0.00     0.118 C 
BRANCH   3   4
ATOM      4  N   UNL     1       2.418   0.407   1.000  1.00  0.00    -0.352 N 
ATOM      5  O   UNL     1       1.243   1.508  -0.602  1.00  0.00    -0.270 OA
ATOM      6  C   UNL     1       2.257   0.912  -0.267  1.00  0.00     0.251 C 
ATOM      7  H   UNL     1       1.755   0.717   1.659  1.00  0.00     0.163 HD
BRANCH   6   8
ATOM      8  C   UNL     1       3.340   0.645  -1.230  1.00  0.00     0.067 C 
ATOM      9  C   UNL     1       4.516   1.237  -0.986  1.00  0.00     0.025 C 
ATOM     10  C   UNL     1       3.185  -0.550  -2.118  1.00  0.00     0.314 C 
ATOM     11  C   UNL     1       5.657   0.322  -1.086  1.00  0.00     0.019 A 
ATOM     12  O   UNL     1       4.267  -1.503  -1.955  1.00  0.00    -0.475 OA
ATOM     13  C   UNL     1       6.833   0.691  -0.423  1.00  0.00     0.034 A 
ATOM     14  C   UNL     1       5.438  -1.027  -1.418  1.00  0.00     0.129 A 
ATOM     15  C   UNL     1       7.714  -0.295   0.028  1.00  0.00     0.060 A 
ATOM     16  C   UNL     1       6.340  -2.005  -1.002  1.00  0.00     0.069 A 
ATOM     17  Cl  UNL     1       9.030   0.216   1.022  1.00  0.00    -0.083 Cl
ATOM     18  C   UNL     1       7.453  -1.645  -0.239  1.00  0.00     0.063 A 
ATOM     19  Cl  UNL     1       8.407  -2.919   0.430  1.00  0.00    -0.083 Cl
BRANCH  10  20
ATOM     20  C   UNL     1       3.037  -0.143  -3.591  1.00  0.00     0.429 C 
ATOM     21  F   UNL     1       2.730  -1.217  -4.362  1.00  0.00    -0.167 F 
ATOM     22  F   UNL     1       2.046   0.760  -3.773  1.00  0.00    -0.167 F 
ATOM     23  F   UNL     1       4.172   0.397  -4.094  1.00  0.00    -0.167 F 
ENDBRANCH  10  20
ENDBRANCH   6   8
ENDBRANCH   3   4
ENDBRANCH   2   3
ENDBRANCH   1   2
BRANCH   1  24
ATOM     24  N   UNL     1       4.761  -2.091   3.800  1.00  0.00    -0.352 N 
ATOM     25  C   UNL     1       5.562  -2.791   4.676  1.00  0.00     0.251 C 
ATOM     26  H   UNL     1       4.537  -2.567   2.967  1.00  0.00     0.163 HD
ATOM     27  O   UNL     1       5.981  -3.900   4.351  1.00  0.00    -0.269 OA
BRANCH  25  28
ATOM     28  C   UNL     1       5.947  -2.203   5.981  1.00  0.00     0.039 A 
ATOM     29  C   UNL     1       7.243  -2.404   6.467  1.00  0.00     0.014 A 
ATOM     30  C   UNL     1       5.042  -1.444   6.722  1.00  0.00     0.014 A 
ATOM     31  C   UNL     1       7.641  -1.789   7.659  1.00  0.00     0.010 A 
ATOM     32  C   UNL     1       5.478  -0.727   7.827  1.00  0.00     0.010 A 
ATOM     33  C   UNL     1       6.771  -0.916   8.332  1.00  0.00    -0.014 A 
BRANCH  33  34
ATOM     34  C   UNL     1       7.158  -0.238   9.597  1.00  0.00     0.031 A 
ATOM     35  C   UNL     1       6.334  -0.462  10.842  1.00  0.00     0.074 A 
ATOM     36  C   UNL     1       8.189   0.629   9.612  1.00  0.00     0.049 A 
ATOM     37  N   UNL     1       6.438   0.101  12.018  1.00  0.00    -0.248 NA
ATOM     38  C   UNL     1       5.207  -1.405  10.735  1.00  0.00     0.031 C 
ATOM     39  C   UNL     1       9.009   0.995   8.454  1.00  0.00     0.029 A 
ATOM     40  N   UNL     1       8.720   1.369  10.638  1.00  0.00    -0.354 N 
ATOM     41  C   UNL     1       5.372  -0.388  12.767  1.00  0.00     0.074 A 
ATOM     42  C   UNL     1       4.591  -1.231  11.893  1.00  0.00     0.031 C 
ATOM     43  C   UNL     1       9.962   1.858   8.843  1.00  0.00     0.029 A 
ATOM     44  C   UNL     1       9.802   2.133  10.267  1.00  0.00     0.049 A 
ATOM     45  H   UNL     1       8.360   1.355  11.554  1.00  0.00     0.167 HD
ATOM     46  C   UNL     1       5.091  -0.189  14.077  1.00  0.00     0.037 A 
ATOM     47  C   UNL     1      10.581   2.954  10.998  1.00  0.00     0.037 A 
ATOM     48  C   UNL     1       5.917   0.594  14.956  1.00  0.00     0.049 A 
ATOM     49  C   UNL     1      10.302   3.096  12.470  1.00  0.00     0.074 A 
ATOM     50  C   UNL     1       5.781   0.795  16.317  1.00  0.00     0.029 A 
ATOM     51  N   UNL     1       7.049   1.292  14.558  1.00  0.00    -0.354 N 
ATOM     52  N   UNL     1       9.330   2.571  13.179  1.00  0.00    -0.248 NA
ATOM     53  C   UNL     1      11.234   3.924  13.245  1.00  0.00     0.031 C 
ATOM     54  C   UNL     1       6.812   1.643  16.737  1.00  0.00     0.029 A 
ATOM     55  C   UNL     1       7.617   1.931  15.646  1.00  0.00     0.049 A 
ATOM     56  H   UNL     1       7.396   1.328  13.637  1.00  0.00     0.167 HD
ATOM     57  C   UNL     1       9.549   2.984  14.489  1.00  0.00     0.074 A 
ATOM     58  C   UNL     1      10.755   3.788  14.473  1.00  0.00     0.031 C 
ATOM     59  C   UNL     1       8.822   2.722  15.604  1.00  0.00     0.037 A 
BRANCH  46  60
ATOM     60  C   UNL     1       3.854  -0.845  14.632  1.00  0.00     0.058 A 
ATOM     61  C   UNL     1       3.750  -2.241  14.760  1.00  0.00     0.135 A 
ATOM     62  C   UNL     1       2.758  -0.071  15.043  1.00  0.00     0.135 A 
ATOM     63  F   UNL     1       4.760  -3.034  14.367  1.00  0.00    -0.206 F 
ATOM     64  C   UNL     1       2.590  -2.846  15.231  1.00  0.00     0.059 A 
ATOM     65  C   UNL     1       1.599  -0.654  15.549  1.00  0.00     0.059 A 
ATOM     66  F   UNL     1       2.799   1.267  14.944  1.00  0.00    -0.206 F 
ATOM     67  C   UNL     1       1.517  -2.043  15.620  1.00  0.00     0.060 A 
BRANCH  67  68
ATOM     68  S   UNL     1       0.015  -2.844  16.222  1.00  0.00     0.124 S 
ATOM     69  O   UNL     1      -0.557  -3.357  14.981  1.00  0.00    -0.237 OA
ATOM     70  O   UNL     1       0.543  -3.850  17.139  1.00  0.00    -0.237 OA
ATOM     71  O   UNL     1      -0.723  -1.753  16.850  1.00  0.00    -0.744 OA
ENDBRANCH  67  68
ENDBRANCH  46  60
BRANCH  47  72
ATOM     72  C   UNL     1      11.728   3.653  10.359  1.00  0.00     0.058 A 
ATOM     73  C   UNL     1      13.049   3.262  10.626  1.00  0.00     0.135 A 
ATOM     74  C   UNL     1      11.530   4.702   9.449  1.00  0.00     0.135 A 
ATOM     75  F   UNL     1      13.291   2.265  11.491  1.00  0.00    -0.206 F 
ATOM     76  C   UNL     1      14.134   3.894  10.027  1.00  0.00     0.059 A 
ATOM     77  C   UNL     1      12.598   5.335   8.818  1.00  0.00     0.059 A 
ATOM     78  F   UNL     1      10.286   5.101   9.143  1.00  0.00    -0.206 F 
ATOM     79  C   UNL     1      13.898   4.929   9.120  1.00  0.00     0.060 A 
BRANCH  79  80
ATOM     80  S   UNL     1      15.310   5.706   8.305  1.00  0.00     0.124 S 
ATOM     81  O   UNL     1      15.872   6.505   9.387  1.00  0.00    -0.237 OA
ATOM     82  O   UNL     1      16.098   4.550   7.888  1.00  0.00    -0.237 OA
ATOM     83  O   UNL     1      14.695   6.460   7.216  1.00  0.00    -0.744 OA
ENDBRANCH  79  80
ENDBRANCH  47  72
BRANCH  59  84
ATOM     84  C   UNL     1       9.334   3.280  16.901  1.00  0.00     0.058 A 
ATOM     85  C   UNL     1       9.267   4.651  17.194  1.00  0.00     0.135 A 
ATOM     86  C   UNL     1       9.874   2.425  17.876  1.00  0.00     0.135 A 
ATOM     87  F   UNL     1       8.761   5.510  16.295  1.00  0.00    -0.206 F 
ATOM     88  C   UNL     1       9.756   5.161  18.391  1.00  0.00     0.059 A 
ATOM     89  C   UNL     1      10.341   2.910  19.092  1.00  0.00     0.059 A 
ATOM     90  F   UNL     1       9.945   1.103  17.652  1.00  0.00    -0.206 F 
ATOM     91  C   UNL     1      10.296   4.282  19.332  1.00  0.00     0.060 A 
BRANCH  91  92
ATOM     92  S   UNL     1      10.927   4.954  20.884  1.00  0.00     0.124 S 
ATOM     93  O   UNL     1      12.195   5.537  20.456  1.00  0.00    -0.237 OA
ATOM     94  O   UNL     1       9.887   5.906  21.260  1.00  0.00    -0.237 OA
ATOM     95  O   UNL     1      11.034   3.779  21.743  1.00  0.00    -0.744 OA
ENDBRANCH  91  92
ENDBRANCH  59  84
ENDBRANCH  33  34
ENDBRANCH  25  28
ENDBRANCH   1  24
TORSDOF 14
