REMARK SMILES O=C(CCC[NH2+][C@H]1CCOC2(CCOCC2)C1)NCCCNC(=O)c1ccc(-c2c3nc(c(-c4c(F)cc(S(=O)(=O)[O-])cc4F)c4ccc([nH]4)c(-c4c(F)cc(S(=O)(=O)[O-])cc4F)c4nc(c(-c5c(F)cc(S(=O)(=O)[O-])cc5F)c5ccc2[nH]5)C=C4)C=C3)cc1
REMARK SMILES IDX 19 1 18 2 1 3 2 4 3 6 4 7 5 8 6 9 7 12 8 13 17 14 9 15 11 16
REMARK SMILES IDX 10 17 12 18 16 19 13 20 15 21 14 22 20 23 21 24 22 25 23 26
REMARK SMILES IDX 24 28 25 29 26 30 90 31 27 32 89 33 28 34 29 35 30 36 83 37
REMARK SMILES IDX 31 38 88 39 82 40 84 41 32 42 87 43 81 44 80 45 33 47 67 48
REMARK SMILES IDX 46 49 66 50 47 51 50 52 65 53 85 54 48 55 49 56 64 58 86 59
REMARK SMILES IDX 51 60 34 61 35 62 44 63 36 64 37 65 43 66 45 67 38 68 39 69
REMARK SMILES IDX 40 70 41 71 42 72 68 73 69 74 78 75 70 76 71 77 77 78 79 79
REMARK SMILES IDX 72 80 73 81 74 82 75 83 76 84 52 85 53 86 62 87 54 88 55 89
REMARK SMILES IDX 61 90 63 91 56 92 57 93 58 94 59 95 60 96
REMARK H PARENT 18 5 6 10 6 11 22 27 84 46 50 57
REMARK Flexibility Score: inf
ROOT
ATOM      1  C   UNL     1       9.973   1.072  -4.422  1.00  0.00     0.117 C 
ENDROOT
BRANCH   1   2
ATOM      2  N   UNL     1       8.533   0.907  -4.326  1.00  0.00    -0.356 N 
ATOM      3  O   UNL     1       8.261   0.032  -6.435  1.00  0.00    -0.275 OA
ATOM      4  C   UNL     1       7.789   0.368  -5.354  1.00  0.00     0.220 C 
ATOM      5  H   UNL     1       8.074   1.189  -3.501  1.00  0.00     0.163 HD
BRANCH   4   6
ATOM      6  C   UNL     1       6.316   0.190  -5.042  1.00  0.00     0.106 C 
BRANCH   6   7
ATOM      7  C   UNL     1       6.017  -1.125  -4.314  1.00  0.00     0.071 C 
BRANCH   7   8
ATOM      8  C   UNL     1       6.596  -1.246  -2.897  1.00  0.00     0.261 C 
BRANCH   8   9
ATOM      9  N   UNL     1       6.106  -0.193  -2.017  1.00  0.00    -0.344 N 
ATOM     10  H   UNL     1       5.104  -0.341  -1.891  1.00  0.00     0.346 HD
ATOM     11  H   UNL     1       6.362   0.677  -2.485  1.00  0.00     0.346 HD
BRANCH   9  12
ATOM     12  C   UNL     1       6.710  -0.092  -0.676  1.00  0.00     0.187 C 
ATOM     13  C   UNL     1       8.159  -0.584  -0.568  1.00  0.00     0.093 C 
ATOM     14  C   UNL     1       6.611   1.379  -0.227  1.00  0.00     0.100 C 
ATOM     15  C   UNL     1       8.768  -0.238   0.778  1.00  0.00     0.167 C 
ATOM     16  C   UNL     1       7.326   1.667   1.104  1.00  0.00     0.078 C 
ATOM     17  O   UNL     1       8.668   1.160   1.021  1.00  0.00    -0.374 OA
ATOM     18  C   UNL     1       6.582   1.120   2.336  1.00  0.00     0.064 C 
ATOM     19  C   UNL     1       7.435   3.192   1.299  1.00  0.00     0.064 C 
ATOM     20  C   UNL     1       7.310   1.533   3.615  1.00  0.00     0.163 C 
ATOM     21  C   UNL     1       8.153   3.503   2.606  1.00  0.00     0.163 C 
ATOM     22  O   UNL     1       7.422   2.952   3.699  1.00  0.00    -0.381 OA
ENDBRANCH   9  12
ENDBRANCH   8   9
ENDBRANCH   7   8
ENDBRANCH   6   7
ENDBRANCH   4   6
ENDBRANCH   1   2
BRANCH   1  23
ATOM     23  C   UNL     1      10.453   2.439  -3.946  1.00  0.00     0.042 C 
BRANCH  23  24
ATOM     24  C   UNL     1      10.377   2.668  -2.438  1.00  0.00     0.118 C 
BRANCH  24  25
ATOM     25  N   UNL     1      11.298   1.843  -1.669  1.00  0.00    -0.352 N 
ATOM     26  C   UNL     1      12.067   2.140  -0.564  1.00  0.00     0.251 C 
ATOM     27  H   UNL     1      11.386   0.918  -1.993  1.00  0.00     0.163 HD
ATOM     28  O   UNL     1      12.843   1.281  -0.147  1.00  0.00    -0.269 OA
BRANCH  26  29
ATOM     29  C   UNL     1      12.007   3.464   0.113  1.00  0.00     0.039 A 
ATOM     30  C   UNL     1      13.164   3.988   0.703  1.00  0.00     0.014 A 
ATOM     31  C   UNL     1      10.819   4.186   0.212  1.00  0.00     0.014 A 
ATOM     32  C   UNL     1      13.138   5.250   1.314  1.00  0.00     0.010 A 
ATOM     33  C   UNL     1      10.795   5.460   0.781  1.00  0.00     0.010 A 
ATOM     34  C   UNL     1      11.958   6.010   1.327  1.00  0.00    -0.014 A 
BRANCH  34  35
ATOM     35  C   UNL     1      11.932   7.414   1.811  1.00  0.00     0.031 A 
ATOM     36  C   UNL     1      11.177   7.796   3.054  1.00  0.00     0.074 A 
ATOM     37  C   UNL     1      12.489   8.367   1.039  1.00  0.00     0.049 A 
ATOM     38  N   UNL     1      10.995   8.983   3.575  1.00  0.00    -0.248 NA
ATOM     39  C   UNL     1      10.517   6.708   3.791  1.00  0.00     0.031 C 
ATOM     40  C   UNL     1      13.166   8.127  -0.237  1.00  0.00     0.029 A 
ATOM     41  N   UNL     1      12.549   9.729   1.195  1.00  0.00    -0.354 N 
ATOM     42  C   UNL     1      10.198   8.789   4.698  1.00  0.00     0.074 A 
ATOM     43  C   UNL     1       9.891   7.375   4.753  1.00  0.00     0.031 C 
ATOM     44  C   UNL     1      13.576   9.299  -0.746  1.00  0.00     0.029 A 
ATOM     45  C   UNL     1      13.176  10.374   0.156  1.00  0.00     0.049 A 
ATOM     46  H   UNL     1      12.178  10.198   1.977  1.00  0.00     0.167 HD
ATOM     47  C   UNL     1       9.782   9.705   5.608  1.00  0.00     0.037 A 
ATOM     48  C   UNL     1      13.405  11.685  -0.049  1.00  0.00     0.037 A 
ATOM     49  C   UNL     1      10.109  11.109   5.548  1.00  0.00     0.049 A 
ATOM     50  C   UNL     1      12.965  12.678   0.990  1.00  0.00     0.074 A 
ATOM     51  C   UNL     1       9.814  12.103   6.466  1.00  0.00     0.029 A 
ATOM     52  N   UNL     1      10.796  11.722   4.509  1.00  0.00    -0.354 N 
ATOM     53  N   UNL     1      12.305  12.465   2.103  1.00  0.00    -0.248 NA
ATOM     54  C   UNL     1      13.316  14.085   0.756  1.00  0.00     0.031 C 
ATOM     55  C   UNL     1      10.286  13.321   5.965  1.00  0.00     0.029 A 
ATOM     56  C   UNL     1      10.917  13.081   4.755  1.00  0.00     0.049 A 
ATOM     57  H   UNL     1      11.147  11.259   3.714  1.00  0.00     0.167 HD
ATOM     58  C   UNL     1      12.184  13.707   2.716  1.00  0.00     0.074 A 
ATOM     59  C   UNL     1      12.850  14.663   1.855  1.00  0.00     0.031 C 
ATOM     60  C   UNL     1      11.580  14.024   3.888  1.00  0.00     0.037 A 
BRANCH  47  61
ATOM     61  C   UNL     1       8.944   9.222   6.763  1.00  0.00     0.058 A 
ATOM     62  C   UNL     1       9.489   8.425   7.783  1.00  0.00     0.135 A 
ATOM     63  C   UNL     1       7.599   9.610   6.889  1.00  0.00     0.135 A 
ATOM     64  F   UNL     1      10.768   8.020   7.713  1.00  0.00    -0.206 F 
ATOM     65  C   UNL     1       8.728   8.010   8.871  1.00  0.00     0.059 A 
ATOM     66  C   UNL     1       6.826   9.229   7.984  1.00  0.00     0.059 A 
ATOM     67  F   UNL     1       7.026  10.376   5.948  1.00  0.00    -0.206 F 
ATOM     68  C   UNL     1       7.397   8.418   8.964  1.00  0.00     0.060 A 
BRANCH  68  69
ATOM     69  S   UNL     1       6.428   7.891  10.395  1.00  0.00     0.124 S 
ATOM     70  O   UNL     1       6.200   6.480  10.089  1.00  0.00    -0.237 OA
ATOM     71  O   UNL     1       7.342   8.154  11.505  1.00  0.00    -0.237 OA
ATOM     72  O   UNL     1       5.249   8.743  10.343  1.00  0.00    -0.744 OA
ENDBRANCH  68  69
ENDBRANCH  47  61
BRANCH  48  73
ATOM     73  C   UNL     1      14.132  12.121  -1.269  1.00  0.00     0.058 A 
ATOM     74  C   UNL     1      15.461  12.560  -1.192  1.00  0.00     0.135 A 
ATOM     75  C   UNL     1      13.531  12.069  -2.536  1.00  0.00     0.135 A 
ATOM     76  F   UNL     1      16.076  12.627  -0.001  1.00  0.00    -0.206 F 
ATOM     77  C   UNL     1      16.168  12.944  -2.325  1.00  0.00     0.059 A 
ATOM     78  C   UNL     1      14.225  12.428  -3.688  1.00  0.00     0.059 A 
ATOM     79  F   UNL     1      12.267  11.635  -2.664  1.00  0.00    -0.206 F 
ATOM     80  C   UNL     1      15.542  12.871  -3.570  1.00  0.00     0.060 A 
BRANCH  80  81
ATOM     81  S   UNL     1      16.489  13.316  -5.042  1.00  0.00     0.124 S 
ATOM     82  O   UNL     1      16.540  14.769  -4.931  1.00  0.00    -0.237 OA
ATOM     83  O   UNL     1      17.750  12.614  -4.819  1.00  0.00    -0.237 OA
ATOM     84  O   UNL     1      15.675  12.793  -6.135  1.00  0.00    -0.744 OA
ENDBRANCH  80  81
ENDBRANCH  48  73
BRANCH  60  85
ATOM     85  C   UNL     1      11.634  15.463   4.321  1.00  0.00     0.058 A 
ATOM     86  C   UNL     1      10.863  16.452   3.690  1.00  0.00     0.135 A 
ATOM     87  C   UNL     1      12.439  15.851   5.405  1.00  0.00     0.135 A 
ATOM     88  F   UNL     1      10.083  16.136   2.644  1.00  0.00    -0.206 F 
ATOM     89  C   UNL     1      10.908  17.780   4.102  1.00  0.00     0.059 A 
ATOM     90  C   UNL     1      12.479  17.169   5.850  1.00  0.00     0.059 A 
ATOM     91  F   UNL     1      13.189  14.943   6.049  1.00  0.00    -0.206 F 
ATOM     92  C   UNL     1      11.719  18.129   5.183  1.00  0.00     0.060 A 
BRANCH  92  93
ATOM     93  S   UNL     1      11.749  19.852   5.724  1.00  0.00     0.124 S 
ATOM     94  O   UNL     1      12.557  20.474   4.680  1.00  0.00    -0.237 OA
ATOM     95  O   UNL     1      10.332  20.204   5.724  1.00  0.00    -0.237 OA
ATOM     96  O   UNL     1      12.371  19.783   7.043  1.00  0.00    -0.744 OA
ENDBRANCH  92  93
ENDBRANCH  60  85
ENDBRANCH  34  35
ENDBRANCH  26  29
ENDBRANCH  24  25
ENDBRANCH  23  24
ENDBRANCH   1  23
TORSDOF 17
