REMARK SMILES CC(=O)Nc1c(C)nn([C@H](C)C(=O)NCCCNC(=O)c2ccc(-c3c4nc(c(-c5c(F)cc(S(=O)(=O)[O-])cc5F)c5ccc([nH]5)c(-c5c(F)cc(S(=O)(=O)[O-])cc5F)c5nc(c(-c6c(F)cc(S(=O)(=O)[O-])cc6F)c6ccc3[nH]6)C=C5)C=C4)cc2)c1C
REMARK SMILES IDX 16 1 15 2 14 3 12 4 13 5 10 7 11 8 9 9 5 10 6 11 87 12 7 13
REMARK SMILES IDX 8 14 88 15 4 16 1 17 2 18 3 19 17 21 18 22 19 23 20 25 21 26
REMARK SMILES IDX 22 27 86 28 23 29 85 30 24 31 25 32 26 33 79 34 27 35 84 36
REMARK SMILES IDX 78 37 80 38 28 39 83 40 77 41 76 42 29 44 63 45 42 46 62 47
REMARK SMILES IDX 43 48 46 49 61 50 81 51 44 52 45 53 60 55 82 56 47 57 30 58
REMARK SMILES IDX 31 59 40 60 32 61 33 62 39 63 41 64 34 65 35 66 36 67 37 68
REMARK SMILES IDX 38 69 64 70 65 71 74 72 66 73 67 74 73 75 75 76 68 77 69 78
REMARK SMILES IDX 70 79 71 80 72 81 48 82 49 83 58 84 50 85 51 86 57 87 59 88
REMARK SMILES IDX 52 89 53 90 54 91 55 92 56 93
REMARK H PARENT 14 6 4 20 18 24 80 43 46 54
REMARK Flexibility Score: inf
ROOT
ATOM      1  C   UNL     1       2.474   0.818  -6.813  1.00  0.00     0.042 C 
ENDROOT
BRANCH   1   2
ATOM      2  C   UNL     1       3.879   0.926  -6.242  1.00  0.00     0.117 C 
BRANCH   2   3
ATOM      3  N   UNL     1       4.056   1.977  -5.249  1.00  0.00    -0.354 N 
ATOM      4  C   UNL     1       4.580   1.883  -3.990  1.00  0.00     0.244 C 
ATOM      5  O   UNL     1       4.854   2.937  -3.405  1.00  0.00    -0.273 OA
ATOM      6  H   UNL     1       3.757   2.875  -5.521  1.00  0.00     0.163 HD
BRANCH   4   7
ATOM      7  C   UNL     1       4.811   0.547  -3.292  1.00  0.00     0.193 C 
ATOM      8  C   UNL     1       3.555  -0.320  -3.184  1.00  0.00     0.044 C 
BRANCH   7   9
ATOM      9  N   UNL     1       6.001  -0.135  -3.806  1.00  0.00    -0.255 N 
ATOM     10  C   UNL     1       7.991  -1.041  -4.064  1.00  0.00     0.085 A 
ATOM     11  C   UNL     1       7.241  -1.074  -5.260  1.00  0.00     0.083 A 
ATOM     12  C   UNL     1       7.212  -0.324  -3.171  1.00  0.00     0.060 A 
ATOM     13  C   UNL     1       7.607  -1.560  -6.612  1.00  0.00     0.071 C 
ATOM     14  N   UNL     1       5.998  -0.651  -5.048  1.00  0.00    -0.175 NA
ATOM     15  C   UNL     1       7.522   0.307  -1.861  1.00  0.00     0.069 C 
BRANCH  10  16
ATOM     16  N   UNL     1       9.271  -1.521  -3.891  1.00  0.00    -0.323 N 
ATOM     17  C   UNL     1       8.825  -2.693  -1.749  1.00  0.00     0.114 C 
ATOM     18  C   UNL     1       9.771  -2.191  -2.811  1.00  0.00     0.221 C 
ATOM     19  O   UNL     1      10.974  -2.458  -2.764  1.00  0.00    -0.275 OA
ATOM     20  H   UNL     1       9.898  -1.363  -4.634  1.00  0.00     0.170 HD
ENDBRANCH  10  16
ENDBRANCH   7   9
ENDBRANCH   4   7
ENDBRANCH   2   3
ENDBRANCH   1   2
BRANCH   1  21
ATOM     21  C   UNL     1       2.200   1.895  -7.828  1.00  0.00     0.118 C 
BRANCH  21  22
ATOM     22  N   UNL     1       3.000   1.760  -9.055  1.00  0.00    -0.352 N 
ATOM     23  C   UNL     1       2.884   2.503 -10.226  1.00  0.00     0.251 C 
ATOM     24  H   UNL     1       3.696   1.064  -9.047  1.00  0.00     0.163 HD
ATOM     25  O   UNL     1       3.394   2.147 -11.266  1.00  0.00    -0.269 OA
BRANCH  23  26
ATOM     26  C   UNL     1       2.122   3.763 -10.129  1.00  0.00     0.039 A 
ATOM     27  C   UNL     1       1.146   4.144 -11.053  1.00  0.00     0.014 A 
ATOM     28  C   UNL     1       2.340   4.492  -8.971  1.00  0.00     0.014 A 
ATOM     29  C   UNL     1       0.340   5.240 -10.742  1.00  0.00     0.010 A 
ATOM     30  C   UNL     1       1.366   5.335  -8.542  1.00  0.00     0.010 A 
ATOM     31  C   UNL     1       0.458   5.817  -9.472  1.00  0.00    -0.014 A 
BRANCH  31  32
ATOM     32  C   UNL     1      -0.353   6.929  -9.005  1.00  0.00     0.031 A 
ATOM     33  C   UNL     1      -1.797   6.613  -8.838  1.00  0.00     0.074 A 
ATOM     34  C   UNL     1       0.253   8.004  -8.446  1.00  0.00     0.049 A 
ATOM     35  N   UNL     1      -2.800   7.074  -9.508  1.00  0.00    -0.248 NA
ATOM     36  C   UNL     1      -2.159   5.512  -7.925  1.00  0.00     0.031 C 
ATOM     37  C   UNL     1       1.692   8.224  -8.209  1.00  0.00     0.029 A 
ATOM     38  N   UNL     1      -0.302   9.079  -7.833  1.00  0.00    -0.354 N 
ATOM     39  C   UNL     1      -3.936   6.510  -8.928  1.00  0.00     0.074 A 
ATOM     40  C   UNL     1      -3.468   5.393  -8.155  1.00  0.00     0.031 C 
ATOM     41  C   UNL     1       1.864   9.213  -7.305  1.00  0.00     0.029 A 
ATOM     42  C   UNL     1       0.577   9.822  -7.045  1.00  0.00     0.049 A 
ATOM     43  H   UNL     1      -1.252   9.316  -7.936  1.00  0.00     0.167 HD
ATOM     44  C   UNL     1      -5.130   7.170  -8.913  1.00  0.00     0.037 A 
ATOM     45  C   UNL     1       0.237  10.840  -6.214  1.00  0.00     0.037 A 
ATOM     46  C   UNL     1      -5.090   8.301  -9.808  1.00  0.00     0.049 A 
ATOM     47  C   UNL     1      -1.122  11.283  -6.635  1.00  0.00     0.074 A 
ATOM     48  C   UNL     1      -4.903   8.455 -11.167  1.00  0.00     0.029 A 
ATOM     49  N   UNL     1      -4.844   9.534  -9.249  1.00  0.00    -0.354 N 
ATOM     50  N   UNL     1      -1.382  11.807  -7.805  1.00  0.00    -0.248 NA
ATOM     51  C   UNL     1      -2.258  10.675  -5.960  1.00  0.00     0.031 C 
ATOM     52  C   UNL     1      -4.092   9.620 -11.294  1.00  0.00     0.029 A 
ATOM     53  C   UNL     1      -3.903  10.164 -10.021  1.00  0.00     0.049 A 
ATOM     54  H   UNL     1      -5.269   9.898  -8.439  1.00  0.00     0.167 HD
ATOM     55  C   UNL     1      -2.596  11.250  -8.190  1.00  0.00     0.074 A 
ATOM     56  C   UNL     1      -3.115  10.608  -6.983  1.00  0.00     0.031 C 
ATOM     57  C   UNL     1      -2.923  11.102  -9.509  1.00  0.00     0.037 A 
BRANCH  44  58
ATOM     58  C   UNL     1      -6.197   7.042  -7.844  1.00  0.00     0.058 A 
ATOM     59  C   UNL     1      -7.426   7.717  -8.023  1.00  0.00     0.135 A 
ATOM     60  C   UNL     1      -5.984   6.520  -6.549  1.00  0.00     0.135 A 
ATOM     61  F   UNL     1      -7.749   8.248  -9.213  1.00  0.00    -0.206 F 
ATOM     62  C   UNL     1      -8.325   7.934  -6.978  1.00  0.00     0.059 A 
ATOM     63  C   UNL     1      -6.894   6.677  -5.507  1.00  0.00     0.059 A 
ATOM     64  F   UNL     1      -4.849   5.912  -6.191  1.00  0.00    -0.206 F 
ATOM     65  C   UNL     1      -8.039   7.424  -5.717  1.00  0.00     0.060 A 
BRANCH  65  66
ATOM     66  S   UNL     1      -9.139   7.792  -4.341  1.00  0.00     0.124 S 
ATOM     67  O   UNL     1      -8.922   9.224  -4.170  1.00  0.00    -0.237 OA
ATOM     68  O   UNL     1     -10.438   7.400  -4.879  1.00  0.00    -0.237 OA
ATOM     69  O   UNL     1      -8.630   6.944  -3.268  1.00  0.00    -0.744 OA
ENDBRANCH  65  66
ENDBRANCH  44  58
BRANCH  45  70
ATOM     70  C   UNL     1       0.827  11.180  -4.890  1.00  0.00     0.058 A 
ATOM     71  C   UNL     1       0.592  12.424  -4.278  1.00  0.00     0.135 A 
ATOM     72  C   UNL     1       1.406  10.188  -4.071  1.00  0.00     0.135 A 
ATOM     73  F   UNL     1       0.024  13.419  -4.976  1.00  0.00    -0.206 F 
ATOM     74  C   UNL     1       0.873  12.658  -2.925  1.00  0.00     0.059 A 
ATOM     75  C   UNL     1       1.700  10.399  -2.722  1.00  0.00     0.059 A 
ATOM     76  F   UNL     1       1.620   8.948  -4.538  1.00  0.00    -0.206 F 
ATOM     77  C   UNL     1       1.409  11.631  -2.148  1.00  0.00     0.060 A 
BRANCH  77  78
ATOM     78  S   UNL     1       1.615  11.874  -0.365  1.00  0.00     0.124 S 
ATOM     79  O   UNL     1       2.700  12.847  -0.316  1.00  0.00    -0.237 OA
ATOM     80  O   UNL     1       0.300  12.365   0.033  1.00  0.00    -0.237 OA
ATOM     81  O   UNL     1       1.952  10.539   0.122  1.00  0.00    -0.744 OA
ENDBRANCH  77  78
ENDBRANCH  45  70
BRANCH  57  82
ATOM     82  C   UNL     1      -2.075  11.792 -10.551  1.00  0.00     0.058 A 
ATOM     83  C   UNL     1      -0.752  11.432 -10.871  1.00  0.00     0.135 A 
ATOM     84  C   UNL     1      -2.713  12.698 -11.409  1.00  0.00     0.135 A 
ATOM     85  F   UNL     1      -0.098  10.509 -10.155  1.00  0.00    -0.206 F 
ATOM     86  C   UNL     1      -0.096  11.952 -11.990  1.00  0.00     0.059 A 
ATOM     87  C   UNL     1      -2.090  13.207 -12.544  1.00  0.00     0.059 A 
ATOM     88  F   UNL     1      -3.994  13.038 -11.190  1.00  0.00    -0.206 F 
ATOM     89  C   UNL     1      -0.780  12.831 -12.830  1.00  0.00     0.060 A 
BRANCH  89  90
ATOM     90  S   UNL     1       0.018  13.407 -14.345  1.00  0.00     0.124 S 
ATOM     91  O   UNL     1       1.026  14.328 -13.831  1.00  0.00    -0.237 OA
ATOM     92  O   UNL     1       0.527  12.169 -14.928  1.00  0.00    -0.237 OA
ATOM     93  O   UNL     1      -1.075  14.030 -15.089  1.00  0.00    -0.744 OA
ENDBRANCH  89  90
ENDBRANCH  57  82
ENDBRANCH  31  32
ENDBRANCH  23  26
ENDBRANCH  21  22
ENDBRANCH   1  21
TORSDOF 15
