REMARK SMILES [NH2+]=C1S[C@@H](C(=O)Nc2ccc(C(=O)NCCCNC(=O)c3ccc(-c4c5nc(c(-c6c(F)cc(S(=O)(=O)[O-])cc6F)c6ccc([nH]6)c(-c6c(F)cc(S(=O)(=O)[O-])cc6F)c6nc(c(-c7c(F)cc(S(=O)(=O)[O-])cc7F)c7ccc4[nH]7)C=C6)C=C5)cc3)cc2)CC(=O)N1/N=C/c1ccc(Cl)cc1
REMARK SMILES IDX 15 1 14 2 12 3 13 4 11 6 8 7 9 8 88 9 10 10 87 11 7 12 5 13
REMARK SMILES IDX 6 14 4 16 1 17 2 18 3 21 92 22 90 23 89 24 91 25 93 26 94 27
REMARK SMILES IDX 95 28 96 29 101 30 97 31 100 32 98 33 99 34 16 35 17 36
REMARK SMILES IDX 18 37 19 38 20 40 21 41 22 42 86 43 23 44 85 45 24 46 25 47
REMARK SMILES IDX 26 48 79 49 27 50 84 51 78 52 80 53 28 54 83 55 77 56 76 57
REMARK SMILES IDX 29 59 63 60 42 61 62 62 43 63 46 64 61 65 81 66 44 67 45 68
REMARK SMILES IDX 60 70 82 71 47 72 30 73 31 74 40 75 32 76 33 77 39 78 41 79
REMARK SMILES IDX 34 80 35 81 36 82 37 83 38 84 64 85 65 86 74 87 66 88 67 89
REMARK SMILES IDX 73 90 75 91 68 92 69 93 70 94 71 95 72 96 48 97 49 98 58 99
REMARK SMILES IDX 50 100 51 101 57 102 59 103 52 104 53 105 54 106 55 107
REMARK SMILES IDX 56 108
REMARK H PARENT 14 5 7 15 1 19 1 20 18 39 80 58 46 69
REMARK Flexibility Score: inf
ROOT
ATOM      1  C   UNL     1      -4.733  -0.298  -1.104  1.00  0.00     0.118 C 
ENDROOT
BRANCH   1   2
ATOM      2  N   UNL     1      -4.860   0.709  -0.053  1.00  0.00    -0.352 N 
ATOM      3  C   UNL     1      -4.045   0.972   1.018  1.00  0.00     0.251 C 
ATOM      4  O   UNL     1      -4.185   2.023   1.639  1.00  0.00    -0.269 OA
ATOM      5  H   UNL     1      -5.654   1.287  -0.125  1.00  0.00     0.163 HD
BRANCH   3   6
ATOM      6  C   UNL     1      -2.940   0.059   1.376  1.00  0.00     0.039 A 
ATOM      7  C   UNL     1      -0.749  -1.587   1.843  1.00  0.00     0.041 A 
ATOM      8  C   UNL     1      -0.604  -0.204   1.942  1.00  0.00     0.027 A 
ATOM      9  C   UNL     1      -2.009  -2.152   1.651  1.00  0.00     0.027 A 
ATOM     10  C   UNL     1      -1.695   0.622   1.675  1.00  0.00     0.016 A 
ATOM     11  C   UNL     1      -3.112  -1.326   1.440  1.00  0.00     0.016 A 
BRANCH   7  12
ATOM     12  N   UNL     1       0.367  -2.386   2.058  1.00  0.00    -0.325 N 
ATOM     13  C   UNL     1       0.908  -3.372   1.292  1.00  0.00     0.238 C 
ATOM     14  O   UNL     1       1.694  -4.145   1.856  1.00  0.00    -0.273 OA
ATOM     15  H   UNL     1       0.843  -2.211   2.902  1.00  0.00     0.169 HD
BRANCH  13  16
ATOM     16  C   UNL     1       0.758  -3.438  -0.237  1.00  0.00     0.160 C 
ATOM     17  N   UNL     1       1.209   0.267  -0.913  1.00  0.00    -0.279 N 
ATOM     18  C   UNL     1       0.678  -0.887  -1.140  1.00  0.00     0.338 C 
ATOM     19  H   UNL     1       2.163   0.332  -0.678  1.00  0.00     0.302 HD
ATOM     20  H   UNL     1       0.661   1.082  -0.974  1.00  0.00     0.302 HD
ATOM     21  S   UNL     1       1.790  -2.212  -1.052  1.00  0.00    -0.022 SA
ATOM     22  N   UNL     1      -0.655  -1.123  -1.480  1.00  0.00    -0.057 N 
ATOM     23  C   UNL     1      -1.283  -2.380  -1.478  1.00  0.00     0.337 C 
ATOM     24  C   UNL     1      -0.577  -3.591  -0.903  1.00  0.00     0.155 C 
ATOM     25  O   UNL     1      -2.412  -2.581  -1.949  1.00  0.00    -0.244 OA
BRANCH  22  26
ATOM     26  N   UNL     1      -1.533  -0.101  -1.909  1.00  0.00    -0.082 NA
ATOM     27  C   UNL     1      -1.145   1.096  -2.192  1.00  0.00     0.167 C 
BRANCH  27  28
ATOM     28  C   UNL     1      -2.100   2.074  -2.749  1.00  0.00    -0.003 A 
ATOM     29  C   UNL     1      -2.075   2.304  -4.127  1.00  0.00     0.011 A 
ATOM     30  C   UNL     1      -2.974   2.784  -1.926  1.00  0.00     0.011 A 
ATOM     31  C   UNL     1      -2.948   3.239  -4.687  1.00  0.00     0.021 A 
ATOM     32  C   UNL     1      -3.861   3.706  -2.492  1.00  0.00     0.021 A 
ATOM     33  C   UNL     1      -3.841   3.932  -3.869  1.00  0.00     0.041 A 
ATOM     34  Cl  UNL     1      -4.913   5.085  -4.563  1.00  0.00    -0.084 Cl
ENDBRANCH  27  28
ENDBRANCH  22  26
ENDBRANCH  13  16
ENDBRANCH   7  12
ENDBRANCH   3   6
ENDBRANCH   1   2
BRANCH   1  35
ATOM     35  C   UNL     1      -6.029  -1.064  -1.295  1.00  0.00     0.042 C 
BRANCH  35  36
ATOM     36  C   UNL     1      -7.090  -0.228  -1.997  1.00  0.00     0.118 C 
BRANCH  36  37
ATOM     37  N   UNL     1      -6.965  -0.261  -3.449  1.00  0.00    -0.352 N 
ATOM     38  C   UNL     1      -7.915  -0.608  -4.383  1.00  0.00     0.251 C 
ATOM     39  H   UNL     1      -6.086  -0.001  -3.808  1.00  0.00     0.163 HD
ATOM     40  O   UNL     1      -7.607  -0.729  -5.566  1.00  0.00    -0.269 OA
BRANCH  38  41
ATOM     41  C   UNL     1      -9.302  -0.874  -3.941  1.00  0.00     0.039 A 
ATOM     42  C   UNL     1      -9.944  -2.035  -4.377  1.00  0.00     0.014 A 
ATOM     43  C   UNL     1      -9.945  -0.008  -3.052  1.00  0.00     0.014 A 
ATOM     44  C   UNL     1     -11.198  -2.368  -3.856  1.00  0.00     0.010 A 
ATOM     45  C   UNL     1     -11.148  -0.389  -2.466  1.00  0.00     0.010 A 
ATOM     46  C   UNL     1     -11.790  -1.572  -2.861  1.00  0.00    -0.014 A 
BRANCH  46  47
ATOM     47  C   UNL     1     -13.082  -1.952  -2.228  1.00  0.00     0.031 A 
ATOM     48  C   UNL     1     -14.277  -1.043  -2.355  1.00  0.00     0.074 A 
ATOM     49  C   UNL     1     -13.168  -3.081  -1.495  1.00  0.00     0.049 A 
ATOM     50  N   UNL     1     -15.463  -1.155  -1.813  1.00  0.00    -0.248 NA
ATOM     51  C   UNL     1     -14.108   0.167  -3.178  1.00  0.00     0.031 C 
ATOM     52  C   UNL     1     -12.073  -4.025  -1.257  1.00  0.00     0.029 A 
ATOM     53  N   UNL     1     -14.225  -3.625  -0.806  1.00  0.00    -0.354 N 
ATOM     54  C   UNL     1     -16.175  -0.035  -2.226  1.00  0.00     0.074 A 
ATOM     55  C   UNL     1     -15.268   0.780  -3.003  1.00  0.00     0.031 C 
ATOM     56  C   UNL     1     -12.523  -5.043  -0.505  1.00  0.00     0.029 A 
ATOM     57  C   UNL     1     -13.923  -4.807  -0.169  1.00  0.00     0.049 A 
ATOM     58  H   UNL     1     -15.116  -3.207  -0.770  1.00  0.00     0.167 HD
ATOM     59  C   UNL     1     -17.476   0.273  -2.008  1.00  0.00     0.037 A 
ATOM     60  C   UNL     1     -14.686  -5.606   0.603  1.00  0.00     0.037 A 
ATOM     61  C   UNL     1     -18.383  -0.549  -1.250  1.00  0.00     0.049 A 
ATOM     62  C   UNL     1     -16.123  -5.226   0.854  1.00  0.00     0.074 A 
ATOM     63  C   UNL     1     -19.726  -0.339  -0.993  1.00  0.00     0.029 A 
ATOM     64  N   UNL     1     -18.041  -1.744  -0.634  1.00  0.00    -0.354 N 
ATOM     65  N   UNL     1     -16.790  -4.185   0.417  1.00  0.00    -0.248 NA
ATOM     66  C   UNL     1     -16.912  -6.134   1.700  1.00  0.00     0.031 C 
ATOM     67  C   UNL     1     -20.188  -1.386  -0.190  1.00  0.00     0.029 A 
ATOM     68  C   UNL     1     -19.145  -2.276   0.011  1.00  0.00     0.049 A 
ATOM     69  H   UNL     1     -17.146  -2.154  -0.652  1.00  0.00     0.167 HD
ATOM     70  C   UNL     1     -18.085  -4.333   0.904  1.00  0.00     0.074 A 
ATOM     71  C   UNL     1     -18.110  -5.568   1.658  1.00  0.00     0.031 C 
ATOM     72  C   UNL     1     -19.158  -3.519   0.741  1.00  0.00     0.037 A 
BRANCH  59  73
ATOM     73  C   UNL     1     -18.003   1.544  -2.618  1.00  0.00     0.058 A 
ATOM     74  C   UNL     1     -18.173   1.672  -4.006  1.00  0.00     0.135 A 
ATOM     75  C   UNL     1     -18.379   2.629  -1.810  1.00  0.00     0.135 A 
ATOM     76  F   UNL     1     -17.813   0.672  -4.827  1.00  0.00    -0.206 F 
ATOM     77  C   UNL     1     -18.671   2.839  -4.574  1.00  0.00     0.059 A 
ATOM     78  C   UNL     1     -18.908   3.796  -2.355  1.00  0.00     0.059 A 
ATOM     79  F   UNL     1     -18.237   2.562  -0.477  1.00  0.00    -0.206 F 
ATOM     80  C   UNL     1     -19.038   3.896  -3.740  1.00  0.00     0.060 A 
BRANCH  80  81
ATOM     81  S   UNL     1     -19.698   5.396  -4.495  1.00  0.00     0.124 S 
ATOM     82  O   UNL     1     -18.501   5.965  -5.107  1.00  0.00    -0.237 OA
ATOM     83  O   UNL     1     -20.693   4.867  -5.423  1.00  0.00    -0.237 OA
ATOM     84  O   UNL     1     -20.236   6.140  -3.361  1.00  0.00    -0.744 OA
ENDBRANCH  80  81
ENDBRANCH  59  73
BRANCH  60  85
ATOM     85  C   UNL     1     -14.124  -6.857   1.183  1.00  0.00     0.058 A 
ATOM     86  C   UNL     1     -14.573  -8.116   0.755  1.00  0.00     0.135 A 
ATOM     87  C   UNL     1     -13.151  -6.823   2.194  1.00  0.00     0.135 A 
ATOM     88  F   UNL     1     -15.507  -8.203  -0.205  1.00  0.00    -0.206 F 
ATOM     89  C   UNL     1     -14.106  -9.293   1.329  1.00  0.00     0.059 A 
ATOM     90  C   UNL     1     -12.646  -7.988   2.764  1.00  0.00     0.059 A 
ATOM     91  F   UNL     1     -12.673  -5.646   2.628  1.00  0.00    -0.206 F 
ATOM     92  C   UNL     1     -13.144  -9.218   2.337  1.00  0.00     0.060 A 
BRANCH  92  93
ATOM     93  S   UNL     1     -12.533 -10.753   3.069  1.00  0.00     0.124 S 
ATOM     94  O   UNL     1     -13.668 -11.157   3.890  1.00  0.00    -0.237 OA
ATOM     95  O   UNL     1     -12.272 -11.573   1.890  1.00  0.00    -0.237 OA
ATOM     96  O   UNL     1     -11.345 -10.324   3.801  1.00  0.00    -0.744 OA
ENDBRANCH  92  93
ENDBRANCH  60  85
BRANCH  72  97
ATOM     97  C   UNL     1     -20.463  -3.963   1.343  1.00  0.00     0.058 A 
ATOM     98  C   UNL     1     -20.687  -3.939   2.728  1.00  0.00     0.135 A 
ATOM     99  C   UNL     1     -21.522  -4.371   0.515  1.00  0.00     0.135 A 
ATOM    100  F   UNL     1     -19.706  -3.563   3.564  1.00  0.00    -0.206 F 
ATOM    101  C   UNL     1     -21.905  -4.328   3.273  1.00  0.00     0.059 A 
ATOM    102  C   UNL     1     -22.759  -4.736   1.036  1.00  0.00     0.059 A 
ATOM    103  F   UNL     1     -21.366  -4.402  -0.818  1.00  0.00    -0.206 F 
ATOM    104  C   UNL     1     -22.937  -4.724   2.419  1.00  0.00     0.060 A 
BRANCH 104 105
ATOM    105  S   UNL     1     -24.524  -5.194   3.138  1.00  0.00     0.124 S 
ATOM    106  O   UNL     1     -24.213  -6.501   3.709  1.00  0.00    -0.237 OA
ATOM    107  O   UNL     1     -24.761  -4.123   4.101  1.00  0.00    -0.237 OA
ATOM    108  O   UNL     1     -25.427  -5.209   1.991  1.00  0.00    -0.744 OA
ENDBRANCH 104 105
ENDBRANCH  72  97
ENDBRANCH  46  47
ENDBRANCH  38  41
ENDBRANCH  36  37
ENDBRANCH  35  36
ENDBRANCH   1  35
TORSDOF 17
