REMARK SMILES C[C@@]1(C(=O)NCCCNC(=O)c2ccc(-c3c4nc(c(-c5c(F)cc(S(=O)(=O)[O-])cc5F)c5ccc([nH]5)c(-c5c(F)cc(S(=O)(=O)[O-])cc5F)c5nc(c(-c6c(F)cc(S(=O)(=O)[O-])cc6F)c6ccc3[nH]6)C=C5)C=C4)cc2)CCCN1c1ncnc2c1CCCCC2
REMARK SMILES IDX 6 1 5 2 3 3 4 4 2 6 1 7 78 8 81 9 79 10 80 11 82 12 83 13
REMARK SMILES IDX 87 14 84 15 86 16 85 17 88 18 89 19 90 20 91 21 92 23 7 25
REMARK SMILES IDX 8 26 9 27 10 28 11 30 12 31 13 32 77 33 14 34 76 35 15 36
REMARK SMILES IDX 16 37 17 38 70 39 18 40 75 41 69 42 71 43 19 44 74 45 68 46
REMARK SMILES IDX 67 47 20 49 54 50 33 51 53 52 34 53 37 54 52 55 72 56 35 57
REMARK SMILES IDX 36 58 51 60 73 61 38 62 21 63 22 64 31 65 23 66 24 67 30 68
REMARK SMILES IDX 32 69 25 70 26 71 27 72 28 73 29 74 55 75 56 76 65 77 57 78
REMARK SMILES IDX 58 79 64 80 66 81 59 82 60 83 61 84 62 85 63 86 39 87 40 88
REMARK SMILES IDX 49 89 41 90 42 91 48 92 50 93 43 94 44 95 45 96 46 97 47 98
REMARK H PARENT 5 5 9 29 71 48 37 59
REMARK Flexibility Score: 80.00
ROOT
ATOM      1  C   UNL     1       0.148   0.072  -4.490  1.00  0.00     0.117 C 
ENDROOT
BRANCH   1   2
ATOM      2  N   UNL     1       1.165  -0.504  -3.637  1.00  0.00    -0.354 N 
ATOM      3  C   UNL     1       1.344  -0.446  -2.283  1.00  0.00     0.245 C 
ATOM      4  O   UNL     1       2.306  -1.096  -1.853  1.00  0.00    -0.272 OA
ATOM      5  H   UNL     1       1.846  -1.030  -4.115  1.00  0.00     0.163 HD
BRANCH   3   6
ATOM      6  C   UNL     1       0.399   0.344  -1.318  1.00  0.00     0.117 C 
ATOM      7  C   UNL     1       0.970   0.247   0.115  1.00  0.00     0.045 C 
ATOM      8  C   UNL     1      -1.005  -0.315  -1.299  1.00  0.00     0.040 C 
ATOM      9  N   UNL     1       0.164   1.763  -1.736  1.00  0.00    -0.342 N 
ATOM     10  C   UNL     1      -1.996   0.696  -1.847  1.00  0.00     0.024 C 
ATOM     11  C   UNL     1      -1.284   2.038  -1.823  1.00  0.00     0.119 C 
BRANCH   9  12
ATOM     12  C   UNL     1       0.903   2.812  -1.168  1.00  0.00     0.136 A 
ATOM     13  N   UNL     1       0.231   3.583  -0.286  1.00  0.00    -0.219 NA
ATOM     14  C   UNL     1       2.251   3.080  -1.445  1.00  0.00     0.016 A 
ATOM     15  C   UNL     1       0.877   4.579   0.323  1.00  0.00     0.224 A 
ATOM     16  C   UNL     1       2.837   4.130  -0.722  1.00  0.00     0.049 A 
ATOM     17  N   UNL     1       2.160   4.882   0.167  1.00  0.00    -0.241 NA
BRANCH  14  18
ATOM     18  C   UNL     1       3.077   2.358  -2.471  1.00  0.00     0.041 C 
BRANCH  18  19
ATOM     19  C   UNL     1       3.535   3.239  -3.639  1.00  0.00     0.005 C 
BRANCH  19  20
ATOM     20  C   UNL     1       4.775   4.079  -3.348  1.00  0.00     0.001 C 
BRANCH  20  21
ATOM     21  C   UNL     1       4.582   5.127  -2.258  1.00  0.00     0.006 CG0
ATOM     22  G   UNL     1       4.284   4.521  -0.891  1.00  0.00     0.000 G0
ENDBRANCH  20  21
ENDBRANCH  19  20
ENDBRANCH  18  19
ENDBRANCH  14  18
BRANCH  16  23
ATOM     23  C   UNL     1       4.284   4.521  -0.891  1.00  0.00     0.057 CG0
ATOM     24  G   UNL     1       4.582   5.127  -2.258  1.00  0.00     0.000 G0
ENDBRANCH  16  23
ENDBRANCH   9  12
ENDBRANCH   3   6
ENDBRANCH   1   2
BRANCH   1  25
ATOM     25  C   UNL     1       0.593   1.307  -5.255  1.00  0.00     0.042 C 
BRANCH  25  26
ATOM     26  C   UNL     1       1.607   1.002  -6.347  1.00  0.00     0.118 C 
BRANCH  26  27
ATOM     27  N   UNL     1       1.040   0.164  -7.400  1.00  0.00    -0.352 N 
ATOM     28  C   UNL     1       0.726   0.472  -8.701  1.00  0.00     0.251 C 
ATOM     29  H   UNL     1       0.854  -0.766  -7.137  1.00  0.00     0.163 HD
ATOM     30  O   UNL     1       0.019  -0.293  -9.354  1.00  0.00    -0.269 OA
BRANCH  28  31
ATOM     31  C   UNL     1       1.231   1.721  -9.308  1.00  0.00     0.039 A 
ATOM     32  C   UNL     1       0.400   2.471 -10.144  1.00  0.00     0.014 A 
ATOM     33  C   UNL     1       2.537   2.144  -9.057  1.00  0.00     0.014 A 
ATOM     34  C   UNL     1       0.858   3.684 -10.668  1.00  0.00     0.010 A 
ATOM     35  C   UNL     1       2.953   3.394  -9.491  1.00  0.00     0.010 A 
ATOM     36  C   UNL     1       2.125   4.173 -10.314  1.00  0.00    -0.014 A 
BRANCH  36  37
ATOM     37  C   UNL     1       2.647   5.471 -10.813  1.00  0.00     0.031 A 
ATOM     38  C   UNL     1       3.918   5.489 -11.621  1.00  0.00     0.074 A 
ATOM     39  C   UNL     1       2.047   6.625 -10.459  1.00  0.00     0.049 A 
ATOM     40  N   UNL     1       4.650   6.506 -11.993  1.00  0.00    -0.248 NA
ATOM     41  C   UNL     1       4.460   4.181 -12.030  1.00  0.00     0.031 C 
ATOM     42  C   UNL     1       0.831   6.739  -9.652  1.00  0.00     0.029 A 
ATOM     43  N   UNL     1       2.395   7.928 -10.717  1.00  0.00    -0.354 N 
ATOM     44  C   UNL     1       5.747   5.962 -12.650  1.00  0.00     0.074 A 
ATOM     45  C   UNL     1       5.618   4.524 -12.572  1.00  0.00     0.031 C 
ATOM     46  C   UNL     1       0.524   8.038  -9.497  1.00  0.00     0.029 A 
ATOM     47  C   UNL     1       1.547   8.850 -10.148  1.00  0.00     0.049 A 
ATOM     48  H   UNL     1       3.177   8.178 -11.259  1.00  0.00     0.167 HD
ATOM     49  C   UNL     1       6.756   6.601 -13.286  1.00  0.00     0.037 A 
ATOM     50  C   UNL     1       1.601  10.196 -10.139  1.00  0.00     0.037 A 
ATOM     51  C   UNL     1       6.853   8.033 -13.393  1.00  0.00     0.049 A 
ATOM     52  C   UNL     1       2.737  10.886 -10.848  1.00  0.00     0.074 A 
ATOM     53  C   UNL     1       7.811   8.784 -14.050  1.00  0.00     0.029 A 
ATOM     54  N   UNL     1       5.951   8.929 -12.838  1.00  0.00    -0.354 N 
ATOM     55  N   UNL     1       3.751  10.356 -11.492  1.00  0.00    -0.248 NA
ATOM     56  C   UNL     1       2.738  12.355 -10.833  1.00  0.00     0.031 C 
ATOM     57  C   UNL     1       7.509  10.136 -13.862  1.00  0.00     0.029 A 
ATOM     58  C   UNL     1       6.333  10.226 -13.133  1.00  0.00     0.049 A 
ATOM     59  H   UNL     1       5.157   8.680 -12.313  1.00  0.00     0.167 HD
ATOM     60  C   UNL     1       4.482  11.427 -11.997  1.00  0.00     0.074 A 
ATOM     61  C   UNL     1       3.796  12.633 -11.582  1.00  0.00     0.031 C 
ATOM     62  C   UNL     1       5.616  11.412 -12.740  1.00  0.00     0.037 A 
BRANCH  49  63
ATOM     63  C   UNL     1       7.825   5.758 -13.928  1.00  0.00     0.058 A 
ATOM     64  C   UNL     1       7.559   4.971 -15.060  1.00  0.00     0.135 A 
ATOM     65  C   UNL     1       9.137   5.761 -13.427  1.00  0.00     0.135 A 
ATOM     66  F   UNL     1       6.318   4.916 -15.570  1.00  0.00    -0.206 F 
ATOM     67  C   UNL     1       8.547   4.194 -15.654  1.00  0.00     0.059 A 
ATOM     68  C   UNL     1      10.149   5.016 -14.025  1.00  0.00     0.059 A 
ATOM     69  F   UNL     1       9.447   6.494 -12.346  1.00  0.00    -0.206 F 
ATOM     70  C   UNL     1       9.840   4.224 -15.130  1.00  0.00     0.060 A 
BRANCH  70  71
ATOM     71  S   UNL     1      11.111   3.217 -15.922  1.00  0.00     0.124 S 
ATOM     72  O   UNL     1      10.713   1.873 -15.515  1.00  0.00    -0.237 OA
ATOM     73  O   UNL     1      10.923   3.532 -17.335  1.00  0.00    -0.237 OA
ATOM     74  O   UNL     1      12.352   3.709 -15.333  1.00  0.00    -0.744 OA
ENDBRANCH  70  71
ENDBRANCH  49  63
BRANCH  50  75
ATOM     75  C   UNL     1       0.538  10.986  -9.459  1.00  0.00     0.058 A 
ATOM     76  C   UNL     1      -0.367  11.759 -10.202  1.00  0.00     0.135 A 
ATOM     77  C   UNL     1       0.407  10.993  -8.062  1.00  0.00     0.135 A 
ATOM     78  F   UNL     1      -0.281  11.789 -11.541  1.00  0.00    -0.206 F 
ATOM     79  C   UNL     1      -1.344  12.534  -9.586  1.00  0.00     0.059 A 
ATOM     80  C   UNL     1      -0.580  11.738  -7.423  1.00  0.00     0.059 A 
ATOM     81  F   UNL     1       1.235  10.256  -7.305  1.00  0.00    -0.206 F 
ATOM     82  C   UNL     1      -1.441  12.518  -8.194  1.00  0.00     0.060 A 
BRANCH  82  83
ATOM     83  S   UNL     1      -2.729  13.510  -7.406  1.00  0.00     0.124 S 
ATOM     84  O   UNL     1      -2.210  14.861  -7.587  1.00  0.00    -0.237 OA
ATOM     85  O   UNL     1      -3.907  13.166  -8.196  1.00  0.00    -0.237 OA
ATOM     86  O   UNL     1      -2.739  13.016  -6.032  1.00  0.00    -0.744 OA
ENDBRANCH  82  83
ENDBRANCH  50  75
BRANCH  62  87
ATOM     87  C   UNL     1       6.154  12.732 -13.220  1.00  0.00     0.058 A 
ATOM     88  C   UNL     1       6.799  13.629 -12.357  1.00  0.00     0.135 A 
ATOM     89  C   UNL     1       6.091  13.059 -14.585  1.00  0.00     0.135 A 
ATOM     90  F   UNL     1       6.880  13.366 -11.044  1.00  0.00    -0.206 F 
ATOM     91  C   UNL     1       7.354  14.815 -12.829  1.00  0.00     0.059 A 
ATOM     92  C   UNL     1       6.664  14.224 -15.082  1.00  0.00     0.059 A 
ATOM     93  F   UNL     1       5.493  12.228 -15.453  1.00  0.00    -0.206 F 
ATOM     94  C   UNL     1       7.287  15.100 -14.195  1.00  0.00     0.060 A 
BRANCH  94  95
ATOM     95  S   UNL     1       8.064  16.612 -14.802  1.00  0.00     0.124 S 
ATOM     96  O   UNL     1       7.138  17.632 -14.322  1.00  0.00    -0.237 OA
ATOM     97  O   UNL     1       9.367  16.579 -14.145  1.00  0.00    -0.237 OA
ATOM     98  O   UNL     1       8.094  16.422 -16.249  1.00  0.00    -0.744 OA
ENDBRANCH  94  95
ENDBRANCH  62  87
ENDBRANCH  36  37
ENDBRANCH  28  31
ENDBRANCH  26  27
ENDBRANCH  25  26
ENDBRANCH   1  25
TORSDOF 14
