REMARK SMILES COc1cc([C@H]2[NH2+]CCC3=c4ccccc4=N[C@@H]32)ccc1OCC(=O)NCCCNC(=O)c1ccc(-c2c3nc(c(-c4c(F)cc(S(=O)(=O)[O-])cc4F)c4ccc([nH]4)c(-c4c(F)cc(S(=O)(=O)[O-])cc4F)c4nc(c(-c5c(F)cc(S(=O)(=O)[O-])cc5F)c5ccc2[nH]5)C=C4)C=C3)cc1
REMARK SMILES IDX 28 1 27 2 26 3 24 4 25 5 23 7 22 8 21 9 3 10 4 11 5 12 20 13
REMARK SMILES IDX 19 14 2 15 1 16 6 17 7 18 18 19 8 20 10 23 17 24 9 25 11 26
REMARK SMILES IDX 16 27 12 28 15 29 13 30 14 31 29 32 30 33 31 34 32 36 33 37
REMARK SMILES IDX 34 38 98 39 35 40 97 41 36 42 37 43 38 44 91 45 39 46 96 47
REMARK SMILES IDX 90 48 92 49 40 50 95 51 89 52 88 53 41 55 75 56 54 57 74 58
REMARK SMILES IDX 55 59 58 60 73 61 93 62 56 63 57 64 72 66 94 67 59 68 42 69
REMARK SMILES IDX 43 70 52 71 44 72 45 73 51 74 53 75 46 76 47 77 48 78 49 79
REMARK SMILES IDX 50 80 76 81 77 82 86 83 78 84 79 85 85 86 87 87 80 88 81 89
REMARK SMILES IDX 82 90 83 91 84 92 60 93 61 94 70 95 62 96 63 97 69 98 71 99
REMARK SMILES IDX 64 100 65 101 66 102 67 103 68 104
REMARK H PARENT 26 6 7 21 7 22 30 35 92 54 58 65
REMARK Flexibility Score: inf
ROOT
ATOM      1  C   UNL     1       0.619  11.799   5.014  1.00  0.00     0.042 C 
ENDROOT
BRANCH   1   2
ATOM      2  C   UNL     1       1.316  11.662   6.364  1.00  0.00     0.117 C 
BRANCH   2   3
ATOM      3  N   UNL     1       0.583  10.837   7.305  1.00  0.00    -0.353 N 
ATOM      4  C   UNL     1       0.952   9.674   7.915  1.00  0.00     0.257 C 
ATOM      5  O   UNL     1       0.234   9.262   8.830  1.00  0.00    -0.271 OA
ATOM      6  H   UNL     1      -0.316  11.166   7.539  1.00  0.00     0.163 HD
BRANCH   4   7
ATOM      7  C   UNL     1       2.259   8.962   7.539  1.00  0.00     0.329 C 
BRANCH   7   8
ATOM      8  O   UNL     1       2.560   8.752   6.179  1.00  0.00    -0.480 OA
BRANCH   8   9
ATOM      9  C   UNL     1       1.782   7.933   5.417  1.00  0.00     0.161 A 
ATOM     10  C   UNL     1       1.013   6.825   5.782  1.00  0.00     0.161 A 
ATOM     11  C   UNL     1       0.314   6.079   4.800  1.00  0.00     0.060 A 
ATOM     12  C   UNL     1       0.328   6.458   3.442  1.00  0.00     0.016 A 
ATOM     13  C   UNL     1       1.826   8.289   4.077  1.00  0.00     0.051 A 
ATOM     14  C   UNL     1       1.082   7.603   3.124  1.00  0.00     0.014 A 
BRANCH  10  15
ATOM     15  O   UNL     1       1.019   6.381   7.077  1.00  0.00    -0.493 OA
ATOM     16  C   UNL     1      -0.266   6.503   7.688  1.00  0.00     0.278 C 
ENDBRANCH  10  15
BRANCH  12  17
ATOM     17  C   UNL     1      -0.515   5.677   2.385  1.00  0.00     0.243 C 
ATOM     18  N   UNL     1      -1.954   6.005   2.599  1.00  0.00    -0.338 N 
ATOM     19  C   UNL     1      -0.075   5.950   0.911  1.00  0.00     0.196 C 
ATOM     20  C   UNL     1      -2.330   7.277   1.960  1.00  0.00     0.265 C 
ATOM     21  H   UNL     1      -2.131   6.075   3.602  1.00  0.00     0.346 HD
ATOM     22  H   UNL     1      -2.513   5.263   2.178  1.00  0.00     0.346 HD
ATOM     23  C   UNL     1      -1.043   6.538  -0.062  1.00  0.00    -0.025 C 
ATOM     24  N   UNL     1       0.718   4.943   0.143  1.00  0.00    -0.270 NA
ATOM     25  C   UNL     1      -2.283   7.197   0.425  1.00  0.00     0.095 C 
ATOM     26  C   UNL     1      -0.436   6.525  -1.244  1.00  0.00     0.001 A 
ATOM     27  C   UNL     1       0.624   5.499  -1.042  1.00  0.00     0.066 A 
ATOM     28  C   UNL     1      -0.579   7.245  -2.462  1.00  0.00     0.010 A 
ATOM     29  C   UNL     1       1.482   5.224  -2.214  1.00  0.00     0.028 A 
ATOM     30  C   UNL     1       0.336   7.040  -3.425  1.00  0.00     0.001 A 
ATOM     31  C   UNL     1       1.355   6.008  -3.300  1.00  0.00     0.002 A 
ENDBRANCH  12  17
ENDBRANCH   8   9
ENDBRANCH   7   8
ENDBRANCH   4   7
ENDBRANCH   2   3
ENDBRANCH   1   2
BRANCH   1  32
ATOM     32  C   UNL     1      -0.822  12.303   5.062  1.00  0.00     0.118 C 
BRANCH  32  33
ATOM     33  N   UNL     1      -0.966  13.590   5.724  1.00  0.00    -0.352 N 
ATOM     34  C   UNL     1      -1.426  14.800   5.265  1.00  0.00     0.251 C 
ATOM     35  H   UNL     1      -0.684  13.594   6.668  1.00  0.00     0.163 HD
ATOM     36  O   UNL     1      -1.311  15.787   5.987  1.00  0.00    -0.269 OA
BRANCH  34  37
ATOM     37  C   UNL     1      -2.028  14.941   3.918  1.00  0.00     0.039 A 
ATOM     38  C   UNL     1      -1.746  16.097   3.182  1.00  0.00     0.014 A 
ATOM     39  C   UNL     1      -2.901  13.986   3.391  1.00  0.00     0.014 A 
ATOM     40  C   UNL     1      -2.285  16.261   1.903  1.00  0.00     0.010 A 
ATOM     41  C   UNL     1      -3.368  14.110   2.081  1.00  0.00     0.010 A 
ATOM     42  C   UNL     1      -3.072  15.252   1.323  1.00  0.00    -0.014 A 
BRANCH  42  43
ATOM     43  C   UNL     1      -3.579  15.389  -0.069  1.00  0.00     0.031 A 
ATOM     44  C   UNL     1      -5.059  15.437  -0.350  1.00  0.00     0.074 A 
ATOM     45  C   UNL     1      -2.701  15.435  -1.092  1.00  0.00     0.049 A 
ATOM     46  N   UNL     1      -5.678  15.561  -1.497  1.00  0.00    -0.248 NA
ATOM     47  C   UNL     1      -5.963  15.301   0.803  1.00  0.00     0.031 C 
ATOM     48  C   UNL     1      -1.246  15.329  -0.961  1.00  0.00     0.029 A 
ATOM     49  N   UNL     1      -2.899  15.584  -2.442  1.00  0.00    -0.354 N 
ATOM     50  C   UNL     1      -7.037  15.509  -1.206  1.00  0.00     0.074 A 
ATOM     51  C   UNL     1      -7.152  15.280   0.218  1.00  0.00     0.031 C 
ATOM     52  C   UNL     1      -0.682  15.456  -2.173  1.00  0.00     0.029 A 
ATOM     53  C   UNL     1      -1.734  15.619  -3.172  1.00  0.00     0.049 A 
ATOM     54  H   UNL     1      -3.792  15.658  -2.850  1.00  0.00     0.167 HD
ATOM     55  C   UNL     1      -8.093  15.666  -2.041  1.00  0.00     0.037 A 
ATOM     56  C   UNL     1      -1.531  15.773  -4.495  1.00  0.00     0.037 A 
ATOM     57  C   UNL     1      -7.972  15.919  -3.454  1.00  0.00     0.049 A 
ATOM     58  C   UNL     1      -2.716  15.976  -5.399  1.00  0.00     0.074 A 
ATOM     59  C   UNL     1      -8.978  16.149  -4.377  1.00  0.00     0.029 A 
ATOM     60  N   UNL     1      -6.773  15.978  -4.150  1.00  0.00    -0.354 N 
ATOM     61  N   UNL     1      -3.992  15.993  -5.093  1.00  0.00    -0.248 NA
ATOM     62  C   UNL     1      -2.435  16.197  -6.823  1.00  0.00     0.031 C 
ATOM     63  C   UNL     1      -8.391  16.303  -5.638  1.00  0.00     0.029 A 
ATOM     64  C   UNL     1      -7.015  16.224  -5.492  1.00  0.00     0.049 A 
ATOM     65  H   UNL     1      -5.882  15.861  -3.750  1.00  0.00     0.167 HD
ATOM     66  C   UNL     1      -4.664  16.259  -6.282  1.00  0.00     0.074 A 
ATOM     67  C   UNL     1      -3.651  16.407  -7.307  1.00  0.00     0.031 C 
ATOM     68  C   UNL     1      -5.997  16.373  -6.503  1.00  0.00     0.037 A 
BRANCH  55  69
ATOM     69  C   UNL     1      -9.474  15.578  -1.447  1.00  0.00     0.058 A 
ATOM     70  C   UNL     1      -9.969  16.567  -0.581  1.00  0.00     0.135 A 
ATOM     71  C   UNL     1     -10.328  14.511  -1.773  1.00  0.00     0.135 A 
ATOM     72  F   UNL     1      -9.193  17.602  -0.223  1.00  0.00    -0.206 F 
ATOM     73  C   UNL     1     -11.247  16.486  -0.036  1.00  0.00     0.059 A 
ATOM     74  C   UNL     1     -11.621  14.425  -1.264  1.00  0.00     0.059 A 
ATOM     75  F   UNL     1      -9.909  13.537  -2.597  1.00  0.00    -0.206 F 
ATOM     76  C   UNL     1     -12.065  15.410  -0.383  1.00  0.00     0.060 A 
BRANCH  76  77
ATOM     77  S   UNL     1     -13.721  15.323   0.332  1.00  0.00     0.124 S 
ATOM     78  O   UNL     1     -13.422  14.954   1.712  1.00  0.00    -0.237 OA
ATOM     79  O   UNL     1     -14.220  16.679   0.131  1.00  0.00    -0.237 OA
ATOM     80  O   UNL     1     -14.380  14.291  -0.464  1.00  0.00    -0.744 OA
ENDBRANCH  76  77
ENDBRANCH  55  69
BRANCH  56  81
ATOM     81  C   UNL     1      -0.145  15.785  -5.037  1.00  0.00     0.058 A 
ATOM     82  C   UNL     1       0.430  16.966  -5.529  1.00  0.00     0.135 A 
ATOM     83  C   UNL     1       0.637  14.620  -5.060  1.00  0.00     0.135 A 
ATOM     84  F   UNL     1      -0.279  18.105  -5.533  1.00  0.00    -0.206 F 
ATOM     85  C   UNL     1       1.722  16.990  -6.042  1.00  0.00     0.059 A 
ATOM     86  C   UNL     1       1.942  14.624  -5.542  1.00  0.00     0.059 A 
ATOM     87  F   UNL     1       0.142  13.467  -4.583  1.00  0.00    -0.206 F 
ATOM     88  C   UNL     1       2.472  15.813  -6.042  1.00  0.00     0.060 A 
BRANCH  88  89
ATOM     89  S   UNL     1       4.167  15.864  -6.665  1.00  0.00     0.124 S 
ATOM     90  O   UNL     1       3.947  15.976  -8.102  1.00  0.00    -0.237 OA
ATOM     91  O   UNL     1       4.700  17.050  -6.004  1.00  0.00    -0.237 OA
ATOM     92  O   UNL     1       4.728  14.595  -6.208  1.00  0.00    -0.744 OA
ENDBRANCH  88  89
ENDBRANCH  56  81
BRANCH  68  93
ATOM     93  C   UNL     1      -6.437  16.716  -7.901  1.00  0.00     0.058 A 
ATOM     94  C   UNL     1      -6.339  15.795  -8.956  1.00  0.00     0.135 A 
ATOM     95  C   UNL     1      -6.985  17.978  -8.181  1.00  0.00     0.135 A 
ATOM     96  F   UNL     1      -5.819  14.576  -8.744  1.00  0.00    -0.206 F 
ATOM     97  C   UNL     1      -6.732  16.128 -10.248  1.00  0.00     0.059 A 
ATOM     98  C   UNL     1      -7.414  18.321  -9.459  1.00  0.00     0.059 A 
ATOM     99  F   UNL     1      -7.115  18.891  -7.205  1.00  0.00    -0.206 F 
ATOM    100  C   UNL     1      -7.265  17.396 -10.491  1.00  0.00     0.060 A 
BRANCH 100 101
ATOM    101  S   UNL     1      -7.774  17.816 -12.171  1.00  0.00     0.124 S 
ATOM    102  O   UNL     1      -6.486  18.023 -12.824  1.00  0.00    -0.237 OA
ATOM    103  O   UNL     1      -8.509  16.624 -12.582  1.00  0.00    -0.237 OA
ATOM    104  O   UNL     1      -8.587  19.015 -11.989  1.00  0.00    -0.744 OA
ENDBRANCH 100 101
ENDBRANCH  68  93
ENDBRANCH  42  43
ENDBRANCH  34  37
ENDBRANCH  32  33
ENDBRANCH   1  32
TORSDOF 17
