REMARK SMILES CC1C[NH+]([C@H]2COC[C@@H]2C(=O)NCCCNC(=O)c2ccc(-c3c4nc(c(-c5c(F)cc(S(=O)(=O)[O-])cc5F)c5ccc([nH]5)c(-c5c(F)cc(S(=O)(=O)[O-])cc5F)c5nc(c(-c6c(F)cc(S(=O)(=O)[O-])cc6F)c6ccc3[nH]6)C=C5)C=C4)cc2)C1
REMARK SMILES IDX 15 1 14 2 13 3 12 4 10 5 11 6 9 8 5 9 6 10 7 11 8 12 4 13
REMARK SMILES IDX 1 14 2 15 3 16 85 17 16 19 17 20 18 22 19 23 20 24 84 25
REMARK SMILES IDX 21 26 83 27 22 28 23 29 24 30 77 31 25 32 82 33 76 34 78 35
REMARK SMILES IDX 26 36 81 37 75 38 74 39 27 41 61 42 40 43 60 44 41 45 44 46
REMARK SMILES IDX 59 47 79 48 42 49 43 50 58 52 80 53 45 54 28 55 29 56 38 57
REMARK SMILES IDX 30 58 31 59 37 60 39 61 32 62 33 63 34 64 35 65 36 66 62 67
REMARK SMILES IDX 63 68 72 69 64 70 65 71 71 72 73 73 66 74 67 75 68 76 69 77
REMARK SMILES IDX 70 78 46 79 47 80 56 81 48 82 49 83 55 84 57 85 50 86 51 87
REMARK SMILES IDX 52 88 53 89 54 90
REMARK H PARENT 12 7 4 18 16 21 78 40 44 51
REMARK Flexibility Score: inf
ROOT
ATOM      1  C   UNL     1      -3.674  -1.246   0.332  1.00  0.00     0.118 C 
ENDROOT
BRANCH   1   2
ATOM      2  C   UNL     1      -3.313  -2.167  -0.833  1.00  0.00     0.042 C 
BRANCH   2   3
ATOM      3  C   UNL     1      -3.711  -1.657  -2.215  1.00  0.00     0.117 C 
BRANCH   3   4
ATOM      4  N   UNL     1      -3.104  -0.376  -2.535  1.00  0.00    -0.356 N 
ATOM      5  C   UNL     1      -2.191  -0.053  -3.496  1.00  0.00     0.231 C 
ATOM      6  O   UNL     1      -1.856   1.128  -3.586  1.00  0.00    -0.274 OA
ATOM      7  H   UNL     1      -3.397   0.375  -1.971  1.00  0.00     0.163 HD
BRANCH   5   8
ATOM      8  C   UNL     1      -1.624  -1.145  -4.392  1.00  0.00     0.164 C 
ATOM      9  C   UNL     1      -0.502  -1.895  -3.679  1.00  0.00     0.225 C 
ATOM     10  C   UNL     1       0.710  -1.020  -4.034  1.00  0.00     0.226 C 
ATOM     11  O   UNL     1       0.478  -0.472  -5.339  1.00  0.00    -0.374 OA
ATOM     12  C   UNL     1      -0.931  -0.552  -5.611  1.00  0.00     0.180 C 
BRANCH   9  13
ATOM     13  N   UNL     1      -0.509  -3.322  -4.076  1.00  0.00    -0.329 N 
ATOM     14  C   UNL     1       2.202  -5.178  -5.087  1.00  0.00     0.020 C 
ATOM     15  C   UNL     1       0.769  -4.870  -4.704  1.00  0.00     0.096 C 
ATOM     16  C   UNL     1       0.545  -4.099  -3.380  1.00  0.00     0.271 C 
ATOM     17  C   UNL     1       0.135  -3.628  -5.374  1.00  0.00     0.271 C 
ATOM     18  H   UNL     1      -1.502  -3.523  -3.955  1.00  0.00     0.348 HD
ENDBRANCH   9  13
ENDBRANCH   5   8
ENDBRANCH   3   4
ENDBRANCH   2   3
ENDBRANCH   1   2
BRANCH   1  19
ATOM     19  N   UNL     1      -5.104  -1.018   0.465  1.00  0.00    -0.352 N 
ATOM     20  C   UNL     1      -5.930  -1.132   1.556  1.00  0.00     0.251 C 
ATOM     21  H   UNL     1      -5.555  -0.735  -0.364  1.00  0.00     0.163 HD
ATOM     22  O   UNL     1      -7.144  -1.006   1.392  1.00  0.00    -0.269 OA
BRANCH  20  23
ATOM     23  C   UNL     1      -5.400  -1.427   2.909  1.00  0.00     0.039 A 
ATOM     24  C   UNL     1      -6.136  -2.282   3.737  1.00  0.00     0.014 A 
ATOM     25  C   UNL     1      -4.225  -0.845   3.395  1.00  0.00     0.014 A 
ATOM     26  C   UNL     1      -5.669  -2.596   5.017  1.00  0.00     0.010 A 
ATOM     27  C   UNL     1      -3.723  -1.214   4.646  1.00  0.00     0.010 A 
ATOM     28  C   UNL     1      -4.440  -2.091   5.473  1.00  0.00    -0.014 A 
BRANCH  28  29
ATOM     29  C   UNL     1      -3.903  -2.486   6.804  1.00  0.00     0.031 A 
ATOM     30  C   UNL     1      -3.725  -1.466   7.898  1.00  0.00     0.074 A 
ATOM     31  C   UNL     1      -3.541  -3.766   7.019  1.00  0.00     0.049 A 
ATOM     32  N   UNL     1      -3.270  -1.631   9.114  1.00  0.00    -0.248 NA
ATOM     33  C   UNL     1      -4.081  -0.075   7.577  1.00  0.00     0.031 C 
ATOM     34  C   UNL     1      -3.607  -4.841   6.026  1.00  0.00     0.029 A 
ATOM     35  N   UNL     1      -3.044  -4.383   8.140  1.00  0.00    -0.354 N 
ATOM     36  C   UNL     1      -3.276  -0.370   9.700  1.00  0.00     0.074 A 
ATOM     37  C   UNL     1      -3.732   0.559   8.688  1.00  0.00     0.031 C 
ATOM     38  C   UNL     1      -3.196  -5.988   6.590  1.00  0.00     0.029 A 
ATOM     39  C   UNL     1      -2.811  -5.729   7.973  1.00  0.00     0.049 A 
ATOM     40  H   UNL     1      -2.871  -3.908   8.984  1.00  0.00     0.167 HD
ATOM     41  C   UNL     1      -2.955  -0.020  10.969  1.00  0.00     0.037 A 
ATOM     42  C   UNL     1      -2.345  -6.652   8.837  1.00  0.00     0.037 A 
ATOM     43  C   UNL     1      -2.525  -0.949  11.983  1.00  0.00     0.049 A 
ATOM     44  C   UNL     1      -2.022  -6.245  10.248  1.00  0.00     0.074 A 
ATOM     45  C   UNL     1      -2.231  -0.698  13.313  1.00  0.00     0.029 A 
ATOM     46  N   UNL     1      -2.329  -2.307  11.783  1.00  0.00    -0.354 N 
ATOM     47  N   UNL     1      -2.097  -5.058  10.801  1.00  0.00    -0.248 NA
ATOM     48  C   UNL     1      -1.567  -7.305  11.157  1.00  0.00     0.031 C 
ATOM     49  C   UNL     1      -1.823  -1.898  13.908  1.00  0.00     0.029 A 
ATOM     50  C   UNL     1      -1.906  -2.905  12.960  1.00  0.00     0.049 A 
ATOM     51  H   UNL     1      -2.470  -2.778  10.930  1.00  0.00     0.167 HD
ATOM     52  C   UNL     1      -1.722  -5.233  12.129  1.00  0.00     0.074 A 
ATOM     53  C   UNL     1      -1.436  -6.643  12.298  1.00  0.00     0.031 C 
ATOM     54  C   UNL     1      -1.625  -4.310  13.117  1.00  0.00     0.037 A 
BRANCH  41  55
ATOM     55  C   UNL     1      -3.064   1.435  11.338  1.00  0.00     0.058 A 
ATOM     56  C   UNL     1      -4.311   2.068  11.472  1.00  0.00     0.135 A 
ATOM     57  C   UNL     1      -1.914   2.198  11.596  1.00  0.00     0.135 A 
ATOM     58  F   UNL     1      -5.443   1.390  11.225  1.00  0.00    -0.206 F 
ATOM     59  C   UNL     1      -4.413   3.412  11.817  1.00  0.00     0.059 A 
ATOM     60  C   UNL     1      -1.993   3.538  11.969  1.00  0.00     0.059 A 
ATOM     61  F   UNL     1      -0.696   1.644  11.486  1.00  0.00    -0.206 F 
ATOM     62  C   UNL     1      -3.247   4.139  12.061  1.00  0.00     0.060 A 
BRANCH  62  63
ATOM     63  S   UNL     1      -3.393   5.883  12.508  1.00  0.00     0.124 S 
ATOM     64  O   UNL     1      -3.737   6.484  11.222  1.00  0.00    -0.237 OA
ATOM     65  O   UNL     1      -4.465   5.862  13.501  1.00  0.00    -0.237 OA
ATOM     66  O   UNL     1      -2.072   6.214  13.024  1.00  0.00    -0.744 OA
ENDBRANCH  62  63
ENDBRANCH  41  55
BRANCH  42  67
ATOM     67  C   UNL     1      -2.192  -8.064   8.399  1.00  0.00     0.058 A 
ATOM     68  C   UNL     1      -3.063  -9.061   8.862  1.00  0.00     0.135 A 
ATOM     69  C   UNL     1      -1.185  -8.442   7.498  1.00  0.00     0.135 A 
ATOM     70  F   UNL     1      -4.039  -8.748   9.729  1.00  0.00    -0.206 F 
ATOM     71  C   UNL     1      -2.933 -10.387   8.461  1.00  0.00     0.059 A 
ATOM     72  C   UNL     1      -1.049  -9.757   7.064  1.00  0.00     0.059 A 
ATOM     73  F   UNL     1      -0.337  -7.522   7.012  1.00  0.00    -0.206 F 
ATOM     74  C   UNL     1      -1.923 -10.725   7.559  1.00  0.00     0.060 A 
BRANCH  74  75
ATOM     75  S   UNL     1      -1.794 -12.438   7.002  1.00  0.00     0.124 S 
ATOM     76  O   UNL     1      -1.201 -13.082   8.168  1.00  0.00    -0.237 OA
ATOM     77  O   UNL     1      -3.187 -12.776   6.724  1.00  0.00    -0.237 OA
ATOM     78  O   UNL     1      -0.935 -12.342   5.826  1.00  0.00    -0.744 OA
ENDBRANCH  74  75
ENDBRANCH  42  67
BRANCH  54  79
ATOM     79  C   UNL     1      -1.223  -4.804  14.480  1.00  0.00     0.058 A 
ATOM     80  C   UNL     1       0.091  -5.213  14.759  1.00  0.00     0.135 A 
ATOM     81  C   UNL     1      -2.160  -4.851  15.524  1.00  0.00     0.135 A 
ATOM     82  F   UNL     1       1.024  -5.191  13.795  1.00  0.00    -0.206 F 
ATOM     83  C   UNL     1       0.452  -5.687  16.016  1.00  0.00     0.059 A 
ATOM     84  C   UNL     1      -1.815  -5.297  16.796  1.00  0.00     0.059 A 
ATOM     85  F   UNL     1      -3.427  -4.460  15.314  1.00  0.00    -0.206 F 
ATOM     86  C   UNL     1      -0.510  -5.730  17.027  1.00  0.00     0.060 A 
BRANCH  86  87
ATOM     87  S   UNL     1      -0.031  -6.344  18.656  1.00  0.00     0.124 S 
ATOM     88  O   UNL     1       0.005  -7.785  18.427  1.00  0.00    -0.237 OA
ATOM     89  O   UNL     1       1.264  -5.703  18.867  1.00  0.00    -0.237 OA
ATOM     90  O   UNL     1      -1.105  -5.872  19.525  1.00  0.00    -0.744 OA
ENDBRANCH  86  87
ENDBRANCH  54  79
ENDBRANCH  28  29
ENDBRANCH  20  23
ENDBRANCH   1  19
TORSDOF 14
