REMARK SMILES C=CCN(CC(=O)NCCCNC(=O)c1ccc(-c2c3nc(c(-c4c(F)cc(S(=O)(=O)[O-])cc4F)c4ccc([nH]4)c(-c4c(F)cc(S(=O)(=O)[O-])cc4F)c4nc(c(-c5c(F)cc(S(=O)(=O)[O-])cc5F)c5ccc2[nH]5)C=C4)C=C3)cc1)C(=O)N1CCC[C@@H]1C(=O)OCC
REMARK SMILES IDX 6 1 7 2 8 3 5 5 4 6 3 7 2 8 1 9 81 10 82 11 83 12 84 13
REMARK SMILES IDX 87 14 85 15 86 16 88 17 89 18 90 19 91 20 92 21 9 22 10 23
REMARK SMILES IDX 11 24 12 25 13 26 14 28 15 29 16 30 80 31 17 32 79 33 18 34
REMARK SMILES IDX 19 35 20 36 73 37 21 38 78 39 72 40 74 41 22 42 77 43 71 44
REMARK SMILES IDX 70 45 23 47 57 48 36 49 56 50 37 51 40 52 55 53 75 54 38 55
REMARK SMILES IDX 39 56 54 58 76 59 41 60 24 61 25 62 34 63 26 64 27 65 33 66
REMARK SMILES IDX 35 67 28 68 29 69 30 70 31 71 32 72 58 73 59 74 68 75 60 76
REMARK SMILES IDX 61 77 67 78 69 79 62 80 63 81 64 82 65 83 66 84 42 85 43 86
REMARK SMILES IDX 52 87 44 88 45 89 51 90 53 91 46 92 47 93 48 94 49 95 50 96
REMARK H PARENT 8 4 12 27 74 46 40 57
REMARK Flexibility Score: inf
ROOT
ATOM      1  C   UNL     1      -3.846   3.231  -0.235  1.00  0.00     0.239 C 
ATOM      2  O   UNL     1      -4.378   4.347  -0.280  1.00  0.00    -0.273 OA
ATOM      3  N   UNL     1      -4.686   2.156  -0.248  1.00  0.00    -0.354 N 
ATOM      4  H   UNL     1      -5.605   2.340   0.052  1.00  0.00     0.163 HD
ENDROOT
BRANCH   1   5
ATOM      5  C   UNL     1      -2.313   3.103  -0.297  1.00  0.00     0.221 C 
BRANCH   5   6
ATOM      6  N   UNL     1      -1.694   2.090   0.565  1.00  0.00    -0.312 N 
BRANCH   6   7
ATOM      7  C   UNL     1      -1.081   0.934  -0.083  1.00  0.00     0.149 C 
BRANCH   7   8
ATOM      8  C   UNL     1       0.393   1.154  -0.270  1.00  0.00    -0.013 C 
ATOM      9  C   UNL     1       1.315   0.245   0.076  1.00  0.00     0.006 C 
ENDBRANCH   7   8
ENDBRANCH   6   7
BRANCH   6  10
ATOM     10  C   UNL     1      -1.439   2.260   1.921  1.00  0.00     0.321 C 
ATOM     11  O   UNL     1      -0.861   1.408   2.594  1.00  0.00    -0.248 OA
BRANCH  10  12
ATOM     12  N   UNL     1      -1.717   3.500   2.453  1.00  0.00    -0.311 N 
ATOM     13  C   UNL     1      -3.052   3.878   2.865  1.00  0.00     0.122 C 
ATOM     14  C   UNL     1      -0.785   4.034   3.451  1.00  0.00     0.197 C 
ATOM     15  C   UNL     1      -2.861   5.308   3.317  1.00  0.00     0.024 C 
ATOM     16  C   UNL     1      -1.506   5.269   4.027  1.00  0.00     0.039 C 
BRANCH  14  17
ATOM     17  C   UNL     1       0.602   4.424   2.942  1.00  0.00     0.328 C 
ATOM     18  O   UNL     1       1.588   4.475   3.671  1.00  0.00    -0.250 OA
BRANCH  17  19
ATOM     19  O   UNL     1       0.578   4.854   1.649  1.00  0.00    -0.464 OA
BRANCH  19  20
ATOM     20  C   UNL     1       1.845   5.208   1.074  1.00  0.00     0.229 C 
ATOM     21  C   UNL     1       2.449   6.470   1.671  1.00  0.00     0.049 C 
ENDBRANCH  19  20
ENDBRANCH  17  19
ENDBRANCH  14  17
ENDBRANCH  10  12
ENDBRANCH   6  10
ENDBRANCH   5   6
ENDBRANCH   1   5
BRANCH   3  22
ATOM     22  C   UNL     1      -4.428   0.786  -0.638  1.00  0.00     0.117 C 
BRANCH  22  23
ATOM     23  C   UNL     1      -4.271  -0.185   0.528  1.00  0.00     0.042 C 
BRANCH  23  24
ATOM     24  C   UNL     1      -5.534  -0.437   1.347  1.00  0.00     0.118 C 
BRANCH  24  25
ATOM     25  N   UNL     1      -6.638  -0.947   0.550  1.00  0.00    -0.352 N 
ATOM     26  C   UNL     1      -7.340  -2.124   0.607  1.00  0.00     0.251 C 
ATOM     27  H   UNL     1      -6.936  -0.336  -0.162  1.00  0.00     0.163 HD
ATOM     28  O   UNL     1      -8.115  -2.378  -0.315  1.00  0.00    -0.269 OA
BRANCH  26  29
ATOM     29  C   UNL     1      -7.195  -3.087   1.726  1.00  0.00     0.039 A 
ATOM     30  C   UNL     1      -7.336  -4.452   1.445  1.00  0.00     0.014 A 
ATOM     31  C   UNL     1      -7.016  -2.678   3.050  1.00  0.00     0.014 A 
ATOM     32  C   UNL     1      -7.259  -5.397   2.472  1.00  0.00     0.010 A 
ATOM     33  C   UNL     1      -6.866  -3.626   4.066  1.00  0.00     0.010 A 
ATOM     34  C   UNL     1      -7.000  -4.995   3.792  1.00  0.00    -0.014 A 
BRANCH  34  35
ATOM     35  C   UNL     1      -6.890  -5.993   4.889  1.00  0.00     0.031 A 
ATOM     36  C   UNL     1      -7.897  -6.011   6.009  1.00  0.00     0.074 A 
ATOM     37  C   UNL     1      -5.860  -6.863   4.898  1.00  0.00     0.049 A 
ATOM     38  N   UNL     1      -7.942  -6.780   7.068  1.00  0.00    -0.248 NA
ATOM     39  C   UNL     1      -8.982  -5.020   5.944  1.00  0.00     0.031 C 
ATOM     40  C   UNL     1      -4.795  -6.922   3.895  1.00  0.00     0.029 A 
ATOM     41  N   UNL     1      -5.536  -7.861   5.784  1.00  0.00    -0.354 N 
ATOM     42  C   UNL     1      -9.046  -6.357   7.800  1.00  0.00     0.074 A 
ATOM     43  C   UNL     1      -9.616  -5.233   7.088  1.00  0.00     0.031 C 
ATOM     44  C   UNL     1      -3.952  -7.919   4.206  1.00  0.00     0.029 A 
ATOM     45  C   UNL     1      -4.395  -8.549   5.446  1.00  0.00     0.049 A 
ATOM     46  H   UNL     1      -6.071  -8.064   6.585  1.00  0.00     0.167 HD
ATOM     47  C   UNL     1      -9.554  -6.871   8.947  1.00  0.00     0.037 A 
ATOM     48  C   UNL     1      -3.774  -9.573   6.065  1.00  0.00     0.037 A 
ATOM     49  C   UNL     1      -9.002  -8.008   9.638  1.00  0.00     0.049 A 
ATOM     50  C   UNL     1      -4.363 -10.136   7.329  1.00  0.00     0.074 A 
ATOM     51  C   UNL     1      -9.472  -8.633  10.780  1.00  0.00     0.029 A 
ATOM     52  N   UNL     1      -7.859  -8.692   9.250  1.00  0.00    -0.354 N 
ATOM     53  N   UNL     1      -5.438  -9.756   7.977  1.00  0.00    -0.248 NA
ATOM     54  C   UNL     1      -3.662 -11.274   7.940  1.00  0.00     0.031 C 
ATOM     55  C   UNL     1      -8.596  -9.677  11.100  1.00  0.00     0.029 A 
ATOM     56  C   UNL     1      -7.603  -9.726  10.135  1.00  0.00     0.049 A 
ATOM     57  H   UNL     1      -7.311  -8.475   8.461  1.00  0.00     0.167 HD
ATOM     58  C   UNL     1      -5.558 -10.625   9.056  1.00  0.00     0.074 A 
ATOM     59  C   UNL     1      -4.450 -11.555   8.969  1.00  0.00     0.031 C 
ATOM     60  C   UNL     1      -6.502 -10.652  10.029  1.00  0.00     0.037 A 
BRANCH  47  61
ATOM     61  C   UNL     1     -10.774  -6.207   9.524  1.00  0.00     0.058 A 
ATOM     62  C   UNL     1     -12.033  -6.319   8.910  1.00  0.00     0.135 A 
ATOM     63  C   UNL     1     -10.693  -5.469  10.716  1.00  0.00     0.135 A 
ATOM     64  F   UNL     1     -12.166  -7.002   7.762  1.00  0.00    -0.206 F 
ATOM     65  C   UNL     1     -13.158  -5.693   9.436  1.00  0.00     0.059 A 
ATOM     66  C   UNL     1     -11.811  -4.856  11.275  1.00  0.00     0.059 A 
ATOM     67  F   UNL     1      -9.516  -5.332  11.347  1.00  0.00    -0.206 F 
ATOM     68  C   UNL     1     -13.036  -4.959  10.617  1.00  0.00     0.060 A 
BRANCH  68  69
ATOM     69  S   UNL     1     -14.502  -4.140  11.280  1.00  0.00     0.124 S 
ATOM     70  O   UNL     1     -14.634  -3.003  10.375  1.00  0.00    -0.237 OA
ATOM     71  O   UNL     1     -15.525  -5.173  11.152  1.00  0.00    -0.237 OA
ATOM     72  O   UNL     1     -14.117  -3.811  12.649  1.00  0.00    -0.744 OA
ENDBRANCH  68  69
ENDBRANCH  47  61
BRANCH  48  73
ATOM     73  C   UNL     1      -2.543 -10.156   5.471  1.00  0.00     0.058 A 
ATOM     74  C   UNL     1      -2.570 -11.417   4.856  1.00  0.00     0.135 A 
ATOM     75  C   UNL     1      -1.325  -9.459   5.481  1.00  0.00     0.135 A 
ATOM     76  F   UNL     1      -3.710 -12.124   4.827  1.00  0.00    -0.206 F 
ATOM     77  C   UNL     1      -1.432 -11.972   4.282  1.00  0.00     0.059 A 
ATOM     78  C   UNL     1      -0.179  -9.983   4.893  1.00  0.00     0.059 A 
ATOM     79  F   UNL     1      -1.252  -8.242   6.042  1.00  0.00    -0.206 F 
ATOM     80  C   UNL     1      -0.240 -11.245   4.302  1.00  0.00     0.060 A 
BRANCH  80  81
ATOM     81  S   UNL     1       1.217 -11.949   3.500  1.00  0.00     0.124 S 
ATOM     82  O   UNL     1       1.619 -12.967   4.463  1.00  0.00    -0.237 OA
ATOM     83  O   UNL     1       0.668 -12.442   2.241  1.00  0.00    -0.237 OA
ATOM     84  O   UNL     1       2.116 -10.805   3.377  1.00  0.00    -0.744 OA
ENDBRANCH  80  81
ENDBRANCH  48  73
BRANCH  60  85
ATOM     85  C   UNL     1      -6.405 -11.744  11.057  1.00  0.00     0.058 A 
ATOM     86  C   UNL     1      -5.440 -11.715  12.075  1.00  0.00     0.135 A 
ATOM     87  C   UNL     1      -7.322 -12.807  11.050  1.00  0.00     0.135 A 
ATOM     88  F   UNL     1      -4.536 -10.723  12.122  1.00  0.00    -0.206 F 
ATOM     89  C   UNL     1      -5.374 -12.714  13.040  1.00  0.00     0.059 A 
ATOM     90  C   UNL     1      -7.289 -13.805  12.019  1.00  0.00     0.059 A 
ATOM     91  F   UNL     1      -8.270 -12.876  10.103  1.00  0.00    -0.206 F 
ATOM     92  C   UNL     1      -6.303 -13.756  13.004  1.00  0.00     0.060 A 
BRANCH  92  93
ATOM     93  S   UNL     1      -6.231 -15.030  14.282  1.00  0.00     0.124 S 
ATOM     94  O   UNL     1      -5.092 -15.827  13.837  1.00  0.00    -0.237 OA
ATOM     95  O   UNL     1      -6.021 -14.247  15.495  1.00  0.00    -0.237 OA
ATOM     96  O   UNL     1      -7.532 -15.684  14.183  1.00  0.00    -0.744 OA
ENDBRANCH  92  93
ENDBRANCH  60  85
ENDBRANCH  34  35
ENDBRANCH  26  29
ENDBRANCH  24  25
ENDBRANCH  23  24
ENDBRANCH  22  23
ENDBRANCH   3  22
TORSDOF 21
